data_PCOD9121572
_publ_section_title
;
Structure prediction by ZEFSAII (Michael W. Deem and Ramdas Pophale) SiO2 
 PCOD9121572
Probable space group: C 2
;
_chemical_formula_sum "Si O2"
_cell_formula_units_Z 32
_cell_length_a 27.088720
_cell_length_b 5.703805
_cell_length_c 13.596427
_cell_angle_alpha 90.000000
_cell_angle_beta 46.695672
_cell_angle_gamma 90.000000
_cell_volume 1528.772377
_symmetry_space_group_name_H-M "C 2"
_symmetry_group_IT_number 5
_symmetry_cell_setting 'monoclinic'
loop_
_space_group_symop_operation_xyz
x,y,z
-x,y,-z
1/2+x,1/2+y,z
1/2-x,1/2+y,-z
loop_
_atom_site_type_symbol
_atom_site_label
_atom_site_fract_x
_atom_site_fract_y
_atom_site_fract_z
Si Si1 0.419211 0.567290 0.369633
Si Si2 0.428502 0.217598 0.660149
Si Si3 0.935416 0.371228 0.014443
Si Si4 0.790339 0.373324 0.520845
Si Si5 0.292132 0.005766 0.295109
Si Si6 0.022536 0.867899 0.082887
Si Si7 0.467881 0.727699 0.654376
Si Si8 0.831943 0.760984 0.619735
O O1 0.352377 0.692715 0.423408
O O2 0.456022 0.410200 0.239044
O O3 0.474139 0.737466 0.342219
O O4 0.393072 0.418753 0.496495
O O5 0.500000 0.214712 0.500000
O O6 0.431130 0.471975 0.710572
O O7 0.361487 0.192545 0.683955
O O8 0.428928 0.972651 0.718110
O O9 0.866594 0.422122 0.168030
O O10 0.934647 0.111794 0.966329
O O11 0.000000 0.358022 0.000000
O O12 0.945704 0.612582 0.938693
O O13 0.772717 0.433623 0.433330
O O14 0.821491 0.565786 0.550738
O O15 0.724526 0.280392 0.670155
O O16 0.238079 0.904510 0.291360
O O17 0.000000 0.855029 0.000000
O O18 0.500000 0.728091 0.500000
#
# Coordination Sequence:
#
# PCOD9121572 Si02
#       8
#     4   4   4   4   4   4   4   4
#     4  11  23  36  63  92 127 164 206 258 319 379
#     4  10  19  35  55  85 128 149 196 240 312 386
#     4  10  23  41  59  80 117 167 219 257 293 344
#     4  11  22  36  56  87 126 165 203 248 321 385
#     4  11  24  37  58  87 126 169 212 256 309 384
#     4  10  23  38  59  87 118 170 214 257 295 349
#     4  10  19  35  56  89 124 152 192 255 311 382
#     4  11  23  36  58  91 129 166 194 251 329 385
#
# _framework density 20.931826000000001
#
# number of rings (size 3 to 8) (size 9 to 14) (size 15 to 20)
#    0.000    1.500    3.750    3.000    8.750    0.000 
#    0.000    0.000    0.000    0.000    0.000    3.500 
#    0.000    0.000    0.000    0.000    0.000    0.000 
#
# Total GULP energy -89136.584585 kJ/mol
# GULP energy per Si atom -5571.036537 kJ/mol
# Density = 2.088418 g / cm^3
# Si number density = 20.931826 Si / 1000 Ang^3
#
#
#
# Elastic Constant Matrix: (Units=GPa)
#
#
# Indices 1 2 3 4 5 6 
#
# 1 105.0237 22.4155 14.4805 -0.0002 -12.0316 -0.0011
# 2 22.4155 141.5670 3.6844 -0.0020 -6.2245 0.0020
# 3 14.4805 3.6844 40.2117 -0.0003 -16.0425 0.0019
# 4 -0.0002 -0.0020 -0.0003 12.6471 0.0002 -13.7423
# 5 -12.0316 -6.2245 -16.0425 0.0002 17.1720 -0.0004
# 6 -0.0011 0.0020 0.0019 -13.7423 -0.0004 68.6925
#
#
#
# Elastic Compliance Matrix: (Units=1/GPa)
#
#
# Indices 1 2 3 4 5 6 
#
# 1 0.010665 -0.001405 -0.001489 0.000000 0.005573 0.000000
# 2 -0.001405 0.007373 0.000803 0.000001 0.002438 0.000000
# 3 -0.001489 0.000803 0.039903 -0.000001 0.036527 -0.000001
# 4 0.000000 0.000001 -0.000001 0.101032 -0.000001 0.020212
# 5 0.005573 0.002438 0.036527 -0.000001 0.097147 -0.000001
# 6 0.000000 0.000000 -0.000001 0.020212 -0.000001 0.018601
#
#
# Mechanical properties :
#
#
# Convention : Reuss Voigt Hill
#
# Bulk Modulus (GPa) = 18.60109 40.88481 29.74295
# Shear Modulus (GPa) = 16.84507 36.11709 26.48108
#
# Velocity S-wave (km/s) = 2.83990 4.15838 3.56070
# Velocity P-wave (km/s) = 4.43387 6.52923 5.58078
#
# Compressibility (1/GPa) = 0.05376030
#
# Stress axis : x y z
#
# Youngs Moduli (GPa) = 93.76312 135.63804 25.06057
#
# Poissons Ratio (x) = 0.19056 0.03731
# Poissons Ratio (y) = 0.13173 -0.02013
# Poissons Ratio (z) = 0.13958 -0.10895
#
# Static dielectric constant tensor:
#      x y z
#    x 1.745660 0.000000 0.035510 
#    y 0.000000 1.922670 0.000000 
#    z 0.035510 0.000000 1.737910 
# 
# From -- ./inp_files/58314.got.cif
#   From: 2010.05.17/outbox.cif.g08.bks.cpg/sg5_30_cif.got.tgz:58314.got - 2010.06.03 18:56:24.
