data_PCOD9121491
_publ_section_title
;
Structure prediction by ZEFSAII (Michael W. Deem and Ramdas Pophale) SiO2 
 PCOD9121491
Probable space group: C 2
;
_chemical_formula_sum "Si O2"
_cell_formula_units_Z 24
_cell_length_a 12.400689
_cell_length_b 17.874377
_cell_length_c 7.335732
_cell_angle_alpha 90.000000
_cell_angle_beta 35.946133
_cell_angle_gamma 90.000000
_cell_volume 954.500878
_symmetry_space_group_name_H-M "C 2"
_symmetry_group_IT_number 5
_symmetry_cell_setting 'monoclinic'
loop_
_space_group_symop_operation_xyz
x,y,z
-x,y,-z
1/2+x,1/2+y,z
1/2-x,1/2+y,-z
loop_
_atom_site_type_symbol
_atom_site_label
_atom_site_fract_x
_atom_site_fract_y
_atom_site_fract_z
Si Si1 0.223240 0.496310 0.493104
Si Si2 0.442320 0.442876 0.834083
Si Si3 0.034173 0.780462 0.674127
Si Si4 0.781321 0.149611 0.283641
Si Si5 0.834507 0.220700 0.854125
Si Si6 0.921061 0.384717 0.814786
O O1 0.384630 0.497574 0.423770
O O2 0.170586 0.581275 0.522402
O O3 0.059892 0.437106 0.735136
O O4 0.327844 0.472046 0.163253
O O5 0.548669 0.364453 0.721654
O O6 0.283023 0.420592 0.910328
O O7 0.000000 0.781764 0.500000
O O8 0.201766 0.725565 0.477449
O O9 0.842401 0.749184 0.014215
O O10 0.761141 0.158607 0.093417
O O11 0.000000 0.140508 0.000000
O O12 0.901811 0.295558 0.874722
O O13 0.000000 0.196429 0.500000
O O14 0.000000 0.385940 0.500000
#
# Coordination Sequence:
#
# PCOD9121491 Si02
#       6
#     4   4   4   4   4   4
#     4  10  19  34  57  85 116 154 200 242 298 360
#     4   9  17  33  53  82 110 147 199 240 280 357
#     4   9  20  37  59  88 121 155 199 251 309 356
#     4  11  22  37  55  93 128 152 197 255 307 360
#     4   9  19  38  60  88 116 158 208 243 302 371
#     4   8  16  30  55  83 107 145 197 241 283 346
#
# _framework density 25.144030999999998
#
# number of rings (size 3 to 8) (size 9 to 14) (size 15 to 20)
#    0.000    2.667    1.667    1.000    2.333    6.000 
#    0.000    0.833    0.000    2.000   13.000    0.000 
#    0.000    0.000    0.000    0.000    0.000    0.000 
#
# Total GULP energy -66968.807495 kJ/mol
# GULP energy per Si atom -5580.733958 kJ/mol
# Density = 2.508680 g / cm^3
# Si number density = 25.144031 Si / 1000 Ang^3
#
#
#
# Elastic Constant Matrix: (Units=GPa)
#
#
# Indices 1 2 3 4 5 6 
#
# 1 34.8671 8.5826 27.1263 0.0004 -13.2706 -0.0001
# 2 8.5826 72.4108 30.4182 0.0002 -8.5736 0.0000
# 3 27.1263 30.4182 88.4758 0.0003 -7.4303 -0.0001
# 4 0.0004 0.0002 0.0003 -13.2860 -0.0003 -6.5980
# 5 -13.2706 -8.5736 -7.4303 -0.0003 51.5206 0.0001
# 6 -0.0001 0.0000 -0.0001 -6.5980 0.0001 26.8518
#
#
#
# Elastic Compliance Matrix: (Units=1/GPa)
#
#
# Indices 1 2 3 4 5 6 
#
# 1 0.041480 0.001384 -0.012427 0.000001 0.009122 0.000000
# 2 0.001384 0.016375 -0.005866 0.000000 0.002235 0.000000
# 3 -0.012427 -0.005866 0.016985 0.000000 -0.001728 0.000000
# 4 0.000001 0.000000 0.000000 -0.067081 0.000000 -0.016483
# 5 0.009122 0.002235 -0.001728 0.000000 0.021882 0.000000
# 6 0.000000 0.000000 0.000000 -0.016483 0.000000 0.033191
#
#
# Mechanical properties :
#
#
# Convention : Reuss Voigt Hill
#
# Bulk Modulus (GPa) = 24.37818 36.44533 30.41175
# Shear Modulus (GPa) = 45.32085 21.65905 33.48995
#
# Velocity S-wave (km/s) = 4.25013 2.93814 3.65351
# Velocity P-wave (km/s) = 5.81389 5.10258 5.46981
#
# Compressibility (1/GPa) = 0.04102029
#
# Stress axis : x y z
#
# Youngs Moduli (GPa) = 24.10796 61.06837 58.87718
#
# Poissons Ratio (x) = -0.08453 0.73169
# Poissons Ratio (y) = -0.03337 0.34540
# Poissons Ratio (z) = 0.29960 0.35825
#
# Static dielectric constant tensor:
#      x y z
#    x 2.082350 0.000000 0.007030 
#    y 0.000000 1.985420 0.000000 
#    z 0.007030 0.000000 2.004640 
# 
# From -- ./inp_files/25142.got.cif
#   From: 2010.05.17/outbox.cif.g08.bks.cpg/sg5_13_cif.got.tgz:25142.got - 2010.06.03 18:56:24.
