data_PCOD9121605
_publ_section_title
;
Structure prediction by ZEFSAII (Michael W. Deem and Ramdas Pophale) SiO2 
 PCOD9121605
Probable space group: C 2
;
_chemical_formula_sum "Si O2"
_cell_formula_units_Z 28
_cell_length_a 9.828760
_cell_length_b 14.146816
_cell_length_c 22.394252
_cell_angle_alpha 90.000000
_cell_angle_beta 28.586867
_cell_angle_gamma 90.000000
_cell_volume 1489.935288
_symmetry_space_group_name_H-M "C 2"
_symmetry_group_IT_number 5
_symmetry_cell_setting 'monoclinic'
loop_
_space_group_symop_operation_xyz
x,y,z
-x,y,-z
1/2+x,1/2+y,z
1/2-x,1/2+y,-z
loop_
_atom_site_type_symbol
_atom_site_label
_atom_site_fract_x
_atom_site_fract_y
_atom_site_fract_z
Si Si1 0.467912 0.243640 0.080651
Si Si2 0.644613 0.849891 0.306682
Si Si3 0.936306 0.860944 0.742499
Si Si4 0.943743 0.182775 0.088890
Si Si5 0.368067 0.059921 0.699150
Si Si6 0.717715 0.729681 0.472559
Si Si7 0.781715 0.049671 0.850203
O O1 0.345543 0.317963 0.174859
O O2 0.260970 0.153516 0.159309
O O3 0.500000 0.278801 0.000000
O O4 0.766419 0.199944 0.987013
O O5 0.431911 0.767802 0.410069
O O6 0.830707 0.861922 0.294934
O O7 0.518062 0.953071 0.341083
O O8 0.706394 0.784555 0.851680
O O9 0.081357 0.815648 0.628438
O O10 0.808744 0.965808 0.791531
O O11 0.739052 0.106466 0.198061
O O12 0.000000 0.154464 0.000000
O O13 0.597467 0.135782 0.587598
O O14 0.075520 0.053683 0.773926
O O15 0.500000 0.712590 0.500000
O O16 0.500000 0.031183 0.000000
#
# Coordination Sequence:
#
# PCOD9121605 Si02
#       7
#     4   4   4   4   4   4   4
#     4  11  22  36  56  88 129 156 187 250 306 357
#     4  10  21  38  60  87 117 160 202 247 297 354
#     4   9  19  34  63  86 111 157 208 243 285 356
#     4  11  19  34  61  89 117 158 198 243 300 354
#     4  10  21  38  61  87 121 155 201 249 297 355
#     4   9  20  40  61  85 116 156 209 255 286 347
#     4  10  19  35  57  89 122 156 193 246 300 362
#
# _framework density 18.792763000000001
#
# number of rings (size 3 to 8) (size 9 to 14) (size 15 to 20)
#    0.000    2.000    4.286    0.429    2.000    1.714 
#    0.000    3.571    0.000    0.000    0.000    0.000 
#    0.000    0.000    0.000    0.000    0.000    0.000 
#
# Total GULP energy -77994.531508 kJ/mol
# GULP energy per Si atom -5571.037965 kJ/mol
# Density = 1.874999 g / cm^3
# Si number density = 18.792763 Si / 1000 Ang^3
#
#
#
# Elastic Constant Matrix: (Units=GPa)
#
#
# Indices 1 2 3 4 5 6 
#
# 1 12.6369 3.3639 11.5834 0.0093 8.8555 0.0006
# 2 3.3639 77.2514 32.5194 0.0148 6.7112 -0.0017
# 3 11.5834 32.5194 75.4269 0.1535 7.0024 0.0490
# 4 0.0093 0.0148 0.1535 6.1273 -0.0074 -9.4153
# 5 8.8555 6.7112 7.0024 -0.0074 27.1265 -0.0007
# 6 0.0006 -0.0017 0.0490 -9.4153 -0.0007 20.3312
#
#
#
# Elastic Compliance Matrix: (Units=1/GPa)
#
#
# Indices 1 2 3 4 5 6 
#
# 1 0.118284 0.005122 -0.017082 0.000863 -0.035472 0.000436
# 2 0.005122 0.016167 -0.007409 0.000566 -0.003759 0.000281
# 3 -0.017082 -0.007409 0.018843 -0.001716 0.002545 -0.000840
# 4 0.000863 0.000566 -0.001716 0.566054 0.000183 0.262142
# 5 -0.035472 -0.003759 0.002545 0.000183 0.048717 0.000081
# 6 0.000436 0.000281 -0.000840 0.262142 0.000081 0.170585
#
#
# Mechanical properties :
#
#
# Convention : Reuss Voigt Hill
#
# Bulk Modulus (GPa) = 8.72939 28.91650 18.82295
# Shear Modulus (GPa) = 4.92332 18.57359 11.74846
#
# Velocity S-wave (km/s) = 1.62033 3.14719 2.50303
# Velocity P-wave (km/s) = 2.85584 5.35041 4.28851
#
# Compressibility (1/GPa) = 0.11455551
#
# Stress axis : x y z
#
# Youngs Moduli (GPa) = 8.45420 61.85403 53.06925
#
# Poissons Ratio (x) = -0.31679 0.90654
# Poissons Ratio (y) = -0.04330 0.39320
# Poissons Ratio (z) = 0.14442 0.45828
#
# Static dielectric constant tensor:
#      x y z
#    x 1.647600 0.000010 -0.021890 
#    y 0.000010 1.663050 -0.000010 
#    z -0.021890 -0.000010 1.690310 
# 
# From -- ./inp_files/29919.got.cif
#   From: 2010.05.17/outbox.cif.g08.bks.cpg/sg5_15_cif.got.tgz:29919.got - 2010.06.03 18:56:24.
