data_PCOD9121191
_publ_section_title
;
Structure prediction by ZEFSAII (Michael W. Deem and Ramdas Pophale) SiO2 
 PCOD9121191
Probable space group: C 2
;
_chemical_formula_sum "Si O2"
_cell_formula_units_Z 26
_cell_length_a 13.448573
_cell_length_b 14.648496
_cell_length_c 6.146921
_cell_angle_alpha 90.000000
_cell_angle_beta 84.112383
_cell_angle_gamma 90.000000
_cell_volume 1204.564086
_symmetry_space_group_name_H-M "C 2"
_symmetry_group_IT_number 5
_symmetry_cell_setting 'monoclinic'
loop_
_space_group_symop_operation_xyz
x,y,z
-x,y,-z
1/2+x,1/2+y,z
1/2-x,1/2+y,-z
loop_
_atom_site_type_symbol
_atom_site_label
_atom_site_fract_x
_atom_site_fract_y
_atom_site_fract_z
Si Si1 0.149726 0.798150 0.936355
Si Si2 0.733395 0.699001 0.472521
Si Si3 0.067312 0.071420 0.307501
Si Si4 0.160949 0.341111 0.840595
Si Si5 0.918060 0.648299 0.707930
Si Si6 0.500000 0.436498 0.000000
Si Si7 0.500000 0.708714 0.000000
Si Si8 0.000000 0.491388 0.000000
O O1 0.202358 0.740742 0.737548
O O2 0.072258 0.869586 0.852033
O O3 0.234103 0.850203 0.060432
O O4 0.093811 0.729732 0.114792
O O5 0.660128 0.623530 0.386643
O O6 0.681606 0.785114 0.611302
O O7 0.809098 0.648260 0.619892
O O8 0.996480 0.148428 0.215417
O O9 0.000000 0.022746 0.500000
O O10 0.076791 0.000065 0.112972
O O11 0.086710 0.428559 0.866061
O O12 0.097622 0.268899 0.996433
O O13 0.948858 0.557158 0.832202
O O14 0.000000 0.664459 0.500000
#
# Coordination Sequence:
#
# PCOD9121191 Si02
#       8
#     4   4   4   4   4   2   2   2
#     4  11  24  46  68  96 139 180 226 277 329 409
#     4  11  23  43  75  96 128 186 228 270 342 404
#     4  11  23  40  70  97 134 169 224 272 332 398
#     4  10  23  40  71  98 132 174 227 271 337 391
#     4  11  25  45  71  97 134 185 225 274 344 399
#     4  11  27  41  65  98 138 176 217 279 335 387
#     4  10  18  42  64  98 126 174 210 270 332 388
#     4  11  25  45  67 104 142 168 225 291 325 403
#
# _framework density 21.584572999999999
#
# number of rings (size 3 to 8) (size 9 to 14) (size 15 to 20)
#    0.000    1.231    3.077    2.308    0.000    8.000 
#    0.000    0.000    0.000    0.000    0.000    0.000 
#    0.000    0.000    0.000    0.000    0.000    0.000 
#
# Total GULP energy -72487.773268 kJ/mol
# GULP energy per Si atom -5575.982559 kJ/mol
# Density = 2.153545 g / cm^3
# Si number density = 21.584573 Si / 1000 Ang^3
#
#
#
# Elastic Constant Matrix: (Units=GPa)
#
#
# Indices 1 2 3 4 5 6 
#
# 1 126.2647 85.6519 44.2991 0.0000 20.7858 0.0000
# 2 85.6519 121.6368 58.7107 0.0000 5.6732 0.0000
# 3 44.2991 58.7107 104.3211 0.0000 -6.2108 0.0000
# 4 0.0000 0.0000 0.0000 -76.5304 0.0000 -9.1298
# 5 20.7858 5.6732 -6.2108 0.0000 46.0989 0.0000
# 6 0.0000 0.0000 0.0000 -9.1298 0.0000 36.5096
#
#
#
# Elastic Compliance Matrix: (Units=1/GPa)
#
#
# Indices 1 2 3 4 5 6 
#
# 1 0.016870 -0.010894 -0.001417 0.000000 -0.006457 0.000000
# 2 -0.010894 0.018561 -0.005709 0.000000 0.001859 0.000000
# 3 -0.001417 -0.005709 0.013590 0.000000 0.003172 0.000000
# 4 0.000000 0.000000 0.000000 -0.012688 0.000000 -0.003173
# 5 -0.006457 0.001859 0.003172 0.000000 0.024803 0.000000
# 6 0.000000 0.000000 0.000000 -0.003173 0.000000 0.026597
#
#
# Mechanical properties :
#
#
# Convention : Reuss Voigt Hill
#
# Bulk Modulus (GPa) = 77.04204 81.06067 79.05135
# Shear Modulus (GPa) = 39.03207 12.11969 25.57588
#
# Velocity S-wave (km/s) = 4.25706 2.37217 3.44599
# Velocity P-wave (km/s) = 7.74171 6.71858 7.24822
#
# Compressibility (1/GPa) = 0.01297993
#
# Stress axis : x y z
#
# Youngs Moduli (GPa) = 59.27699 53.87500 73.58557
#
# Poissons Ratio (x) = 0.58692 0.10427
# Poissons Ratio (y) = 0.64577 0.42013
# Poissons Ratio (z) = 0.08400 0.30760
#
# Static dielectric constant tensor:
#      x y z
#    x 1.983510 0.000000 -0.118300 
#    y 0.000000 1.766460 0.000000 
#    z -0.118300 0.000000 1.926350 
# 
# From -- ./inp_files/6870.got.cif
#   From: 2010.05.17/outbox.cif.g08.bks.cpg/sg5_4_cif.got.tgz:6870.got - 2010.06.03 18:56:24.
