data_PCOD9121884
_publ_section_title
;
Structure prediction by ZEFSAII (Michael W. Deem and Ramdas Pophale) SiO2 
 PCOD9121884
Probable space group: C 2
;
_chemical_formula_sum "Si O2"
_cell_formula_units_Z 24
_cell_length_a 24.977633
_cell_length_b 5.652796
_cell_length_c 15.422891
_cell_angle_alpha 90.000000
_cell_angle_beta 25.142364
_cell_angle_gamma 90.000000
_cell_volume 925.199310
_symmetry_space_group_name_H-M "C 2"
_symmetry_group_IT_number 5
_symmetry_cell_setting 'monoclinic'
loop_
_space_group_symop_operation_xyz
x,y,z
-x,y,-z
1/2+x,1/2+y,z
1/2-x,1/2+y,-z
loop_
_atom_site_type_symbol
_atom_site_label
_atom_site_fract_x
_atom_site_fract_y
_atom_site_fract_z
Si Si1 0.797174 0.982260 0.664727
Si Si2 0.566974 0.221860 0.075257
Si Si3 0.863884 0.380318 0.445617
Si Si4 0.422252 0.414951 0.749487
Si Si5 0.444554 0.919538 0.675088
Si Si6 0.379326 0.593929 0.143737
O O1 0.934479 0.927722 0.497672
O O2 0.820395 0.112319 0.536607
O O3 0.710231 0.754593 0.782898
O O4 0.711450 0.139889 0.852322
O O5 0.563883 0.374905 0.167450
O O6 0.554154 0.388126 0.010103
O O7 0.464689 0.007012 0.233152
O O8 0.941909 0.433462 0.420569
O O9 0.727238 0.500896 0.633666
O O10 0.374065 0.676349 0.800268
O O11 0.372404 0.167321 0.786634
O O12 0.500000 0.898111 0.500000
O O13 0.500000 0.736218 0.000000
#
# Coordination Sequence:
#
# PCOD9121884 Si02
#       6
#     4   4   4   4   4   4
#     4  10  21  38  66  90 127 171 219 266 328 388
#     4  10  22  40  68  90 127 182 211 271 331 396
#     4   9  21  43  61  92 129 171 215 263 329 396
#     4  10  21  40  64  97 131 172 223 261 330 402
#     4  10  19  36  68  99 127 171 219 267 329 394
#     4  11  23  41  63  96 129 167 225 276 328 390
#
# _framework density 25.940359000000001
#
# number of rings (size 3 to 8) (size 9 to 14) (size 15 to 20)
#    0.000    2.000    3.333    0.500    7.000    2.667 
#    3.000    0.000    0.000   60.000    0.000    0.000 
#    0.000    0.000    0.000    0.000    0.000    0.000 
#
# Total GULP energy -66891.549063 kJ/mol
# GULP energy per Si atom -5574.295755 kJ/mol
# Density = 2.588132 g / cm^3
# Si number density = 25.940359 Si / 1000 Ang^3
#
#
#
# Elastic Constant Matrix: (Units=GPa)
#
#
# Indices 1 2 3 4 5 6 
#
# 1 42.1585 9.7117 49.6816 0.0229 -3.5283 -0.0078
# 2 9.7117 160.7059 67.7334 0.0376 1.1791 -0.0126
# 3 49.6816 67.7334 209.0915 0.0123 -16.8254 -0.0048
# 4 0.0229 0.0376 0.0123 180.9901 -0.0019 -0.3735
# 5 -3.5283 1.1791 -16.8254 -0.0019 31.8830 0.0014
# 6 -0.0078 -0.0126 -0.0048 -0.3735 0.0014 5.1084
#
#
#
# Elastic Compliance Matrix: (Units=1/GPa)
#
#
# Indices 1 2 3 4 5 6 
#
# 1 0.033288 0.001572 -0.008487 -0.000004 -0.000853 0.000046
# 2 0.001572 0.007356 -0.002887 -0.000002 -0.001622 0.000018
# 3 -0.008487 -0.002887 0.008008 0.000001 0.003393 -0.000013
# 4 -0.000004 -0.000002 0.000001 0.005526 0.000001 0.000404
# 5 -0.000853 -0.001622 0.003393 0.000001 0.033121 -0.000011
# 6 0.000046 0.000018 -0.000013 0.000404 -0.000011 0.195785
#
#
# Mechanical properties :
#
#
# Convention : Reuss Voigt Hill
#
# Bulk Modulus (GPa) = 34.42680 74.02326 54.22503
# Shear Modulus (GPa) = 16.00657 62.58492 39.29574
#
# Velocity S-wave (km/s) = 2.48675 4.91720 3.89633
# Velocity P-wave (km/s) = 4.64172 7.79977 6.41802
#
# Compressibility (1/GPa) = 0.02904714
#
# Stress axis : x y z
#
# Youngs Moduli (GPa) = 30.04042 135.93910 124.88254
#
# Poissons Ratio (x) = -0.21367 1.05993
# Poissons Ratio (y) = -0.04722 0.36053
# Poissons Ratio (z) = 0.25497 0.39245
#
# Static dielectric constant tensor:
#      x y z
#    x 1.992670 0.000010 0.042030 
#    y 0.000010 2.234350 0.000000 
#    z 0.042030 0.000000 2.003400 
# 
# From -- ./inp_files/57966.got.cif
#   From: 2010.05.17/outbox.cif.g08.bks.cpg/sg5_29_cif.got.tgz:57966.got - 2010.06.03 18:56:24.
