data_PCOD9121935
_publ_section_title
;
Structure prediction by ZEFSAII (Michael W. Deem and Ramdas Pophale) SiO2 
 PCOD9121935
Probable space group: C 2
;
_chemical_formula_sum "Si O2"
_cell_formula_units_Z 30
_cell_length_a 6.909874
_cell_length_b 14.061188
_cell_length_c 18.242314
_cell_angle_alpha 90.000000
_cell_angle_beta 132.214721
_cell_angle_gamma 90.000000
_cell_volume 1312.727353
_symmetry_space_group_name_H-M "C 2"
_symmetry_group_IT_number 5
_symmetry_cell_setting 'monoclinic'
loop_
_space_group_symop_operation_xyz
x,y,z
-x,y,-z
1/2+x,1/2+y,z
1/2-x,1/2+y,-z
loop_
_atom_site_type_symbol
_atom_site_label
_atom_site_fract_x
_atom_site_fract_y
_atom_site_fract_z
Si Si1 0.938942 0.358720 0.792219
Si Si2 0.204593 0.569299 0.215101
Si Si3 0.898269 0.150841 0.805366
Si Si4 0.225284 0.566059 0.996427
Si Si5 0.500000 0.394193 0.000000
Si Si6 0.476648 0.055823 0.387996
Si Si7 0.097739 0.141803 0.418719
Si Si8 0.184959 0.359534 0.410940
O O1 0.807876 0.453795 0.792782
O O2 0.804255 0.258735 0.776432
O O3 0.902414 0.368352 0.695901
O O4 0.244203 0.347682 0.896340
O O5 0.385622 0.624232 0.202188
O O6 0.321707 0.599990 0.322602
O O7 0.913699 0.594365 0.114674
O O8 0.669018 0.078754 0.725083
O O9 0.057544 0.136928 0.919796
O O10 0.366317 0.464899 0.024461
O O11 0.000000 0.558821 0.000000
O O12 0.284848 0.098695 0.401294
O O13 0.750929 0.108455 0.470570
O O14 0.537383 0.945278 0.413399
O O15 0.104909 0.255140 0.417072
O O16 0.500000 0.369274 0.500000
#
# Coordination Sequence:
#
# PCOD9121935 Si02
#       8
#     4   4   4   4   2   4   4   4
#     4  11  21  35  63  91 117 161 203 249 310 371
#     4   9  19  35  59  84 118 155 199 249 298 365
#     4  10  19  37  61  84 119 165 196 244 318 364
#     4   9  19  36  61  83 124 165 200 259 315 363
#     4  10  22  36  60  96 120 158 222 256 304 388
#     4  10  20  35  61  83 115 153 196 248 296 362
#     4  10  19  39  59  82 116 158 195 245 307 366
#     4  12  21  36  64  88 113 160 202 244 310 371
#
# _framework density 22.853182
#
# number of rings (size 3 to 8) (size 9 to 14) (size 15 to 20)
#    0.000    1.867    4.000    1.600    2.800    0.000 
#    0.000    0.000   44.000    1.600    0.000    0.000 
#    0.000    0.000    0.000    0.000    0.000    0.000 
#
# Total GULP energy -83668.365031 kJ/mol
# GULP energy per Si atom -5577.891002 kJ/mol
# Density = 2.280117 g / cm^3
# Si number density = 22.853182 Si / 1000 Ang^3
#
#
#
# Elastic Constant Matrix: (Units=GPa)
#
#
# Indices 1 2 3 4 5 6 
#
# 1 57.5502 12.3895 0.3184 0.0000 18.1013 0.0000
# 2 12.3895 172.0444 39.7007 0.0000 8.9015 0.0000
# 3 0.3184 39.7007 170.8953 0.0000 -5.3508 0.0000
# 4 0.0000 0.0000 0.0000 47.6972 0.0000 5.8930
# 5 18.1013 8.9015 -5.3508 0.0000 22.1445 0.0000
# 6 0.0000 0.0000 0.0000 5.8930 0.0000 31.2021
#
#
#
# Elastic Compliance Matrix: (Units=1/GPa)
#
#
# Indices 1 2 3 4 5 6 
#
# 1 0.023516 -0.000588 -0.000505 0.000000 -0.019108 0.000000
# 2 -0.000588 0.006338 -0.001548 0.000000 -0.002441 0.000000
# 3 -0.000505 -0.001548 0.006292 0.000000 0.002556 0.000000
# 4 0.000000 0.000000 0.000000 0.021466 0.000000 -0.004054
# 5 -0.019108 -0.002441 0.002556 0.000000 0.062376 0.000000
# 6 0.000000 0.000000 0.000000 -0.004054 0.000000 0.032815
#
#
# Mechanical properties :
#
#
# Convention : Reuss Voigt Hill
#
# Bulk Modulus (GPa) = 32.40116 56.14523 44.27320
# Shear Modulus (GPa) = 29.69588 43.41419 36.55504
#
# Velocity S-wave (km/s) = 3.60866 4.36328 4.00379
# Velocity P-wave (km/s) = 5.61889 7.07145 6.38660
#
# Compressibility (1/GPa) = 0.03086309
#
# Stress axis : x y z
#
# Youngs Moduli (GPa) = 42.52505 157.77182 158.93040
#
# Poissons Ratio (x) = 0.09280 0.08033
# Poissons Ratio (y) = 0.02501 0.24599
# Poissons Ratio (z) = 0.02149 0.24420
#
# Static dielectric constant tensor:
#      x y z
#    x 1.758360 0.000000 -0.015900 
#    y 0.000000 1.805440 0.000000 
#    z -0.015900 0.000000 1.920650 
# 
# From -- ./inp_files/67970.got.cif
#   From: 2010.05.17/outbox.cif.g08.bks.cpg/sg5_34_cif.got.tgz:67970.got - 2010.06.03 18:56:24.
