data_PCOD9121205
_publ_section_title
;
Structure prediction by ZEFSAII (Michael W. Deem and Ramdas Pophale) SiO2 
 PCOD9121205
Probable space group: C 2
;
_chemical_formula_sum "Si O2"
_cell_formula_units_Z 24
_cell_length_a 17.376943
_cell_length_b 6.665838
_cell_length_c 16.403669
_cell_angle_alpha 90.000000
_cell_angle_beta 154.420326
_cell_angle_gamma 90.000000
_cell_volume 820.384335
_symmetry_space_group_name_H-M "C 2"
_symmetry_group_IT_number 5
_symmetry_cell_setting 'monoclinic'
loop_
_space_group_symop_operation_xyz
x,y,z
-x,y,-z
1/2+x,1/2+y,z
1/2-x,1/2+y,-z
loop_
_atom_site_type_symbol
_atom_site_label
_atom_site_fract_x
_atom_site_fract_y
_atom_site_fract_z
Si Si1 0.383106 0.171210 0.956039
Si Si2 0.887058 0.364667 0.533646
Si Si3 0.000000 0.278368 0.000000
Si Si4 0.418349 0.233043 0.343206
Si Si5 0.142832 0.580506 0.880465
Si Si6 0.528452 0.543271 0.175788
Si Si7 0.000000 0.128073 0.500000
O O1 0.187934 0.178238 0.732972
O O2 0.500000 0.039409 0.000000
O O3 0.489100 0.375933 0.068167
O O4 0.378017 0.102784 0.044109
O O5 0.698950 0.450797 0.383585
O O6 0.962355 0.532705 0.541494
O O7 0.027536 0.389089 0.740376
O O8 0.884495 0.163856 0.479734
O O9 0.927094 0.237733 0.833616
O O10 0.788174 0.234184 0.832665
O O11 0.500000 0.367268 0.500000
O O12 0.420900 0.252007 0.246615
O O13 0.345808 0.547498 0.049866
#
# Coordination Sequence:
#
# PCOD9121205 Si02
#       7
#     4   4   2   4   4   4   2
#     4  10  26  52  74 117 153 207 272 316 393 467
#     4  10  23  45  71 113 159 199 263 320 383 467
#     4  10  26  48  74 112 158 200 256 330 382 464
#     4   8  20  41  69 111 152 205 253 310 391 456
#     4  10  25  52  75 111 165 198 258 327 388 464
#     4  12  26  48  79 111 157 205 259 333 388 469
#     4  10  18  42  74 108 170 210 248 326 386 472
#
# _framework density 29.254579
#
# number of rings (size 3 to 8) (size 9 to 14) (size 15 to 20)
#    2.000    0.000    1.667    0.000    7.000    2.667 
#   12.000    0.000    0.000    3.000    0.000    0.000 
#    0.000    0.000    0.000    0.000    0.000    0.000 
#
# Total GULP energy -66869.008837 kJ/mol
# GULP energy per Si atom -5572.417403 kJ/mol
# Density = 2.918799 g / cm^3
# Si number density = 29.254579 Si / 1000 Ang^3
#
#
#
# Elastic Constant Matrix: (Units=GPa)
#
#
# Indices 1 2 3 4 5 6 
#
# 1 227.0419 17.2284 74.4415 0.0001 -19.1118 0.0000
# 2 17.2284 103.3098 18.2095 0.0002 0.5466 0.0001
# 3 74.4415 18.2095 177.7489 0.0003 0.4980 0.0002
# 4 0.0001 0.0002 0.0003 49.4630 0.0001 -12.8774
# 5 -19.1118 0.5466 0.4980 0.0001 52.1614 0.0000
# 6 0.0000 0.0001 0.0002 -12.8774 0.0000 45.6846
#
#
#
# Elastic Compliance Matrix: (Units=1/GPa)
#
#
# Indices 1 2 3 4 5 6 
#
# 1 0.005326 -0.000514 -0.002183 0.000000 0.001978 0.000000
# 2 -0.000514 0.009908 -0.000799 0.000000 -0.000284 0.000000
# 3 -0.002183 -0.000799 0.006625 0.000000 -0.000855 0.000000
# 4 0.000000 0.000000 0.000000 0.021818 0.000000 0.006150
# 5 0.001978 -0.000284 -0.000855 0.000000 0.019907 0.000000
# 6 0.000000 0.000000 0.000000 0.006150 0.000000 0.023623
#
#
# Mechanical properties :
#
#
# Convention : Reuss Voigt Hill
#
# Bulk Modulus (GPa) = 67.26901 80.87328 74.07114
# Shear Modulus (GPa) = 50.42685 56.00989 53.21837
#
# Velocity S-wave (km/s) = 4.15628 4.38032 4.26977
# Velocity P-wave (km/s) = 6.78802 7.29984 7.04858
#
# Compressibility (1/GPa) = 0.01486569
#
# Stress axis : x y z
#
# Youngs Moduli (GPa) = 187.76525 100.93211 150.95347
#
# Poissons Ratio (x) = 0.05186 0.32959
# Poissons Ratio (y) = 0.09647 0.12062
# Poissons Ratio (z) = 0.40996 0.08065
#
# Static dielectric constant tensor:
#      x y z
#    x 2.187750 0.000000 -0.031810 
#    y 0.000000 2.629420 0.000000 
#    z -0.031810 0.000000 2.189320 
# 
# From -- ./inp_files/54722.got.cif
#   From: 2010.05.17/outbox.cif.g08.bks.cpg/sg5_28_cif.got.tgz:54722.got - 2010.06.03 18:56:24.
