data_PCOD9121377
_publ_section_title
;
Structure prediction by ZEFSAII (Michael W. Deem and Ramdas Pophale) SiO2 
 PCOD9121377
Probable space group: C 2
;
_chemical_formula_sum "Si O2"
_cell_formula_units_Z 24
_cell_length_a 9.093305
_cell_length_b 26.764409
_cell_length_c 6.810100
_cell_angle_alpha 90.000000
_cell_angle_beta 34.835452
_cell_angle_gamma 90.000000
_cell_volume 946.754737
_symmetry_space_group_name_H-M "C 2"
_symmetry_group_IT_number 5
_symmetry_cell_setting 'monoclinic'
loop_
_space_group_symop_operation_xyz
x,y,z
-x,y,-z
1/2+x,1/2+y,z
1/2-x,1/2+y,-z
loop_
_atom_site_type_symbol
_atom_site_label
_atom_site_fract_x
_atom_site_fract_y
_atom_site_fract_z
Si Si1 0.097912 0.983220 0.671963
Si Si2 0.402194 0.940171 0.835762
Si Si3 0.089420 0.586499 0.675802
Si Si4 0.581403 0.631224 0.192499
Si Si5 0.236379 0.235740 0.891616
Si Si6 0.228477 0.836407 0.907422
O O1 0.321387 0.944583 0.362222
O O2 0.820914 0.980499 0.868175
O O3 0.257642 0.034526 0.505651
O O4 0.000000 0.971788 0.000000
O O5 0.500000 0.946710 0.500000
O O6 0.262416 0.886873 0.995837
O O7 0.310185 0.626398 0.378875
O O8 0.000000 0.592916 0.000000
O O9 0.817291 0.595806 0.867659
O O10 0.500000 0.615087 0.500000
O O11 0.665605 0.688504 0.103513
O O12 0.500000 0.220991 0.500000
O O13 0.298784 0.286636 0.936850
O O14 0.000000 0.243757 0.000000
O O15 0.500000 0.831253 0.500000
O O16 0.000000 0.841844 0.000000
#
# Coordination Sequence:
#
# PCOD9121377 Si02
#       6
#     4   4   4   4   4   4
#     4  10  19  33  55  84 119 154 193 245 302 350
#     4   9  18  34  57  86 116 152 201 248 286 348
#     4  10  21  37  58  85 116 154 203 248 289 353
#     4  10  22  41  62  83 115 162 208 243 290 367
#     4  12  26  42  62  94 130 155 195 261 321 362
#     4  11  22  41  68  90 118 165 213 247 294 368
#
# _framework density 25.349751999999999
#
# number of rings (size 3 to 8) (size 9 to 14) (size 15 to 20)
#    0.000    1.667    0.000    6.000    0.000    4.000 
#    0.000    2.500    0.000    0.000    0.000    0.000 
#    0.000    0.000    0.000    0.000    0.000    0.000 
#
# Total GULP energy -67112.274152 kJ/mol
# GULP energy per Si atom -5592.689513 kJ/mol
# Density = 2.529205 g / cm^3
# Si number density = 25.349752 Si / 1000 Ang^3
#
#
#
# Elastic Constant Matrix: (Units=GPa)
#
#
# Indices 1 2 3 4 5 6 
#
# 1 119.9255 15.0953 51.4651 0.0000 -43.9692 0.0000
# 2 15.0953 144.2626 56.7332 0.0000 -32.3730 0.0000
# 3 51.4651 56.7332 181.3987 0.0000 -50.2792 0.0000
# 4 0.0000 0.0000 0.0000 34.5284 0.0000 -14.1449
# 5 -43.9692 -32.3730 -50.2792 0.0000 46.8033 0.0000
# 6 0.0000 0.0000 0.0000 -14.1449 0.0000 29.5687
#
#
#
# Elastic Compliance Matrix: (Units=1/GPa)
#
#
# Indices 1 2 3 4 5 6 
#
# 1 0.013107 0.001781 -0.000742 0.000000 0.012747 0.000000
# 2 0.001781 0.008710 -0.001560 0.000000 0.006022 0.000000
# 3 -0.000742 -0.001560 0.008144 0.000000 0.006972 0.000000
# 4 0.000000 0.000000 0.000000 0.036021 0.000000 0.017231
# 5 0.012747 0.006022 0.006972 0.000000 0.044996 0.000000
# 6 0.000000 0.000000 0.000000 0.017231 0.000000 0.042062
#
#
# Mechanical properties :
#
#
# Convention : Reuss Voigt Hill
#
# Bulk Modulus (GPa) = 34.58133 76.90824 55.74478
# Shear Modulus (GPa) = 30.53947 43.66631 37.10289
#
# Velocity S-wave (km/s) = 3.47468 4.15487 3.82990
# Velocity P-wave (km/s) = 5.45611 7.30903 6.44946
#
# Compressibility (1/GPa) = 0.02891734
#
# Stress axis : x y z
#
# Youngs Moduli (GPa) = 76.29775 114.80549 122.79291
#
# Poissons Ratio (x) = -0.20447 0.09114
# Poissons Ratio (y) = -0.13589 0.19161
# Poissons Ratio (z) = 0.05663 0.17915
#
# Static dielectric constant tensor:
#      x y z
#    x 2.155330 0.000000 0.012490 
#    y 0.000000 2.010530 0.000000 
#    z 0.012490 0.000000 1.973300 
# 
# From -- ./inp_files/22118.got.cif
#   From: 2010.05.17/outbox.cif.g08.bks.cpg/sg5_12_cif.got.tgz:22118.got - 2010.06.03 18:56:24.
