data_PCOD9121850
_publ_section_title
;
Structure prediction by ZEFSAII (Michael W. Deem and Ramdas Pophale) SiO2 
 PCOD9121850
Probable space group: C 2
;
_chemical_formula_sum "Si O2"
_cell_formula_units_Z 30
_cell_length_a 24.802061
_cell_length_b 8.661911
_cell_length_c 11.277163
_cell_angle_alpha 90.000000
_cell_angle_beta 37.630961
_cell_angle_gamma 90.000000
_cell_volume 1479.241519
_symmetry_space_group_name_H-M "C 2"
_symmetry_group_IT_number 5
_symmetry_cell_setting 'monoclinic'
loop_
_space_group_symop_operation_xyz
x,y,z
-x,y,-z
1/2+x,1/2+y,z
1/2-x,1/2+y,-z
loop_
_atom_site_type_symbol
_atom_site_label
_atom_site_fract_x
_atom_site_fract_y
_atom_site_fract_z
Si Si1 0.594785 0.246010 0.329460
Si Si2 0.000000 0.112827 0.000000
Si Si3 0.876203 0.937699 0.038603
Si Si4 0.213108 0.364053 0.033652
Si Si5 0.558264 0.638604 0.280972
Si Si6 0.033556 0.360268 0.744354
Si Si7 0.179946 0.517575 0.344878
Si Si8 0.388373 0.088540 0.944068
O O1 0.500000 0.323647 0.500000
O O2 0.578447 0.129846 0.247199
O O3 0.625559 0.168796 0.399666
O O4 0.682538 0.339218 0.144399
O O5 0.958941 0.232438 0.166922
O O6 0.069337 0.002088 0.945073
O O7 0.864410 0.752266 0.046284
O O8 0.930971 0.996360 0.828145
O O9 0.781734 0.023871 0.204897
O O10 0.157631 0.205121 0.125746
O O11 0.184611 0.432123 0.209631
O O12 0.189075 0.469992 0.961369
O O13 0.500000 0.626212 0.500000
O O14 0.509385 0.772069 0.292051
O O15 0.124908 0.430662 0.540874
O O16 0.962165 0.496990 0.890234
#
# Coordination Sequence:
#
# PCOD9121850 Si02
#       8
#     4   2   4   4   4   4   4   4
#     4  11  20  35  61 103 142 172 203 257 329 412
#     4  10  26  48  68  86 122 180 240 288 320 380
#     4  11  23  42  63  95 136 170 223 284 330 376
#     4  10  20  35  61  99 141 175 208 251 329 422
#     4  10  19  36  63  98 136 176 210 259 331 408
#     4  10  21  42  68  91 122 176 227 268 336 386
#     4  11  20  36  66  94 135 168 213 270 330 395
#     4  10  22  37  62  98 130 172 208 270 330 400
#
# _framework density 20.280663000000001
#
# number of rings (size 3 to 8) (size 9 to 14) (size 15 to 20)
#    0.000    1.600    5.333    0.000    0.000    1.067 
#    0.000    4.000    0.000    0.000    0.000    0.000 
#    0.000    0.000    0.000    0.000    0.000    0.000 
#
# Total GULP energy -83596.103793 kJ/mol
# GULP energy per Si atom -5573.073586 kJ/mol
# Density = 2.023450 g / cm^3
# Si number density = 20.280663 Si / 1000 Ang^3
#
#
#
# Elastic Constant Matrix: (Units=GPa)
#
#
# Indices 1 2 3 4 5 6 
#
# 1 115.3138 43.0345 40.1266 0.0000 -14.6823 0.0000
# 2 43.0345 91.9384 28.5414 0.0000 -7.6506 0.0000
# 3 40.1266 28.5414 94.3165 0.0000 -23.5531 0.0000
# 4 0.0000 0.0000 0.0000 14.7840 0.0000 4.7548
# 5 -14.6823 -7.6506 -23.5531 0.0000 26.6445 0.0000
# 6 0.0000 0.0000 0.0000 4.7548 0.0000 34.7558
#
#
#
# Elastic Compliance Matrix: (Units=1/GPa)
#
#
# Indices 1 2 3 4 5 6 
#
# 1 0.011652 -0.004305 -0.003028 0.000000 0.002508 0.000000
# 2 -0.004305 0.013597 -0.002439 0.000000 -0.000624 0.000000
# 3 -0.003028 -0.002439 0.015447 0.000000 0.011286 0.000000
# 4 0.000000 0.000000 0.000000 0.070754 0.000000 -0.009679
# 5 0.002508 -0.000624 0.011286 0.000000 0.048710 0.000000
# 6 0.000000 0.000000 0.000000 -0.009679 0.000000 0.030096
#
#
# Mechanical properties :
#
#
# Convention : Reuss Voigt Hill
#
# Bulk Modulus (GPa) = 47.27731 58.33042 52.80387
# Shear Modulus (GPa) = 23.05722 27.89461 25.47592
#
# Velocity S-wave (km/s) = 3.37546 3.71270 3.54809
# Velocity P-wave (km/s) = 6.20917 6.87044 6.54816
#
# Compressibility (1/GPa) = 0.02115180
#
# Stress axis : x y z
#
# Youngs Moduli (GPa) = 85.82454 73.54436 64.73591
#
# Poissons Ratio (x) = 0.31662 0.19603
# Poissons Ratio (y) = 0.36949 0.15789
# Poissons Ratio (z) = 0.25989 0.17937
#
# Static dielectric constant tensor:
#      x y z
#    x 1.716530 0.000000 -0.022060 
#    y 0.000000 1.841380 0.000000 
#    z -0.022060 0.000000 1.725600 
# 
# From -- ./inp_files/47298.got.cif
#   From: 2010.05.17/outbox.cif.g08.bks.cpg/sg5_24_cif.got.tgz:47298.got - 2010.06.03 18:56:24.
