data_PCOD9121404
_publ_section_title
;
Structure prediction by ZEFSAII (Michael W. Deem and Ramdas Pophale) SiO2 
 PCOD9121404
Probable space group: C 2
;
_chemical_formula_sum "Si O2"
_cell_formula_units_Z 26
_cell_length_a 21.840816
_cell_length_b 7.432032
_cell_length_c 8.619760
_cell_angle_alpha 90.000000
_cell_angle_beta 54.691467
_cell_angle_gamma 90.000000
_cell_volume 1141.797752
_symmetry_space_group_name_H-M "C 2"
_symmetry_group_IT_number 5
_symmetry_cell_setting 'monoclinic'
loop_
_space_group_symop_operation_xyz
x,y,z
-x,y,-z
1/2+x,1/2+y,z
1/2-x,1/2+y,-z
loop_
_atom_site_type_symbol
_atom_site_label
_atom_site_fract_x
_atom_site_fract_y
_atom_site_fract_z
Si Si1 0.818849 0.131310 0.458547
Si Si2 0.863416 0.979837 0.703685
Si Si3 0.398030 0.848121 0.079606
Si Si4 0.950258 0.974488 0.865525
Si Si5 0.500000 0.185255 0.000000
Si Si6 0.785098 0.886147 0.226625
Si Si7 0.221004 0.317237 0.014245
O O1 0.868828 0.030289 0.515056
O O2 0.866209 0.277291 0.291175
O O3 0.748649 0.204472 0.657949
O O4 0.783316 0.015496 0.374624
O O5 0.819802 0.145188 0.851820
O O6 0.937136 0.964720 0.701036
O O7 0.804734 0.817436 0.818441
O O8 0.449027 0.680988 0.933344
O O9 0.333082 0.873391 0.046160
O O10 0.436646 0.039667 0.048647
O O11 0.009386 0.831042 0.846874
O O12 0.870735 0.895809 0.047336
O O13 0.733482 0.931191 0.154475
#
# Coordination Sequence:
#
# PCOD9121404 Si02
#       7
#     4   4   4   4   2   4   4
#     4  10  19  33  58  94 126 157 191 266 329 355
#     4   9  18  33  59  89 126 160 195 262 315 365
#     4  10  22  38  60  90 119 166 208 259 307 358
#     4   9  21  40  57  89 123 163 216 250 300 369
#     4  12  24  38  68  84 122 172 222 248 284 396
#     4   9  19  33  57  91 125 159 194 261 320 366
#     4   9  18  32  55  87 123 155 201 247 311 371
#
# _framework density 22.771108000000002
#
# number of rings (size 3 to 8) (size 9 to 14) (size 15 to 20)
#    0.000    2.462    0.000    2.308    8.615    0.000 
#    0.000    0.000    0.000   34.154    0.000    0.000 
#    0.000    0.000    0.000    0.000    0.000    0.000 
#
# Total GULP energy -72377.869012 kJ/mol
# GULP energy per Si atom -5567.528386 kJ/mol
# Density = 2.271928 g / cm^3
# Si number density = 22.771108 Si / 1000 Ang^3
#
#
#
# Elastic Constant Matrix: (Units=GPa)
#
#
# Indices 1 2 3 4 5 6 
#
# 1 111.7735 48.4820 51.7431 0.0000 43.6262 0.0000
# 2 48.4820 120.1015 40.7291 0.0000 14.7484 0.0000
# 3 51.7431 40.7291 118.3145 0.0000 32.5956 0.0000
# 4 0.0000 0.0000 0.0000 28.0198 0.0000 -2.4349
# 5 43.6262 14.7484 32.5956 0.0000 39.8460 0.0000
# 6 0.0000 0.0000 0.0000 -2.4349 0.0000 34.9821
#
#
#
# Elastic Compliance Matrix: (Units=1/GPa)
#
#
# Indices 1 2 3 4 5 6 
#
# 1 0.018472 -0.004774 -0.001743 0.000000 -0.017031 0.000000
# 2 -0.004774 0.010697 -0.002509 0.000000 0.003320 0.000000
# 3 -0.001743 -0.002509 0.012001 0.000000 -0.006981 0.000000
# 4 0.000000 0.000000 0.000000 0.035906 0.000000 0.002499
# 5 -0.017031 0.003320 -0.006981 0.000000 0.048225 0.000000
# 6 0.000000 0.000000 0.000000 0.002499 0.000000 0.028760
#
#
# Mechanical properties :
#
#
# Convention : Reuss Voigt Hill
#
# Bulk Modulus (GPa) = 43.25722 70.23312 56.74517
# Shear Modulus (GPa) = 27.80576 34.51860 31.16218
#
# Velocity S-wave (km/s) = 3.49821 3.89767 3.70333
# Velocity P-wave (km/s) = 5.94596 7.15303 6.57724
#
# Compressibility (1/GPa) = 0.02311753
#
# Stress axis : x y z
#
# Youngs Moduli (GPa) = 54.13671 93.48713 83.32555
#
# Poissons Ratio (x) = 0.44632 0.14521
# Poissons Ratio (y) = 0.25846 0.20908
# Poissons Ratio (z) = 0.09434 0.23457
#
# Static dielectric constant tensor:
#      x y z
#    x 1.992490 0.000000 -0.028050 
#    y 0.000000 2.004050 0.000000 
#    z -0.028050 0.000000 1.880530 
# 
# From -- ./inp_files/30422.got.cif
#   From: 2010.05.17/outbox.cif.g08.bks.cpg/sg5_16_cif.got.tgz:30422.got - 2010.06.03 18:56:24.
