data_PCOD9121112
_publ_section_title
;
Structure prediction by ZEFSAII (Michael W. Deem and Ramdas Pophale) SiO2 
 PCOD9121112
Probable space group: C 2
;
_chemical_formula_sum "Si O2"
_cell_formula_units_Z 30
_cell_length_a 9.820770
_cell_length_b 15.745113
_cell_length_c 9.691726
_cell_angle_alpha 90.000000
_cell_angle_beta 68.477147
_cell_angle_gamma 90.000000
_cell_volume 1394.126162
_symmetry_space_group_name_H-M "C 2"
_symmetry_group_IT_number 5
_symmetry_cell_setting 'monoclinic'
loop_
_space_group_symop_operation_xyz
x,y,z
-x,y,-z
1/2+x,1/2+y,z
1/2-x,1/2+y,-z
loop_
_atom_site_type_symbol
_atom_site_label
_atom_site_fract_x
_atom_site_fract_y
_atom_site_fract_z
Si Si1 0.514357 0.824730 0.286779
Si Si2 0.370858 0.003060 0.748703
Si Si3 0.000000 0.776164 0.000000
Si Si4 0.135008 0.958770 0.617706
Si Si5 0.695323 0.486801 0.273816
Si Si6 0.739046 0.776025 0.442285
Si Si7 0.277327 0.878889 0.006839
Si Si8 0.600937 0.137971 0.743441
O O1 0.628605 0.782132 0.352106
O O2 0.358209 0.788134 0.384879
O O3 0.516633 0.925272 0.324729
O O4 0.589200 0.824078 0.108351
O O5 0.460431 0.086931 0.743868
O O6 0.747279 0.002356 0.327366
O O7 0.292874 0.967060 0.915344
O O8 0.060264 0.713534 0.860905
O O9 0.870719 0.833120 0.985040
O O10 0.153974 0.856451 0.619423
O O11 0.172772 0.977570 0.445510
O O12 0.971742 0.987537 0.717554
O O13 0.773751 0.408479 0.166013
O O14 0.792772 0.570600 0.221398
O O15 0.817004 0.685997 0.410407
#
# Coordination Sequence:
#
# PCOD9121112 Si02
#       8
#     4   4   2   4   4   4   4   4
#     4   8  18  35  64  95 126 182 229 263 330 433
#     4   9  20  41  67  96 132 180 239 269 350 410
#     4  12  22  42  70 102 138 182 244 280 372 400
#     4  10  22  44  65  98 130 189 232 283 338 442
#     4  11  24  39  66 103 143 171 238 286 356 402
#     4  10  18  39  66  94 131 171 235 279 340 404
#     4  10  20  41  66  97 128 185 225 278 328 439
#     4  12  23  37  67 109 137 175 228 311 344 405
#
# _framework density 21.518854999999999
#
# number of rings (size 3 to 8) (size 9 to 14) (size 15 to 20)
#    0.800    1.067    1.333    3.200    0.000    3.733 
#    0.000    5.333    0.000   11.200    0.000    0.000 
#    0.000    0.000    0.000    0.000    0.000    0.000 
#
# Total GULP energy -83743.686019 kJ/mol
# GULP energy per Si atom -5582.912401 kJ/mol
# Density = 2.146988 g / cm^3
# Si number density = 21.518855 Si / 1000 Ang^3
#
#
#
# Elastic Constant Matrix: (Units=GPa)
#
#
# Indices 1 2 3 4 5 6 
#
# 1 110.5303 57.0038 39.3468 0.0000 -12.6321 0.0000
# 2 57.0038 101.9797 32.1621 0.0000 -9.7303 0.0000
# 3 39.3468 32.1621 119.0122 0.0000 -10.2911 0.0000
# 4 0.0000 0.0000 0.0000 37.5040 0.0000 -12.7856
# 5 -12.6321 -9.7303 -10.2911 0.0000 28.9641 0.0000
# 6 0.0000 0.0000 0.0000 -12.7856 0.0000 41.9283
#
#
#
# Elastic Compliance Matrix: (Units=1/GPa)
#
#
# Indices 1 2 3 4 5 6 
#
# 1 0.013650 -0.006572 -0.002489 0.000000 0.002861 0.000000
# 2 -0.006572 0.014085 -0.001519 0.000000 0.001326 0.000000
# 3 -0.002489 -0.001519 0.009799 0.000000 0.001886 0.000000
# 4 0.000000 0.000000 0.000000 0.029757 0.000000 0.009074
# 5 0.002861 0.001326 0.001886 0.000000 0.036889 0.000000
# 6 0.000000 0.000000 0.000000 0.009074 0.000000 0.026617
#
#
# Mechanical properties :
#
#
# Convention : Reuss Voigt Hill
#
# Bulk Modulus (GPa) = 61.07480 65.39418 63.23449
# Shear Modulus (GPa) = 31.76320 35.21323 33.48821
#
# Velocity S-wave (km/s) = 3.84613 4.04962 3.94918
# Velocity P-wave (km/s) = 6.94026 7.23333 7.08831
#
# Compressibility (1/GPa) = 0.01637336
#
# Stress axis : x y z
#
# Youngs Moduli (GPa) = 73.26188 70.99827 102.05047
#
# Poissons Ratio (x) = 0.46658 0.25404
# Poissons Ratio (y) = 0.48146 0.15501
# Poissons Ratio (z) = 0.18238 0.10785
#
# Static dielectric constant tensor:
#      x y z
#    x 1.826390 0.000000 -0.018950 
#    y 0.000000 1.756620 0.000000 
#    z -0.018950 0.000000 1.856270 
# 
# From -- ./inp_files/39840.got.cif
#   From: 2010.05.17/outbox.cif.g08.bks.cpg/sg5_20_cif.got.tgz:39840.got - 2010.06.03 18:56:24.
