data_PCOD9121007
_publ_section_title
;
Structure prediction by ZEFSAII (Michael W. Deem and Ramdas Pophale) SiO2 
 PCOD9121007
Probable space group: C 2
;
_chemical_formula_sum "Si O2"
_cell_formula_units_Z 24
_cell_length_a 10.843887
_cell_length_b 9.758247
_cell_length_c 11.933451
_cell_angle_alpha 90.000000
_cell_angle_beta 63.092558
_cell_angle_gamma 90.000000
_cell_volume 1126.057290
_symmetry_space_group_name_H-M "C 2"
_symmetry_group_IT_number 5
_symmetry_cell_setting 'monoclinic'
loop_
_space_group_symop_operation_xyz
x,y,z
-x,y,-z
1/2+x,1/2+y,z
1/2-x,1/2+y,-z
loop_
_atom_site_type_symbol
_atom_site_label
_atom_site_fract_x
_atom_site_fract_y
_atom_site_fract_z
Si Si1 0.052213 0.926400 0.758220
Si Si2 0.655183 0.222911 0.886483
Si Si3 0.369115 0.234168 0.474043
Si Si4 0.447801 0.035534 0.254590
Si Si5 0.297210 0.231922 0.892492
Si Si6 0.884479 0.233959 0.250035
O O1 0.148623 0.863075 0.817800
O O2 0.116563 0.858503 0.620217
O O3 0.899651 0.862319 0.837148
O O4 0.045126 0.088077 0.761858
O O5 0.655504 0.097337 0.798768
O O6 0.500000 0.212266 0.000000
O O7 0.747418 0.221494 0.959457
O O8 0.500000 0.242877 0.500000
O O9 0.237630 0.237888 0.607375
O O10 0.384173 0.095039 0.395374
O O11 0.463904 0.874721 0.237928
O O12 0.596598 0.107976 0.178725
O O13 0.179089 0.236772 0.848938
#
# Coordination Sequence:
#
# PCOD9121007 Si02
#       6
#     4   4   4   4   4   4
#     4   9  19  34  55  80 103 137 179 210 259 313
#     4   7  15  36  55  72 108 145 162 212 265 299
#     4  10  18  38  57  69 108 146 166 211 274 304
#     4   9  19  34  55  80 103 137 179 210 259 313
#     4   9  19  39  56  72 113 142 167 212 262 311
#     4  12  20  32  59  80 103 138 175 219 257 303
#
# _framework density 21.313303000000001
#
# number of rings (size 3 to 8) (size 9 to 14) (size 15 to 20)
#    0.000    3.333    3.333    1.000    0.000    1.333 
#    0.000   13.333    0.000    0.000    0.000    0.000 
#    0.000    0.000    0.000    0.000    0.000    0.000 
#
# Total GULP energy -66960.523908 kJ/mol
# GULP energy per Si atom -5580.043659 kJ/mol
# Density = 2.126479 g / cm^3
# Si number density = 21.313303 Si / 1000 Ang^3
#
#
#
# Elastic Constant Matrix: (Units=GPa)
#
#
# Indices 1 2 3 4 5 6 
#
# 1 31.5969 13.3558 8.1521 0.0000 5.8570 0.0000
# 2 13.3558 126.2720 -26.4769 0.0000 -2.2946 0.0000
# 3 8.1521 -26.4769 67.4100 0.0000 23.1699 0.0000
# 4 0.0000 0.0000 0.0000 0.0418 0.0000 2.4013
# 5 5.8570 -2.2946 23.1699 0.0000 28.4669 0.0000
# 6 0.0000 0.0000 0.0000 2.4013 0.0000 15.6551
#
#
#
# Elastic Compliance Matrix: (Units=1/GPa)
#
#
# Indices 1 2 3 4 5 6 
#
# 1 0.035677 -0.004881 -0.004961 0.000000 -0.003696 0.000000
# 2 -0.004881 0.009470 0.005140 0.000000 -0.002416 0.000000
# 3 -0.004961 0.005140 0.023548 0.000000 -0.017731 0.000000
# 4 0.000000 0.000000 0.000000 -3.062377 0.000000 0.469734
# 5 -0.003696 -0.002416 -0.017731 0.000000 0.050126 0.000000
# 6 0.000000 0.000000 0.000000 0.469734 0.000000 -0.008175
#
#
# Mechanical properties :
#
#
# Convention : Reuss Voigt Hill
#
# Bulk Modulus (GPa) = 16.86630 23.92678 20.39654
# Shear Modulus (GPa) = -1.71083 24.18261 11.23589
#
# Velocity S-wave (km/s) = -0.89691 3.37207 2.29853
# Velocity P-wave (km/s) = 2.61880 5.13924 4.07859
#
# Compressibility (1/GPa) = 0.05928981
#
# Stress axis : x y z
#
# Youngs Moduli (GPa) = 28.02930 105.60145 42.46649
#
# Poissons Ratio (x) = 0.51545 0.21069
# Poissons Ratio (y) = 0.13681 -0.21828
# Poissons Ratio (z) = 0.13907 -0.54281
#
# Static dielectric constant tensor:
#      x y z
#    x 1.777850 0.000000 0.034380 
#    y 0.000000 1.774470 0.000000 
#    z 0.034380 0.000000 1.799760 
# 
# From -- ./inp_files/41283.got.cif
#   From: 2010.05.17/outbox.cif.g08.bks.cpg/sg5_21_cif.got.tgz:41283.got - 2010.06.03 18:56:24.
