data_PCOD9121505
_publ_section_title
;
Structure prediction by ZEFSAII (Michael W. Deem and Ramdas Pophale) SiO2 
 PCOD9121505
Probable space group: C 2
;
_chemical_formula_sum "Si O2"
_cell_formula_units_Z 32
_cell_length_a 8.927285
_cell_length_b 23.979970
_cell_length_c 15.341234
_cell_angle_alpha 90.000000
_cell_angle_beta 149.377594
_cell_angle_gamma 90.000000
_cell_volume 1672.894271
_symmetry_space_group_name_H-M "C 2"
_symmetry_group_IT_number 5
_symmetry_cell_setting 'monoclinic'
loop_
_space_group_symop_operation_xyz
x,y,z
-x,y,-z
1/2+x,1/2+y,z
1/2-x,1/2+y,-z
loop_
_atom_site_type_symbol
_atom_site_label
_atom_site_fract_x
_atom_site_fract_y
_atom_site_fract_z
Si Si1 0.817567 0.642260 0.277462
Si Si2 0.698766 0.834914 0.513596
Si Si3 0.196303 0.266605 0.178439
Si Si4 0.180014 0.524128 0.819593
Si Si5 0.346683 0.778321 0.185162
Si Si6 0.678212 0.556424 0.681745
Si Si7 0.833722 0.952496 0.509713
Si Si8 0.968973 0.154993 0.684136
O O1 0.739013 0.699794 0.190182
O O2 0.802551 0.584072 0.219606
O O3 0.601652 0.639045 0.252028
O O4 0.150810 0.651850 0.478012
O O5 0.500000 0.828860 0.500000
O O6 0.502762 0.819431 0.331215
O O7 0.809468 0.897893 0.554760
O O8 0.984388 0.795179 0.659561
O O9 0.023830 0.278280 0.182432
O O10 0.000000 0.287330 0.000000
O O11 0.000393 0.537680 0.816999
O O12 0.982992 0.479309 0.670057
O O13 0.500000 0.502500 0.000000
O O14 0.395214 0.716296 0.248600
O O15 0.000000 0.789077 0.000000
O O16 0.500000 0.566316 0.500000
O O17 0.512203 0.503979 0.640807
O O18 0.667770 0.610619 0.734520
O O19 0.000000 0.940615 0.500000
#
# Coordination Sequence:
#
# PCOD9121505 Si02
#       8
#     4   4   4   4   4   4   4   4
#     4  10  19  34  58  90 122 159 193 244 301 366
#     4  12  25  41  65  91 117 163 211 256 315 364
#     4  11  23  42  63  92 126 162 205 255 306 370
#     4  10  20  35  58  89 119 152 196 246 302 356
#     4  11  24  41  61  91 128 165 206 253 306 365
#     4   9  18  35  56  84 114 155 196 239 295 355
#     4   9  20  39  59  82 111 158 199 248 302 364
#     4  10  19  34  58  86 122 161 197 238 305 359
#
# _framework density 19.128526000000001
#
# number of rings (size 3 to 8) (size 9 to 14) (size 15 to 20)
#    0.000    2.000    3.750    2.250    0.000    6.000 
#    0.000    2.500    0.000    0.750    0.000    0.000 
#    0.000    0.000    0.000    0.000    0.000    0.000 
#
# Total GULP energy -89312.329681 kJ/mol
# GULP energy per Si atom -5582.020605 kJ/mol
# Density = 1.908499 g / cm^3
# Si number density = 19.128526 Si / 1000 Ang^3
#
#
#
# Elastic Constant Matrix: (Units=GPa)
#
#
# Indices 1 2 3 4 5 6 
#
# 1 58.1934 28.8084 23.5320 0.0000 10.0214 -0.0002
# 2 28.8084 72.0352 9.4434 0.0001 -9.7422 0.0000
# 3 23.5320 9.4434 71.7995 0.0001 9.6699 -0.0002
# 4 0.0000 0.0001 0.0001 6.7016 0.0000 0.3036
# 5 10.0214 -9.7422 9.6699 0.0000 24.9918 -0.0003
# 6 -0.0002 0.0000 -0.0002 0.3036 -0.0003 31.3777
#
#
#
# Elastic Compliance Matrix: (Units=1/GPa)
#
#
# Indices 1 2 3 4 5 6 
#
# 1 0.027947 -0.012298 -0.005683 0.000000 -0.013801 0.000000
# 2 -0.012298 0.020639 -0.000455 0.000000 0.013153 0.000000
# 3 -0.005683 -0.000455 0.016423 0.000000 -0.004253 0.000000
# 4 0.000000 0.000000 0.000000 0.149284 0.000000 -0.001444
# 5 -0.013801 0.013153 -0.004253 0.000000 0.052320 0.000000
# 6 0.000000 0.000000 0.000000 -0.001444 0.000000 0.031884
#
#
# Mechanical properties :
#
#
# Convention : Reuss Voigt Hill
#
# Bulk Modulus (GPa) = 35.54212 36.17730 35.85971
# Shear Modulus (GPa) = 14.50332 21.96382 18.23357
#
# Velocity S-wave (km/s) = 2.75654 3.39222 3.09076
# Velocity P-wave (km/s) = 5.36212 5.85634 5.61467
#
# Compressibility (1/GPa) = 0.02813563
#
# Stress axis : x y z
#
# Youngs Moduli (GPa) = 35.78185 48.45225 60.89008
#
# Poissons Ratio (x) = 0.59587 0.34606
# Poissons Ratio (y) = 0.44005 0.02772
# Poissons Ratio (z) = 0.20336 0.02206
#
# Static dielectric constant tensor:
#      x y z
#    x 1.664860 0.000000 -0.000380 
#    y 0.000000 1.649230 0.000000 
#    z -0.000380 0.000000 1.677800 
# 
# From -- ./inp_files/51707.got.cif
#   From: 2010.05.17/outbox.cif.g08.bks.cpg/sg5_26_cif.got.tgz:51707.got - 2010.06.03 18:56:24.
