data_PCOD9121963
_publ_section_title
;
Structure prediction by ZEFSAII (Michael W. Deem and Ramdas Pophale) SiO2 
 PCOD9121963
Probable space group: C 2
;
_chemical_formula_sum "Si O2"
_cell_formula_units_Z 24
_cell_length_a 15.387130
_cell_length_b 15.615234
_cell_length_c 9.343601
_cell_angle_alpha 90.000000
_cell_angle_beta 30.526995
_cell_angle_gamma 90.000000
_cell_volume 1140.345531
_symmetry_space_group_name_H-M "C 2"
_symmetry_group_IT_number 5
_symmetry_cell_setting 'monoclinic'
loop_
_space_group_symop_operation_xyz
x,y,z
-x,y,-z
1/2+x,1/2+y,z
1/2-x,1/2+y,-z
loop_
_atom_site_type_symbol
_atom_site_label
_atom_site_fract_x
_atom_site_fract_y
_atom_site_fract_z
Si Si1 0.480917 0.505860 0.692839
Si Si2 0.949639 0.261132 0.218118
Si Si3 0.316093 0.933903 0.684519
Si Si4 0.343081 0.958641 0.323448
Si Si5 0.361158 0.698898 0.813248
Si Si6 0.681159 0.243044 0.814851
O O1 0.500000 0.476551 0.500000
O O2 0.662486 0.485242 0.510220
O O3 0.421538 0.604743 0.768611
O O4 0.327469 0.466943 0.003171
O O5 0.874439 0.354711 0.285512
O O6 0.811155 0.210520 0.508211
O O7 0.117082 0.261703 0.083222
O O8 0.000000 0.216985 0.000000
O O9 0.500000 0.931953 0.500000
O O10 0.338781 0.981709 0.498810
O O11 0.243596 0.839898 0.751042
O O12 0.500000 0.991453 0.000000
O O13 0.500000 0.730310 0.500000
O O14 0.193561 0.698466 0.952337
O O15 0.500000 0.240493 0.000000
#
# Coordination Sequence:
#
# PCOD9121963 Si02
#       6
#     4   4   4   4   4   4
#     4  11  23  39  58  87 123 159 198 243 297 351
#     4   9  18  35  58  86 114 147 189 236 291 347
#     4  11  21  37  62  89 119 156 200 246 292 349
#     4  10  20  37  62  90 117 152 199 245 293 350
#     4   9  20  39  59  82 118 156 188 237 298 350
#     4  10  19  37  63  86 111 150 199 245 293 349
#
# _framework density 21.046251999999999
#
# number of rings (size 3 to 8) (size 9 to 14) (size 15 to 20)
#    0.000    2.000    0.000    6.000    0.000    2.667 
#    0.000   15.000    0.000    0.000    0.000    0.000 
#    0.000    0.000    0.000    0.000    0.000    0.000 
#
# Total GULP energy -66833.690311 kJ/mol
# GULP energy per Si atom -5569.474193 kJ/mol
# Density = 2.099835 g / cm^3
# Si number density = 21.046252 Si / 1000 Ang^3
#
#
#
# Elastic Constant Matrix: (Units=GPa)
#
#
# Indices 1 2 3 4 5 6 
#
# 1 235.8462 51.1187 95.7928 0.0000 -16.3079 0.0000
# 2 51.1187 53.1953 34.2056 -0.0002 -2.5749 0.0001
# 3 95.7928 34.2056 158.5732 -0.0004 1.9639 0.0002
# 4 0.0000 -0.0002 -0.0004 10.3282 0.0000 1.3387
# 5 -16.3079 -2.5749 1.9639 0.0000 47.6320 0.0000
# 6 0.0000 0.0001 0.0002 1.3387 0.0000 20.6454
#
#
#
# Elastic Compliance Matrix: (Units=1/GPa)
#
#
# Indices 1 2 3 4 5 6 
#
# 1 0.006550 -0.004214 -0.003074 0.000000 0.002142 0.000000
# 2 -0.004214 0.024627 -0.002767 0.000000 0.000003 0.000000
# 3 -0.003074 -0.002767 0.008780 0.000000 -0.001564 0.000000
# 4 0.000000 0.000000 0.000000 0.097643 0.000000 -0.006331
# 5 0.002142 0.000003 -0.001564 0.000000 0.021792 0.000000
# 6 0.000000 0.000000 0.000000 -0.006331 0.000000 0.048847
#
#
# Mechanical properties :
#
#
# Convention : Reuss Voigt Hill
#
# Bulk Modulus (GPa) = 50.38577 89.98319 70.18448
# Shear Modulus (GPa) = 21.27968 33.48763 27.38366
#
# Velocity S-wave (km/s) = 3.18322 3.99324 3.61101
# Velocity P-wave (km/s) = 6.12397 8.00682 7.12784
#
# Compressibility (1/GPa) = 0.01984687
#
# Stress axis : x y z
#
# Youngs Moduli (GPa) = 152.66624 40.60545 113.89918
#
# Poissons Ratio (x) = 0.17111 0.35018
# Poissons Ratio (y) = 0.64332 0.31513
# Poissons Ratio (z) = 0.46937 0.11235
#
# Static dielectric constant tensor:
#      x y z
#    x 1.895990 0.000000 -0.005990 
#    y 0.000000 1.801010 0.000000 
#    z -0.005990 0.000000 1.815540 
# 
# From -- ./inp_files/25141.got.cif
#   From: 2010.05.17/outbox.cif.g08.bks.cpg/sg5_13_cif.got.tgz:25141.got - 2010.06.03 18:56:24.
