data_PCOD9121174
_publ_section_title
;
Structure prediction by ZEFSAII (Michael W. Deem and Ramdas Pophale) SiO2 
 PCOD9121174
Probable space group: C 2
;
_chemical_formula_sum "Si O2"
_cell_formula_units_Z 18
_cell_length_a 18.665012
_cell_length_b 5.099961
_cell_length_c 18.071540
_cell_angle_alpha 90.000000
_cell_angle_beta 24.296537
_cell_angle_gamma 90.000000
_cell_volume 707.810735
_symmetry_space_group_name_H-M "C 2"
_symmetry_group_IT_number 5
_symmetry_cell_setting 'monoclinic'
loop_
_space_group_symop_operation_xyz
x,y,z
-x,y,-z
1/2+x,1/2+y,z
1/2-x,1/2+y,-z
loop_
_atom_site_type_symbol
_atom_site_label
_atom_site_fract_x
_atom_site_fract_y
_atom_site_fract_z
Si Si1 0.027113 0.819950 0.866897
Si Si2 0.357949 0.670756 0.495271
Si Si3 0.703430 0.645560 0.087157
Si Si4 0.800334 0.322648 0.251828
Si Si5 0.500000 0.006292 0.500000
O O1 0.315873 0.378186 0.564718
O O2 0.120123 0.608883 0.833335
O O3 0.050595 0.113165 0.872380
O O4 0.835322 0.734386 0.027512
O O5 0.502593 0.677991 0.297169
O O6 0.163074 0.788102 0.669172
O O7 0.441238 0.826742 0.487010
O O8 0.750640 0.849319 0.977769
O O9 0.663227 0.192866 0.326173
#
# Coordination Sequence:
#
# PCOD9121174 Si02
#       5
#     4   4   4   4   2
#     4   9  21  41  62  91 131 165 217 266 315 383
#     4   9  23  41  68  93 131 169 216 262 325 384
#     4  12  27  42  67  96 132 175 218 269 327 388
#     4   9  19  38  66  91 127 163 209 264 316 379
#     4  10  18  40  72  94 122 178 204 268 322 390
#
# _framework density 25.430527000000001
#
# number of rings (size 3 to 8) (size 9 to 14) (size 15 to 20)
#    1.333    0.889    0.000    2.000    6.222    1.778 
#    0.000    4.444    4.889    0.000    0.000    0.000 
#    0.000    0.000    0.000    0.000    0.000    0.000 
#
# Total GULP energy -50237.989043 kJ/mol
# GULP energy per Si atom -5581.998783 kJ/mol
# Density = 2.537265 g / cm^3
# Si number density = 25.430527 Si / 1000 Ang^3
#
#
#
# Elastic Constant Matrix: (Units=GPa)
#
#
# Indices 1 2 3 4 5 6 
#
# 1 53.9958 21.1848 3.6935 -0.0022 -21.4054 -0.0008
# 2 21.1848 115.4740 -4.6663 -0.0479 -10.0970 0.0275
# 3 3.6935 -4.6663 150.9307 -0.0258 11.0656 0.0151
# 4 -0.0022 -0.0479 -0.0258 5.8847 0.0184 -16.7946
# 5 -21.4054 -10.0970 11.0656 0.0184 29.6004 -0.0075
# 6 -0.0008 0.0275 0.0151 -16.7946 -0.0075 35.5565
#
#
#
# Elastic Compliance Matrix: (Units=1/GPa)
#
#
# Indices 1 2 3 4 5 6 
#
# 1 0.027897 -0.003475 -0.002244 0.000188 0.019827 0.000097
# 2 -0.003475 0.009359 0.000334 -0.000154 0.000555 -0.000080
# 3 -0.002244 0.000334 0.006993 -0.000096 -0.004123 -0.000050
# 4 0.000188 -0.000154 -0.000096 -0.488262 0.000364 -0.230624
# 5 0.019827 0.000555 -0.004123 0.000364 0.049851 0.000184
# 6 0.000097 -0.000080 -0.000050 -0.230624 0.000184 -0.080807
#
#
# Mechanical properties :
#
#
# Convention : Reuss Voigt Hill
#
# Bulk Modulus (GPa) = 29.86920 40.09161 34.98041
# Shear Modulus (GPa) = -11.03656 34.22090 11.59217
#
# Velocity S-wave (km/s) = -2.08550 3.67231 2.13735
# Velocity P-wave (km/s) = 2.44373 5.81210 4.45827
#
# Compressibility (1/GPa) = 0.03347930
#
# Stress axis : x y z
#
# Youngs Moduli (GPa) = 35.84668 106.84411 142.99929
#
# Poissons Ratio (x) = 0.37127 0.32085
# Poissons Ratio (y) = 0.12456 -0.04772
# Poissons Ratio (z) = 0.08043 -0.03565
#
# Static dielectric constant tensor:
#      x y z
#    x 2.069790 0.000000 0.100440 
#    y 0.000000 1.974330 0.000000 
#    z 0.100440 0.000000 2.112910 
# 
# From -- ./inp_files/62037.got.cif
#   From: 2010.05.17/outbox.cif.g08.bks.cpg/sg5_32_cif.got.tgz:62037.got - 2010.06.03 18:56:24.
