data_PCOD9121699
_publ_section_title
;
Structure prediction by ZEFSAII (Michael W. Deem and Ramdas Pophale) SiO2 
 PCOD9121699
Probable space group: C 2
;
_chemical_formula_sum "Si O2"
_cell_formula_units_Z 30
_cell_length_a 5.595739
_cell_length_b 32.072194
_cell_length_c 7.984315
_cell_angle_alpha 90.000000
_cell_angle_beta 62.706999
_cell_angle_gamma 90.000000
_cell_volume 1273.403067
_symmetry_space_group_name_H-M "C 2"
_symmetry_group_IT_number 5
_symmetry_cell_setting 'monoclinic'
loop_
_space_group_symop_operation_xyz
x,y,z
-x,y,-z
1/2+x,1/2+y,z
1/2-x,1/2+y,-z
loop_
_atom_site_type_symbol
_atom_site_label
_atom_site_fract_x
_atom_site_fract_y
_atom_site_fract_z
Si Si1 0.101545 0.077240 0.217570
Si Si2 0.664590 0.207391 0.273902
Si Si3 0.085871 0.977703 0.223021
Si Si4 0.811852 0.367553 0.396605
Si Si5 0.113278 0.610316 0.214640
Si Si6 0.000000 0.759931 0.000000
Si Si7 0.517904 0.785650 0.797834
Si Si8 0.085747 0.445449 0.207383
O O1 0.303337 0.096184 0.292124
O O2 0.794888 0.092505 0.305890
O O3 0.079406 0.027560 0.222751
O O4 0.245760 0.092874 0.999714
O O5 0.500000 0.208767 0.500000
O O6 0.663640 0.159646 0.216772
O O7 0.918073 0.236566 0.243371
O O8 0.578192 0.231284 0.132248
O O9 0.293779 0.967567 0.305881
O O10 0.792793 0.956585 0.291226
O O11 0.250983 0.961718 0.006278
O O12 0.500000 0.381988 0.500000
O O13 0.000000 0.369351 0.500000
O O14 0.800303 0.319426 0.345248
O O15 0.992204 0.397532 0.220725
O O16 0.212805 0.790092 0.841657
O O17 0.500000 0.794411 0.000000
#
# Coordination Sequence:
#
# PCOD9121699 Si02
#       8
#     4   4   4   4   4   2   4   4
#     4  10  19  35  64  97 136 175 234 290 351 413
#     4  11  25  43  67 100 143 191 239 294 364 426
#     4  10  19  36  67 101 131 177 232 288 350 418
#     4  12  28  46  68  99 144 189 227 286 363 427
#     4  10  20  33  59  93 134 175 228 284 340 412
#     4  10  24  44  70 102 130 182 246 300 348 424
#     4  10  26  44  72  98 136 179 244 296 353 426
#     4  10  20  36  63  95 131 165 235 280 338 416
#
# _framework density 23.558921999999999
#
# number of rings (size 3 to 8) (size 9 to 14) (size 15 to 20)
#    0.000    1.600    0.000    6.000   14.933    1.067 
#    0.000    0.000    0.000   13.600    0.000    0.000 
#    0.000    0.000    0.000    0.000    0.000    0.000 
#
# Total GULP energy -83538.867450 kJ/mol
# GULP energy per Si atom -5569.257830 kJ/mol
# Density = 2.350530 g / cm^3
# Si number density = 23.558922 Si / 1000 Ang^3
#
#
#
# Elastic Constant Matrix: (Units=GPa)
#
#
# Indices 1 2 3 4 5 6 
#
# 1 210.7327 59.0192 33.1650 0.0000 -10.8197 0.0000
# 2 59.0192 119.8839 13.2719 0.0000 -18.8550 0.0000
# 3 33.1650 13.2719 65.1410 0.0000 14.1235 0.0000
# 4 0.0000 0.0000 0.0000 -27.8612 0.0000 -7.8048
# 5 -10.8197 -18.8550 14.1235 0.0000 23.5431 0.0000
# 6 0.0000 0.0000 0.0000 -7.8048 0.0000 28.1249
#
#
#
# Elastic Compliance Matrix: (Units=1/GPa)
#
#
# Indices 1 2 3 4 5 6 
#
# 1 0.006012 -0.002118 -0.003289 0.000000 0.003040 0.000000
# 2 -0.002118 0.011371 -0.003451 0.000000 0.010203 0.000000
# 3 -0.003289 -0.003451 0.021445 0.000000 -0.017140 0.000000
# 4 0.000000 0.000000 0.000000 -0.033303 0.000000 -0.009242
# 5 0.003040 0.010203 -0.017140 0.000000 0.062326 0.000000
# 6 0.000000 0.000000 0.000000 -0.009242 0.000000 0.032991
#
#
# Mechanical properties :
#
#
# Convention : Reuss Voigt Hill
#
# Bulk Modulus (GPa) = 47.36265 67.40774 57.38519
# Shear Modulus (GPa) = 39.81107 24.11478 31.96293
#
# Velocity S-wave (km/s) = 4.11524 3.20284 3.68737
# Velocity P-wave (km/s) = 6.53665 6.50785 6.52227
#
# Compressibility (1/GPa) = 0.02111369
#
# Stress axis : x y z
#
# Youngs Moduli (GPa) = 166.33313 87.94535 46.63134
#
# Poissons Ratio (x) = 0.18623 0.15335
# Poissons Ratio (y) = 0.35222 0.16092
# Poissons Ratio (z) = 0.54699 0.30348
#
# Static dielectric constant tensor:
#      x y z
#    x 2.339290 0.000000 0.060920 
#    y 0.000000 1.900180 0.000000 
#    z 0.060920 0.000000 1.931310 
# 
# From -- ./inp_files/13347.got.cif
#   From: 2010.05.17/outbox.cif.g08.bks.cpg/sg5_7_cif.got.tgz:13347.got - 2010.06.03 18:56:24.
