data_PCOD9121250
_publ_section_title
;
Structure prediction by ZEFSAII (Michael W. Deem and Ramdas Pophale) SiO2 
 PCOD9121250
Probable space group: C 2
;
_chemical_formula_sum "Si O2"
_cell_formula_units_Z 28
_cell_length_a 5.245144
_cell_length_b 36.268879
_cell_length_c 8.022220
_cell_angle_alpha 90.000000
_cell_angle_beta 54.542899
_cell_angle_gamma 90.000000
_cell_volume 1243.093817
_symmetry_space_group_name_H-M "C 2"
_symmetry_group_IT_number 5
_symmetry_cell_setting 'monoclinic'
loop_
_space_group_symop_operation_xyz
x,y,z
-x,y,-z
1/2+x,1/2+y,z
1/2-x,1/2+y,-z
loop_
_atom_site_type_symbol
_atom_site_label
_atom_site_fract_x
_atom_site_fract_y
_atom_site_fract_z
Si Si1 0.621136 0.858400 0.144977
Si Si2 0.121608 0.437460 0.145292
Si Si3 0.876627 0.516724 0.860263
Si Si4 0.861445 0.200965 0.728518
Si Si5 0.122550 0.278781 0.142722
Si Si6 0.872224 0.594005 0.362800
Si Si7 0.649879 0.169279 0.254458
O O1 0.519229 0.818661 0.254804
O O2 0.500000 0.858222 0.000000
O O3 0.519143 0.897922 0.259448
O O4 0.000000 0.858501 0.000000
O O5 0.500000 0.437676 0.000000
O O6 0.032618 0.477185 0.256754
O O7 0.000000 0.436947 0.000000
O O8 0.032485 0.554073 0.738850
O O9 0.500000 0.520650 0.000000
O O10 0.000000 0.513203 0.000000
O O11 0.976876 0.242118 0.722925
O O12 0.498518 0.199562 0.813349
O O13 0.000000 0.187584 0.500000
O O14 0.993353 0.175034 0.824826
O O15 0.500000 0.278620 0.000000
O O16 0.000000 0.276453 0.000000
O O17 0.500000 0.598680 0.500000
O O18 0.000000 0.594259 0.500000
O O19 0.045446 0.629730 0.221694
O O20 0.500000 0.173278 0.500000
#
# Coordination Sequence:
#
# PCOD9121250 Si02
#       7
#     4   4   4   4   4   4   4
#     4   8  14  25  43  66  92 124 159 193 232 286
#     4   8  14  26  45  68  94 126 161 194 234 290
#     4  10  20  34  52  78 107 131 164 212 258 296
#     4  10  19  33  51  69  91 125 164 199 239 290
#     4  10  19  31  47  72 101 124 156 204 251 290
#     4  11  21  36  56  76 100 134 174 209 249 303
#     4   9  18  33  52  69  90 126 169 201 231 291
#
# _framework density 22.524448
#
# number of rings (size 3 to 8) (size 9 to 14) (size 15 to 20)
#    0.000    2.571    0.000    3.857    0.000    0.000 
#    0.000    4.286    0.000    0.857    0.000    3.000 
#    0.000    0.000    0.000    0.000    0.000    0.000 
#
# Total GULP energy -77982.124589 kJ/mol
# GULP energy per Si atom -5570.151756 kJ/mol
# Density = 2.247318 g / cm^3
# Si number density = 22.524448 Si / 1000 Ang^3
#
#
#
# Elastic Constant Matrix: (Units=GPa)
#
#
# Indices 1 2 3 4 5 6 
#
# 1 187.4474 39.0597 24.5950 0.0000 9.7496 0.0000
# 2 39.0597 243.7491 13.2020 0.0000 10.4663 0.0000
# 3 24.5950 13.2020 17.1713 0.0000 -1.5733 0.0000
# 4 0.0000 0.0000 0.0000 2.6255 0.0000 4.6186
# 5 9.7496 10.4663 -1.5733 0.0000 25.5979 0.0000
# 6 0.0000 0.0000 0.0000 4.6186 0.0000 39.5356
#
#
#
# Elastic Compliance Matrix: (Units=1/GPa)
#
#
# Indices 1 2 3 4 5 6 
#
# 1 0.006867 -0.000441 -0.009776 0.000000 -0.003036 0.000000
# 2 -0.000441 0.004410 -0.002925 0.000000 -0.001815 0.000000
# 3 -0.009776 -0.002925 0.075363 0.000000 0.009551 0.000000
# 4 0.000000 0.000000 0.000000 0.479400 0.000000 -0.056005
# 5 -0.003036 -0.001815 0.009551 0.000000 0.041551 0.000000
# 6 0.000000 0.000000 0.000000 -0.056005 0.000000 0.031836
#
#
# Mechanical properties :
#
#
# Convention : Reuss Voigt Hill
#
# Bulk Modulus (GPa) = 16.56822 66.89789 41.73306
# Shear Modulus (GPa) = 7.29044 38.31922 22.80483
#
# Velocity S-wave (km/s) = 1.80103 4.12907 3.18535
# Velocity P-wave (km/s) = 3.42003 7.24547 5.66540
#
# Compressibility (1/GPa) = 0.06035651
#
# Stress axis : x y z
#
# Youngs Moduli (GPa) = 145.61940 226.77979 13.26911
#
# Poissons Ratio (x) = 0.09992 0.12971
# Poissons Ratio (y) = 0.06416 0.03882
# Poissons Ratio (z) = 1.42351 0.66343
#
# Static dielectric constant tensor:
#      x y z
#    x 1.832280 0.000000 -0.048770 
#    y 0.000000 1.996150 0.000000 
#    z -0.048770 0.000000 1.894360 
# 
# From -- ./inp_files/13276.got.cif
#   From: 2010.05.17/outbox.cif.g08.bks.cpg/sg5_7_cif.got.tgz:13276.got - 2010.06.03 18:56:24.
