data_PCOD9121125
_publ_section_title
;
Structure prediction by ZEFSAII (Michael W. Deem and Ramdas Pophale) SiO2 
 PCOD9121125
Probable space group: C 2
;
_chemical_formula_sum "Si O2"
_cell_formula_units_Z 28
_cell_length_a 12.552949
_cell_length_b 18.832168
_cell_length_c 9.143668
_cell_angle_alpha 90.000000
_cell_angle_beta 137.148284
_cell_angle_gamma 90.000000
_cell_volume 1470.081515
_symmetry_space_group_name_H-M "C 2"
_symmetry_group_IT_number 5
_symmetry_cell_setting 'monoclinic'
loop_
_space_group_symop_operation_xyz
x,y,z
-x,y,-z
1/2+x,1/2+y,z
1/2-x,1/2+y,-z
loop_
_atom_site_type_symbol
_atom_site_label
_atom_site_fract_x
_atom_site_fract_y
_atom_site_fract_z
Si Si1 0.311844 0.729110 0.329627
Si Si2 0.250483 0.079561 0.578531
Si Si3 0.500000 0.488268 0.500000
Si Si4 0.253618 0.383598 0.190316
Si Si5 0.342921 0.238797 0.139936
Si Si6 0.320728 0.654562 0.779231
Si Si7 0.205579 0.788222 0.500957
Si Si8 0.000000 0.489551 0.000000
O O1 0.500000 0.731772 0.500000
O O2 0.263135 0.656253 0.359864
O O3 0.252869 0.791058 0.379458
O O4 0.218824 0.727820 0.084585
O O5 0.242906 0.095617 0.398016
O O6 0.105587 0.035482 0.499772
O O7 0.401230 0.038420 0.790933
O O8 0.396838 0.435058 0.299793
O O9 0.258125 0.310570 0.109254
O O10 0.273092 0.358273 0.379686
O O11 0.108390 0.434557 0.022296
O O12 0.286741 0.174418 0.188641
O O13 0.528333 0.256765 0.337588
O O14 0.318419 0.729058 0.687457
O O15 0.500000 0.638267 0.000000
#
# Coordination Sequence:
#
# PCOD9121125 Si02
#       8
#     4   4   2   4   4   4   4   2
#     4  11  23  37  63  92 127 157 201 263 322 370
#     4  10  22  39  60  89 121 160 212 247 311 365
#     4  10  18  40  60  78 118 168 210 240 298 374
#     4  10  20  38  63  86 116 156 214 245 309 361
#     4  11  21  37  64  93 123 159 197 265 322 365
#     4  10  21  36  61  92 124 154 201 259 314 362
#     4  10  21  37  60  95 121 156 202 262 315 368
#     4  10  24  36  64  84 120 170 204 258 278 384
#
# _framework density 19.046562000000002
#
# number of rings (size 3 to 8) (size 9 to 14) (size 15 to 20)
#    0.000    1.714    2.143    3.429   10.000    0.000 
#    0.000    0.000    6.286    1.714    0.000    0.000 
#    0.000    0.000    0.000    0.000    0.000    0.000 
#
# Total GULP energy -78046.128871 kJ/mol
# GULP energy per Si atom -5574.723491 kJ/mol
# Density = 1.900321 g / cm^3
# Si number density = 19.046562 Si / 1000 Ang^3
#
#
#
# Elastic Constant Matrix: (Units=GPa)
#
#
# Indices 1 2 3 4 5 6 
#
# 1 86.8743 31.5946 55.8999 0.0000 -5.7272 0.0000
# 2 31.5946 75.1789 38.7767 0.0000 -1.1045 0.0000
# 3 55.8999 38.7767 110.3554 0.0000 -5.5944 0.0000
# 4 0.0000 0.0000 0.0000 -136.4753 0.0000 -91.9461
# 5 -5.7272 -1.1045 -5.5944 0.0000 40.7029 0.0000
# 6 0.0000 0.0000 0.0000 -91.9461 0.0000 -50.1900
#
#
#
# Elastic Compliance Matrix: (Units=1/GPa)
#
#
# Indices 1 2 3 4 5 6 
#
# 1 0.017855 -0.003486 -0.007751 0.000000 0.001352 0.000000
# 2 -0.003486 0.016931 -0.004214 0.000000 -0.000610 0.000000
# 3 -0.007751 -0.004214 0.014509 0.000000 0.000789 0.000000
# 4 0.000000 0.000000 0.000000 0.031283 0.000000 -0.057309
# 5 0.001352 -0.000610 0.000789 0.000000 0.024850 0.000000
# 6 0.000000 0.000000 0.000000 -0.057309 0.000000 0.085063
#
#
# Mechanical properties :
#
#
# Convention : Reuss Voigt Hill
#
# Bulk Modulus (GPa) = 54.37018 58.32788 56.34903
# Shear Modulus (GPa) = 21.97551 -19.44999 1.26276
#
# Velocity S-wave (km/s) = 3.40042 -3.19906 0.81512
# Velocity P-wave (km/s) = 6.63513 4.12856 5.52585
#
# Compressibility (1/GPa) = 0.01839243
#
# Stress axis : x y z
#
# Youngs Moduli (GPa) = 56.00569 59.06154 68.92392
#
# Poissons Ratio (x) = 0.20589 0.53423
# Poissons Ratio (y) = 0.19524 0.29048
# Poissons Ratio (z) = 0.43410 0.24891
#
# Static dielectric constant tensor:
#      x y z
#    x 2.671440 0.000000 0.622550 
#    y 0.000000 1.645900 0.000000 
#    z 0.622550 0.000000 2.075020 
# 
# From -- ./inp_files/21834.got.cif
#   From: 2010.05.17/outbox.cif.g08.bks.cpg/sg5_11_cif.got.tgz:21834.got - 2010.06.03 18:56:24.
