data_PCOD9121896
_publ_section_title
;
Structure prediction by ZEFSAII (Michael W. Deem and Ramdas Pophale) SiO2 
 PCOD9121896
Probable space group: C 2
;
_chemical_formula_sum "Si O2"
_cell_formula_units_Z 30
_cell_length_a 8.586036
_cell_length_b 18.961062
_cell_length_c 10.296334
_cell_angle_alpha 90.000000
_cell_angle_beta 70.746182
_cell_angle_gamma 90.000000
_cell_volume 1582.489456
_symmetry_space_group_name_H-M "C 2"
_symmetry_group_IT_number 5
_symmetry_cell_setting 'monoclinic'
loop_
_space_group_symop_operation_xyz
x,y,z
-x,y,-z
1/2+x,1/2+y,z
1/2-x,1/2+y,-z
loop_
_atom_site_type_symbol
_atom_site_label
_atom_site_fract_x
_atom_site_fract_y
_atom_site_fract_z
Si Si1 0.847109 0.855690 0.961647
Si Si2 0.964245 0.856491 0.320209
Si Si3 0.546276 0.773127 0.141610
Si Si4 0.793244 0.999635 0.259787
Si Si5 0.946499 0.111674 0.863203
Si Si6 0.500000 0.960598 0.500000
Si Si7 0.811743 0.497364 0.013909
Si Si8 0.283691 0.850246 0.401492
O O1 0.943887 0.813803 0.821371
O O2 0.719134 0.815551 0.089509
O O3 0.752039 0.920905 0.923301
O O4 0.000000 0.885913 0.000000
O O5 0.122058 0.874699 0.366755
O O6 0.883945 0.927946 0.283204
O O7 0.815351 0.820122 0.442950
O O8 0.572512 0.692009 0.173463
O O9 0.403865 0.805099 0.273892
O O10 0.500000 0.776288 0.000000
O O11 0.632258 0.006450 0.389799
O O12 0.732184 0.995458 0.127434
O O13 0.912058 0.066031 0.243442
O O14 0.000000 0.114293 0.000000
O O15 0.785799 0.063010 0.900093
O O16 0.401906 0.910770 0.425789
O O17 0.000000 0.502815 0.000000
#
# Coordination Sequence:
#
# PCOD9121896 Si02
#       8
#     4   4   4   4   4   2   4   4
#     4  12  21  34  59  94 114 144 193 245 288 341
#     4  10  20  37  58  85 118 149 187 242 292 333
#     4  11  22  37  61  85 115 152 199 236 286 350
#     4  10  19  37  57  85 116 151 189 237 292 335
#     4   9  20  38  56  80 117 154 185 235 291 340
#     4  10  22  34  58  86 116 146 194 244 282 340
#     4  11  21  33  61  88 117 144 193 242 288 338
#     4  10  22  37  56  88 119 151 188 243 297 339
#
# _framework density 18.957471999999999
#
# number of rings (size 3 to 8) (size 9 to 14) (size 15 to 20)
#    0.000    1.600    4.000    1.600    3.733    0.533 
#    0.000    1.333    0.000    3.200    0.000    0.000 
#    0.000    0.000    0.000    0.000    0.000    0.000 
#
# Total GULP energy -83506.383838 kJ/mol
# GULP energy per Si atom -5567.092256 kJ/mol
# Density = 1.891432 g / cm^3
# Si number density = 18.957472 Si / 1000 Ang^3
#
#
#
# Elastic Constant Matrix: (Units=GPa)
#
#
# Indices 1 2 3 4 5 6 
#
# 1 121.8991 43.3018 40.8285 0.0000 -37.2475 0.0000
# 2 43.3018 95.1623 60.0666 0.0000 -29.9045 0.0000
# 3 40.8285 60.0666 152.6409 0.0000 -49.3945 0.0000
# 4 0.0000 0.0000 0.0000 16.9229 0.0000 -2.0568
# 5 -37.2475 -29.9045 -49.3945 0.0000 39.9040 0.0000
# 6 0.0000 0.0000 0.0000 -2.0568 0.0000 15.0828
#
#
#
# Elastic Compliance Matrix: (Units=1/GPa)
#
#
# Indices 1 2 3 4 5 6 
#
# 1 0.012099 -0.003021 0.001459 0.000000 0.010835 0.000000
# 2 -0.003021 0.015692 -0.004127 0.000000 0.003831 0.000000
# 3 0.001459 -0.004127 0.012053 0.000000 0.013188 0.000000
# 4 0.000000 0.000000 0.000000 0.060087 0.000000 0.008194
# 5 0.010835 0.003831 0.013188 0.000000 0.054370 0.000000
# 6 0.000000 0.000000 0.000000 0.008194 0.000000 0.067418
#
#
# Mechanical properties :
#
#
# Convention : Reuss Voigt Hill
#
# Bulk Modulus (GPa) = 35.13128 73.12179 54.12654
# Shear Modulus (GPa) = 20.61116 29.41564 25.01340
#
# Velocity S-wave (km/s) = 3.30090 3.94339 3.63636
# Velocity P-wave (km/s) = 5.75324 7.70643 6.80032
#
# Compressibility (1/GPa) = 0.02846466
#
# Stress axis : x y z
#
# Youngs Moduli (GPa) = 82.65210 63.72615 82.96681
#
# Poissons Ratio (x) = 0.19254 -0.12105
# Poissons Ratio (y) = 0.24972 0.34243
# Poissons Ratio (z) = -0.12059 0.26302
#
# Static dielectric constant tensor:
#      x y z
#    x 1.674050 0.000000 0.028030 
#    y 0.000000 1.623830 0.000000 
#    z 0.028030 0.000000 1.778670 
# 
# From -- ./inp_files/36899.got.cif
#   From: 2010.05.17/outbox.cif.g08.bks.cpg/sg5_19_cif.got.tgz:36899.got - 2010.06.03 18:56:24.
