data_PCOD9121328
_publ_section_title
;
Structure prediction by ZEFSAII (Michael W. Deem and Ramdas Pophale) SiO2 
 PCOD9121328
Probable space group: C 2
;
_chemical_formula_sum "Si O2"
_cell_formula_units_Z 30
_cell_length_a 9.270842
_cell_length_b 17.224585
_cell_length_c 11.612036
_cell_angle_alpha 90.000000
_cell_angle_beta 122.793480
_cell_angle_gamma 90.000000
_cell_volume 1558.763748
_symmetry_space_group_name_H-M "C 2"
_symmetry_group_IT_number 5
_symmetry_cell_setting 'monoclinic'
loop_
_space_group_symop_operation_xyz
x,y,z
-x,y,-z
1/2+x,1/2+y,z
1/2-x,1/2+y,-z
loop_
_atom_site_type_symbol
_atom_site_label
_atom_site_fract_x
_atom_site_fract_y
_atom_site_fract_z
Si Si1 0.357090 0.417760 0.226357
Si Si2 0.298044 0.077243 0.401903
Si Si3 0.071828 0.348372 0.774507
Si Si4 0.000000 0.369113 0.000000
Si Si5 0.868562 0.965625 0.841940
Si Si6 0.751417 0.450280 0.577179
Si Si7 0.067657 0.795673 0.407858
Si Si8 0.895811 0.207323 0.561185
O O1 0.502316 0.447320 0.206039
O O2 0.344930 0.461499 0.343302
O O3 0.403973 0.326220 0.267464
O O4 0.169495 0.420332 0.091481
O O5 0.500000 0.095630 0.500000
O O6 0.170785 0.148942 0.370004
O O7 0.253583 0.032355 0.264090
O O8 0.262741 0.019562 0.493877
O O9 0.255636 0.389051 0.827624
O O10 0.039610 0.326887 0.895142
O O11 0.938508 0.417907 0.690581
O O12 0.009297 0.276886 0.666983
O O13 0.000000 0.988341 0.000000
O O14 0.662710 0.376585 0.478255
O O15 0.218193 0.741264 0.429752
O O16 0.000000 0.764934 0.500000
O O17 0.000000 0.171713 0.500000
#
# Coordination Sequence:
#
# PCOD9121328 Si02
#       8
#     4   4   4   2   4   4   4   4
#     4  10  19  32  60  90 125 150 212 277 316 365
#     4  12  25  41  64  95 133 175 214 272 339 391
#     4  10  21  41  63  96 125 170 219 273 311 386
#     4  10  20  36  58  92 122 166 208 268 320 386
#     4  12  23  38  65  98 128 166 224 271 319 387
#     4   9  19  34  62  91 115 156 213 269 317 365
#     4   9  17  34  59  89 116 156 204 265 315 367
#     4  11  25  39  63  93 133 163 218 271 336 385
#
# _framework density 19.246023000000001
#
# number of rings (size 3 to 8) (size 9 to 14) (size 15 to 20)
#    0.000    1.600    4.000    2.000    3.733    0.000 
#    1.200    0.000    0.000    0.000    0.000    0.000 
#    0.000    0.000    0.000    0.000    0.000    0.000 
#
# Total GULP energy -83538.916560 kJ/mol
# GULP energy per Si atom -5569.261104 kJ/mol
# Density = 1.920222 g / cm^3
# Si number density = 19.246023 Si / 1000 Ang^3
#
#
#
# Elastic Constant Matrix: (Units=GPa)
#
#
# Indices 1 2 3 4 5 6 
#
# 1 112.8359 28.6582 24.6264 0.0000 6.8736 0.0000
# 2 28.6582 59.4810 19.6325 0.0000 0.7521 0.0000
# 3 24.6264 19.6325 97.6854 0.0000 5.8304 0.0000
# 4 0.0000 0.0000 0.0000 9.5366 0.0000 -2.6113
# 5 6.8736 0.7521 5.8304 0.0000 34.3826 0.0000
# 6 0.0000 0.0000 0.0000 -2.6113 0.0000 28.0531
#
#
#
# Elastic Compliance Matrix: (Units=1/GPa)
#
#
# Indices 1 2 3 4 5 6 
#
# 1 0.010461 -0.004479 -0.001635 0.000000 -0.001716 0.000000
# 2 -0.004479 0.019926 -0.002933 0.000000 0.000957 0.000000
# 3 -0.001635 -0.002933 0.011330 0.000000 -0.001530 0.000000
# 4 0.000000 0.000000 0.000000 0.107601 0.000000 0.010016
# 5 -0.001716 0.000957 -0.001530 0.000000 0.029666 0.000000
# 6 0.000000 0.000000 0.000000 0.010016 0.000000 0.036579
#
#
# Mechanical properties :
#
#
# Convention : Reuss Voigt Hill
#
# Bulk Modulus (GPa) = 42.32915 46.20406 44.26661
# Shear Modulus (GPa) = 20.70128 27.53350 24.11739
#
# Velocity S-wave (km/s) = 3.28321 3.78644 3.54377
# Velocity P-wave (km/s) = 6.03441 6.57080 6.30831
#
# Compressibility (1/GPa) = 0.02362438
#
# Stress axis : x y z
#
# Youngs Moduli (GPa) = 95.59013 50.18576 88.26307
#
# Poissons Ratio (x) = 0.22479 0.14428
# Poissons Ratio (y) = 0.42815 0.25884
# Poissons Ratio (z) = 0.15626 0.14718
#
# Static dielectric constant tensor:
#      x y z
#    x 1.717490 0.000000 0.020760 
#    y 0.000000 1.696500 0.000000 
#    z 0.020760 0.000000 1.749180 
# 
# From -- ./inp_files/37021.got.cif
#   From: 2010.05.17/outbox.cif.g08.bks.cpg/sg5_19_cif.got.tgz:37021.got - 2010.06.03 18:56:24.
