data_PCOD9121065
_publ_section_title
;
Structure prediction by ZEFSAII (Michael W. Deem and Ramdas Pophale) SiO2 
 PCOD9121065
Probable space group: C 2
;
_chemical_formula_sum "Si O2"
_cell_formula_units_Z 28
_cell_length_a 9.440274
_cell_length_b 17.455506
_cell_length_c 7.904299
_cell_angle_alpha 90.000000
_cell_angle_beta 81.068181
_cell_angle_gamma 90.000000
_cell_volume 1286.713531
_symmetry_space_group_name_H-M "C 2"
_symmetry_group_IT_number 5
_symmetry_cell_setting 'monoclinic'
loop_
_space_group_symop_operation_xyz
x,y,z
-x,y,-z
1/2+x,1/2+y,z
1/2-x,1/2+y,-z
loop_
_atom_site_type_symbol
_atom_site_label
_atom_site_fract_x
_atom_site_fract_y
_atom_site_fract_z
Si Si1 0.840573 0.158460 0.976525
Si Si2 0.603297 0.062683 0.625811
Si Si3 0.500000 0.465420 0.500000
Si Si4 0.129359 0.823880 0.645683
Si Si5 0.833462 0.188661 0.579941
Si Si6 0.322684 0.501164 0.828330
Si Si7 0.061291 0.701768 0.179393
Si Si8 0.500000 0.380830 0.000000
O O1 0.817408 0.181970 0.786642
O O2 0.816408 0.066850 0.970339
O O3 0.729540 0.196690 0.123222
O O4 0.000000 0.175320 0.000000
O O5 0.500000 0.029741 0.500000
O O6 0.731641 0.118855 0.531413
O O7 0.677566 0.004936 0.744983
O O8 0.504516 0.122288 0.746323
O O9 0.615783 0.403519 0.547511
O O10 0.442728 0.517064 0.661818
O O11 0.258478 0.770614 0.560224
O O12 0.990137 0.766898 0.681440
O O13 0.116780 0.846030 0.846589
O O14 0.000000 0.185944 0.500000
O O15 0.390889 0.426822 0.898682
O O16 0.000000 0.713925 0.000000
#
# Coordination Sequence:
#
# PCOD9121065 Si02
#       8
#     4   4   2   4   4   4   4   2
#     4  11  22  35  60  95 121 152 194 262 318 358
#     4  10  23  38  62  94 126 162 197 257 319 373
#     4  10  24  36  64  86 122 176 208 248 294 390
#     4  10  20  39  63  87 120 161 214 248 308 368
#     4  10  22  37  60  92 126 153 199 264 316 366
#     4  10  21  38  57  91 122 161 213 241 305 363
#     4  11  19  39  63  91 120 152 206 260 312 366
#     4  10  18  38  66  88 116 170 208 258 284 380
#
# _framework density 21.760864000000002
#
# number of rings (size 3 to 8) (size 9 to 14) (size 15 to 20)
#    0.000    1.714    5.714    0.000   10.000    0.000 
#    0.000    0.714    3.143    0.000    7.429    0.000 
#    0.000    0.000    0.000    0.000    0.000    0.000 
#
# Total GULP energy -77984.819816 kJ/mol
# GULP energy per Si atom -5570.344273 kJ/mol
# Density = 2.171134 g / cm^3
# Si number density = 21.760864 Si / 1000 Ang^3
#
#
#
# Elastic Constant Matrix: (Units=GPa)
#
#
# Indices 1 2 3 4 5 6 
#
# 1 151.0946 19.6191 24.9299 0.0000 -7.0603 0.0000
# 2 19.6191 37.0934 4.3391 0.0000 -3.0129 0.0000
# 3 24.9299 4.3391 60.2293 0.0000 -8.7941 0.0000
# 4 0.0000 0.0000 0.0000 14.4838 0.0000 -2.9029
# 5 -7.0603 -3.0129 -8.7941 0.0000 42.1817 0.0000
# 6 0.0000 0.0000 0.0000 -2.9029 0.0000 19.7115
#
#
#
# Elastic Compliance Matrix: (Units=1/GPa)
#
#
# Indices 1 2 3 4 5 6 
#
# 1 0.007575 -0.003643 -0.002811 0.000000 0.000422 0.000000
# 2 -0.003643 0.029043 -0.000382 0.000000 0.001385 0.000000
# 3 -0.002811 -0.000382 0.018278 0.000000 0.003313 0.000000
# 4 0.000000 0.000000 0.000000 0.071142 0.000000 0.010477
# 5 0.000422 0.001385 0.003313 0.000000 0.024567 0.000000
# 6 0.000000 0.000000 0.000000 0.010477 0.000000 0.052275
#
#
# Mechanical properties :
#
#
# Convention : Reuss Voigt Hill
#
# Bulk Modulus (GPa) = 24.25855 38.46595 31.36225
# Shear Modulus (GPa) = 21.71125 28.57734 25.14430
#
# Velocity S-wave (km/s) = 3.16210 3.62780 3.40293
# Velocity P-wave (km/s) = 4.95013 5.93826 5.46657
#
# Compressibility (1/GPa) = 0.04122258
#
# Stress axis : x y z
#
# Youngs Moduli (GPa) = 132.01290 34.43148 54.71022
#
# Poissons Ratio (x) = 0.12545 0.15381
# Poissons Ratio (y) = 0.48098 0.02090
# Poissons Ratio (z) = 0.37114 0.01316
#
# Static dielectric constant tensor:
#      x y z
#    x 1.829270 0.000000 0.045500 
#    y 0.000000 1.899310 0.000000 
#    z 0.045500 0.000000 1.815280 
# 
# From -- ./inp_files/16110.got.cif
#   From: 2010.05.17/outbox.cif.g08.bks.cpg/sg5_9_cif.got.tgz:16110.got - 2010.06.03 18:56:24.
