data_PCOD9121045
_publ_section_title
;
Structure prediction by ZEFSAII (Michael W. Deem and Ramdas Pophale) SiO2 
 PCOD9121045
Probable space group: C 2
;
_chemical_formula_sum "Si O2"
_cell_formula_units_Z 24
_cell_length_a 4.983125
_cell_length_b 13.175553
_cell_length_c 18.694716
_cell_angle_alpha 90.000000
_cell_angle_beta 108.907893
_cell_angle_gamma 90.000000
_cell_volume 1161.179444
_symmetry_space_group_name_H-M "C 2"
_symmetry_group_IT_number 5
_symmetry_cell_setting 'monoclinic'
loop_
_space_group_symop_operation_xyz
x,y,z
-x,y,-z
1/2+x,1/2+y,z
1/2-x,1/2+y,-z
loop_
_atom_site_type_symbol
_atom_site_label
_atom_site_fract_x
_atom_site_fract_y
_atom_site_fract_z
Si Si1 0.182672 0.372600 0.283266
Si Si2 0.792856 0.398940 0.379400
Si Si3 0.701517 0.647689 0.950803
Si Si4 0.000000 0.572159 0.500000
Si Si5 0.717595 0.671664 0.204770
Si Si6 0.715835 0.045232 0.179022
Si Si7 0.500000 0.720817 0.500000
O O1 0.455610 0.412957 0.349682
O O2 0.912279 0.380905 0.310422
O O3 0.255726 0.259592 0.264531
O O4 0.146160 0.440328 0.209603
O O5 0.870327 0.297737 0.430397
O O6 0.940593 0.495759 0.428948
O O7 0.205283 0.553106 0.092004
O O8 0.500000 0.622526 0.000000
O O9 0.499651 0.707083 0.877247
O O10 0.000000 0.696207 0.000000
O O11 0.262871 0.646597 0.510714
O O12 0.999524 0.628150 0.193082
O O13 0.536440 0.580306 0.224023
#
# Coordination Sequence:
#
# PCOD9121045 Si02
#       7
#     4   4   4   2   4   4   2
#     4  12  24  41  63  94 130 158 206 254 314 358
#     4  11  26  40  64  96 125 164 204 260 295 362
#     4  10  18  38  64  82 120 164 202 258 308 352
#     4  11  24  45  66  92 128 163 214 243 300 370
#     4  10  22  38  61  87 123 159 204 255 306 370
#     4  10  22  38  61  87 123 159 204 255 306 370
#     4  11  24  45  66  92 128 163 214 243 300 370
#
# _framework density 20.668638999999999
#
# number of rings (size 3 to 8) (size 9 to 14) (size 15 to 20)
#    1.000    0.333    1.667    4.000    0.000   10.667 
#    0.000    0.833    7.333    0.000    0.000    0.000 
#    0.000    0.000    0.000    0.000    0.000    0.000 
#
# Total GULP energy -66925.821058 kJ/mol
# GULP energy per Si atom -5577.151755 kJ/mol
# Density = 2.062160 g / cm^3
# Si number density = 20.668639 Si / 1000 Ang^3
#
#
#
# Elastic Constant Matrix: (Units=GPa)
#
#
# Indices 1 2 3 4 5 6 
#
# 1 111.9380 17.4297 5.7900 0.0000 -15.9757 0.0000
# 2 17.4297 66.8552 10.8283 0.0000 -14.9972 0.0000
# 3 5.7900 10.8283 40.5917 0.0000 -3.8196 0.0000
# 4 0.0000 0.0000 0.0000 21.8967 0.0000 2.5340
# 5 -15.9757 -14.9972 -3.8196 0.0000 33.9964 0.0000
# 6 0.0000 0.0000 0.0000 2.5340 0.0000 26.4725
#
#
#
# Elastic Compliance Matrix: (Units=1/GPa)
#
#
# Indices 1 2 3 4 5 6 
#
# 1 0.009757 -0.001589 -0.000609 0.000000 0.003816 0.000000
# 2 -0.001589 0.017453 -0.003815 0.000000 0.006524 0.000000
# 3 -0.000609 -0.003815 0.025828 0.000000 0.000933 0.000000
# 4 0.000000 0.000000 0.000000 0.046181 0.000000 -0.004421
# 5 0.003816 0.006524 0.000933 0.000000 0.034191 0.000000
# 6 0.000000 0.000000 0.000000 -0.004421 0.000000 0.038198
#
#
# Mechanical properties :
#
#
# Convention : Reuss Voigt Hill
#
# Bulk Modulus (GPa) = 24.38322 31.94233 28.16277
# Shear Modulus (GPa) = 25.34145 28.82890 27.08518
#
# Velocity S-wave (km/s) = 3.50534 3.73877 3.62394
# Velocity P-wave (km/s) = 5.31094 5.84174 5.58265
#
# Compressibility (1/GPa) = 0.04101181
#
# Stress axis : x y z
#
# Youngs Moduli (GPa) = 102.49034 57.29527 38.71774
#
# Poissons Ratio (x) = 0.09105 0.02357
# Poissons Ratio (y) = 0.16288 0.14772
# Poissons Ratio (z) = 0.06239 0.21860
#
# Static dielectric constant tensor:
#      x y z
#    x 1.598010 0.000000 -0.009830 
#    y 0.000000 1.691120 0.000000 
#    z -0.009830 0.000000 1.775540 
# 
# From -- ./inp_files/58648.got.cif
#   From: 2010.05.17/outbox.cif.g08.bks.cpg/sg5_30_cif.got.tgz:58648.got - 2010.06.03 18:56:24.
