data_PCOD9121387
_publ_section_title
;
Structure prediction by ZEFSAII (Michael W. Deem and Ramdas Pophale) SiO2 
 PCOD9121387
Probable space group: C 2
;
_chemical_formula_sum "Si O2"
_cell_formula_units_Z 32
_cell_length_a 17.889190
_cell_length_b 9.944128
_cell_length_c 18.362643
_cell_angle_alpha 90.000000
_cell_angle_beta 155.355766
_cell_angle_gamma 90.000000
_cell_volume 1362.104828
_symmetry_space_group_name_H-M "C 2"
_symmetry_group_IT_number 5
_symmetry_cell_setting 'monoclinic'
loop_
_space_group_symop_operation_xyz
x,y,z
-x,y,-z
1/2+x,1/2+y,z
1/2-x,1/2+y,-z
loop_
_atom_site_type_symbol
_atom_site_label
_atom_site_fract_x
_atom_site_fract_y
_atom_site_fract_z
Si Si1 0.408123 0.579920 0.720125
Si Si2 0.632470 0.050002 0.011868
Si Si3 0.611699 0.407514 0.534232
Si Si4 0.029384 0.673120 0.355551
Si Si5 0.545900 0.717618 0.697382
Si Si6 0.952489 0.276143 0.885967
Si Si7 0.739818 0.972083 0.940172
Si Si8 0.688740 0.167887 0.337097
O O1 0.192586 0.580111 0.531996
O O2 0.459805 0.628090 0.685682
O O3 0.475862 0.699371 0.831916
O O4 0.543913 0.463000 0.864806
O O5 0.569285 0.911490 0.990644
O O6 0.680832 0.008847 0.970803
O O7 0.469117 0.156379 0.861588
O O8 0.800634 0.121091 0.198400
O O9 0.500000 0.474943 0.500000
O O10 0.519123 0.308823 0.393746
O O11 0.735394 0.513541 0.601034
O O12 0.744704 0.313884 0.698683
O O13 0.098230 0.702872 0.334401
O O14 0.845793 0.592061 0.184286
O O15 0.644430 0.840680 0.823966
O O16 0.374016 0.751073 0.495383
O O17 0.000000 0.194555 0.000000
#
# Coordination Sequence:
#
# PCOD9121387 Si02
#       8
#     4   4   4   4   4   4   4   4
#     4   9  19  35  49  83 113 143 186 230 282 334
#     4   9  19  35  49  83 113 143 186 230 282 334
#     4  10  22  38  58  94 119 145 200 244 290 349
#     4   9  20  35  56  82 115 153 188 239 287 343
#     4  10  19  33  56  80 112 144 187 236 281 340
#     4  10  20  34  58  80 118 147 180 235 288 341
#     4  10  19  33  56  80 112 144 187 236 281 340
#     4   9  20  35  56  82 115 153 188 239 287 343
#
# _framework density 23.493054000000001
#
# number of rings (size 3 to 8) (size 9 to 14) (size 15 to 20)
#    0.000    2.500    1.250    0.000    8.750    1.000 
#   11.250    0.000    0.000    1.500    0.000    0.000 
#    0.000    0.000    0.000    0.000    0.000    0.000 
#
# Total GULP energy -89210.132025 kJ/mol
# GULP energy per Si atom -5575.633252 kJ/mol
# Density = 2.343958 g / cm^3
# Si number density = 23.493054 Si / 1000 Ang^3
#
#
#
# Elastic Constant Matrix: (Units=GPa)
#
#
# Indices 1 2 3 4 5 6 
#
# 1 55.7171 10.1500 23.6548 0.0001 -7.4119 0.0001
# 2 10.1500 44.5095 9.9102 -0.0004 -4.3741 0.0000
# 3 23.6548 9.9102 111.0456 -0.0013 1.0181 -0.0003
# 4 0.0001 -0.0004 -0.0013 28.0252 -0.0001 4.1339
# 5 -7.4119 -4.3741 1.0181 -0.0001 23.5670 0.0001
# 6 0.0001 0.0000 -0.0003 4.1339 0.0001 4.8486
#
#
#
# Elastic Compliance Matrix: (Units=1/GPa)
#
#
# Indices 1 2 3 4 5 6 
#
# 1 0.021190 -0.003266 -0.004280 0.000000 0.006243 -0.000001
# 2 -0.003266 0.023879 -0.001467 0.000000 0.003468 0.000000
# 3 -0.004280 -0.001467 0.010067 0.000000 -0.002053 0.000001
# 4 0.000000 0.000000 0.000000 0.040815 0.000000 -0.034799
# 5 0.006243 0.003468 -0.002053 0.000000 0.045128 -0.000002
# 6 -0.000001 0.000000 0.000001 -0.034799 -0.000002 0.235916
#
#
# Mechanical properties :
#
#
# Convention : Reuss Voigt Hill
#
# Bulk Modulus (GPa) = 26.94627 33.18914 30.06771
# Shear Modulus (GPa) = 12.27321 22.45863 17.36592
#
# Velocity S-wave (km/s) = 2.28813 3.09523 2.72176
# Velocity P-wave (km/s) = 4.29831 5.18959 4.76483
#
# Compressibility (1/GPa) = 0.03711088
#
# Stress axis : x y z
#
# Youngs Moduli (GPa) = 47.19164 41.87711 99.33709
#
# Poissons Ratio (x) = 0.13676 0.42513
# Poissons Ratio (y) = 0.15412 0.14575
# Poissons Ratio (z) = 0.20197 0.06144
#
# Static dielectric constant tensor:
#      x y z
#    x 1.865780 0.000000 0.035290 
#    y 0.000000 1.927470 0.000000 
#    z 0.035290 0.000000 2.000310 
# 
# From -- ./inp_files/67147.got.cif
#   From: 2010.05.17/outbox.cif.g08.bks.cpg/sg5_34_cif.got.tgz:67147.got - 2010.06.03 18:56:24.
