data_PCOD9121317
_publ_section_title
;
Structure prediction by ZEFSAII (Michael W. Deem and Ramdas Pophale) SiO2 
 PCOD9121317
Probable space group: C 2
;
_chemical_formula_sum "Si O2"
_cell_formula_units_Z 28
_cell_length_a 5.904815
_cell_length_b 29.746967
_cell_length_c 6.763067
_cell_angle_alpha 90.000000
_cell_angle_beta 72.971418
_cell_angle_gamma 90.000000
_cell_volume 1135.854487
_symmetry_space_group_name_H-M "C 2"
_symmetry_group_IT_number 5
_symmetry_cell_setting 'monoclinic'
loop_
_space_group_symop_operation_xyz
x,y,z
-x,y,-z
1/2+x,1/2+y,z
1/2-x,1/2+y,-z
loop_
_atom_site_type_symbol
_atom_site_label
_atom_site_fract_x
_atom_site_fract_y
_atom_site_fract_z
Si Si1 0.196559 0.963670 0.781177
Si Si2 0.796365 0.363228 0.740205
Si Si3 0.500000 0.016612 0.000000
Si Si4 0.000000 0.679879 0.000000
Si Si5 0.525348 0.551096 0.231355
Si Si6 0.466470 0.647566 0.772408
Si Si7 0.721812 0.333546 0.222283
Si Si8 0.222014 0.730902 0.297355
O O1 0.251034 0.914796 0.689456
O O2 0.408886 0.984029 0.852149
O O3 0.105214 0.005335 0.671167
O O4 0.000000 0.955353 0.000000
O O5 0.569686 0.336893 0.695853
O O6 0.085798 0.355840 0.673369
O O7 0.759191 0.352855 0.988842
O O8 0.693122 0.046049 0.834836
O O9 0.815753 0.651682 0.177591
O O10 0.143531 0.711658 0.107280
O O11 0.435674 0.599481 0.323694
O O12 0.500000 0.550165 0.000000
O O13 0.593448 0.693263 0.674517
O O14 0.500000 0.645176 0.000000
O O15 0.797074 0.281599 0.234928
O O16 0.000000 0.731881 0.500000
#
# Coordination Sequence:
#
# PCOD9121317 Si02
#       8
#     4   4   2   2   4   4   4   4
#     4   9  15  24  42  76 116 150 192 249 303 370
#     4  10  19  32  55  83 121 161 205 257 321 378
#     4   8  13  20  40  66 114 154 182 244 303 360
#     4  10  21  38  66  84 126 166 204 262 321 376
#     4   8  15  25  43  74 116 150 190 247 306 360
#     4   9  19  35  56  85 120 162 205 257 314 381
#     4  10  21  33  54  80 118 160 208 259 311 377
#     4  11  25  41  61  91 124 165 215 266 322 385
#
# _framework density 24.651043999999999
#
# number of rings (size 3 to 8) (size 9 to 14) (size 15 to 20)
#    0.000    2.857    1.429    2.143   10.000    1.714 
#    0.000    0.000    0.000    0.000    0.000    2.000 
#    0.000    0.000    0.000    0.000    0.000    0.000 
#
# Total GULP energy -77945.088337 kJ/mol
# GULP energy per Si atom -5567.506310 kJ/mol
# Density = 2.459494 g / cm^3
# Si number density = 24.651044 Si / 1000 Ang^3
#
#
#
# Elastic Constant Matrix: (Units=GPa)
#
#
# Indices 1 2 3 4 5 6 
#
# 1 132.4239 55.0085 15.5951 0.0000 7.3640 0.0000
# 2 55.0085 247.4778 13.5932 0.0000 -7.9583 0.0000
# 3 15.5951 13.5932 56.1726 0.0000 1.1756 0.0000
# 4 0.0000 0.0000 0.0000 -75.8749 0.0000 13.5860
# 5 7.3640 -7.9583 1.1756 0.0000 48.3719 0.0000
# 6 0.0000 0.0000 0.0000 13.5860 0.0000 -134.9318
#
#
#
# Elastic Compliance Matrix: (Units=1/GPa)
#
#
# Indices 1 2 3 4 5 6 
#
# 1 0.008640 -0.001866 -0.001914 0.000000 -0.001576 0.000000
# 2 -0.001866 0.004522 -0.000598 0.000000 0.001043 0.000000
# 3 -0.001914 -0.000598 0.018484 0.000000 -0.000256 0.000000
# 4 0.000000 0.000000 0.000000 -0.013422 0.000000 -0.001351
# 5 -0.001576 0.001043 -0.000256 0.000000 0.021091 0.000000
# 6 0.000000 0.000000 0.000000 -0.001351 0.000000 -0.007547
#
#
# Mechanical properties :
#
#
# Convention : Reuss Voigt Hill
#
# Bulk Modulus (GPa) = 43.68877 67.16310 55.42594
# Shear Modulus (GPa) = 103.83525 -9.02847 47.40339
#
# Velocity S-wave (km/s) = 6.49719 -1.91584 4.38993
# Velocity P-wave (km/s) = 8.60500 4.73400 6.94467
#
# Compressibility (1/GPa) = 0.02288918
#
# Stress axis : x y z
#
# Youngs Moduli (GPa) = 115.74538 221.14632 54.10153
#
# Poissons Ratio (x) = 0.41264 0.10356
# Poissons Ratio (y) = 0.21597 0.03235
# Poissons Ratio (z) = 0.22155 0.13225
#
# Static dielectric constant tensor:
#      x y z
#    x 2.017170 0.000000 -0.102560 
#    y 0.000000 1.967980 0.000000 
#    z -0.102560 0.000000 2.138390 
# 
# From -- ./inp_files/13201.got.cif
#   From: 2010.05.17/outbox.cif.g08.bks.cpg/sg5_7_cif.got.tgz:13201.got - 2010.06.03 18:56:24.
