data_PCOD9121842
_publ_section_title
;
Structure prediction by ZEFSAII (Michael W. Deem and Ramdas Pophale) SiO2 
 PCOD9121842
Probable space group: C 2
;
_chemical_formula_sum "Si O2"
_cell_formula_units_Z 26
_cell_length_a 12.370714
_cell_length_b 13.588496
_cell_length_c 9.847121
_cell_angle_alpha 90.000000
_cell_angle_beta 122.407674
_cell_angle_gamma 90.000000
_cell_volume 1397.493078
_symmetry_space_group_name_H-M "C 2"
_symmetry_group_IT_number 5
_symmetry_cell_setting 'monoclinic'
loop_
_space_group_symop_operation_xyz
x,y,z
-x,y,-z
1/2+x,1/2+y,z
1/2-x,1/2+y,-z
loop_
_atom_site_type_symbol
_atom_site_label
_atom_site_fract_x
_atom_site_fract_y
_atom_site_fract_z
Si Si1 0.500000 0.171340 0.500000
Si Si2 0.640687 0.530546 0.666629
Si Si3 0.763230 0.553707 0.460490
Si Si4 0.314152 0.309324 0.208285
Si Si5 0.891135 0.233688 0.724240
Si Si6 0.817749 0.226111 0.136836
Si Si7 0.851409 0.351752 0.423609
O O1 0.396969 0.106776 0.513297
O O2 0.423555 0.242078 0.347547
O O3 0.500000 0.544662 0.500000
O O4 0.736259 0.540884 0.602220
O O5 0.650171 0.423775 0.744728
O O6 0.675918 0.615081 0.799455
O O7 0.654695 0.621219 0.318861
O O8 0.768406 0.446644 0.398519
O O9 0.187325 0.288313 0.212609
O O10 0.284553 0.265222 0.040124
O O11 0.850439 0.281314 0.553233
O O12 0.042542 0.242200 0.835856
O O13 0.807813 0.293244 0.263155
O O14 0.000000 0.380593 0.500000
#
# Coordination Sequence:
#
# PCOD9121842 Si02
#       7
#     2   4   4   4   4   4   4
#     4  10  24  42  62  92 132 174 214 256 328 392
#     4  12  22  43  70  94 125 177 218 253 327 391
#     4  11  20  38  69  92 120 175 213 260 309 403
#     4  11  24  40  66  92 135 164 217 268 324 375
#     4  10  20  38  64  92 125 172 213 261 313 393
#     4  11  23  41  61 100 131 163 214 279 309 377
#     4  10  19  36  63  91 125 168 217 255 322 383
#
# _framework density 18.604742000000002
#
# number of rings (size 3 to 8) (size 9 to 14) (size 15 to 20)
#    0.000    1.231    6.154    0.923    0.000    2.462 
#    0.000    0.769    0.000    0.000    0.000    0.000 
#    0.000    0.000    0.000    0.000    0.000    0.000 
#
# Total GULP energy -72552.834725 kJ/mol
# GULP energy per Si atom -5580.987287 kJ/mol
# Density = 1.856240 g / cm^3
# Si number density = 18.604742 Si / 1000 Ang^3
#
#
#
# Elastic Constant Matrix: (Units=GPa)
#
#
# Indices 1 2 3 4 5 6 
#
# 1 53.9708 28.8851 32.1527 0.0000 -6.6830 0.0000
# 2 28.8851 115.9969 62.9764 0.0000 13.3451 0.0000
# 3 32.1527 62.9764 127.8920 0.0000 -1.2520 0.0000
# 4 0.0000 0.0000 0.0000 22.3916 0.0000 -7.4201
# 5 -6.6830 13.3451 -1.2520 0.0000 13.3397 0.0000
# 6 0.0000 0.0000 0.0000 -7.4201 0.0000 28.0956
#
#
#
# Elastic Compliance Matrix: (Units=1/GPa)
#
#
# Indices 1 2 3 4 5 6 
#
# 1 0.026799 -0.007512 -0.002836 0.000000 0.020675 0.000000
# 2 -0.007512 0.016319 -0.006349 0.000000 -0.020685 0.000000
# 3 -0.002836 -0.006349 0.011718 0.000000 0.006031 0.000000
# 4 0.000000 0.000000 0.000000 0.048943 0.000000 0.012926
# 5 0.020675 -0.020685 0.006031 0.000000 0.106582 0.000000
# 6 0.000000 0.000000 0.000000 0.012926 0.000000 0.039007
#
#
# Mechanical properties :
#
#
# Convention : Reuss Voigt Hill
#
# Bulk Modulus (GPa) = 46.64212 60.65424 53.64818
# Shear Modulus (GPa) = 17.24688 24.35506 20.80097
#
# Velocity S-wave (km/s) = 3.04800 3.62204 3.34735
# Velocity P-wave (km/s) = 6.12466 7.08269 6.62103
#
# Compressibility (1/GPa) = 0.02143985
#
# Stress axis : x y z
#
# Youngs Moduli (GPa) = 37.31544 61.28009 85.34161
#
# Poissons Ratio (x) = 0.46036 0.24200
# Poissons Ratio (y) = 0.28033 0.54187
# Poissons Ratio (z) = 0.10581 0.38909
#
# Static dielectric constant tensor:
#      x y z
#    x 1.659330 0.000000 0.001390 
#    y 0.000000 1.646510 0.000000 
#    z 0.001390 0.000000 1.628620 
# 
# From -- ./inp_files/20264.got.cif
#   From: 2010.05.17/outbox.cif.g08.bks.cpg/sg5_11_cif.got.tgz:20264.got - 2010.06.03 18:56:24.
