data_PCOD9121918
_publ_section_title
;
Structure prediction by ZEFSAII (Michael W. Deem and Ramdas Pophale) SiO2 
 PCOD9121918
Probable space group: C 2
;
_chemical_formula_sum "Si O2"
_cell_formula_units_Z 22
_cell_length_a 23.695999
_cell_length_b 5.347321
_cell_length_c 9.866317
_cell_angle_alpha 90.000000
_cell_angle_beta 133.485978
_cell_angle_gamma 90.000000
_cell_volume 907.046154
_symmetry_space_group_name_H-M "C 2"
_symmetry_group_IT_number 5
_symmetry_cell_setting 'monoclinic'
loop_
_space_group_symop_operation_xyz
x,y,z
-x,y,-z
1/2+x,1/2+y,z
1/2-x,1/2+y,-z
loop_
_atom_site_type_symbol
_atom_site_label
_atom_site_fract_x
_atom_site_fract_y
_atom_site_fract_z
Si Si1 0.633320 0.444520 0.704775
Si Si2 0.790951 0.033476 0.625047
Si Si3 0.500000 0.229955 0.000000
Si Si4 0.012681 0.009518 0.740518
Si Si5 0.586906 0.855601 0.297114
Si Si6 0.293878 0.950995 0.267685
O O1 0.585308 0.480126 0.762823
O O2 0.565199 0.439141 0.476141
O O3 0.688857 0.683137 0.770158
O O4 0.682349 0.189671 0.780937
O O5 0.743070 0.288913 0.507174
O O6 0.875150 0.108573 0.706901
O O7 0.784737 0.986106 0.775721
O O8 0.519136 0.366389 0.891934
O O9 0.428186 0.050148 0.844334
O O10 0.992447 0.290246 0.755763
O O11 0.645127 0.951623 0.506207
#
# Coordination Sequence:
#
# PCOD9121918 Si02
#       6
#     4   4   2   4   4   4
#     4  10  21  36  62  87 125 151 205 249 306 355
#     4  10  20  35  61  90 125 154 203 264 306 347
#     4  12  22  38  58  88 136 162 202 238 314 372
#     4  10  22  36  56  89 123 163 199 250 302 367
#     4  10  22  36  57  92 124 159 202 250 310 361
#     4  10  19  37  59  91 117 155 199 260 301 351
#
# _framework density 24.254553000000001
#
# number of rings (size 3 to 8) (size 9 to 14) (size 15 to 20)
#    0.000    1.818    1.818    3.818    5.091    1.455 
#    0.000    0.000    0.000    0.000    9.455    0.000 
#    0.000    0.000    0.000    0.000    0.000    0.000 
#
# Total GULP energy -61486.071277 kJ/mol
# GULP energy per Si atom -5589.642843 kJ/mol
# Density = 2.419935 g / cm^3
# Si number density = 24.254553 Si / 1000 Ang^3
#
#
#
# Elastic Constant Matrix: (Units=GPa)
#
#
# Indices 1 2 3 4 5 6 
#
# 1 151.0965 50.6328 32.1178 0.0000 -51.5220 0.0000
# 2 50.6328 134.9094 29.0838 0.0000 -14.9204 0.0000
# 3 32.1178 29.0838 130.4008 0.0000 -15.5047 0.0000
# 4 0.0000 0.0000 0.0000 12.1198 0.0000 -0.0232
# 5 -51.5220 -14.9204 -15.5047 0.0000 32.5814 0.0000
# 6 0.0000 0.0000 0.0000 -0.0232 0.0000 41.0305
#
#
#
# Elastic Compliance Matrix: (Units=1/GPa)
#
#
# Indices 1 2 3 4 5 6 
#
# 1 0.015664 -0.003240 -0.000389 0.000000 0.023101 0.000000
# 2 -0.003240 0.008725 -0.001359 0.000000 -0.001775 0.000000
# 3 -0.000389 -0.001359 0.008395 0.000000 0.002758 0.000000
# 4 0.000000 0.000000 0.000000 0.082510 0.000000 0.000047
# 5 0.023101 -0.001775 0.002758 0.000000 0.067723 0.000000
# 6 0.000000 0.000000 0.000000 0.000047 0.000000 0.024372
#
#
# Mechanical properties :
#
#
# Convention : Reuss Voigt Hill
#
# Bulk Modulus (GPa) = 43.84254 71.11951 57.48103
# Shear Modulus (GPa) = 22.22542 37.45115 29.83829
#
# Velocity S-wave (km/s) = 3.03040 3.93375 3.51125
# Velocity P-wave (km/s) = 5.50996 7.07236 6.33948
#
# Compressibility (1/GPa) = 0.02280890
#
# Stress axis : x y z
#
# Youngs Moduli (GPa) = 63.84130 114.61169 119.11222
#
# Poissons Ratio (x) = 0.37136 0.04629
# Poissons Ratio (y) = 0.20685 0.16187
# Poissons Ratio (z) = 0.02481 0.15575
#
# Static dielectric constant tensor:
#      x y z
#    x 1.997100 0.000000 0.051730 
#    y 0.000000 1.938160 0.000000 
#    z 0.051730 0.000000 1.951100 
# 
# From -- ./inp_files/30183.got.cif
#   From: 2010.05.17/outbox.cif.g08.bks.cpg/sg5_16_cif.got.tgz:30183.got - 2010.06.03 18:56:24.
