data_PCOD9121667
_publ_section_title
;
Structure prediction by ZEFSAII (Michael W. Deem and Ramdas Pophale) SiO2 
 PCOD9121667
Probable space group: C 2
;
_chemical_formula_sum "Si O2"
_cell_formula_units_Z 26
_cell_length_a 7.207566
_cell_length_b 20.706003
_cell_length_c 8.179211
_cell_angle_alpha 90.000000
_cell_angle_beta 93.091690
_cell_angle_gamma 90.000000
_cell_volume 1218.887821
_symmetry_space_group_name_H-M "C 2"
_symmetry_group_IT_number 5
_symmetry_cell_setting 'monoclinic'
loop_
_space_group_symop_operation_xyz
x,y,z
-x,y,-z
1/2+x,1/2+y,z
1/2-x,1/2+y,-z
loop_
_atom_site_type_symbol
_atom_site_label
_atom_site_fract_x
_atom_site_fract_y
_atom_site_fract_z
Si Si1 0.257351 0.861910 0.867266
Si Si2 0.314475 0.583303 0.405590
Si Si3 0.500000 0.180225 0.500000
Si Si4 0.846581 0.472407 0.387740
Si Si5 0.630960 0.013470 0.151582
Si Si6 0.820124 0.852895 0.777964
Si Si7 0.695937 0.778619 0.442485
O O1 0.343081 0.823919 0.716997
O O2 0.038404 0.854234 0.822032
O O3 0.313349 0.937958 0.866733
O O4 0.282830 0.836386 0.055140
O O5 0.500000 0.609319 0.500000
O O6 0.279541 0.517546 0.508613
O O7 0.304159 0.556736 0.218725
O O8 0.147185 0.634648 0.413763
O O9 0.277858 0.314431 0.608764
O O10 0.354453 0.227030 0.399363
O O11 0.736259 0.425929 0.266618
O O12 0.000000 0.432936 0.500000
O O13 0.982548 0.516949 0.291359
O O14 0.500000 0.035874 0.000000
O O15 0.500000 0.752556 0.500000
#
# Coordination Sequence:
#
# PCOD9121667 Si02
#       7
#     4   4   2   4   4   4   4
#     4  11  23  37  63  99 138 175 216 270 345 410
#     4  11  23  43  70  94 128 180 230 280 338 408
#     4  12  24  48  66  94 130 176 244 278 324 398
#     4  10  19  35  61  93 130 164 210 269 338 403
#     4  11  20  37  63 103 141 166 210 282 345 411
#     4  11  21  39  63  97 139 173 215 279 334 410
#     4  12  25  42  67  94 130 180 229 280 335 397
#
# _framework density 21.330919999999999
#
# number of rings (size 3 to 8) (size 9 to 14) (size 15 to 20)
#    0.000    0.923    5.385    4.615    0.000    0.000 
#    0.000    1.538    0.000    1.846    0.000    0.000 
#    0.000    0.000    0.000    0.000    0.000    0.000 
#
# Total GULP energy -72404.116239 kJ/mol
# GULP energy per Si atom -5569.547403 kJ/mol
# Density = 2.128237 g / cm^3
# Si number density = 21.330920 Si / 1000 Ang^3
#
#
#
# Elastic Constant Matrix: (Units=GPa)
#
#
# Indices 1 2 3 4 5 6 
#
# 1 103.5390 30.2483 35.9257 0.0000 10.4693 0.0000
# 2 30.2483 75.2557 35.2055 0.0000 10.8422 0.0000
# 3 35.9257 35.2055 136.1829 0.0000 20.6513 0.0000
# 4 0.0000 0.0000 0.0000 -0.1653 0.0000 1.7287
# 5 10.4693 10.8422 20.6513 0.0000 33.4000 0.0000
# 6 0.0000 0.0000 0.0000 1.7287 0.0000 41.4505
#
#
#
# Elastic Compliance Matrix: (Units=1/GPa)
#
#
# Indices 1 2 3 4 5 6 
#
# 1 0.011486 -0.003534 -0.001925 0.000000 -0.001263 0.000000
# 2 -0.003534 0.016436 -0.002952 0.000000 -0.002402 0.000000
# 3 -0.001925 -0.002952 0.009244 0.000000 -0.004154 0.000000
# 4 0.000000 0.000000 0.000000 -4.212001 0.000000 0.175665
# 5 -0.001263 -0.002402 -0.004154 0.000000 0.033684 0.000000
# 6 0.000000 0.000000 0.000000 0.175665 0.000000 0.016799
#
#
# Mechanical properties :
#
#
# Convention : Reuss Voigt Hill
#
# Bulk Modulus (GPa) = 49.15702 57.52627 53.34165
# Shear Modulus (GPa) = -1.21929 29.17691 13.97881
#
# Velocity S-wave (km/s) = -0.75687 3.70242 2.56272
# Velocity P-wave (km/s) = 4.72559 6.73084 5.81530
#
# Compressibility (1/GPa) = 0.02034297
#
# Stress axis : x y z
#
# Youngs Moduli (GPa) = 87.05983 60.84276 108.17834
#
# Poissons Ratio (x) = 0.21504 0.20824
# Poissons Ratio (y) = 0.30770 0.31937
# Poissons Ratio (z) = 0.16759 0.17962
#
# Static dielectric constant tensor:
#      x y z
#    x 1.913220 0.000000 0.090730 
#    y 0.000000 1.797870 0.000000 
#    z 0.090730 0.000000 1.937900 
# 
# From -- ./inp_files/16122.got.cif
#   From: 2010.05.17/outbox.cif.g08.bks.cpg/sg5_9_cif.got.tgz:16122.got - 2010.06.03 18:56:24.
