data_PCOD9121200
_publ_section_title
;
Structure prediction by ZEFSAII (Michael W. Deem and Ramdas Pophale) SiO2 
 PCOD9121200
Probable space group: C 2
;
_chemical_formula_sum "Si O2"
_cell_formula_units_Z 30
_cell_length_a 12.431189
_cell_length_b 9.887128
_cell_length_c 11.463706
_cell_angle_alpha 90.000000
_cell_angle_beta 109.911648
_cell_angle_gamma 90.000000
_cell_volume 1324.758904
_symmetry_space_group_name_H-M "C 2"
_symmetry_group_IT_number 5
_symmetry_cell_setting 'monoclinic'
loop_
_space_group_symop_operation_xyz
x,y,z
-x,y,-z
1/2+x,1/2+y,z
1/2-x,1/2+y,-z
loop_
_atom_site_type_symbol
_atom_site_label
_atom_site_fract_x
_atom_site_fract_y
_atom_site_fract_z
Si Si1 0.844475 0.467280 0.118749
Si Si2 0.217261 0.347261 0.288736
Si Si3 0.511504 0.701574 0.875062
Si Si4 0.706904 0.557792 0.849707
Si Si5 0.238862 0.304330 0.695927
Si Si6 0.500000 0.813162 0.500000
Si Si7 0.599720 0.311325 0.460594
Si Si8 0.047892 0.536951 0.328490
O O1 0.786340 0.425207 0.220460
O O2 0.900150 0.329212 0.086980
O O3 0.957995 0.551307 0.191444
O O4 0.764985 0.543201 0.998001
O O5 0.108863 0.257445 0.214488
O O6 0.280189 0.410208 0.201422
O O7 0.302011 0.279988 0.409478
O O8 0.170204 0.484420 0.332347
O O9 0.574451 0.598060 0.813752
O O10 0.500000 0.644917 0.000000
O O11 0.763160 0.679508 0.794157
O O12 0.125510 0.254414 0.579414
O O13 0.332517 0.352281 0.634298
O O14 0.514293 0.909784 0.394707
O O15 0.500000 0.387711 0.500000
O O16 0.545991 0.171583 0.399486
#
# Coordination Sequence:
#
# PCOD9121200 Si02
#       8
#     4   4   4   4   4   2   4   4
#     4   9  21  41  72  97 131 171 235 297 344 424
#     4  11  23  44  66  97 146 176 233 295 339 428
#     4  10  21  42  70 100 134 187 238 281 361 425
#     4  11  22  42  72 104 128 180 234 292 359 414
#     4  10  22  41  71 101 128 178 238 282 352 427
#     4  10  18  42  70  92 128 170 242 288 330 430
#     4  12  25  42  62 100 140 179 229 284 359 421
#     4  10  20  39  68  94 123 184 221 281 357 405
#
# _framework density 22.645631000000002
#
# number of rings (size 3 to 8) (size 9 to 14) (size 15 to 20)
#    0.000    1.600    4.667    0.800    0.000    1.067 
#    6.000    0.000    0.000    0.000    0.000    0.000 
#    0.000    0.000    0.000    0.000    0.000    0.000 
#
# Total GULP energy -83563.234675 kJ/mol
# GULP energy per Si atom -5570.882312 kJ/mol
# Density = 2.259409 g / cm^3
# Si number density = 22.645631 Si / 1000 Ang^3
#
#
#
# Elastic Constant Matrix: (Units=GPa)
#
#
# Indices 1 2 3 4 5 6 
#
# 1 103.6474 17.6516 29.7226 0.0000 -15.4153 0.0000
# 2 17.6516 20.7302 15.8714 0.0000 7.9592 0.0000
# 3 29.7226 15.8714 108.1782 0.0000 2.3280 0.0000
# 4 0.0000 0.0000 0.0000 30.7927 0.0000 -8.9497
# 5 -15.4153 7.9592 2.3280 0.0000 25.7965 0.0000
# 6 0.0000 0.0000 0.0000 -8.9497 0.0000 24.6879
#
#
#
# Elastic Compliance Matrix: (Units=1/GPa)
#
#
# Indices 1 2 3 4 5 6 
#
# 1 0.015311 -0.017106 -0.002011 0.000000 0.014609 0.000000
# 2 -0.017106 0.081039 -0.006444 0.000000 -0.034644 0.000000
# 3 -0.002011 -0.006444 0.010746 0.000000 -0.000183 0.000000
# 4 0.000000 0.000000 0.000000 0.036300 0.000000 0.013159
# 5 0.014609 -0.034644 -0.000183 0.000000 0.058200 0.000000
# 6 0.000000 0.000000 0.000000 0.013159 0.000000 0.045276
#
#
# Mechanical properties :
#
#
# Convention : Reuss Voigt Hill
#
# Bulk Modulus (GPa) = 17.86574 39.89411 28.87993
# Shear Modulus (GPa) = 15.79019 27.54279 21.66649
#
# Velocity S-wave (km/s) = 2.64346 3.49126 3.09651
# Velocity P-wave (km/s) = 4.15013 5.82296 5.05620
#
# Compressibility (1/GPa) = 0.05597304
#
# Stress axis : x y z
#
# Youngs Moduli (GPa) = 65.31346 12.33973 93.05733
#
# Poissons Ratio (x) = 0.21108 0.18718
# Poissons Ratio (y) = 1.11724 0.59968
# Poissons Ratio (z) = 0.13137 0.07952
#
# Static dielectric constant tensor:
#      x y z
#    x 1.975040 0.000000 -0.029050 
#    y 0.000000 1.874300 0.000000 
#    z -0.029050 0.000000 1.814520 
# 
# From -- ./inp_files/39258.got.cif
#   From: 2010.05.17/outbox.cif.g08.bks.cpg/sg5_20_cif.got.tgz:39258.got - 2010.06.03 18:56:24.
