data_PCOD9121055
_publ_section_title
;
Structure prediction by ZEFSAII (Michael W. Deem and Ramdas Pophale) SiO2 
 PCOD9121055
Probable space group: C 2
;
_chemical_formula_sum "Si O2"
_cell_formula_units_Z 26
_cell_length_a 17.113627
_cell_length_b 9.888336
_cell_length_c 10.688931
_cell_angle_alpha 90.000000
_cell_angle_beta 138.623808
_cell_angle_gamma 90.000000
_cell_volume 1195.641791
_symmetry_space_group_name_H-M "C 2"
_symmetry_group_IT_number 5
_symmetry_cell_setting 'monoclinic'
loop_
_space_group_symop_operation_xyz
x,y,z
-x,y,-z
1/2+x,1/2+y,z
1/2-x,1/2+y,-z
loop_
_atom_site_type_symbol
_atom_site_label
_atom_site_fract_x
_atom_site_fract_y
_atom_site_fract_z
Si Si1 0.223640 0.789720 0.722471
Si Si2 0.623478 0.156822 0.918479
Si Si3 0.461375 0.648006 0.091951
Si Si4 0.918165 0.535405 0.505677
Si Si5 0.000000 0.559126 0.000000
Si Si6 0.152072 0.363491 0.361151
Si Si7 0.330062 0.448761 0.117560
O O1 0.161951 0.645411 0.657726
O O2 0.236947 0.829284 0.592944
O O3 0.153225 0.900330 0.718103
O O4 0.355012 0.756806 0.936191
O O5 0.505189 0.124314 0.697845
O O6 0.678477 0.302506 0.957634
O O7 0.587814 0.144230 0.019990
O O8 0.713201 0.038752 0.988396
O O9 0.573016 0.729735 0.278850
O O10 0.419185 0.537489 0.141260
O O11 0.500000 0.595623 0.000000
O O12 0.840157 0.436446 0.496748
O O13 0.000000 0.464280 0.500000
O O14 0.075990 0.464963 0.182844
#
# Coordination Sequence:
#
# PCOD9121055 Si02
#       7
#     4   4   4   4   2   4   4
#     4  11  20  41  61  91 126 170 207 261 323 380
#     4  11  24  38  67  94 127 167 215 271 316 383
#     4  10  21  39  67  91 124 163 224 264 307 376
#     4  11  22  40  60  89 134 166 201 257 339 376
#     4  10  18  38  64  94 124 160 218 264 312 366
#     4  10  20  41  66  88 122 175 213 261 316 382
#     4  12  21  39  65  98 121 167 219 268 312 374
#
# _framework density 21.745645
#
# number of rings (size 3 to 8) (size 9 to 14) (size 15 to 20)
#    0.000    1.231    6.923    0.923    1.077    0.000 
#    5.538    4.615    0.000    0.000    0.000    0.000 
#    0.000    0.000    0.000    0.000    0.000    0.000 
#
# Total GULP energy -72554.695844 kJ/mol
# GULP energy per Si atom -5581.130450 kJ/mol
# Density = 2.169615 g / cm^3
# Si number density = 21.745645 Si / 1000 Ang^3
#
#
#
# Elastic Constant Matrix: (Units=GPa)
#
#
# Indices 1 2 3 4 5 6 
#
# 1 185.2470 70.2574 16.0833 0.0000 -25.2515 0.0000
# 2 70.2574 104.9397 11.7107 0.0000 -8.0339 0.0000
# 3 16.0833 11.7107 17.9867 0.0000 -7.7119 0.0000
# 4 0.0000 0.0000 0.0000 17.9405 0.0000 -13.2603
# 5 -25.2515 -8.0339 -7.7119 0.0000 21.0702 0.0000
# 6 0.0000 0.0000 0.0000 -13.2603 0.0000 64.0483
#
#
#
# Elastic Compliance Matrix: (Units=1/GPa)
#
#
# Indices 1 2 3 4 5 6 
#
# 1 0.008423 -0.004931 -0.000948 0.000000 0.007868 0.000000
# 2 -0.004931 0.013217 -0.005420 0.000000 -0.002854 0.000000
# 3 -0.000948 -0.005420 0.069507 0.000000 0.022238 0.000000
# 4 0.000000 0.000000 0.000000 0.065811 0.000000 0.013625
# 5 0.007868 -0.002854 0.022238 0.000000 0.063940 0.000000
# 6 0.000000 0.000000 0.000000 0.013625 0.000000 0.018434
#
#
# Mechanical properties :
#
#
# Convention : Reuss Voigt Hill
#
# Bulk Modulus (GPa) = 14.58785 56.03068 35.30926
# Shear Modulus (GPa) = 17.55739 34.61992 26.08865
#
# Velocity S-wave (km/s) = 2.84456 3.99437 3.46745
# Velocity P-wave (km/s) = 4.18469 6.86262 5.68363
#
# Compressibility (1/GPa) = 0.06855021
#
# Stress axis : x y z
#
# Youngs Moduli (GPa) = 118.72004 75.65978 14.38696
#
# Poissons Ratio (x) = 0.37310 0.01364
# Poissons Ratio (y) = 0.58544 0.07797
# Poissons Ratio (z) = 0.11254 0.41004
#
# Static dielectric constant tensor:
#      x y z
#    x 1.902870 0.000000 -0.049280 
#    y 0.000000 1.759530 0.000000 
#    z -0.049280 0.000000 1.828960 
# 
# From -- ./inp_files/44224.got.cif
#   From: 2010.05.17/outbox.cif.g08.bks.cpg/sg5_23_cif.got.tgz:44224.got - 2010.06.03 18:56:24.
