data_PCOD9121171
_publ_section_title
;
Structure prediction by ZEFSAII (Michael W. Deem and Ramdas Pophale) SiO2 
 PCOD9121171
Probable space group: C 2
;
_chemical_formula_sum "Si O2"
_cell_formula_units_Z 22
_cell_length_a 16.918390
_cell_length_b 10.594570
_cell_length_c 7.318427
_cell_angle_alpha 90.000000
_cell_angle_beta 136.931881
_cell_angle_gamma 90.000000
_cell_volume 895.769936
_symmetry_space_group_name_H-M "C 2"
_symmetry_group_IT_number 5
_symmetry_cell_setting 'monoclinic'
loop_
_space_group_symop_operation_xyz
x,y,z
-x,y,-z
1/2+x,1/2+y,z
1/2-x,1/2+y,-z
loop_
_atom_site_type_symbol
_atom_site_label
_atom_site_fract_x
_atom_site_fract_y
_atom_site_fract_z
Si Si1 0.225562 0.195640 0.627096
Si Si2 0.500000 0.962296 0.000000
Si Si3 0.879458 0.011479 0.803865
Si Si4 0.624922 0.178659 0.780180
Si Si5 0.818055 0.265081 0.835362
Si Si6 0.356061 0.944966 0.424712
O O1 0.167829 0.061903 0.471392
O O2 0.255220 0.249636 0.475967
O O3 0.129423 0.293675 0.548115
O O4 0.334630 0.182404 0.942572
O O5 0.403290 0.879941 0.944712
O O6 0.426544 0.014826 0.706496
O O7 0.898517 0.140467 0.954466
O O8 0.777727 0.950017 0.745130
O O9 0.000000 0.941191 0.000000
O O10 0.500000 0.226176 0.500000
O O11 0.728368 0.251776 0.847481
O O12 0.628666 0.031296 0.724256
#
# Coordination Sequence:
#
# PCOD9121171 Si02
#       6
#     4   2   4   4   4   4
#     4   9  21  43  59  89 129 169 216 257 324 372
#     4  10  18  40  70  96 116 174 224 266 318 380
#     4   9  17  39  62  88 121 162 214 263 308 377
#     4  11  24  39  60  98 137 166 213 259 326 385
#     4   8  18  39  64  82 126 163 216 260 306 370
#     4  10  22  38  65  97 123 166 224 256 327 374
#
# _framework density 24.559877
#
# number of rings (size 3 to 8) (size 9 to 14) (size 15 to 20)
#    1.091    1.455    0.909    0.000    2.545    2.182 
#    9.818   13.636    0.000    0.000    0.000    0.000 
#    0.000    0.000    0.000    0.000    0.000    0.000 
#
# Total GULP energy -61278.233425 kJ/mol
# GULP energy per Si atom -5570.748493 kJ/mol
# Density = 2.450398 g / cm^3
# Si number density = 24.559877 Si / 1000 Ang^3
#
#
#
# Elastic Constant Matrix: (Units=GPa)
#
#
# Indices 1 2 3 4 5 6 
#
# 1 86.6165 4.3189 46.7069 0.0000 15.7168 0.0000
# 2 4.3189 45.2133 -3.7243 0.0000 -3.1799 0.0000
# 3 46.7069 -3.7243 155.8558 0.0000 1.3521 0.0000
# 4 0.0000 0.0000 0.0000 32.5755 0.0000 -5.5657
# 5 15.7168 -3.1799 1.3521 0.0000 44.2094 0.0000
# 6 0.0000 0.0000 0.0000 -5.5657 0.0000 21.8808
#
#
#
# Elastic Compliance Matrix: (Units=1/GPa)
#
#
# Indices 1 2 3 4 5 6 
#
# 1 0.015068 -0.002190 -0.004521 0.000000 -0.005376 0.000000
# 2 -0.002190 0.022590 0.001176 0.000000 0.002367 0.000000
# 3 -0.004521 0.001176 0.007787 0.000000 0.001454 0.000000
# 4 0.000000 0.000000 0.000000 0.032093 0.000000 0.008163
# 5 -0.005376 0.002367 0.001454 0.000000 0.024657 0.000000
# 6 0.000000 0.000000 0.000000 0.008163 0.000000 0.047779
#
#
# Mechanical properties :
#
#
# Convention : Reuss Voigt Hill
#
# Bulk Modulus (GPa) = 29.09243 42.47654 35.78449
# Shear Modulus (GPa) = 28.98532 35.75874 32.37203
#
# Velocity S-wave (km/s) = 3.43912 3.81987 3.63448
# Velocity P-wave (km/s) = 5.25749 6.06530 5.67579
#
# Compressibility (1/GPa) = 0.03437320
#
# Stress axis : x y z
#
# Youngs Moduli (GPa) = 66.36654 44.26754 128.42598
#
# Poissons Ratio (x) = 0.09694 0.58064
# Poissons Ratio (y) = 0.14533 -0.15097
# Poissons Ratio (z) = 0.30006 -0.05204
#
# Static dielectric constant tensor:
#      x y z
#    x 1.925830 0.000000 -0.004600 
#    y 0.000000 2.180300 0.000000 
#    z -0.004600 0.000000 2.025650 
# 
# From -- ./inp_files/29773.got.cif
#   From: 2010.05.17/outbox.cif.g08.bks.cpg/sg5_15_cif.got.tgz:29773.got - 2010.06.03 18:56:24.
