data_PCOD9121416
_publ_section_title
;
Structure prediction by ZEFSAII (Michael W. Deem and Ramdas Pophale) SiO2 
 PCOD9121416
Probable space group: C 2
;
_chemical_formula_sum "Si O2"
_cell_formula_units_Z 32
_cell_length_a 19.268321
_cell_length_b 6.836081
_cell_length_c 12.173664
_cell_angle_alpha 90.000000
_cell_angle_beta 125.359504
_cell_angle_gamma 90.000000
_cell_volume 1307.723910
_symmetry_space_group_name_H-M "C 2"
_symmetry_group_IT_number 5
_symmetry_cell_setting 'monoclinic'
loop_
_space_group_symop_operation_xyz
x,y,z
-x,y,-z
1/2+x,1/2+y,z
1/2-x,1/2+y,-z
loop_
_atom_site_type_symbol
_atom_site_label
_atom_site_fract_x
_atom_site_fract_y
_atom_site_fract_z
Si Si1 0.228978 0.586590 0.205271
Si Si2 0.085502 0.722699 0.637285
Si Si3 0.652697 0.152255 0.920763
Si Si4 0.040787 0.270397 0.853073
Si Si5 0.302766 0.630216 0.893593
Si Si6 0.148399 0.403658 0.339367
Si Si7 0.917934 0.248168 0.354118
Si Si8 0.714130 0.117066 0.598546
O O1 0.216486 0.365263 0.144327
O O2 0.181134 0.560053 0.278205
O O3 0.326641 0.657747 0.300589
O O4 0.183233 0.719920 0.068762
O O5 0.107638 0.777923 0.782622
O O6 0.089199 0.484479 0.646416
O O7 0.154952 0.768551 0.608857
O O8 0.000000 0.779895 0.500000
O O9 0.739503 0.082266 0.937372
O O10 0.585125 0.983609 0.887151
O O11 0.057268 0.193040 0.746383
O O12 0.941373 0.311807 0.779192
O O13 0.097510 0.136556 0.985655
O O14 0.271240 0.532210 0.750959
O O15 0.217874 0.232407 0.410399
O O16 0.151796 0.495251 0.463736
O O17 0.000000 0.195945 0.500000
#
# Coordination Sequence:
#
# PCOD9121416 Si02
#       8
#     4   4   4   4   4   4   4   4
#     4  10  21  34  55  91 124 156 200 267 315 363
#     4   9  18  35  63  89 110 153 208 256 308 373
#     4   9  17  34  59  88 113 150 208 257 304 363
#     4  10  20  37  65  90 118 166 212 252 314 400
#     4   9  19  38  60  90 117 161 209 263 313 374
#     4  11  24  39  60  92 131 171 210 251 326 394
#     4  10  19  33  60  89 117 151 211 263 302 368
#     4  10  22  38  60  89 125 166 211 257 316 389
#
# _framework density 24.469999000000001
#
# number of rings (size 3 to 8) (size 9 to 14) (size 15 to 20)
#    0.000    2.250    1.250    2.250    3.500    4.500 
#    0.000    8.125    0.000    0.000    9.750    0.000 
#    0.000    0.000    0.000    0.000    0.000    0.000 
#
# Total GULP energy -89247.074913 kJ/mol
# GULP energy per Si atom -5577.942182 kJ/mol
# Density = 2.441430 g / cm^3
# Si number density = 24.469999 Si / 1000 Ang^3
#
#
#
# Elastic Constant Matrix: (Units=GPa)
#
#
# Indices 1 2 3 4 5 6 
#
# 1 89.6622 9.7412 52.0734 0.0000 19.3771 0.0000
# 2 9.7412 62.9299 8.4343 0.0000 1.9487 0.0000
# 3 52.0734 8.4343 199.9308 0.0000 20.6592 0.0000
# 4 0.0000 0.0000 0.0000 18.8395 0.0000 7.1744
# 5 19.3771 1.9487 20.6592 0.0000 57.5953 0.0000
# 6 0.0000 0.0000 0.0000 7.1744 0.0000 29.8326
#
#
#
# Elastic Compliance Matrix: (Units=1/GPa)
#
#
# Indices 1 2 3 4 5 6 
#
# 1 0.013943 -0.001621 -0.003203 0.000000 -0.003487 0.000000
# 2 -0.001621 0.016175 -0.000270 0.000000 0.000095 0.000000
# 3 -0.003203 -0.000270 0.005956 0.000000 -0.001050 0.000000
# 4 0.000000 0.000000 0.000000 0.058431 0.000000 -0.014052
# 5 -0.003487 0.000095 -0.001050 0.000000 0.018909 0.000000
# 6 0.000000 0.000000 0.000000 -0.014052 0.000000 0.036900
#
#
# Mechanical properties :
#
#
# Convention : Reuss Voigt Hill
#
# Bulk Modulus (GPa) = 38.63108 54.78008 46.70558
# Shear Modulus (GPa) = 29.56311 40.07174 34.81742
#
# Velocity S-wave (km/s) = 3.47960 4.05110 3.77618
# Velocity P-wave (km/s) = 5.65375 6.65711 6.17584
#
# Compressibility (1/GPa) = 0.02588589
#
# Stress axis : x y z
#
# Youngs Moduli (GPa) = 71.72167 61.82429 167.90447
#
# Poissons Ratio (x) = 0.10022 0.53776
# Poissons Ratio (y) = 0.11626 0.04533
# Poissons Ratio (z) = 0.22971 0.01669
#
# Static dielectric constant tensor:
#      x y z
#    x 1.929220 0.000000 -0.014130 
#    y 0.000000 2.123320 0.000000 
#    z -0.014130 0.000000 2.051330 
# 
# From -- ./inp_files/44611.got.cif
#   From: 2010.05.17/outbox.cif.g08.bks.cpg/sg5_23_cif.got.tgz:44611.got - 2010.06.03 18:56:24.
