data_PCOD9121231
_publ_section_title
;
Structure prediction by ZEFSAII (Michael W. Deem and Ramdas Pophale) SiO2 
 PCOD9121231
Probable space group: C 2
;
_chemical_formula_sum "Si O2"
_cell_formula_units_Z 32
_cell_length_a 15.333945
_cell_length_b 6.975862
_cell_length_c 12.346808
_cell_angle_alpha 90.000000
_cell_angle_beta 82.298290
_cell_angle_gamma 90.000000
_cell_volume 1308.793157
_symmetry_space_group_name_H-M "C 2"
_symmetry_group_IT_number 5
_symmetry_cell_setting 'monoclinic'
loop_
_space_group_symop_operation_xyz
x,y,z
-x,y,-z
1/2+x,1/2+y,z
1/2-x,1/2+y,-z
loop_
_atom_site_type_symbol
_atom_site_label
_atom_site_fract_x
_atom_site_fract_y
_atom_site_fract_z
Si Si1 0.993485 0.408920 0.377995
Si Si2 0.946348 0.081548 0.102820
Si Si3 0.157288 0.940435 0.264077
Si Si4 0.804354 0.413523 0.397317
Si Si5 0.254910 0.070068 0.854036
Si Si6 0.782224 0.962147 0.371104
Si Si7 0.096625 0.326355 0.160547
Si Si8 0.469361 0.459208 0.342680
O O1 0.900315 0.479636 0.347309
O O2 0.983718 0.175834 0.383760
O O3 0.000000 0.478666 0.500000
O O4 0.067375 0.436974 0.275602
O O5 0.844338 0.104506 0.088558
O O6 0.950554 0.976337 0.217224
O O7 0.005685 0.272442 0.114909
O O8 0.000000 0.975735 0.000000
O O9 0.224936 0.009523 0.345828
O O10 0.132826 0.118827 0.192029
O O11 0.065916 0.868954 0.335462
O O12 0.202645 0.771388 0.188964
O O13 0.797067 0.190796 0.369730
O O14 0.791284 0.423510 0.527927
O O15 0.241786 0.933015 0.749472
O O16 0.328259 0.952695 0.908621
O O17 0.875781 0.881853 0.399711
#
# Coordination Sequence:
#
# PCOD9121231 Si02
#       8
#     4   4   4   4   4   4   4   4
#     4   9  17  30  51  75 111 150 189 232 277 342
#     4   9  19  41  62  87 123 149 189 255 305 358
#     4   9  19  35  54  84 115 146 199 243 283 352
#     4  10  19  29  48  77 110 153 194 240 279 335
#     4  10  20  39  60  84 120 149 194 250 290 361
#     4   9  19  31  48  79 111 151 193 233 292 331
#     4  10  21  38  63  85 112 164 194 230 318 345
#     4   8  18  32  54  77 108 154 184 231 300 338
#
# _framework density 24.450006999999999
#
# number of rings (size 3 to 8) (size 9 to 14) (size 15 to 20)
#    0.000    3.000    0.000    3.000    8.750    0.000 
#    6.750    5.000    0.000    3.750    0.000    0.000 
#    0.000    0.000    0.000    0.000    0.000    0.000 
#
# Total GULP energy -89257.198548 kJ/mol
# GULP energy per Si atom -5578.574909 kJ/mol
# Density = 2.439436 g / cm^3
# Si number density = 24.450007 Si / 1000 Ang^3
#
#
#
# Elastic Constant Matrix: (Units=GPa)
#
#
# Indices 1 2 3 4 5 6 
#
# 1 151.4266 10.3223 37.9648 0.0000 -50.1036 0.0000
# 2 10.3223 76.8170 -3.6523 0.0000 -7.5755 0.0000
# 3 37.9648 -3.6523 71.4300 0.0000 -7.0501 0.0000
# 4 0.0000 0.0000 0.0000 12.0415 0.0000 -4.9279
# 5 -50.1036 -7.5755 -7.0501 0.0000 44.7835 0.0000
# 6 0.0000 0.0000 0.0000 -4.9279 0.0000 22.1247
#
#
#
# Elastic Compliance Matrix: (Units=1/GPa)
#
#
# Indices 1 2 3 4 5 6 
#
# 1 0.012150 -0.000633 -0.005241 0.000000 0.012662 0.000000
# 2 -0.000633 0.013331 0.001189 0.000000 0.001734 0.000000
# 3 -0.005241 0.001189 0.016544 0.000000 -0.003057 0.000000
# 4 0.000000 0.000000 0.000000 0.091375 0.000000 0.020352
# 5 0.012662 0.001734 -0.003057 0.000000 0.036307 0.000000
# 6 0.000000 0.000000 0.000000 0.020352 0.000000 0.049731
#
#
# Mechanical properties :
#
#
# Convention : Reuss Voigt Hill
#
# Bulk Modulus (GPa) = 30.62218 43.21591 36.91905
# Shear Modulus (GPa) = 20.86004 32.79255 26.82629
#
# Velocity S-wave (km/s) = 2.92408 3.66622 3.31598
# Velocity P-wave (km/s) = 4.89407 5.96952 5.45835
#
# Compressibility (1/GPa) = 0.03265607
#
# Stress axis : x y z
#
# Youngs Moduli (GPa) = 82.30205 75.01557 60.44454
#
# Poissons Ratio (x) = 0.04750 0.31676
# Poissons Ratio (y) = 0.05211 -0.07189
# Poissons Ratio (z) = 0.43131 -0.08921
#
# Static dielectric constant tensor:
#      x y z
#    x 2.068260 0.000000 0.014230 
#    y 0.000000 1.969890 0.000000 
#    z 0.014230 0.000000 1.971430 
# 
# From -- ./inp_files/54183.got.cif
#   From: 2010.05.17/outbox.cif.g08.bks.cpg/sg5_28_cif.got.tgz:54183.got - 2010.06.03 18:56:24.
