data_PCOD9121695
_publ_section_title
;
Structure prediction by ZEFSAII (Michael W. Deem and Ramdas Pophale) SiO2 
 PCOD9121695
Probable space group: C 2
;
_chemical_formula_sum "Si O2"
_cell_formula_units_Z 26
_cell_length_a 17.923623
_cell_length_b 8.803839
_cell_length_c 8.976397
_cell_angle_alpha 90.000000
_cell_angle_beta 52.314936
_cell_angle_gamma 90.000000
_cell_volume 1120.950971
_symmetry_space_group_name_H-M "C 2"
_symmetry_group_IT_number 5
_symmetry_cell_setting 'monoclinic'
loop_
_space_group_symop_operation_xyz
x,y,z
-x,y,-z
1/2+x,1/2+y,z
1/2-x,1/2+y,-z
loop_
_atom_site_type_symbol
_atom_site_label
_atom_site_fract_x
_atom_site_fract_y
_atom_site_fract_z
Si Si1 0.356415 0.865770 0.137170
Si Si2 0.187648 0.876126 0.754558
Si Si3 0.654820 0.668372 0.584411
Si Si4 0.500000 0.214166 0.500000
Si Si5 0.095382 0.653293 0.082985
Si Si6 0.644955 0.472067 0.350727
Si Si7 0.214173 0.092042 0.972708
O O1 0.388586 0.792982 0.252717
O O2 0.250789 0.937241 0.278112
O O3 0.339479 0.727422 0.043749
O O4 0.415460 0.000544 0.997214
O O5 0.248764 0.749733 0.592687
O O6 0.161070 0.012939 0.674788
O O7 0.245535 0.968724 0.811291
O O8 0.105413 0.791022 0.950479
O O9 0.605204 0.610769 0.495634
O O10 0.526432 0.143364 0.308632
O O11 0.586653 0.321308 0.438199
O O12 0.197908 0.651004 0.039259
O O13 0.648343 0.512400 0.173805
#
# Coordination Sequence:
#
# PCOD9121695 Si02
#       7
#     4   4   4   2   4   4   4
#     4  10  20  37  64  96 121 160 221 261 303 364
#     4  11  19  35  62  94 122 154 209 268 301 360
#     4  11  21  35  64  98 123 159 217 263 310 358
#     4  12  24  40  60 102 128 172 198 260 330 382
#     4  11  20  37  62  92 129 161 211 258 316 367
#     4  11  21  37  62  98 126 164 209 259 312 379
#     4  10  19  35  64  90 123 161 213 266 294 362
#
# _framework density 23.194592
#
# number of rings (size 3 to 8) (size 9 to 14) (size 15 to 20)
#    0.000    1.231    7.692    0.923    0.000    0.000 
#    0.000    1.538    0.000    0.000    4.000    0.000 
#    0.000    0.000    0.000    0.000    0.000    0.000 
#
# Total GULP energy -72536.742317 kJ/mol
# GULP energy per Si atom -5579.749409 kJ/mol
# Density = 2.314180 g / cm^3
# Si number density = 23.194592 Si / 1000 Ang^3
#
#
#
# Elastic Constant Matrix: (Units=GPa)
#
#
# Indices 1 2 3 4 5 6 
#
# 1 32.0545 13.8726 21.6189 0.0000 5.8881 0.0000
# 2 13.8726 134.4509 78.0051 0.0000 14.1741 0.0000
# 3 21.6189 78.0051 170.0881 0.0000 30.9755 0.0000
# 4 0.0000 0.0000 0.0000 66.3769 0.0000 22.1636
# 5 5.8881 14.1741 30.9755 0.0000 24.0476 0.0000
# 6 0.0000 0.0000 0.0000 22.1636 0.0000 2.7445
#
#
#
# Elastic Compliance Matrix: (Units=1/GPa)
#
#
# Indices 1 2 3 4 5 6 
#
# 1 0.034553 -0.001387 -0.003088 0.000000 -0.003665 0.000000
# 2 -0.001387 0.010190 -0.004527 0.000000 0.000165 0.000000
# 3 -0.003088 -0.004527 0.010092 0.000000 -0.009575 0.000000
# 4 0.000000 0.000000 0.000000 -0.008881 0.000000 0.071715
# 5 -0.003665 0.000165 -0.009575 0.000000 0.054717 0.000000
# 6 0.000000 0.000000 0.000000 0.071715 0.000000 -0.214778
#
#
# Mechanical properties :
#
#
# Convention : Reuss Voigt Hill
#
# Bulk Modulus (GPa) = 27.15168 62.62075 44.88622
# Shear Modulus (GPa) = -59.64812 33.50696 -13.07058
#
# Velocity S-wave (km/s) = -5.07663 3.80492 -2.37643
# Velocity P-wave (km/s) = 4.75726 6.80880 3.44444
#
# Compressibility (1/GPa) = 0.03683013
#
# Stress axis : x y z
#
# Youngs Moduli (GPa) = 28.94084 98.13724 99.09229
#
# Poissons Ratio (x) = 0.13612 0.30603
# Poissons Ratio (y) = 0.04014 0.44858
# Poissons Ratio (z) = 0.08938 0.44426
#
# Static dielectric constant tensor:
#      x y z
#    x 1.883000 0.000000 -0.019830 
#    y 0.000000 1.904300 0.000000 
#    z -0.019830 0.000000 1.957030 
# 
# From -- ./inp_files/26760.got.cif
#   From: 2010.05.17/outbox.cif.g08.bks.cpg/sg5_14_cif.got.tgz:26760.got - 2010.06.03 18:56:24.
