data_PCOD9121407
_publ_section_title
;
Structure prediction by ZEFSAII (Michael W. Deem and Ramdas Pophale) SiO2 
 PCOD9121407
Probable space group: C 2
;
_chemical_formula_sum "Si O2"
_cell_formula_units_Z 30
_cell_length_a 19.529311
_cell_length_b 8.377235
_cell_length_c 22.472937
_cell_angle_alpha 90.000000
_cell_angle_beta 153.148537
_cell_angle_gamma 90.000000
_cell_volume 1660.647396
_symmetry_space_group_name_H-M "C 2"
_symmetry_group_IT_number 5
_symmetry_cell_setting 'monoclinic'
loop_
_space_group_symop_operation_xyz
x,y,z
-x,y,-z
1/2+x,1/2+y,z
1/2-x,1/2+y,-z
loop_
_atom_site_type_symbol
_atom_site_label
_atom_site_fract_x
_atom_site_fract_y
_atom_site_fract_z
Si Si1 0.385867 0.148010 0.090740
Si Si2 0.409161 0.590570 0.373657
Si Si3 0.000000 0.774207 0.500000
Si Si4 0.949664 0.014470 0.169408
Si Si5 0.935603 0.515499 0.883795
Si Si6 0.868879 0.459843 0.649463
Si Si7 0.418870 0.660514 0.609689
Si Si8 0.173362 0.226302 0.272834
O O1 0.417318 0.331158 0.130564
O O2 0.455062 0.096553 0.080308
O O3 0.477428 0.042706 0.209708
O O4 0.208516 0.109803 0.955736
O O5 0.500000 0.663763 0.500000
O O6 0.458466 0.402335 0.415675
O O7 0.230354 0.596933 0.245782
O O8 0.464649 0.657278 0.354478
O O9 0.154122 0.680143 0.608084
O O10 0.020290 0.051051 0.288954
O O11 0.066745 0.085710 0.212266
O O12 0.903805 0.332880 0.838394
O O13 0.000000 0.522684 0.000000
O O14 0.740609 0.588303 0.535550
O O15 0.896493 0.337788 0.617437
O O16 0.815254 0.351147 0.663345
#
# Coordination Sequence:
#
# PCOD9121407 Si02
#       8
#     4   4   2   4   4   4   4   4
#     4  11  22  41  55  86 116 155 190 247 293 347
#     4   9  17  31  55  82 114 159 187 229 279 348
#     4   8  14  32  58  78 114 156 180 230 278 350
#     4  11  23  36  62  81 118 152 197 244 295 338
#     4  10  19  33  59  83 111 150 196 228 286 360
#     4  10  20  34  58  83 123 143 197 237 288 336
#     4  11  19  34  57  90 111 155 200 240 281 344
#     4   9  18  35  57  85 114 153 185 237 289 340
#
# _framework density 18.065244
#
# number of rings (size 3 to 8) (size 9 to 14) (size 15 to 20)
#    0.400    1.600    1.333    4.800    0.000    0.000 
#    0.000    0.667   10.267    0.000    0.000    0.000 
#    0.000    0.000    0.000    0.000    0.000    0.000 
#
# Total GULP energy -83662.445907 kJ/mol
# GULP energy per Si atom -5577.496394 kJ/mol
# Density = 1.802413 g / cm^3
# Si number density = 18.065244 Si / 1000 Ang^3
#
#
#
# Elastic Constant Matrix: (Units=GPa)
#
#
# Indices 1 2 3 4 5 6 
#
# 1 74.9134 28.0784 19.6950 0.0000 14.6089 0.0000
# 2 28.0784 50.2890 8.4607 0.0001 0.5418 0.0000
# 3 19.6950 8.4607 81.7495 0.0001 11.6151 0.0000
# 4 0.0000 0.0001 0.0001 24.3254 0.0000 3.0031
# 5 14.6089 0.5418 11.6151 0.0000 35.0281 0.0000
# 6 0.0000 0.0000 0.0000 3.0031 0.0000 21.4001
#
#
#
# Elastic Compliance Matrix: (Units=1/GPa)
#
#
# Indices 1 2 3 4 5 6 
#
# 1 0.019225 -0.010225 -0.002578 0.000000 -0.007005 0.000000
# 2 -0.010225 0.025681 -0.000781 0.000000 0.004126 0.000000
# 3 -0.002578 -0.000781 0.013412 0.000000 -0.003360 0.000000
# 4 0.000000 0.000000 0.000000 0.041834 0.000000 -0.005871
# 5 -0.007005 0.004126 -0.003360 0.000000 0.032520 0.000000
# 6 0.000000 0.000000 0.000000 -0.005871 0.000000 0.047553
#
#
# Mechanical properties :
#
#
# Convention : Reuss Voigt Hill
#
# Bulk Modulus (GPa) = 32.10256 35.49116 33.79686
# Shear Modulus (GPa) = 22.95938 26.19855 24.57896
#
# Velocity S-wave (km/s) = 3.56886 3.81230 3.69259
# Velocity P-wave (km/s) = 5.89841 6.25036 6.07693
#
# Compressibility (1/GPa) = 0.03115016
#
# Stress axis : x y z
#
# Youngs Moduli (GPa) = 52.01555 38.93940 74.56116
#
# Poissons Ratio (x) = 0.39815 0.19223
# Poissons Ratio (y) = 0.53185 0.05821
# Poissons Ratio (z) = 0.13410 0.03040
#
# Static dielectric constant tensor:
#      x y z
#    x 1.626440 0.000000 0.004690 
#    y 0.000000 1.605250 0.000000 
#    z 0.004690 0.000000 1.618740 
# 
# From -- ./inp_files/66618.got.cif
#   From: 2010.05.17/outbox.cif.g08.bks.cpg/sg5_34_cif.got.tgz:66618.got - 2010.06.03 18:56:24.
