data_PCOD9121256
_publ_section_title
;
Structure prediction by ZEFSAII (Michael W. Deem and Ramdas Pophale) SiO2 
 PCOD9121256
Probable space group: C 2
;
_chemical_formula_sum "Si O2"
_cell_formula_units_Z 24
_cell_length_a 7.938232
_cell_length_b 15.067853
_cell_length_c 8.618222
_cell_angle_alpha 90.000000
_cell_angle_beta 84.859881
_cell_angle_gamma 90.000000
_cell_volume 1026.698283
_symmetry_space_group_name_H-M "C 2"
_symmetry_group_IT_number 5
_symmetry_cell_setting 'monoclinic'
loop_
_space_group_symop_operation_xyz
x,y,z
-x,y,-z
1/2+x,1/2+y,z
1/2-x,1/2+y,-z
loop_
_atom_site_type_symbol
_atom_site_label
_atom_site_fract_x
_atom_site_fract_y
_atom_site_fract_z
Si Si1 0.322389 0.583460 0.678328
Si Si2 0.699699 0.968851 0.981446
Si Si3 0.201021 0.303642 0.805544
Si Si4 0.633846 0.613780 0.847237
Si Si5 0.869782 0.274116 0.660466
Si Si6 0.297934 0.926031 0.494037
O O1 0.246543 0.530868 0.830691
O O2 0.516953 0.600794 0.707409
O O3 0.261330 0.684907 0.672776
O O4 0.285236 0.518782 0.539501
O O5 0.756883 0.868719 0.938773
O O6 0.500000 0.964760 0.000000
O O7 0.770871 0.023210 0.120123
O O8 0.250664 0.200868 0.819969
O O9 0.245297 0.360832 0.648360
O O10 0.996561 0.290956 0.793869
O O11 0.500000 0.628413 0.000000
O O12 0.759647 0.361924 0.641233
O O13 0.000000 0.264965 0.500000
O O14 0.500000 0.943770 0.500000
#
# Coordination Sequence:
#
# PCOD9121256 Si02
#       6
#     4   4   4   4   4   4
#     4   9  17  32  52  75  99 125 164 205 237 287
#     4  10  19  31  50  75 100 129 163 199 241 288
#     4   8  15  30  49  70  95 129 168 195 231 297
#     4   9  17  30  50  71  96 130 165 200 238 282
#     4   8  15  30  53  74  94 129 164 195 242 298
#     4   8  15  29  50  73  96 126 161 202 243 284
#
# _framework density 23.375902
#
# number of rings (size 3 to 8) (size 9 to 14) (size 15 to 20)
#    0.000    3.667    0.000    0.500    0.000    0.000 
#    0.000   19.167    0.000   11.000    0.000    2.333 
#    0.000    0.000    0.000    0.000    0.000    0.000 
#
# Total GULP energy -66826.067204 kJ/mol
# GULP energy per Si atom -5568.838934 kJ/mol
# Density = 2.332270 g / cm^3
# Si number density = 23.375902 Si / 1000 Ang^3
#
#
#
# Elastic Constant Matrix: (Units=GPa)
#
#
# Indices 1 2 3 4 5 6 
#
# 1 8.6603 20.9169 5.0375 0.0000 -3.2261 0.0000
# 2 20.9169 214.1056 57.4071 0.0000 22.0604 0.0000
# 3 5.0375 57.4071 51.6363 0.0000 17.8348 0.0000
# 4 0.0000 0.0000 0.0000 49.2826 0.0000 10.8734
# 5 -3.2261 22.0604 17.8348 0.0000 29.1910 0.0000
# 6 0.0000 0.0000 0.0000 10.8734 0.0000 32.7355
#
#
#
# Elastic Compliance Matrix: (Units=1/GPa)
#
#
# Indices 1 2 3 4 5 6 
#
# 1 0.183993 -0.019369 -0.010767 0.000000 0.041551 0.000000
# 2 -0.019369 0.008703 -0.006052 0.000000 -0.005020 0.000000
# 3 -0.010767 -0.006052 0.032924 0.000000 -0.016732 0.000000
# 4 0.000000 0.000000 0.000000 0.021896 0.000000 -0.007273
# 5 0.041551 -0.005020 -0.016732 0.000000 0.052866 0.000000
# 6 0.000000 0.000000 0.000000 -0.007273 0.000000 0.032964
#
#
# Mechanical properties :
#
#
# Convention : Reuss Voigt Hill
#
# Bulk Modulus (GPa) = 6.52558 49.01391 27.76975
# Shear Modulus (GPa) = 10.94562 34.97787 22.96175
#
# Velocity S-wave (km/s) = 2.16624 3.87243 3.13754
# Velocity P-wave (km/s) = 3.00906 6.40371 5.00310
#
# Compressibility (1/GPa) = 0.15324303
#
# Stress axis : x y z
#
# Youngs Moduli (GPa) = 5.43498 114.90599 30.37295
#
# Poissons Ratio (x) = 2.22565 0.32704
# Poissons Ratio (y) = 0.10527 0.18381
# Poissons Ratio (z) = 0.05852 0.69539
#
# Static dielectric constant tensor:
#      x y z
#    x 1.899170 0.000000 -0.053610 
#    y 0.000000 1.998290 0.000000 
#    z -0.053610 0.000000 2.026750 
# 
# From -- ./inp_files/35963.got.cif
#   From: 2010.05.17/outbox.cif.g08.bks.cpg/sg5_18_cif.got.tgz:35963.got - 2010.06.03 18:56:24.
