data_PCOD9121887
_publ_section_title
;
Structure prediction by ZEFSAII (Michael W. Deem and Ramdas Pophale) SiO2 
 PCOD9121887
Probable space group: C 2
;
_chemical_formula_sum "Si O2"
_cell_formula_units_Z 22
_cell_length_a 7.405541
_cell_length_b 11.252478
_cell_length_c 17.138750
_cell_angle_alpha 90.000000
_cell_angle_beta 146.399649
_cell_angle_gamma 90.000000
_cell_volume 790.352141
_symmetry_space_group_name_H-M "C 2"
_symmetry_group_IT_number 5
_symmetry_cell_setting 'monoclinic'
loop_
_space_group_symop_operation_xyz
x,y,z
-x,y,-z
1/2+x,1/2+y,z
1/2-x,1/2+y,-z
loop_
_atom_site_type_symbol
_atom_site_label
_atom_site_fract_x
_atom_site_fract_y
_atom_site_fract_z
Si Si1 0.183026 0.601710 0.936968
Si Si2 0.693468 0.817057 0.443493
Si Si3 0.341171 0.300562 0.262502
Si Si4 0.500000 0.936022 0.000000
Si Si5 0.229004 0.826321 0.148472
Si Si6 0.723494 0.596235 0.644249
O O1 0.918077 0.536471 0.784783
O O2 0.500000 0.628969 0.000000
O O3 0.225838 0.520179 0.027933
O O4 0.001103 0.721525 0.900529
O O5 0.417654 0.882355 0.291308
O O6 0.513411 0.695810 0.404156
O O7 0.000000 0.784064 0.500000
O O8 0.865662 0.866415 0.584096
O O9 0.218787 0.363097 0.139685
O O10 0.500839 0.174575 0.298638
O O11 0.031683 0.278190 0.206469
O O12 0.000000 0.887512 0.000000
O O13 0.500000 0.530137 0.500000
#
# Coordination Sequence:
#
# PCOD9121887 Si02
#       6
#     4   4   4   2   4   4
#     4  11  24  44  65  99 136 176 219 270 334 400
#     4   8  17  35  59  95 127 157 214 281 324 369
#     4  10  22  39  64  98 130 173 224 276 326 386
#     4  12  28  40  62  96 148 180 210 262 348 406
#     4  10  19  36  72  98 122 165 228 279 319 377
#     4   9  19  38  71  93 122 164 234 284 314 381
#
# _framework density 27.835692999999999
#
# number of rings (size 3 to 8) (size 9 to 14) (size 15 to 20)
#    0.000    2.182    0.909    1.091    6.364    0.727 
#    3.273    2.727    8.000    0.000    0.000    0.000 
#    0.000    0.000    0.000    0.000    0.000    0.000 
#
# Total GULP energy -61589.741022 kJ/mol
# GULP energy per Si atom -5599.067366 kJ/mol
# Density = 2.777234 g / cm^3
# Si number density = 27.835693 Si / 1000 Ang^3
#
#
#
# Elastic Constant Matrix: (Units=GPa)
#
#
# Indices 1 2 3 4 5 6 
#
# 1 207.7280 57.1445 52.3780 0.0009 22.0278 -0.0003
# 2 57.1445 82.2179 65.5861 0.0005 -3.6212 0.0000
# 3 52.3780 65.5861 343.1144 0.0085 -32.3572 0.0025
# 4 0.0009 0.0005 0.0085 51.6815 0.0024 -7.5812
# 5 22.0278 -3.6212 -32.3572 0.0024 61.4767 -0.0002
# 6 -0.0003 0.0000 0.0025 -7.5812 -0.0002 32.7786
#
#
#
# Elastic Compliance Matrix: (Units=1/GPa)
#
#
# Indices 1 2 3 4 5 6 
#
# 1 0.006372 -0.004209 -0.000428 0.000000 -0.002756 0.000000
# 2 -0.004209 0.017154 -0.002524 0.000000 0.001190 0.000000
# 3 -0.000428 -0.002524 0.003644 -0.000001 0.001923 0.000000
# 4 0.000000 0.000000 -0.000001 0.020029 -0.000001 0.004632
# 5 -0.002756 0.001190 0.001923 -0.000001 0.018336 0.000000
# 6 0.000000 0.000000 0.000000 0.004632 0.000000 0.031579
#
#
# Mechanical properties :
#
#
# Convention : Reuss Voigt Hill
#
# Bulk Modulus (GPa) = 77.83637 109.25305 93.54471
# Shear Modulus (GPa) = 43.20839 59.71747 51.46293
#
# Velocity S-wave (km/s) = 3.94415 4.63682 4.30444
# Velocity P-wave (km/s) = 6.98322 8.24629 7.64090
#
# Compressibility (1/GPa) = 0.01284747
#
# Stress axis : x y z
#
# Youngs Moduli (GPa) = 156.93634 58.29537 274.44874
#
# Poissons Ratio (x) = 0.24534 0.11751
# Poissons Ratio (y) = 0.66048 0.69280
# Poissons Ratio (z) = 0.06720 0.14716
#
# Static dielectric constant tensor:
#      x y z
#    x 2.161740 0.000000 -0.076650 
#    y 0.000000 2.212440 0.000000 
#    z -0.076650 0.000000 2.273250 
# 
# From -- ./inp_files/14954.got.cif
#   From: 2010.05.17/outbox.cif.g08.bks.cpg/sg5_8_cif.got.tgz:14954.got - 2010.06.03 18:56:24.
