data_PCOD9121592
_publ_section_title
;
Structure prediction by ZEFSAII (Michael W. Deem and Ramdas Pophale) SiO2 
 PCOD9121592
Probable space group: C 2
;
_chemical_formula_sum "Si O2"
_cell_formula_units_Z 32
_cell_length_a 11.669759
_cell_length_b 14.868454
_cell_length_c 7.668106
_cell_angle_alpha 90.000000
_cell_angle_beta 92.246702
_cell_angle_gamma 90.000000
_cell_volume 1329.480083
_symmetry_space_group_name_H-M "C 2"
_symmetry_group_IT_number 5
_symmetry_cell_setting 'monoclinic'
loop_
_space_group_symop_operation_xyz
x,y,z
-x,y,-z
1/2+x,1/2+y,z
1/2-x,1/2+y,-z
loop_
_atom_site_type_symbol
_atom_site_label
_atom_site_fract_x
_atom_site_fract_y
_atom_site_fract_z
Si Si1 0.487693 0.115290 0.805777
Si Si2 0.527865 0.306550 0.712914
Si Si3 0.174292 0.845102 0.069836
Si Si4 0.736856 0.371240 0.547864
Si Si5 0.438216 0.781140 0.766972
Si Si6 0.580353 0.947809 0.677908
Si Si7 0.648632 0.697586 0.875464
Si Si8 0.756213 0.507652 0.856591
O O1 0.487318 0.203781 0.693190
O O2 0.377321 0.051982 0.814613
O O3 0.587335 0.046108 0.759986
O O4 0.500000 0.150736 0.000000
O O5 0.427946 0.365648 0.800089
O O6 0.609358 0.331448 0.553277
O O7 0.620424 0.310477 0.882207
O O8 0.242899 0.760816 0.156969
O O9 0.247708 0.931518 0.007035
O O10 0.833233 0.302638 0.632269
O O11 0.799056 0.408746 0.379960
O O12 0.725024 0.455119 0.678897
O O13 0.508381 0.875599 0.786952
O O14 0.544786 0.714920 0.733694
O O15 0.387576 0.740020 0.940369
O O16 0.500000 0.957526 0.500000
O O17 0.677028 0.593199 0.892082
#
# Coordination Sequence:
#
# PCOD9121592 Si02
#       8
#     4   4   4   4   4   4   4   4
#     4  12  21  34  64  98 113 152 213 264 290 352
#     4  10  19  36  60  85 126 160 201 239 312 370
#     4  10  19  35  56  88 129 159 187 253 314 356
#     4  10  21  42  60  82 118 172 197 237 310 376
#     4  10  21  35  58  83 119 153 197 251 296 348
#     4  10  21  40  60  85 121 163 204 247 301 362
#     4  11  20  34  55  97 120 144 205 262 296 344
#     4  11  21  34  62  88 123 156 198 253 306 357
#
# _framework density 24.069559000000002
#
# number of rings (size 3 to 8) (size 9 to 14) (size 15 to 20)
#    0.000    1.500    7.500    0.000    3.500    4.000 
#    2.250    0.000    0.000    0.000    0.000    0.000 
#    0.000    0.000    0.000    0.000    0.000    0.000 
#
# Total GULP energy -89315.440349 kJ/mol
# GULP energy per Si atom -5582.215022 kJ/mol
# Density = 2.401478 g / cm^3
# Si number density = 24.069559 Si / 1000 Ang^3
#
#
#
# Elastic Constant Matrix: (Units=GPa)
#
#
# Indices 1 2 3 4 5 6 
#
# 1 133.9805 37.1416 -1.3599 0.0000 -32.0456 0.0000
# 2 37.1416 140.9360 29.5711 0.0000 -25.6191 0.0000
# 3 -1.3599 29.5711 90.4938 0.0000 -37.5322 0.0000
# 4 0.0000 0.0000 0.0000 37.0410 0.0000 -7.6300
# 5 -32.0456 -25.6191 -37.5322 0.0000 35.5331 0.0000
# 6 0.0000 0.0000 0.0000 -7.6300 0.0000 36.9656
#
#
#
# Elastic Compliance Matrix: (Units=1/GPa)
#
#
# Indices 1 2 3 4 5 6 
#
# 1 0.012712 -0.001639 0.008882 0.000000 0.019665 0.000000
# 2 -0.001639 0.008385 -0.001549 0.000000 0.002931 0.000000
# 3 0.008882 -0.001549 0.025892 0.000000 0.034243 0.000000
# 4 0.000000 0.000000 0.000000 0.028196 0.000000 0.005820
# 5 0.019665 0.002931 0.034243 0.000000 0.084160 0.000000
# 6 0.000000 0.000000 0.000000 0.005820 0.000000 0.028253
#
#
# Mechanical properties :
#
#
# Convention : Reuss Voigt Hill
#
# Bulk Modulus (GPa) = 17.12968 55.12399 36.12683
# Shear Modulus (GPa) = 25.55326 41.91176 33.73251
#
# Velocity S-wave (km/s) = 3.26182 4.17739 3.74767
# Velocity P-wave (km/s) = 4.61716 6.79846 5.81108
#
# Compressibility (1/GPa) = 0.05837822
#
# Stress axis : x y z
#
# Youngs Moduli (GPa) = 78.66764 119.25714 38.62140
#
# Poissons Ratio (x) = 0.19548 -0.34305
# Poissons Ratio (y) = 0.12895 0.05982
# Poissons Ratio (z) = -0.69876 0.18472
#
# Static dielectric constant tensor:
#      x y z
#    x 2.134320 0.000000 0.080380 
#    y 0.000000 1.879030 0.000000 
#    z 0.080380 0.000000 2.037980 
# 
# From -- ./inp_files/20667.got.cif
#   From: 2010.05.17/outbox.cif.g08.bks.cpg/sg5_11_cif.got.tgz:20667.got - 2010.06.03 18:56:24.
