data_PCOD9121067
_publ_section_title
;
Structure prediction by ZEFSAII (Michael W. Deem and Ramdas Pophale) SiO2 
 PCOD9121067
Probable space group: C 2
;
_chemical_formula_sum "Si O2"
_cell_formula_units_Z 18
_cell_length_a 10.229869
_cell_length_b 11.209465
_cell_length_c 17.444346
_cell_angle_alpha 90.000000
_cell_angle_beta 26.085576
_cell_angle_gamma 90.000000
_cell_volume 879.587472
_symmetry_space_group_name_H-M "C 2"
_symmetry_group_IT_number 5
_symmetry_cell_setting 'monoclinic'
loop_
_space_group_symop_operation_xyz
x,y,z
-x,y,-z
1/2+x,1/2+y,z
1/2-x,1/2+y,-z
loop_
_atom_site_type_symbol
_atom_site_label
_atom_site_fract_x
_atom_site_fract_y
_atom_site_fract_z
Si Si1 0.500000 0.973381 0.500000
Si Si2 0.189606 0.555088 0.123952
Si Si3 0.123493 0.517717 0.858434
Si Si4 0.981944 0.807538 0.744905
Si Si5 0.253441 0.099777 0.480555
O O1 0.218084 0.888370 0.665465
O O2 0.402694 0.053975 0.479815
O O3 0.127053 0.502664 0.073669
O O4 0.172704 0.700622 0.127057
O O5 0.915466 0.528048 0.326095
O O6 0.500000 0.523216 0.000000
O O7 0.259683 0.394860 0.818441
O O8 0.402359 0.583032 0.672330
O O9 0.000000 0.580770 0.000000
O O10 0.166220 0.734870 0.583228
#
# Coordination Sequence:
#
# PCOD9121067 Si02
#       5
#     2   4   4   4   4
#     4  10  18  38  66  90 120 164 212 248 310 368
#     4  10  22  41  64  92 130 166 207 260 314 370
#     4  11  22  39  72  92 123 170 211 256 315 370
#     4   9  21  40  65  87 129 168 198 258 318 368
#     4   9  22  40  62  91 128 165 205 258 312 373
#
# _framework density 20.464138999999999
#
# number of rings (size 3 to 8) (size 9 to 14) (size 15 to 20)
#    1.333    0.889    0.000    2.667    6.222    0.000 
#    8.000    0.000    9.778    0.000    0.000    0.000 
#    0.000    0.000    0.000    0.000    0.000    0.000 
#
# Total GULP energy -50148.385682 kJ/mol
# GULP energy per Si atom -5572.042854 kJ/mol
# Density = 2.041756 g / cm^3
# Si number density = 20.464139 Si / 1000 Ang^3
#
#
#
# Elastic Constant Matrix: (Units=GPa)
#
#
# Indices 1 2 3 4 5 6 
#
# 1 130.5572 -10.3928 39.7815 0.0149 -29.5189 -0.0143
# 2 -10.3928 29.8974 6.5202 -0.0130 -18.6671 -0.0067
# 3 39.7815 6.5202 124.8354 0.0579 -5.9709 -0.0556
# 4 0.0149 -0.0130 0.0579 25.6680 -0.0234 -1.6854
# 5 -29.5189 -18.6671 -5.9709 -0.0234 36.3186 0.0113
# 6 -0.0143 -0.0067 -0.0556 -1.6854 0.0113 14.5910
#
#
#
# Elastic Compliance Matrix: (Units=1/GPa)
#
#
# Indices 1 2 3 4 5 6 
#
# 1 0.016165 0.021231 -0.005151 0.000034 0.023204 -0.000008
# 2 0.021231 0.077372 -0.008143 0.000096 0.055685 -0.000007
# 3 -0.005151 -0.008143 0.009754 -0.000027 -0.006768 0.000030
# 4 0.000034 0.000096 -0.000027 0.039257 0.000096 0.004535
# 5 0.023204 0.055685 -0.006768 0.000096 0.073903 -0.000024
# 6 -0.000008 -0.000007 0.000030 0.004535 -0.000024 0.069059
#
#
# Mechanical properties :
#
#
# Convention : Reuss Voigt Hill
#
# Bulk Modulus (GPa) = 8.39172 39.67864 24.03518
# Shear Modulus (GPa) = 16.16248 31.94090 24.05169
#
# Velocity S-wave (km/s) = 2.81338 3.95501 3.43200
# Velocity P-wave (km/s) = 3.82924 6.34725 5.24169
#
# Compressibility (1/GPa) = 0.11916508
#
# Stress axis : x y z
#
# Youngs Moduli (GPa) = 61.86031 12.92452 102.52723
#
# Poissons Ratio (x) = -0.27440 0.52807
# Poissons Ratio (y) = -1.31335 0.83493
# Poissons Ratio (z) = 0.31861 0.10525
#
# Static dielectric constant tensor:
#      x y z
#    x 1.696210 -0.000010 0.012820 
#    y -0.000010 1.722180 0.000000 
#    z 0.012820 0.000000 1.820740 
# 
# From -- ./inp_files/27374.got.cif
#   From: 2010.05.17/outbox.cif.g08.bks.cpg/sg5_14_cif.got.tgz:27374.got - 2010.06.03 18:56:24.
