data_PCOD9121872
_publ_section_title
;
Structure prediction by ZEFSAII (Michael W. Deem and Ramdas Pophale) SiO2 
 PCOD9121872
Probable space group: C 2
;
_chemical_formula_sum "Si O2"
_cell_formula_units_Z 30
_cell_length_a 11.980247
_cell_length_b 24.014839
_cell_length_c 9.024177
_cell_angle_alpha 90.000000
_cell_angle_beta 143.018140
_cell_angle_gamma 90.000000
_cell_volume 1561.829257
_symmetry_space_group_name_H-M "C 2"
_symmetry_group_IT_number 5
_symmetry_cell_setting 'monoclinic'
loop_
_space_group_symop_operation_xyz
x,y,z
-x,y,-z
1/2+x,1/2+y,z
1/2-x,1/2+y,-z
loop_
_atom_site_type_symbol
_atom_site_label
_atom_site_fract_x
_atom_site_fract_y
_atom_site_fract_z
Si Si1 0.281799 0.164180 0.623165
Si Si2 0.087427 0.196295 0.936237
Si Si3 0.802420 0.947135 0.333669
Si Si4 0.500289 0.888151 0.158842
Si Si5 0.000000 0.765247 0.000000
Si Si6 0.645354 0.796630 0.781500
Si Si7 0.905883 0.606035 0.251163
Si Si8 0.294341 0.062834 0.840330
O O1 0.429647 0.133876 0.672347
O O2 0.251923 0.124526 0.734318
O O3 0.085027 0.170870 0.337191
O O4 0.375081 0.222597 0.769307
O O5 0.157531 0.248489 0.916722
O O6 0.254863 0.152815 0.133546
O O7 0.000000 0.212801 0.000000
O O8 0.699124 0.918977 0.364213
O O9 0.000000 0.922454 0.500000
O O10 0.817891 0.013553 0.356358
O O11 0.657655 0.933489 0.047265
O O12 0.441815 0.850634 0.232134
O O13 0.500000 0.854605 0.000000
O O14 0.149367 0.801434 0.068860
O O15 0.500000 0.779376 0.500000
O O16 0.000000 0.582780 0.500000
O O17 0.802461 0.564874 0.026616
O O18 0.500000 0.050854 0.000000
#
# Coordination Sequence:
#
# PCOD9121872 Si02
#       8
#     4   4   4   4   2   4   4   4
#     4  11  21  38  57  91 127 163 204 248 301 379
#     4  12  24  37  58  88 131 173 206 252 299 379
#     4   9  19  39  65  90 113 153 211 261 308 376
#     4   8  21  42  59  85 120 150 207 263 306 368
#     4  12  22  38  60  92 128 158 214 252 312 372
#     4  12  24  39  62  88 121 166 211 259 319 368
#     4  11  22  37  54  90 132 164 203 251 303 369
#     4  10  19  36  66  87 121 163 201 255 314 366
#
# _framework density 19.208245999999999
#
# number of rings (size 3 to 8) (size 9 to 14) (size 15 to 20)
#    0.800    0.533    7.333    0.400    1.867    1.067 
#    0.000    1.333    0.000    0.000    1.733    0.000 
#    0.000    0.000    0.000    0.000    0.000    0.000 
#
# Total GULP energy -83540.195977 kJ/mol
# GULP energy per Si atom -5569.346398 kJ/mol
# Density = 1.916453 g / cm^3
# Si number density = 19.208246 Si / 1000 Ang^3
#
#
#
# Elastic Constant Matrix: (Units=GPa)
#
#
# Indices 1 2 3 4 5 6 
#
# 1 124.6721 35.5721 34.3819 0.0000 11.8616 0.0000
# 2 35.5721 51.8557 5.4404 0.0000 2.8724 0.0000
# 3 34.3819 5.4404 64.7688 0.0000 5.5077 0.0000
# 4 0.0000 0.0000 0.0000 -3.6500 0.0000 -4.2143
# 5 11.8616 2.8724 5.5077 0.0000 44.1552 0.0000
# 6 0.0000 0.0000 0.0000 -4.2143 0.0000 11.6832
#
#
#
# Elastic Compliance Matrix: (Units=1/GPa)
#
#
# Indices 1 2 3 4 5 6 
#
# 1 0.011851 -0.007442 -0.005495 0.000000 -0.002014 0.000000
# 2 -0.007442 0.024179 0.001903 0.000000 0.000189 0.000000
# 3 -0.005495 0.001903 0.018275 0.000000 -0.000927 0.000000
# 4 0.000000 0.000000 0.000000 -0.193417 0.000000 -0.069768
# 5 -0.002014 0.000189 -0.000927 0.000000 0.023292 0.000000
# 6 0.000000 0.000000 0.000000 -0.069768 0.000000 0.060427
#
#
# Mechanical properties :
#
#
# Convention : Reuss Voigt Hill
#
# Bulk Modulus (GPa) = 31.01798 43.56504 37.29151
# Shear Modulus (GPa) = -221.43294 21.49781 -99.96756
#
# Velocity S-wave (km/s) = -10.74851 3.34907 -7.22199
# Velocity P-wave (km/s) = 11.74126 6.13878 7.07717
#
# Compressibility (1/GPa) = 0.03223936
#
# Stress axis : x y z
#
# Youngs Moduli (GPa) = 84.37854 41.35808 54.71845
#
# Poissons Ratio (x) = 0.30778 0.30067
# Poissons Ratio (y) = 0.62793 -0.10415
# Poissons Ratio (z) = 0.46364 -0.07872
#
# Static dielectric constant tensor:
#      x y z
#    x 1.692530 0.000000 0.004330 
#    y 0.000000 1.700270 0.000000 
#    z 0.004330 0.000000 1.703380 
# 
# From -- ./inp_files/22179.got.cif
#   From: 2010.05.17/outbox.cif.g08.bks.cpg/sg5_12_cif.got.tgz:22179.got - 2010.06.03 18:56:24.
