data_PCOD9121143
_publ_section_title
;
Structure prediction by ZEFSAII (Michael W. Deem and Ramdas Pophale) SiO2 
 PCOD9121143
Probable space group: C 2
;
_chemical_formula_sum "Si O2"
_cell_formula_units_Z 28
_cell_length_a 16.453749
_cell_length_b 7.028762
_cell_length_c 9.880299
_cell_angle_alpha 90.000000
_cell_angle_beta 72.752007
_cell_angle_gamma 90.000000
_cell_volume 1091.266839
_symmetry_space_group_name_H-M "C 2"
_symmetry_group_IT_number 5
_symmetry_cell_setting 'monoclinic'
loop_
_space_group_symop_operation_xyz
x,y,z
-x,y,-z
1/2+x,1/2+y,z
1/2-x,1/2+y,-z
loop_
_atom_site_type_symbol
_atom_site_label
_atom_site_fract_x
_atom_site_fract_y
_atom_site_fract_z
Si Si1 0.605996 0.710830 0.616803
Si Si2 0.058266 0.155872 0.166281
Si Si3 0.500000 0.321413 0.000000
Si Si4 0.345511 0.371217 0.700856
Si Si5 0.000000 0.897951 0.500000
Si Si6 0.775292 0.140214 0.043674
Si Si7 0.819743 0.736165 0.158747
Si Si8 0.740616 0.404865 0.547975
O O1 0.527460 0.770617 0.753154
O O2 0.555810 0.543300 0.562357
O O3 0.687977 0.588996 0.628795
O O4 0.656778 0.876890 0.511998
O O5 0.025577 0.965342 0.107580
O O6 0.114177 0.070995 0.263483
O O7 0.132794 0.237494 0.033127
O O8 0.419308 0.206270 0.090704
O O9 0.434472 0.271468 0.615875
O O10 0.293384 0.249048 0.832735
O O11 0.293034 0.390098 0.588839
O O12 0.797230 0.942573 0.105458
O O13 0.730478 0.104196 0.920447
O O14 0.791309 0.745920 0.328452
#
# Coordination Sequence:
#
# PCOD9121143 Si02
#       8
#     4   4   2   4   2   4   4   4
#     4  10  21  39  63  92 125 166 215 263 318 379
#     4  10  21  39  66  92 124 175 218 254 314 396
#     4  10  18  40  64  94 118 166 216 260 304 400
#     4  10  20  38  62  95 127 163 214 264 309 376
#     4   8  20  36  64  90 124 174 212 250 316 398
#     4  11  22  41  65  95 126 172 211 266 318 386
#     4  11  24  39  68  95 126 166 218 261 325 380
#     4  11  23  37  64  99 128 163 213 268 320 383
#
# _framework density 25.658252999999998
#
# number of rings (size 3 to 8) (size 9 to 14) (size 15 to 20)
#    0.000    1.714    4.286    0.857    8.000    0.000 
#    0.000    0.000   15.714    1.714    0.000    0.000 
#    0.000    0.000    0.000    0.000    0.000    0.000 
#
# Total GULP energy -78003.720570 kJ/mol
# GULP energy per Si atom -5571.694326 kJ/mol
# Density = 2.559985 g / cm^3
# Si number density = 25.658253 Si / 1000 Ang^3
#
#
#
# Elastic Constant Matrix: (Units=GPa)
#
#
# Indices 1 2 3 4 5 6 
#
# 1 153.0127 45.6100 65.3652 0.0000 -51.7201 0.0000
# 2 45.6100 52.4077 26.0343 0.0000 -20.2743 0.0000
# 3 65.3652 26.0343 114.3171 0.0000 -26.9883 0.0000
# 4 0.0000 0.0000 0.0000 17.2049 0.0000 -1.7770
# 5 -51.7201 -20.2743 -26.9883 0.0000 95.5565 0.0000
# 6 0.0000 0.0000 0.0000 -1.7770 0.0000 35.6447
#
#
#
# Elastic Compliance Matrix: (Units=1/GPa)
#
#
# Indices 1 2 3 4 5 6 
#
# 1 0.011524 -0.006506 -0.004244 0.000000 0.003659 0.000000
# 2 -0.006506 0.026276 -0.001906 0.000000 0.001515 0.000000
# 3 -0.004244 -0.001906 0.011754 0.000000 0.000618 0.000000
# 4 0.000000 0.000000 0.000000 0.058424 0.000000 0.002913
# 5 0.003659 0.001515 0.000618 0.000000 0.012941 0.000000
# 6 0.000000 0.000000 0.000000 0.002913 0.000000 0.028200
#
#
# Mechanical properties :
#
#
# Convention : Reuss Voigt Hill
#
# Bulk Modulus (GPa) = 41.25004 65.97296 53.61150
# Shear Modulus (GPa) = 27.39517 41.86309 34.62913
#
# Velocity S-wave (km/s) = 3.27110 4.04364 3.67772
# Velocity P-wave (km/s) = 5.51166 6.89706 6.24291
#
# Compressibility (1/GPa) = 0.02424240
#
# Stress axis : x y z
#
# Youngs Moduli (GPa) = 86.77278 38.05690 85.07417
#
# Poissons Ratio (x) = 0.24759 0.36107
# Poissons Ratio (y) = 0.56453 0.16219
# Poissons Ratio (z) = 0.36828 0.07255
#
# Static dielectric constant tensor:
#      x y z
#    x 2.074220 0.000000 -0.056180 
#    y 0.000000 2.142490 0.000000 
#    z -0.056180 0.000000 2.263840 
# 
# From -- ./inp_files/43953.got.cif
#   From: 2010.05.17/outbox.cif.g08.bks.cpg/sg5_22_cif.got.tgz:43953.got - 2010.06.03 18:56:24.
