data_PCOD9121226
_publ_section_title
;
Structure prediction by ZEFSAII (Michael W. Deem and Ramdas Pophale) SiO2 
 PCOD9121226
Probable space group: C 2
;
_chemical_formula_sum "Si O2"
_cell_formula_units_Z 32
_cell_length_a 26.917253
_cell_length_b 5.620693
_cell_length_c 19.346210
_cell_angle_alpha 90.000000
_cell_angle_beta 32.504573
_cell_angle_gamma 90.000000
_cell_volume 1572.850439
_symmetry_space_group_name_H-M "C 2"
_symmetry_group_IT_number 5
_symmetry_cell_setting 'monoclinic'
loop_
_space_group_symop_operation_xyz
x,y,z
-x,y,-z
1/2+x,1/2+y,z
1/2-x,1/2+y,-z
loop_
_atom_site_type_symbol
_atom_site_label
_atom_site_fract_x
_atom_site_fract_y
_atom_site_fract_z
Si Si1 0.887908 0.662840 0.133566
Si Si2 0.950753 0.999164 0.782332
Si Si3 0.626621 0.188303 0.006441
Si Si4 0.229949 0.964819 0.062803
Si Si5 0.776426 0.398345 0.533899
Si Si6 0.087704 0.149792 0.845504
Si Si7 0.663371 0.388363 0.530043
Si Si8 0.034942 0.366532 0.769226
O O1 0.852444 0.725174 0.098310
O O2 0.864102 0.398331 0.188448
O O3 0.861753 0.894146 0.209608
O O4 0.000000 0.653616 0.000000
O O5 0.881518 0.969883 0.799817
O O6 0.051865 0.881424 0.654944
O O7 0.976154 0.266290 0.774111
O O8 0.892404 0.898641 0.916545
O O9 0.705537 0.021315 0.947358
O O10 0.525782 0.067975 0.125514
O O11 0.247461 0.202172 0.994239
O O12 0.693715 0.395557 0.575454
O O13 0.798625 0.143022 0.541985
O O14 0.865585 0.421676 0.376773
O O15 0.788280 0.653041 0.557066
O O16 0.048359 0.180346 0.815029
O O17 0.000000 0.131692 0.000000
#
# Coordination Sequence:
#
# PCOD9121226 Si02
#       8
#     4   4   4   4   4   4   4   4
#     4  10  19  29  41  60  83 112 143 179 215 255
#     4  10  19  30  46  62  90 122 153 181 219 259
#     4  11  19  30  45  62  90 123 150 183 219 261
#     4  10  21  31  43  64  89 117 161 186 207 256
#     4   9  18  28  42  65  85 114 149 181 216 270
#     4  10  19  28  41  61  83 110 146 175 211 266
#     4   9  17  29  43  61  88 114 148 183 219 254
#     4  11  18  29  46  63  88 122 149 177 227 265
#
# _framework density 20.345227000000001
#
# number of rings (size 3 to 8) (size 9 to 14) (size 15 to 20)
#    0.000    2.000    5.000    1.500    0.000    0.000 
#    0.000    0.000    0.000    0.000    0.000    0.000 
#    0.000    1.000    0.000    7.625    0.000    0.000 
#
# Total GULP energy -89118.476566 kJ/mol
# GULP energy per Si atom -5569.904785 kJ/mol
# Density = 2.029892 g / cm^3
# Si number density = 20.345227 Si / 1000 Ang^3
#
#
#
# Elastic Constant Matrix: (Units=GPa)
#
#
# Indices 1 2 3 4 5 6 
#
# 1 61.1944 10.3346 14.9774 0.0107 -16.3707 0.0255
# 2 10.3346 149.3801 22.4202 -0.0272 -2.3319 0.1951
# 3 14.9774 22.4202 65.2242 -0.0804 -22.4524 0.0189
# 4 0.0107 -0.0272 -0.0804 41.5049 0.0207 -2.1704
# 5 -16.3707 -2.3319 -22.4524 0.0207 23.1468 0.0058
# 6 0.0255 0.1951 0.0189 -2.1704 0.0058 27.1088
#
#
#
# Elastic Compliance Matrix: (Units=1/GPa)
#
#
# Indices 1 2 3 4 5 6 
#
# 1 0.020406 -0.001329 0.001040 -0.000013 0.015308 -0.000015
# 2 -0.001329 0.007240 -0.003387 -0.000002 -0.003496 -0.000048
# 3 0.001040 -0.003387 0.024610 0.000033 0.024267 0.000004
# 4 -0.000013 -0.000002 0.000033 0.024195 0.000001 0.001937
# 5 0.015308 -0.003496 0.024267 0.000001 0.077215 -0.000023
# 6 -0.000015 -0.000048 0.000004 0.001937 -0.000023 0.037044
#
#
# Mechanical properties :
#
#
# Convention : Reuss Voigt Hill
#
# Bulk Modulus (GPa) = 22.26881 41.25146 31.76013
# Shear Modulus (GPa) = 23.47081 33.55653 28.51367
#
# Velocity S-wave (km/s) = 3.40019 4.06563 3.74771
# Velocity P-wave (km/s) = 5.13657 6.50837 5.86273
#
# Compressibility (1/GPa) = 0.04490586
#
# Stress axis : x y z
#
# Youngs Moduli (GPa) = 49.00448 138.11965 40.63308
#
# Poissons Ratio (x) = 0.18355 -0.04227
# Poissons Ratio (y) = 0.06512 0.13762
# Poissons Ratio (z) = -0.05098 0.46780
#
# Static dielectric constant tensor:
#      x y z
#    x 1.698930 -0.000030 -0.015960 
#    y -0.000030 1.887270 -0.000060 
#    z -0.015960 -0.000060 1.837380 
# 
# From -- ./inp_files/47717.got.cif
#   From: 2010.05.17/outbox.cif.g08.bks.cpg/sg5_24_cif.got.tgz:47717.got - 2010.06.03 18:56:24.
