data_PCOD9121692
_publ_section_title
;
Structure prediction by ZEFSAII (Michael W. Deem and Ramdas Pophale) SiO2 
 PCOD9121692
Probable space group: C 2
;
_chemical_formula_sum "Si O2"
_cell_formula_units_Z 28
_cell_length_a 15.679234
_cell_length_b 12.346614
_cell_length_c 7.557251
_cell_angle_alpha 90.000000
_cell_angle_beta 53.664359
_cell_angle_gamma 90.000000
_cell_volume 1178.513003
_symmetry_space_group_name_H-M "C 2"
_symmetry_group_IT_number 5
_symmetry_cell_setting 'monoclinic'
loop_
_space_group_symop_operation_xyz
x,y,z
-x,y,-z
1/2+x,1/2+y,z
1/2-x,1/2+y,-z
loop_
_atom_site_type_symbol
_atom_site_label
_atom_site_fract_x
_atom_site_fract_y
_atom_site_fract_z
Si Si1 0.772658 0.313330 0.067711
Si Si2 0.010384 0.366238 0.703271
Si Si3 0.250049 0.575404 0.153652
Si Si4 0.034107 0.595186 0.254139
Si Si5 0.732054 0.846992 0.347257
Si Si6 0.585882 0.479906 0.292912
Si Si7 0.453251 0.320094 0.232234
O O1 0.742926 0.202258 0.203261
O O2 0.756102 0.304414 0.871303
O O3 0.899852 0.328301 0.922550
O O4 0.688939 0.407563 0.226051
O O5 0.124095 0.310468 0.575609
O O6 0.000000 0.372807 0.500000
O O7 0.023114 0.490155 0.750441
O O8 0.361007 0.552006 0.924007
O O9 0.156627 0.563335 0.122693
O O10 0.233018 0.478468 0.314364
O O11 0.000000 0.613325 0.500000
O O12 0.006102 0.703497 0.189618
O O13 0.830174 0.814024 0.345731
O O14 0.500000 0.555068 0.500000
O O15 0.499023 0.394512 0.328011
O O16 0.500000 0.374178 0.000000
#
# Coordination Sequence:
#
# PCOD9121692 Si02
#       7
#     4   4   4   4   4   4   4
#     4  10  19  35  64  87 119 165 216 252 299 377
#     4   9  17  36  62  89 117 165 214 254 302 380
#     4  11  19  35  62  92 121 162 212 258 308 372
#     4  11  19  35  68  96 115 166 224 251 298 391
#     4  10  20  38  60  89 130 162 206 261 321 368
#     4  11  23  37  61  94 126 162 214 263 303 375
#     4  12  22  38  59  93 131 165 202 263 328 369
#
# _framework density 23.758754
#
# number of rings (size 3 to 8) (size 9 to 14) (size 15 to 20)
#    0.000    1.429   10.000    0.429    0.000    1.714 
#    0.000    4.286    3.143    0.000    0.000    0.000 
#    0.000    0.000    0.000    0.000    0.000    0.000 
#
# Total GULP energy -78027.903908 kJ/mol
# GULP energy per Si atom -5573.421708 kJ/mol
# Density = 2.370468 g / cm^3
# Si number density = 23.758754 Si / 1000 Ang^3
#
#
#
# Elastic Constant Matrix: (Units=GPa)
#
#
# Indices 1 2 3 4 5 6 
#
# 1 88.3083 -2.6770 52.7656 0.0000 -30.8480 0.0000
# 2 -2.6770 49.6401 -0.4508 0.0000 0.9690 0.0000
# 3 52.7656 -0.4508 126.6943 0.0000 -39.3059 0.0000
# 4 0.0000 0.0000 0.0000 52.9958 0.0000 -23.5984
# 5 -30.8480 0.9690 -39.3059 0.0000 52.4180 0.0000
# 6 0.0000 0.0000 0.0000 -23.5984 0.0000 24.1616
#
#
#
# Elastic Compliance Matrix: (Units=1/GPa)
#
#
# Indices 1 2 3 4 5 6 
#
# 1 0.016387 0.000723 -0.004997 0.000000 0.005883 0.000000
# 2 0.000723 0.020185 -0.000278 0.000000 -0.000156 0.000000
# 3 -0.004997 -0.000278 0.011810 0.000000 0.005920 0.000000
# 4 0.000000 0.000000 0.000000 0.033392 0.000000 0.032613
# 5 0.005883 -0.000156 0.005920 0.000000 0.026982 0.000000
# 6 0.000000 0.000000 0.000000 0.032613 0.000000 0.073241
#
#
# Mechanical properties :
#
#
# Convention : Reuss Voigt Hill
#
# Bulk Modulus (GPa) = 25.45912 40.43536 32.94724
# Shear Modulus (GPa) = 24.48686 40.24874 32.36780
#
# Velocity S-wave (km/s) = 3.21385 4.12036 3.69501
# Velocity P-wave (km/s) = 4.95083 6.30020 5.66583
#
# Compressibility (1/GPa) = 0.03927866
#
# Stress axis : x y z
#
# Youngs Moduli (GPa) = 61.02469 49.54285 84.67529
#
# Poissons Ratio (x) = -0.03584 0.42312
# Poissons Ratio (y) = -0.04415 0.02352
# Poissons Ratio (z) = 0.30494 0.01376
#
# Static dielectric constant tensor:
#      x y z
#    x 1.829970 0.000000 -0.277470 
#    y 0.000000 1.914500 0.000000 
#    z -0.277470 0.000000 1.429920 
# 
# From -- ./inp_files/24565.got.cif
#   From: 2010.05.17/outbox.cif.g08.bks.cpg/sg5_13_cif.got.tgz:24565.got - 2010.06.03 18:56:24.
