data_PCOD9121156
_publ_section_title
;
Structure prediction by ZEFSAII (Michael W. Deem and Ramdas Pophale) SiO2 
 PCOD9121156
Probable space group: C 2
;
_chemical_formula_sum "Si O2"
_cell_formula_units_Z 26
_cell_length_a 12.412097
_cell_length_b 7.336681
_cell_length_c 12.358081
_cell_angle_alpha 90.000000
_cell_angle_beta 71.209662
_cell_angle_gamma 90.000000
_cell_volume 1065.393050
_symmetry_space_group_name_H-M "C 2"
_symmetry_group_IT_number 5
_symmetry_cell_setting 'monoclinic'
loop_
_space_group_symop_operation_xyz
x,y,z
-x,y,-z
1/2+x,1/2+y,z
1/2-x,1/2+y,-z
loop_
_atom_site_type_symbol
_atom_site_label
_atom_site_fract_x
_atom_site_fract_y
_atom_site_fract_z
Si Si1 0.170113 0.851530 0.151182
Si Si2 0.418563 0.426793 0.187743
Si Si3 0.244769 0.915186 0.349342
Si Si4 0.274183 0.773833 0.901088
Si Si5 0.762158 0.318521 0.579981
Si Si6 0.000000 0.328821 0.500000
Si Si7 0.012845 0.304263 0.745537
O O1 0.188635 0.805701 0.269833
O O2 0.253881 0.767899 0.035707
O O3 0.540011 0.327303 0.156853
O O4 0.204163 0.066671 0.141991
O O5 0.337777 0.362942 0.116167
O O6 0.340127 0.392043 0.317122
O O7 0.454098 0.638074 0.185500
O O8 0.230838 0.809527 0.465429
O O9 0.488402 0.742997 0.381463
O O10 0.203259 0.118968 0.387437
O O11 0.389190 0.873335 0.823082
O O12 0.879795 0.430414 0.549495
O O13 0.879783 0.437204 0.281356
#
# Coordination Sequence:
#
# PCOD9121156 Si02
#       7
#     4   4   4   4   4   2   4
#     4  11  26  45  70  99 143 181 235 284 351 405
#     4  11  22  44  72  98 130 185 229 287 345 416
#     4  11  24  43  64 106 134 182 230 287 351 417
#     4  11  24  47  69  99 137 188 232 289 338 420
#     4  11  21  41  70  95 137 175 229 285 352 411
#     4  10  18  40  66  94 134 178 214 286 346 402
#     4  10  23  41  71  97 140 182 231 282 356 404
#
# _framework density 24.404138
#
# number of rings (size 3 to 8) (size 9 to 14) (size 15 to 20)
#    0.000    1.231    3.077    3.231    2.154    2.462 
#    2.769    3.077    0.000    0.000    0.000    0.000 
#    0.000    0.000    0.000    0.000    0.000    0.000 
#
# Total GULP energy -72624.771031 kJ/mol
# GULP energy per Si atom -5586.520849 kJ/mol
# Density = 2.434859 g / cm^3
# Si number density = 24.404138 Si / 1000 Ang^3
#
#
#
# Elastic Constant Matrix: (Units=GPa)
#
#
# Indices 1 2 3 4 5 6 
#
# 1 140.9895 28.1005 50.3654 0.0000 -3.0745 0.0000
# 2 28.1005 30.5993 4.9713 0.0000 10.1541 0.0000
# 3 50.3654 4.9713 146.5444 0.0000 -6.7516 0.0000
# 4 0.0000 0.0000 0.0000 26.6394 0.0000 0.6594
# 5 -3.0745 10.1541 -6.7516 0.0000 42.0008 0.0000
# 6 0.0000 0.0000 0.0000 0.6594 0.0000 29.6619
#
#
#
# Elastic Compliance Matrix: (Units=1/GPa)
#
#
# Indices 1 2 3 4 5 6 
#
# 1 0.010174 -0.009711 -0.003047 0.000000 0.002603 0.000000
# 2 -0.009711 0.045184 0.001278 0.000000 -0.011429 0.000000
# 3 -0.003047 0.001278 0.007861 0.000000 0.000732 0.000000
# 4 0.000000 0.000000 0.000000 0.037559 0.000000 -0.000835
# 5 0.002603 -0.011429 0.000732 0.000000 0.026880 0.000000
# 6 0.000000 0.000000 0.000000 -0.000835 0.000000 0.033732
#
#
# Mechanical properties :
#
#
# Convention : Reuss Voigt Hill
#
# Bulk Modulus (GPa) = 24.83956 53.88973 39.36464
# Shear Modulus (GPa) = 25.28189 35.30683 30.29436
#
# Velocity S-wave (km/s) = 3.22214 3.80775 3.52712
# Velocity P-wave (km/s) = 4.90341 6.43911 5.72300
#
# Compressibility (1/GPa) = 0.04025837
#
# Stress axis : x y z
#
# Youngs Moduli (GPa) = 98.29364 22.13181 127.20245
#
# Poissons Ratio (x) = 0.21493 0.38761
# Poissons Ratio (y) = 0.95457 -0.16261
# Poissons Ratio (z) = 0.29952 -0.02829
#
# Static dielectric constant tensor:
#      x y z
#    x 1.950280 0.000000 0.030560 
#    y 0.000000 1.985550 0.000000 
#    z 0.030560 0.000000 1.958080 
# 
# From -- ./inp_files/41517.got.cif
#   From: 2010.05.17/outbox.cif.g08.bks.cpg/sg5_21_cif.got.tgz:41517.got - 2010.06.03 18:56:24.
