data_PCOD9121011
_publ_section_title
;
Structure prediction by ZEFSAII (Michael W. Deem and Ramdas Pophale) SiO2 
 PCOD9121011
Probable space group: C 2
;
_chemical_formula_sum "Si O2"
_cell_formula_units_Z 26
_cell_length_a 15.858225
_cell_length_b 8.874992
_cell_length_c 9.851839
_cell_angle_alpha 90.000000
_cell_angle_beta 86.754788
_cell_angle_gamma 90.000000
_cell_volume 1384.340294
_symmetry_space_group_name_H-M "C 2"
_symmetry_group_IT_number 5
_symmetry_cell_setting 'monoclinic'
loop_
_space_group_symop_operation_xyz
x,y,z
-x,y,-z
1/2+x,1/2+y,z
1/2-x,1/2+y,-z
loop_
_atom_site_type_symbol
_atom_site_label
_atom_site_fract_x
_atom_site_fract_y
_atom_site_fract_z
Si Si1 0.500000 0.687160 0.000000
Si Si2 0.679991 0.252639 0.409470
Si Si3 0.257244 0.921446 0.654183
Si Si4 0.000000 0.871353 0.500000
Si Si5 0.184176 0.897831 0.112714
Si Si6 0.500000 0.311831 0.000000
Si Si7 0.432403 0.449863 0.230738
Si Si8 0.825746 0.257668 0.904638
O O1 0.464318 0.574434 0.120004
O O2 0.578902 0.778955 0.049648
O O3 0.737931 0.324706 0.521748
O O4 0.583856 0.276080 0.466064
O O5 0.691214 0.338444 0.265578
O O6 0.701273 0.079027 0.387508
O O7 0.166384 0.956707 0.731843
O O8 0.311384 0.832996 0.760394
O O9 0.981147 0.967034 0.367112
O O10 0.188370 0.078535 0.105979
O O11 0.258532 0.826848 0.015550
O O12 0.093282 0.851978 0.059093
O O13 0.542769 0.291865 0.844605
#
# Coordination Sequence:
#
# PCOD9121011 Si02
#       8
#     2   4   4   2   4   2   4   4
#     4  11  20  38  61  88 129 152 207 244 303 356
#     4  11  23  41  60  90 120 162 199 255 298 365
#     4  11  24  41  63  87 122 158 206 248 310 356
#     4  10  20  34  64  84 124 158 204 240 302 352
#     4  12  22  38  66  91 125 157 208 246 303 351
#     4  11  18  38  61  92 117 168 197 246 281 396
#     4  10  18  38  59  90 117 164 203 237 288 385
#     4  12  22  40  62  92 120 165 197 256 298 366
#
# _framework density 18.781509
#
# number of rings (size 3 to 8) (size 9 to 14) (size 15 to 20)
#    0.000    0.923    6.154    2.769    0.000    1.231 
#    0.000    9.231    0.000    0.000    0.000    0.000 
#    0.000    0.000    0.000    0.000    0.000    0.000 
#
# Total GULP energy -72387.313417 kJ/mol
# GULP energy per Si atom -5568.254878 kJ/mol
# Density = 1.873876 g / cm^3
# Si number density = 18.781509 Si / 1000 Ang^3
#
#
#
# Elastic Constant Matrix: (Units=GPa)
#
#
# Indices 1 2 3 4 5 6 
#
# 1 132.2433 57.5944 71.5362 0.0000 33.1092 0.0000
# 2 57.5944 75.8026 51.2355 0.0000 10.8766 0.0000
# 3 71.5362 51.2355 175.5218 0.0000 26.2020 0.0000
# 4 0.0000 0.0000 0.0000 35.8487 0.0000 -2.6071
# 5 33.1092 10.8766 26.2020 0.0000 26.8479 0.0000
# 6 0.0000 0.0000 0.0000 -2.6071 0.0000 21.5847
#
#
#
# Elastic Compliance Matrix: (Units=1/GPa)
#
#
# Indices 1 2 3 4 5 6 
#
# 1 0.015998 -0.008889 -0.001777 0.000000 -0.014394 0.000000
# 2 -0.008889 0.021497 -0.003498 0.000000 0.005667 0.000000
# 3 -0.001777 -0.003498 0.008081 0.000000 -0.004279 0.000000
# 4 0.000000 0.000000 0.000000 0.028142 0.000000 0.003399
# 5 -0.014394 0.005667 -0.004279 0.000000 0.056877 0.000000
# 6 0.000000 0.000000 0.000000 0.003399 0.000000 0.046740
#
#
# Mechanical properties :
#
#
# Convention : Reuss Voigt Hill
#
# Bulk Modulus (GPa) = 57.97593 82.69998 70.33796
# Shear Modulus (GPa) = 23.65033 30.40302 27.02668
#
# Velocity S-wave (km/s) = 3.55242 4.02776 3.79754
# Velocity P-wave (km/s) = 6.91100 8.10918 7.53394
#
# Compressibility (1/GPa) = 0.01724854
#
# Stress axis : x y z
#
# Youngs Moduli (GPa) = 62.50790 46.51743 123.74222
#
# Poissons Ratio (x) = 0.41349 0.21986
# Poissons Ratio (y) = 0.55563 0.43289
# Poissons Ratio (z) = 0.11106 0.16273
#
# Static dielectric constant tensor:
#      x y z
#    x 1.647250 0.000000 0.007150 
#    y 0.000000 1.698020 0.000000 
#    z 0.007150 0.000000 1.680790 
# 
# From -- ./inp_files/26767.got.cif
#   From: 2010.05.17/outbox.cif.g08.bks.cpg/sg5_14_cif.got.tgz:26767.got - 2010.06.03 18:56:24.
