data_PCOD9121795
_publ_section_title
;
Structure prediction by ZEFSAII (Michael W. Deem and Ramdas Pophale) SiO2 
 PCOD9121795
Probable space group: C 2
;
_chemical_formula_sum "Si O2"
_cell_formula_units_Z 20
_cell_length_a 16.920488
_cell_length_b 10.364438
_cell_length_c 9.449383
_cell_angle_alpha 90.000000
_cell_angle_beta 151.660059
_cell_angle_gamma 90.000000
_cell_volume 786.652709
_symmetry_space_group_name_H-M "C 2"
_symmetry_group_IT_number 5
_symmetry_cell_setting 'monoclinic'
loop_
_space_group_symop_operation_xyz
x,y,z
-x,y,-z
1/2+x,1/2+y,z
1/2-x,1/2+y,-z
loop_
_atom_site_type_symbol
_atom_site_label
_atom_site_fract_x
_atom_site_fract_y
_atom_site_fract_z
Si Si1 0.021464 0.592780 0.877972
Si Si2 0.763807 0.796543 0.418925
Si Si3 0.924847 0.926192 0.240046
Si Si4 0.876816 0.335868 0.086241
Si Si5 0.265215 0.835307 0.300795
O O1 0.094033 0.490242 0.884146
O O2 0.846275 0.656198 0.564710
O O3 0.144554 0.713877 0.087363
O O4 0.000000 0.533417 0.000000
O O5 0.737432 0.855218 0.533380
O O6 0.906551 0.884152 0.571253
O O7 0.629037 0.784523 0.082835
O O8 0.000000 0.996944 0.500000
O O9 0.800889 0.819246 0.118284
O O10 0.802786 0.948996 0.910388
O O11 0.045115 0.293225 0.425801
#
# Coordination Sequence:
#
# PCOD9121795 Si02
#       5
#     4   4   4   4   4
#     4   9  19  36  58  84 115 152 189 229 283 338
#     4   9  19  37  59  83 116 151 187 234 282 336
#     4   9  19  35  53  80 117 147 180 231 283 329
#     4  11  20  36  60  86 116 148 188 236 283 334
#     4  10  19  36  61  85 112 150 194 234 276 337
#
# _framework density 25.424181000000001
#
# number of rings (size 3 to 8) (size 9 to 14) (size 15 to 20)
#    0.000    2.400    0.000    4.200    0.000    0.000 
#    0.000   34.000    0.000   12.000    0.000    0.000 
#    0.000    0.000    0.000    0.000    0.000    0.000 
#
# Total GULP energy -55667.417813 kJ/mol
# GULP energy per Si atom -5566.741781 kJ/mol
# Density = 2.536631 g / cm^3
# Si number density = 25.424181 Si / 1000 Ang^3
#
#
#
# Elastic Constant Matrix: (Units=GPa)
#
#
# Indices 1 2 3 4 5 6 
#
# 1 166.4219 3.8023 36.0127 0.0000 -32.2808 0.0000
# 2 3.8023 50.7547 12.2901 0.0000 -14.1353 0.0000
# 3 36.0127 12.2901 187.3953 0.0000 -25.5416 0.0000
# 4 0.0000 0.0000 0.0000 17.7733 0.0000 -3.9499
# 5 -32.2808 -14.1353 -25.5416 0.0000 44.4857 0.0000
# 6 0.0000 0.0000 0.0000 -3.9499 0.0000 15.3150
#
#
#
# Elastic Compliance Matrix: (Units=1/GPa)
#
#
# Indices 1 2 3 4 5 6 
#
# 1 0.007132 0.001063 -0.000747 0.000000 0.005084 0.000000
# 2 0.001063 0.021821 -0.000635 0.000000 0.007340 0.000000
# 3 -0.000747 -0.000635 0.005880 0.000000 0.002632 0.000000
# 4 0.000000 0.000000 0.000000 0.059685 0.000000 0.015393
# 5 0.005084 0.007340 0.002632 0.000000 0.030012 0.000000
# 6 0.000000 0.000000 0.000000 0.015393 0.000000 0.069266
#
#
# Mechanical properties :
#
#
# Convention : Reuss Voigt Hill
#
# Bulk Modulus (GPa) = 29.24451 56.53135 42.88793
# Shear Modulus (GPa) = 24.29141 39.01258 31.65200
#
# Velocity S-wave (km/s) = 3.09438 3.92148 3.53222
# Velocity P-wave (km/s) = 4.92895 6.54122 5.79146
#
# Compressibility (1/GPa) = 0.03419446
#
# Stress axis : x y z
#
# Youngs Moduli (GPa) = 140.20421 45.82741 170.05829
#
# Poissons Ratio (x) = -0.04870 0.12710
# Poissons Ratio (y) = -0.14898 0.10796
# Poissons Ratio (z) = 0.10479 0.02909
#
# Static dielectric constant tensor:
#      x y z
#    x 2.118790 0.000000 -0.039470 
#    y 0.000000 2.006750 0.000000 
#    z -0.039470 0.000000 2.080230 
# 
# From -- ./inp_files/14243.got.cif
#   From: 2010.05.17/outbox.cif.g08.bks.cpg/sg5_8_cif.got.tgz:14243.got - 2010.06.03 18:56:24.
