data_PCOD9121006
_publ_section_title
;
Structure prediction by ZEFSAII (Michael W. Deem and Ramdas Pophale) SiO2 
 PCOD9121006
Probable space group: C 2
;
_chemical_formula_sum "Si O2"
_cell_formula_units_Z 26
_cell_length_a 19.276887
_cell_length_b 5.211974
_cell_length_c 11.233780
_cell_angle_alpha 90.000000
_cell_angle_beta 94.511556
_cell_angle_gamma 90.000000
_cell_volume 1125.167816
_symmetry_space_group_name_H-M "C 2"
_symmetry_group_IT_number 5
_symmetry_cell_setting 'monoclinic'
loop_
_space_group_symop_operation_xyz
x,y,z
-x,y,-z
1/2+x,1/2+y,z
1/2-x,1/2+y,-z
loop_
_atom_site_type_symbol
_atom_site_label
_atom_site_fract_x
_atom_site_fract_y
_atom_site_fract_z
Si Si1 0.274287 0.338640 0.568804
Si Si2 0.228089 0.198832 0.229705
Si Si3 0.629386 0.437279 0.783666
Si Si4 0.623050 0.444007 0.065096
Si Si5 0.954036 0.454687 0.244847
Si Si6 0.889932 0.568825 0.711195
Si Si7 0.500000 0.809118 0.000000
O O1 0.264792 0.582780 0.480645
O O2 0.246892 0.459643 0.688329
O O3 0.353254 0.252190 0.609062
O O4 0.289086 0.402105 0.227626
O O5 0.162035 0.329485 0.284063
O O6 0.195326 0.087453 0.105203
O O7 0.589470 0.695215 0.742137
O O8 0.589812 0.197865 0.720439
O O9 0.623258 0.397214 0.925268
O O10 0.613951 0.217605 0.160887
O O11 0.557121 0.631630 0.071927
O O12 0.032171 0.480090 0.304886
O O13 0.965153 0.463078 0.102045
#
# Coordination Sequence:
#
# PCOD9121006 Si02
#       7
#     4   4   4   4   4   4   2
#     4  11  24  44  73 104 124 162 226 302 350 390
#     4  11  25  41  66 102 135 173 225 277 330 401
#     4  11  27  38  61  96 146 186 208 263 330 394
#     4  10  22  35  62  93 143 180 230 260 317 379
#     4  11  23  40  60  93 134 182 225 264 319 383
#     4  11  22  41  70  98 128 176 233 279 313 399
#     4  10  18  38  56  92 130 188 228 266 290 380
#
# _framework density 23.107662999999999
#
# number of rings (size 3 to 8) (size 9 to 14) (size 15 to 20)
#    0.000    1.231    3.077    2.769   10.769    0.615 
#    0.000    0.000    0.000    0.923    8.000    0.000 
#    0.000    0.000    0.000    0.000    0.000    0.000 
#
# Total GULP energy -72645.613301 kJ/mol
# GULP energy per Si atom -5588.124100 kJ/mol
# Density = 2.305507 g / cm^3
# Si number density = 23.107663 Si / 1000 Ang^3
#
#
#
# Elastic Constant Matrix: (Units=GPa)
#
#
# Indices 1 2 3 4 5 6 
#
# 1 154.1152 77.6438 27.6383 0.0000 34.4198 0.0000
# 2 77.6438 162.5820 44.5318 0.0000 30.2901 0.0000
# 3 27.6383 44.5318 51.2564 0.0000 31.6631 0.0000
# 4 0.0000 0.0000 0.0000 35.4902 0.0000 15.5266
# 5 34.4198 30.2901 31.6631 0.0000 24.2989 0.0000
# 6 0.0000 0.0000 0.0000 15.5266 0.0000 42.4152
#
#
#
# Elastic Compliance Matrix: (Units=1/GPa)
#
#
# Indices 1 2 3 4 5 6 
#
# 1 0.016589 -0.005896 0.031548 0.000000 -0.057259 0.000000
# 2 -0.005896 0.010275 -0.015354 0.000000 0.015551 0.000000
# 3 0.031548 -0.015354 0.162118 0.000000 -0.236799 0.000000
# 4 0.000000 0.000000 0.000000 0.033550 0.000000 -0.012281
# 5 -0.057259 0.015551 -0.236799 0.000000 0.411441 0.000000
# 6 0.000000 0.000000 0.000000 -0.012281 0.000000 0.028072
#
#
# Mechanical properties :
#
#
# Convention : Reuss Voigt Hill
#
# Bulk Modulus (GPa) = 4.77148 74.17573 39.47361
# Shear Modulus (GPa) = 7.02930 34.98351 21.00641
#
# Velocity S-wave (km/s) = 1.74602 3.89515 3.01834
# Velocity P-wave (km/s) = 2.47672 7.23874 5.40988
#
# Compressibility (1/GPa) = 0.20957853
#
# Stress axis : x y z
#
# Youngs Moduli (GPa) = 60.27927 97.32601 6.16836
#
# Poissons Ratio (x) = 0.57384 -0.19460
# Poissons Ratio (y) = 0.35541 0.09471
# Poissons Ratio (z) = -1.90169 1.49431
#
# Static dielectric constant tensor:
#      x y z
#    x 1.878370 0.000000 -0.017700 
#    y 0.000000 1.889380 0.000000 
#    z -0.017700 0.000000 1.945320 
# 
# From -- ./inp_files/45326.got.cif
#   From: 2010.05.17/outbox.cif.g08.bks.cpg/sg5_23_cif.got.tgz:45326.got - 2010.06.03 18:56:24.
