data_PCOD9121116
_publ_section_title
;
Structure prediction by ZEFSAII (Michael W. Deem and Ramdas Pophale) SiO2 
 PCOD9121116
Probable space group: C 2
;
_chemical_formula_sum "Si O2"
_cell_formula_units_Z 32
_cell_length_a 18.594622
_cell_length_b 12.254906
_cell_length_c 14.148735
_cell_angle_alpha 90.000000
_cell_angle_beta 148.778231
_cell_angle_gamma 90.000000
_cell_volume 1671.243364
_symmetry_space_group_name_H-M "C 2"
_symmetry_group_IT_number 5
_symmetry_cell_setting 'monoclinic'
loop_
_space_group_symop_operation_xyz
x,y,z
-x,y,-z
1/2+x,1/2+y,z
1/2-x,1/2+y,-z
loop_
_atom_site_type_symbol
_atom_site_label
_atom_site_fract_x
_atom_site_fract_y
_atom_site_fract_z
Si Si1 0.920326 0.623400 0.553197
Si Si2 0.657262 0.889890 0.015682
Si Si3 0.778199 0.653593 0.201302
Si Si4 0.522612 0.672518 0.413162
Si Si5 0.103766 0.385428 0.387881
Si Si6 0.143126 0.002434 0.903181
Si Si7 0.650749 0.471176 0.614408
Si Si8 0.612136 0.338818 0.388709
O O1 0.804038 0.640318 0.341662
O O2 0.913319 0.499537 0.578571
O O3 0.908062 0.709491 0.624830
O O4 0.069515 0.648035 0.674504
O O5 0.710689 0.768648 0.098084
O O6 0.722711 0.961323 0.172621
O O7 0.730920 0.938067 0.004697
O O8 0.494349 0.890123 0.814889
O O9 0.689205 0.559291 0.051420
O O10 0.500000 0.694753 0.500000
O O11 0.550325 0.783385 0.389580
O O12 0.408501 0.599009 0.227494
O O13 0.648965 0.586087 0.558343
O O14 0.262193 0.366911 0.538142
O O15 0.021960 0.913582 0.781930
O O16 0.500000 0.462553 0.500000
O O17 0.651760 0.375996 0.539603
#
# Coordination Sequence:
#
# PCOD9121116 Si02
#       8
#     4   4   4   4   4   4   4   4
#     4  11  24  41  64  96 131 161 215 269 321 368
#     4  12  20  39  63 101 119 163 228 258 299 376
#     4  11  22  40  68  97 123 165 221 273 300 372
#     4  10  21  38  63  92 123 165 206 259 313 376
#     4  12  28  38  61 100 134 161 205 263 334 375
#     4  11  21  40  68  95 123 167 218 261 311 372
#     4  10  18  39  69  88 113 168 222 254 300 368
#     4  11  24  42  64  89 135 171 200 260 328 384
#
# _framework density 19.147421999999999
#
# number of rings (size 3 to 8) (size 9 to 14) (size 15 to 20)
#    0.000    1.000    8.750    0.000    5.250    0.500 
#    0.000    3.125    0.000    0.000    0.000    0.000 
#    0.000    0.000    0.000    0.000    0.000    0.000 
#
# Total GULP energy -89265.400550 kJ/mol
# GULP energy per Si atom -5579.087534 kJ/mol
# Density = 1.910384 g / cm^3
# Si number density = 19.147422 Si / 1000 Ang^3
#
#
#
# Elastic Constant Matrix: (Units=GPa)
#
#
# Indices 1 2 3 4 5 6 
#
# 1 3.5622 -1.7826 3.0389 0.0000 -0.8427 0.0000
# 2 -1.7826 116.8519 22.4025 0.0000 -11.1779 0.0000
# 3 3.0389 22.4025 76.5155 0.0000 -16.8771 0.0000
# 4 0.0000 0.0000 0.0000 18.9218 0.0000 -1.7034
# 5 -0.8427 -11.1779 -16.8771 0.0000 27.9483 0.0000
# 6 0.0000 0.0000 0.0000 -1.7034 0.0000 -0.4551
#
#
#
# Elastic Compliance Matrix: (Units=1/GPa)
#
#
# Indices 1 2 3 4 5 6 
#
# 1 0.296529 0.007412 -0.013061 0.000000 0.004018 0.000000
# 2 0.007412 0.009386 -0.002498 0.000000 0.002469 0.000000
# 3 -0.013061 -0.002498 0.016165 0.000000 0.008369 0.000000
# 4 0.000000 0.000000 0.000000 0.039531 0.000000 -0.147945
# 5 0.004018 0.002469 0.008369 0.000000 0.041943 0.000000
# 6 0.000000 0.000000 0.000000 -0.147945 0.000000 -1.643420
#
#
# Mechanical properties :
#
#
# Convention : Reuss Voigt Hill
#
# Bulk Modulus (GPa) = 3.27026 27.13857 15.20441
# Shear Modulus (GPa) = -4.45774 20.83438 8.18832
#
# Velocity S-wave (km/s) = -1.52747 3.30222 2.07020
# Velocity P-wave (km/s) = 1.18290 5.36132 3.69760
#
# Compressibility (1/GPa) = 0.30578643
#
# Stress axis : x y z
#
# Youngs Moduli (GPa) = 3.37236 106.54198 61.86119
#
# Poissons Ratio (x) = -0.78967 0.80795
# Poissons Ratio (y) = -0.02500 0.15452
# Poissons Ratio (z) = 0.04405 0.26612
#
# Static dielectric constant tensor:
#      x y z
#    x 1.664310 0.000000 -0.012670 
#    y 0.000000 1.676070 0.000000 
#    z -0.012670 0.000000 1.680820 
# 
# From -- ./inp_files/56047.got.cif
#   From: 2010.05.17/outbox.cif.g08.bks.cpg/sg5_29_cif.got.tgz:56047.got - 2010.06.03 18:56:24.
