data_PCOD9121066
_publ_section_title
;
Structure prediction by ZEFSAII (Michael W. Deem and Ramdas Pophale) SiO2 
 PCOD9121066
Probable space group: C 2
;
_chemical_formula_sum "Si O2"
_cell_formula_units_Z 30
_cell_length_a 14.882411
_cell_length_b 12.705037
_cell_length_c 11.303592
_cell_angle_alpha 90.000000
_cell_angle_beta 132.489826
_cell_angle_gamma 90.000000
_cell_volume 1576.040010
_symmetry_space_group_name_H-M "C 2"
_symmetry_group_IT_number 5
_symmetry_cell_setting 'monoclinic'
loop_
_space_group_symop_operation_xyz
x,y,z
-x,y,-z
1/2+x,1/2+y,z
1/2-x,1/2+y,-z
loop_
_atom_site_type_symbol
_atom_site_label
_atom_site_fract_x
_atom_site_fract_y
_atom_site_fract_z
Si Si1 0.799104 0.769580 0.591711
Si Si2 0.836207 0.089436 0.432922
Si Si3 0.000000 0.520865 0.000000
Si Si4 0.863241 0.437943 0.655601
Si Si5 0.518501 0.116696 0.378025
Si Si6 0.093231 0.076220 0.763301
Si Si7 0.841044 0.680719 0.018565
Si Si8 0.025886 0.898428 0.890978
O O1 0.746689 0.693619 0.647257
O O2 0.685763 0.826451 0.429331
O O3 0.873312 0.694346 0.568483
O O4 0.898461 0.850535 0.729877
O O5 0.863087 0.040277 0.328859
O O6 0.959207 0.118057 0.611658
O O7 0.759596 0.005949 0.437925
O O8 0.931730 0.450852 0.841512
O O9 0.091673 0.598092 0.010292
O O10 0.944830 0.499931 0.632829
O O11 0.500000 0.121927 0.500000
O O12 0.401443 0.154375 0.199361
O O13 0.077184 0.984853 0.845632
O O14 0.197417 0.158258 0.893302
O O15 0.882663 0.798331 0.022282
O O16 0.000000 0.939720 0.000000
#
# Coordination Sequence:
#
# PCOD9121066 Si02
#       8
#     4   4   2   4   4   4   4   4
#     4  10  21  40  64  89 117 168 202 248 312 369
#     4  10  21  40  62  89 126 154 202 260 301 366
#     4  10  18  38  66  88 122 164 200 254 306 366
#     4  10  19  37  65  87 121 158 208 245 305 368
#     4   9  21  38  58  87 120 159 203 254 300 357
#     4  11  22  39  63  92 124 160 206 259 307 357
#     4  10  20  39  61  89 123 160 206 252 306 362
#     4  11  22  38  66  91 118 163 211 245 309 381
#
# _framework density 19.035049000000001
#
# number of rings (size 3 to 8) (size 9 to 14) (size 15 to 20)
#    0.000    1.867    3.333    1.600    0.000    3.200 
#    7.200    0.000    0.000    0.000    0.000    0.000 
#    0.000    0.000    0.000    0.000    0.000    0.000 
#
# Total GULP energy -83642.953252 kJ/mol
# GULP energy per Si atom -5576.196883 kJ/mol
# Density = 1.899172 g / cm^3
# Si number density = 19.035049 Si / 1000 Ang^3
#
#
#
# Elastic Constant Matrix: (Units=GPa)
#
#
# Indices 1 2 3 4 5 6 
#
# 1 95.3550 29.7209 55.8918 0.0000 -15.4253 0.0000
# 2 29.7209 58.6994 39.9746 0.0000 -7.9187 0.0000
# 3 55.8918 39.9746 110.8868 0.0000 -11.0176 0.0000
# 4 0.0000 0.0000 0.0000 35.6533 0.0000 5.0296
# 5 -15.4253 -7.9187 -11.0176 0.0000 37.3312 0.0000
# 6 0.0000 0.0000 0.0000 5.0296 0.0000 22.6490
#
#
#
# Elastic Compliance Matrix: (Units=1/GPa)
#
#
# Indices 1 2 3 4 5 6 
#
# 1 0.015912 -0.003083 -0.006512 0.000000 0.003999 0.000000
# 2 -0.003083 0.023398 -0.006711 0.000000 0.001709 0.000000
# 3 -0.006512 -0.006711 0.014743 0.000000 0.000237 0.000000
# 4 0.000000 0.000000 0.000000 0.028955 0.000000 -0.006430
# 5 0.003999 0.001709 0.000237 0.000000 0.028872 0.000000
# 6 0.000000 0.000000 0.000000 -0.006430 0.000000 0.045580
#
#
# Mechanical properties :
#
#
# Convention : Reuss Voigt Hill
#
# Bulk Modulus (GPa) = 46.63810 57.34621 51.99215
# Shear Modulus (GPa) = 25.35274 28.41697 26.88485
#
# Velocity S-wave (km/s) = 3.65348 3.86797 3.76225
# Velocity P-wave (km/s) = 6.50781 7.08098 6.80043
#
# Compressibility (1/GPa) = 0.02144170
#
# Stress axis : x y z
#
# Youngs Moduli (GPa) = 62.84761 42.73933 67.82749
#
# Poissons Ratio (x) = 0.13174 0.44166
# Poissons Ratio (y) = 0.19373 0.45521
# Poissons Ratio (z) = 0.40923 0.28684
#
# Static dielectric constant tensor:
#      x y z
#    x 1.655450 0.000000 0.019330 
#    y 0.000000 1.650390 0.000000 
#    z 0.019330 0.000000 1.692790 
# 
# From -- ./inp_files/42685.got.cif
#   From: 2010.05.17/outbox.cif.g08.bks.cpg/sg5_22_cif.got.tgz:42685.got - 2010.06.03 18:56:24.
