data_PCOD9121802
_publ_section_title
;
Structure prediction by ZEFSAII (Michael W. Deem and Ramdas Pophale) SiO2 
 PCOD9121802
Probable space group: C 2
;
_chemical_formula_sum "Si O2"
_cell_formula_units_Z 30
_cell_length_a 10.539460
_cell_length_b 21.118738
_cell_length_c 8.390711
_cell_angle_alpha 90.000000
_cell_angle_beta 135.832414
_cell_angle_gamma 90.000000
_cell_volume 1301.271535
_symmetry_space_group_name_H-M "C 2"
_symmetry_group_IT_number 5
_symmetry_cell_setting 'monoclinic'
loop_
_space_group_symop_operation_xyz
x,y,z
-x,y,-z
1/2+x,1/2+y,z
1/2-x,1/2+y,-z
loop_
_atom_site_type_symbol
_atom_site_label
_atom_site_fract_x
_atom_site_fract_y
_atom_site_fract_z
Si Si1 0.601881 0.160760 0.746203
Si Si2 0.118800 0.907006 0.252267
Si Si3 0.448001 0.628209 0.232825
Si Si4 0.842922 0.810340 0.189482
Si Si5 0.217460 0.677232 0.327470
Si Si6 0.200908 0.421491 0.257509
Si Si7 0.310658 0.797780 0.265791
Si Si8 0.500000 0.518012 0.500000
O O1 0.500000 0.134507 0.500000
O O2 0.601193 0.237845 0.731129
O O3 0.465838 0.147023 0.771413
O O4 0.806022 0.135336 0.961001
O O5 0.244446 0.934466 0.508207
O O6 0.262352 0.865954 0.283630
O O7 0.982930 0.857023 0.221030
O O8 0.000000 0.939203 0.000000
O O9 0.316534 0.646769 0.264043
O O10 0.627291 0.672370 0.394740
O O11 0.525830 0.561177 0.365220
O O12 0.772952 0.851166 0.275038
O O13 0.684379 0.799700 0.918065
O O14 0.177767 0.747707 0.229762
O O15 0.333329 0.473379 0.298828
O O16 0.000000 0.427613 0.000000
O O17 0.500000 0.775137 0.500000
#
# Coordination Sequence:
#
# PCOD9121802 Si02
#       8
#     4   4   4   4   4   4   4   2
#     4  12  23  36  61  95 139 172 203 266 334 402
#     4  10  21  35  61  91 135 174 203 260 332 396
#     4  10  23  42  66  92 118 171 231 274 313 383
#     4  11  21  36  58  95 137 168 207 261 334 394
#     4  10  19  36  61  88 123 171 216 256 315 386
#     4  12  24  43  68  95 128 174 224 275 325 390
#     4  11  18  32  55  91 132 169 210 256 318 406
#     4  10  24  46  72  86 124 166 234 280 314 372
#
# _framework density 23.054372999999998
#
# number of rings (size 3 to 8) (size 9 to 14) (size 15 to 20)
#    0.000    1.333    5.333    2.000    0.000    2.667 
#    0.000    0.000    8.800    0.000    0.000    0.000 
#    0.000    0.000    0.000    0.000    0.000    0.000 
#
# Total GULP energy -83504.429977 kJ/mol
# GULP energy per Si atom -5566.961998 kJ/mol
# Density = 2.300190 g / cm^3
# Si number density = 23.054373 Si / 1000 Ang^3
#
#
#
# Elastic Constant Matrix: (Units=GPa)
#
#
# Indices 1 2 3 4 5 6 
#
# 1 28.2770 1.1508 27.4318 0.0000 9.4755 0.0000
# 2 1.1508 44.6971 19.2314 0.0000 0.8856 0.0000
# 3 27.4318 19.2314 212.1379 0.0000 5.0580 0.0000
# 4 0.0000 0.0000 0.0000 9.4424 0.0000 17.7179
# 5 9.4755 0.8856 5.0580 0.0000 43.0053 0.0000
# 6 0.0000 0.0000 0.0000 17.7179 0.0000 -19.6490
#
#
#
# Elastic Compliance Matrix: (Units=1/GPa)
#
#
# Indices 1 2 3 4 5 6 
#
# 1 0.043729 0.001450 -0.005571 0.000000 -0.009010 0.000000
# 2 0.001450 0.023331 -0.002290 0.000000 -0.000531 0.000000
# 3 -0.005571 -0.002290 0.005627 0.000000 0.000613 0.000000
# 4 0.000000 0.000000 0.000000 0.039341 0.000000 0.035474
# 5 -0.009010 -0.000531 0.000613 0.000000 0.025177 0.000000
# 6 0.000000 0.000000 0.000000 0.035474 0.000000 -0.018905
#
#
# Mechanical properties :
#
#
# Convention : Reuss Voigt Hill
#
# Bulk Modulus (GPa) = 16.70429 42.30444 29.50436
# Shear Modulus (GPa) = 33.09549 22.37961 27.73755
#
# Velocity S-wave (km/s) = 3.79296 3.11904 3.47239
# Velocity P-wave (km/s) = 5.14232 5.60008 5.37607
#
# Compressibility (1/GPa) = 0.05986488
#
# Stress axis : x y z
#
# Youngs Moduli (GPa) = 22.86798 42.86099 177.70439
#
# Poissons Ratio (x) = -0.06214 0.99004
# Poissons Ratio (y) = -0.03315 0.40693
# Poissons Ratio (z) = 0.12740 0.09815
#
# Static dielectric constant tensor:
#      x y z
#    x 1.902420 0.000000 -0.023350 
#    y 0.000000 1.909750 0.000000 
#    z -0.023350 0.000000 1.989660 
# 
# From -- ./inp_files/22148.got.cif
#   From: 2010.05.17/outbox.cif.g08.bks.cpg/sg5_12_cif.got.tgz:22148.got - 2010.06.03 18:56:24.
