data_PCOD9121898
_publ_section_title
;
Structure prediction by ZEFSAII (Michael W. Deem and Ramdas Pophale) SiO2 
 PCOD9121898
Probable space group: C 2
;
_chemical_formula_sum "Si O2"
_cell_formula_units_Z 30
_cell_length_a 12.514838
_cell_length_b 7.594711
_cell_length_c 17.206171
_cell_angle_alpha 90.000000
_cell_angle_beta 125.847910
_cell_angle_gamma 90.000000
_cell_volume 1325.603382
_symmetry_space_group_name_H-M "C 2"
_symmetry_group_IT_number 5
_symmetry_cell_setting 'monoclinic'
loop_
_space_group_symop_operation_xyz
x,y,z
-x,y,-z
1/2+x,1/2+y,z
1/2-x,1/2+y,-z
loop_
_atom_site_type_symbol
_atom_site_label
_atom_site_fract_x
_atom_site_fract_y
_atom_site_fract_z
Si Si1 0.023109 0.891390 0.632644
Si Si2 0.029360 0.737479 0.161564
Si Si3 0.871705 0.294115 0.150941
Si Si4 0.608198 0.570057 0.272975
Si Si5 0.000000 0.493285 0.000000
Si Si6 0.007336 0.525934 0.308570
Si Si7 0.781130 0.866460 0.410249
Si Si8 0.753497 0.937589 0.043709
O O1 0.045522 0.688723 0.666060
O O2 0.896677 0.880487 0.522320
O O3 0.150853 0.952099 0.638015
O O4 0.980120 0.997327 0.691440
O O5 0.036314 0.624125 0.086507
O O6 0.038704 0.604800 0.236932
O O7 0.885290 0.827551 0.102390
O O8 0.123929 0.903354 0.222703
O O9 0.784069 0.124389 0.095661
O O10 0.018062 0.218842 0.192527
O O11 0.900031 0.375119 0.247179
O O12 0.801616 0.439678 0.067456
O O13 0.731985 0.672274 0.362355
O O14 0.125243 0.371985 0.034571
O O15 0.149841 0.450827 0.392116
#
# Coordination Sequence:
#
# PCOD9121898 Si02
#       8
#     4   4   4   4   2   4   4   4
#     4  10  21  39  64  90 119 158 188 249 301 351
#     4  10  22  39  58  88 119 156 204 245 286 351
#     4  10  19  37  58  80 122 151 197 250 284 340
#     4   9  21  39  59  87 124 152 195 249 292 350
#     4  12  22  36  66  78 116 168 196 246 302 330
#     4  10  20  38  61  88 120 156 195 246 296 346
#     4  10  21  39  63  92 119 151 203 234 301 370
#     4  11  21  39  57  85 118 154 205 247 283 351
#
# _framework density 22.631204
#
# number of rings (size 3 to 8) (size 9 to 14) (size 15 to 20)
#    0.000    1.867    2.667    0.800    0.000    4.267 
#    0.000    6.667    0.000   14.400    0.000    0.000 
#    0.000    0.000    0.000    0.000    0.000    0.000 
#
# Total GULP energy -83576.175478 kJ/mol
# GULP energy per Si atom -5571.745032 kJ/mol
# Density = 2.257969 g / cm^3
# Si number density = 22.631204 Si / 1000 Ang^3
#
#
#
# Elastic Constant Matrix: (Units=GPa)
#
#
# Indices 1 2 3 4 5 6 
#
# 1 67.9832 -1.7267 6.3704 0.0000 3.5691 0.0000
# 2 -1.7267 61.0189 6.0259 0.0000 7.9214 0.0000
# 3 6.3704 6.0259 77.2279 0.0000 10.8544 0.0000
# 4 0.0000 0.0000 0.0000 42.9456 0.0000 11.8592
# 5 3.5691 7.9214 10.8544 0.0000 27.3191 0.0000
# 6 0.0000 0.0000 0.0000 11.8592 0.0000 22.3077
#
#
#
# Elastic Compliance Matrix: (Units=1/GPa)
#
#
# Indices 1 2 3 4 5 6 
#
# 1 0.014918 0.000753 -0.001043 0.000000 -0.001753 0.000000
# 2 0.000753 0.017100 -0.000726 0.000000 -0.004768 0.000000
# 3 -0.001043 -0.000726 0.013814 0.000000 -0.005142 0.000000
# 4 0.000000 0.000000 0.000000 0.027292 0.000000 -0.014509
# 5 -0.001753 -0.004768 -0.005142 0.000000 0.040259 0.000000
# 6 0.000000 0.000000 0.000000 -0.014509 0.000000 0.052541
#
#
# Mechanical properties :
#
#
# Convention : Reuss Voigt Hill
#
# Bulk Modulus (GPa) = 22.83107 25.28545 24.05826
# Shear Modulus (GPa) = 27.38866 31.55184 29.47025
#
# Velocity S-wave (km/s) = 3.48259 3.73791 3.61251
# Velocity P-wave (km/s) = 5.12655 5.46136 5.29660
#
# Compressibility (1/GPa) = 0.04379995
#
# Stress axis : x y z
#
# Youngs Moduli (GPa) = 67.03133 58.47823 72.38999
#
# Poissons Ratio (x) = -0.04402 0.07550
# Poissons Ratio (y) = -0.05046 0.05257
# Poissons Ratio (z) = 0.06991 0.04247
#
# Static dielectric constant tensor:
#      x y z
#    x 1.851430 0.000000 0.022390 
#    y 0.000000 1.907770 0.000000 
#    z 0.022390 0.000000 1.849010 
# 
# From -- ./inp_files/60309.got.cif
#   From: 2010.05.17/outbox.cif.g08.bks.cpg/sg5_31_cif.got.tgz:60309.got - 2010.06.03 18:56:24.
