data_PCOD9121380
_publ_section_title
;
Structure prediction by ZEFSAII (Michael W. Deem and Ramdas Pophale) SiO2 
 PCOD9121380
Probable space group: C 2
;
_chemical_formula_sum "Si O2"
_cell_formula_units_Z 24
_cell_length_a 19.999951
_cell_length_b 7.433862
_cell_length_c 10.831378
_cell_angle_alpha 90.000000
_cell_angle_beta 147.663350
_cell_angle_gamma 90.000000
_cell_volume 861.378427
_symmetry_space_group_name_H-M "C 2"
_symmetry_group_IT_number 5
_symmetry_cell_setting 'monoclinic'
loop_
_space_group_symop_operation_xyz
x,y,z
-x,y,-z
1/2+x,1/2+y,z
1/2-x,1/2+y,-z
loop_
_atom_site_type_symbol
_atom_site_label
_atom_site_fract_x
_atom_site_fract_y
_atom_site_fract_z
Si Si1 0.211634 0.358110 0.658978
Si Si2 0.124541 0.812222 0.721760
Si Si3 0.518472 0.351491 0.885856
Si Si4 0.869722 0.211221 0.207506
Si Si5 0.978299 0.450710 0.156714
Si Si6 0.740474 0.450246 0.647586
O O1 0.134263 0.308083 0.664298
O O2 0.246036 0.164186 0.659436
O O3 0.128564 0.441012 0.418358
O O4 0.344434 0.451317 0.902110
O O5 0.086921 0.003278 0.725744
O O6 0.186798 0.871468 0.691613
O O7 0.000000 0.705567 0.500000
O O8 0.223918 0.699489 0.949281
O O9 0.542374 0.162548 0.856119
O O10 0.380489 0.416818 0.628906
O O11 0.500000 0.313612 0.000000
O O12 0.929163 0.325391 0.190856
O O13 0.889239 0.399090 0.898812
#
# Coordination Sequence:
#
# PCOD9121380 Si02
#       6
#     4   4   4   4   4   4
#     4  10  21  39  63  92 127 164 204 255 311 372
#     4  10  19  33  55  85 125 163 199 247 302 369
#     4  11  25  44  64  90 125 167 217 263 305 364
#     4  10  20  36  60  93 129 163 201 247 310 381
#     4  10  22  40  64  95 128 162 206 258 313 374
#     4   9  21  40  59  89 125 161 211 258 304 366
#
# _framework density 27.862317000000001
#
# number of rings (size 3 to 8) (size 9 to 14) (size 15 to 20)
#    0.000    2.000    0.000    4.500    0.000    6.667 
#    0.000    8.333    0.000    0.000    0.000    0.000 
#    0.000    0.000    0.000    0.000    0.000    0.000 
#
# Total GULP energy -66964.943646 kJ/mol
# GULP energy per Si atom -5580.411970 kJ/mol
# Density = 2.779890 g / cm^3
# Si number density = 27.862317 Si / 1000 Ang^3
#
#
#
# Elastic Constant Matrix: (Units=GPa)
#
#
# Indices 1 2 3 4 5 6 
#
# 1 59.9517 1.0987 30.7124 0.0000 16.7400 0.0000
# 2 1.0987 76.4029 48.2848 0.0000 7.8032 0.0000
# 3 30.7124 48.2848 347.7649 0.0000 20.5865 0.0000
# 4 0.0000 0.0000 0.0000 42.7244 0.0000 14.9031
# 5 16.7400 7.8032 20.5865 0.0000 49.0991 0.0000
# 6 0.0000 0.0000 0.0000 14.9031 0.0000 -3.7253
#
#
#
# Elastic Compliance Matrix: (Units=1/GPa)
#
#
# Indices 1 2 3 4 5 6 
#
# 1 0.019132 0.001301 -0.001509 0.000000 -0.006097 0.000000
# 2 0.001301 0.014542 -0.002021 0.000000 -0.001907 0.000000
# 3 -0.001509 -0.002021 0.003322 0.000000 -0.000557 0.000000
# 4 0.000000 0.000000 0.000000 0.009771 0.000000 0.039089
# 5 -0.006097 -0.001907 -0.000557 0.000000 0.022982 0.000000
# 6 0.000000 0.000000 0.000000 0.039089 0.000000 -0.112060
#
#
# Mechanical properties :
#
#
# Convention : Reuss Voigt Hill
#
# Bulk Modulus (GPa) = 30.73315 71.59015 51.16165
# Shear Modulus (GPa) = -185.14093 44.55453 -70.29320
#
# Velocity S-wave (km/s) = -8.16044 4.00321 -5.02827
# Velocity P-wave (km/s) = 8.81680 6.86423 3.91270
#
# Compressibility (1/GPa) = 0.03253816
#
# Stress axis : x y z
#
# Youngs Moduli (GPa) = 52.26878 68.76694 300.98706
#
# Poissons Ratio (x) = -0.08950 0.45431
# Poissons Ratio (y) = -0.06803 0.60831
# Poissons Ratio (z) = 0.07889 0.13898
#
# Static dielectric constant tensor:
#      x y z
#    x 2.108020 0.000000 -0.018880 
#    y 0.000000 2.080910 0.000000 
#    z -0.018880 0.000000 2.267270 
# 
# From -- ./inp_files/47347.got.cif
#   From: 2010.05.17/outbox.cif.g08.bks.cpg/sg5_24_cif.got.tgz:47347.got - 2010.06.03 18:56:24.
