data_PCOD9121242
_publ_section_title
;
Structure prediction by ZEFSAII (Michael W. Deem and Ramdas Pophale) SiO2 
 PCOD9121242
Probable space group: C 2
;
_chemical_formula_sum "Si O2"
_cell_formula_units_Z 24
_cell_length_a 21.518106
_cell_length_b 9.150965
_cell_length_c 5.562556
_cell_angle_alpha 90.000000
_cell_angle_beta 72.468847
_cell_angle_gamma 90.000000
_cell_volume 1044.456389
_symmetry_space_group_name_H-M "C 2"
_symmetry_group_IT_number 5
_symmetry_cell_setting 'monoclinic'
loop_
_space_group_symop_operation_xyz
x,y,z
-x,y,-z
1/2+x,1/2+y,z
1/2-x,1/2+y,-z
loop_
_atom_site_type_symbol
_atom_site_label
_atom_site_fract_x
_atom_site_fract_y
_atom_site_fract_z
Si Si1 0.427475 0.836280 0.736904
Si Si2 0.465941 0.509137 0.785503
Si Si3 0.724001 0.747216 0.066683
Si Si4 0.655053 0.553943 0.802455
Si Si5 0.893381 0.369584 0.282048
Si Si6 0.747879 0.982732 0.677096
O O1 0.463984 0.684725 0.747235
O O2 0.437088 0.905613 0.462981
O O3 0.244821 0.887269 0.089661
O O4 0.425101 0.919889 0.992177
O O5 0.500000 0.450576 0.500000
O O6 0.500000 0.472695 0.000000
O O7 0.390538 0.478464 0.945239
O O8 0.715272 0.636442 0.854861
O O9 0.649198 0.789444 0.209510
O O10 0.754040 0.653092 0.243995
O O11 0.614418 0.691279 0.733879
O O12 0.688387 0.459068 0.559384
O O13 0.820146 0.434996 0.364967
#
# Coordination Sequence:
#
# PCOD9121242 Si02
#       6
#     4   4   4   4   4   4
#     4   9  17  32  43  70 100 138 178 223 261 315
#     4  10  19  30  50  73 102 149 186 227 282 333
#     4   9  20  30  50  71 107 152 185 221 265 329
#     4   9  19  30  47  70 110 143 185 227 268 326
#     4   9  18  29  47  67  98 147 175 212 264 316
#     4  10  19  31  51  73 107 158 187 219 268 329
#
# _framework density 22.978459000000001
#
# number of rings (size 3 to 8) (size 9 to 14) (size 15 to 20)
#    0.000    3.333    1.667    2.000    7.000    0.000 
#    0.000    0.000    0.000    0.000    0.000    0.000 
#    0.000    0.000  385.333   57.333    2.667    0.667 
#
# Total GULP energy -66812.749687 kJ/mol
# GULP energy per Si atom -5567.729141 kJ/mol
# Density = 2.292616 g / cm^3
# Si number density = 22.978459 Si / 1000 Ang^3
#
#
#
# Elastic Constant Matrix: (Units=GPa)
#
#
# Indices 1 2 3 4 5 6 
#
# 1 88.9526 18.5855 30.2450 0.0000 22.0525 0.0000
# 2 18.5855 30.9291 14.0457 0.0000 3.3540 0.0000
# 3 30.2450 14.0457 175.8297 0.0000 14.0314 0.0000
# 4 0.0000 0.0000 0.0000 29.2916 0.0000 0.7347
# 5 22.0525 3.3540 14.0314 0.0000 44.7241 0.0000
# 6 0.0000 0.0000 0.0000 0.7347 0.0000 24.4095
#
#
#
# Elastic Compliance Matrix: (Units=1/GPa)
#
#
# Indices 1 2 3 4 5 6 
#
# 1 0.014890 -0.007604 -0.001450 0.000000 -0.006317 0.000000
# 2 -0.007604 0.037561 -0.001812 0.000000 0.001501 0.000000
# 3 -0.001450 -0.001812 0.006168 0.000000 -0.001084 0.000000
# 4 0.000000 0.000000 0.000000 0.034165 0.000000 -0.001028
# 5 -0.006317 0.001501 -0.001084 0.000000 0.025702 0.000000
# 6 0.000000 0.000000 0.000000 -0.001028 0.000000 0.040999
#
#
# Mechanical properties :
#
#
# Convention : Reuss Voigt Hill
#
# Bulk Modulus (GPa) = 27.10967 46.82931 36.96949
# Shear Modulus (GPa) = 25.83817 35.20738 30.52278
#
# Velocity S-wave (km/s) = 3.35692 3.91857 3.64857
# Velocity P-wave (km/s) = 5.18157 6.39511 5.82006
#
# Compressibility (1/GPa) = 0.03688720
#
# Stress axis : x y z
#
# Youngs Moduli (GPa) = 67.16103 26.62302 162.12722
#
# Poissons Ratio (x) = 0.20244 0.23504
# Poissons Ratio (y) = 0.51069 0.29383
# Poissons Ratio (z) = 0.09736 0.04825
#
# Static dielectric constant tensor:
#      x y z
#    x 1.984860 0.000000 -0.000690 
#    y 0.000000 1.845990 0.000000 
#    z -0.000690 0.000000 2.090320 
# 
# From -- ./inp_files/10260.got.cif
#   From: 2010.05.17/outbox.cif.g08.bks.cpg/sg5_6_cif.got.tgz:10260.got - 2010.06.03 18:56:24.
