data_PCOD9121338
_publ_section_title
;
Structure prediction by ZEFSAII (Michael W. Deem and Ramdas Pophale) SiO2 
 PCOD9121338
Probable space group: C 2
;
_chemical_formula_sum "Si O2"
_cell_formula_units_Z 32
_cell_length_a 11.835507
_cell_length_b 20.039044
_cell_length_c 7.052366
_cell_angle_alpha 90.000000
_cell_angle_beta 121.054537
_cell_angle_gamma 90.000000
_cell_volume 1432.899232
_symmetry_space_group_name_H-M "C 2"
_symmetry_group_IT_number 5
_symmetry_cell_setting 'monoclinic'
loop_
_space_group_symop_operation_xyz
x,y,z
-x,y,-z
1/2+x,1/2+y,z
1/2-x,1/2+y,-z
loop_
_atom_site_type_symbol
_atom_site_label
_atom_site_fract_x
_atom_site_fract_y
_atom_site_fract_z
Si Si1 0.808685 0.012790 0.041707
Si Si2 0.048003 0.436147 0.755048
Si Si3 0.893329 0.293947 0.239262
Si Si4 0.550438 0.435123 0.328190
Si Si5 0.892974 0.148042 0.235308
Si Si6 0.626388 0.151455 0.246662
Si Si7 0.793332 0.513502 0.615357
Si Si8 0.375053 0.295339 0.754718
O O1 0.875566 0.085786 0.077053
O O2 0.770233 0.017095 0.231758
O O3 0.919018 0.956413 0.102530
O O4 0.668739 0.987992 0.842917
O O5 0.088769 0.362479 0.861442
O O6 0.000000 0.425753 0.500000
O O7 0.919619 0.466172 0.742940
O O8 0.911530 0.221354 0.158882
O O9 0.753936 0.300831 0.226495
O O10 0.000000 0.290406 0.500000
O O11 0.500000 0.441672 0.500000
O O12 0.672353 0.484571 0.390603
O O13 0.605860 0.361069 0.351404
O O14 0.753115 0.155967 0.220342
O O15 0.000000 0.135544 0.500000
O O16 0.652618 0.086129 0.394589
O O17 0.622057 0.223147 0.344676
O O18 0.500000 0.141060 0.000000
O O19 0.500000 0.293268 0.000000
#
# Coordination Sequence:
#
# PCOD9121338 Si02
#       8
#     4   4   4   4   4   4   4   4
#     4  10  19  33  53  76 101 132 169 208 248 293
#     4  11  21  33  50  78 107 132 164 203 254 304
#     4   9  18  31  50  76 101 127 165 211 250 287
#     4  10  20  32  50  77 106 133 163 203 253 303
#     4   9  16  30  52  77  98 123 168 217 247 279
#     4   9  17  30  51  74  95 128 172 210 243 283
#     4  10  19  34  53  75 101 132 170 208 247 293
#     4  10  19  33  52  73 100 133 168 206 247 294
#
# _framework density 22.332345
#
# number of rings (size 3 to 8) (size 9 to 14) (size 15 to 20)
#    0.000    2.250    0.000    6.000    0.000    0.000 
#    0.000    0.625    0.000    1.500    0.000   13.125 
#    0.000    2.000    0.000    0.000    0.000    0.000 
#
# Total GULP energy -89185.107617 kJ/mol
# GULP energy per Si atom -5574.069226 kJ/mol
# Density = 2.228152 g / cm^3
# Si number density = 22.332345 Si / 1000 Ang^3
#
#
#
# Elastic Constant Matrix: (Units=GPa)
#
#
# Indices 1 2 3 4 5 6 
#
# 1 73.8458 34.8167 15.2861 0.0000 32.8562 0.0000
# 2 34.8167 211.1403 22.6880 0.0000 25.3286 0.0000
# 3 15.2861 22.6880 58.8536 0.0000 36.4300 0.0000
# 4 0.0000 0.0000 0.0000 12.5233 0.0000 17.0370
# 5 32.8562 25.3286 36.4300 0.0000 40.0669 0.0000
# 6 0.0000 0.0000 0.0000 17.0370 0.0000 22.5699
#
#
#
# Elastic Compliance Matrix: (Units=1/GPa)
#
#
# Indices 1 2 3 4 5 6 
#
# 1 0.026561 -0.001886 0.015034 0.000000 -0.034258 0.000000
# 2 -0.001886 0.005259 -0.000999 0.000000 -0.000869 0.000000
# 3 0.015034 -0.000999 0.047374 0.000000 -0.054771 0.000000
# 4 0.000000 0.000000 0.000000 -2.965613 0.000000 2.238608
# 5 -0.034258 -0.000869 -0.054771 0.000000 0.103400 0.000000
# 6 0.000000 0.000000 0.000000 2.238608 0.000000 -1.645519
#
#
# Mechanical properties :
#
#
# Convention : Reuss Voigt Hill
#
# Bulk Modulus (GPa) = 9.66258 54.38016 32.02137
# Shear Modulus (GPa) = -1.13165 33.10194 15.98515
#
# Velocity S-wave (km/s) = -0.71262 3.85417 2.67832
# Velocity P-wave (km/s) = 1.91285 6.64902 4.89226
#
# Compressibility (1/GPa) = 0.10349205
#
# Stress axis : x y z
#
# Youngs Moduli (GPa) = 37.64871 190.15670 21.10842
#
# Poissons Ratio (x) = 0.35858 -0.31734
# Poissons Ratio (y) = 0.07100 0.02109
# Poissons Ratio (z) = -0.56600 0.19003
#
# Static dielectric constant tensor:
#      x y z
#    x 1.682090 0.000000 -0.043130 
#    y 0.000000 1.995300 0.000000 
#    z -0.043130 0.000000 1.856660 
# 
# From -- ./inp_files/21950.got.cif
#   From: 2010.05.17/outbox.cif.g08.bks.cpg/sg5_11_cif.got.tgz:21950.got - 2010.06.03 18:56:24.
