data_PCOD9121435
_publ_section_title
;
Structure prediction by ZEFSAII (Michael W. Deem and Ramdas Pophale) SiO2 
 PCOD9121435
Probable space group: C 2
;
_chemical_formula_sum "Si O2"
_cell_formula_units_Z 28
_cell_length_a 20.152036
_cell_length_b 4.910222
_cell_length_c 11.985350
_cell_angle_alpha 90.000000
_cell_angle_beta 56.616239
_cell_angle_gamma 90.000000
_cell_volume 990.282847
_symmetry_space_group_name_H-M "C 2"
_symmetry_group_IT_number 5
_symmetry_cell_setting 'monoclinic'
loop_
_space_group_symop_operation_xyz
x,y,z
-x,y,-z
1/2+x,1/2+y,z
1/2-x,1/2+y,-z
loop_
_atom_site_type_symbol
_atom_site_label
_atom_site_fract_x
_atom_site_fract_y
_atom_site_fract_z
Si Si1 0.548209 0.620360 0.342745
Si Si2 0.263554 0.280057 0.634144
Si Si3 0.150260 0.293611 0.555439
Si Si4 0.837437 0.621461 0.788165
Si Si5 0.873436 0.494420 0.987268
Si Si6 0.404090 0.459009 0.104081
Si Si7 0.537534 0.227307 0.732442
O O1 0.500000 0.566280 0.500000
O O2 0.426366 0.995936 0.381780
O O3 0.595497 0.903746 0.314736
O O4 0.487175 0.507997 0.305041
O O5 0.176120 0.316584 0.662710
O O6 0.325387 0.514110 0.533044
O O7 0.286102 0.996991 0.557007
O O8 0.273276 0.203263 0.754641
O O9 0.818176 0.500464 0.928456
O O10 0.882185 0.909168 0.753331
O O11 0.888253 0.235258 0.050282
O O12 0.039432 0.581055 0.142677
O O13 0.850841 0.741110 0.087391
O O14 0.401904 0.343767 0.232223
O O15 0.500000 0.431849 0.000000
#
# Coordination Sequence:
#
# PCOD9121435 Si02
#       7
#     4   4   4   4   4   4   4
#     4  11  23  35  52  85 123 161 204 250 317 392
#     4  10  22  39  59  86 126 171 216 268 312 374
#     4  10  22  39  60  90 123 167 225 267 315 378
#     4  11  21  36  56  81 121 169 204 247 319 390
#     4  10  21  34  52  84 118 155 200 247 314 385
#     4  10  19  34  53  81 118 153 195 249 312 380
#     4  10  22  37  61  89 127 170 212 268 324 391
#
# _framework density 28.274750999999998
#
# number of rings (size 3 to 8) (size 9 to 14) (size 15 to 20)
#    0.000    1.714    0.000    6.000    0.000   10.286 
#    0.000    0.000    0.000    0.000    0.000   16.000 
#    0.000    4.571    0.000    7.429    0.000    0.571 
#
# Total GULP energy -78127.175360 kJ/mol
# GULP energy per Si atom -5580.512526 kJ/mol
# Density = 2.821040 g / cm^3
# Si number density = 28.274751 Si / 1000 Ang^3
#
#
#
# Elastic Constant Matrix: (Units=GPa)
#
#
# Indices 1 2 3 4 5 6 
#
# 1 48.1521 35.0907 30.1064 0.0000 2.9352 0.0018
# 2 35.0907 194.7655 30.8785 0.0024 20.4516 0.0092
# 3 30.1064 30.8785 116.1171 -0.0008 47.9086 0.0001
# 4 0.0000 0.0024 -0.0008 46.1588 -0.0005 -2.7791
# 5 2.9352 20.4516 47.9086 -0.0005 50.5825 0.0006
# 6 0.0018 0.0092 0.0001 -2.7791 0.0006 25.5548
#
#
#
# Elastic Compliance Matrix: (Units=1/GPa)
#
#
# Indices 1 2 3 4 5 6 
#
# 1 0.030557 -0.004876 -0.011011 0.000000 0.010627 -0.000001
# 2 -0.004876 0.006194 0.000876 0.000000 -0.003051 -0.000002
# 3 -0.011011 0.000876 0.018247 0.000000 -0.016997 0.000001
# 4 0.000000 0.000000 0.000000 0.021807 0.000000 0.002372
# 5 0.010627 -0.003051 -0.016997 0.000000 0.036486 0.000000
# 6 -0.000001 -0.000002 0.000001 0.002372 0.000000 0.039389
#
#
# Mechanical properties :
#
#
# Convention : Reuss Voigt Hill
#
# Bulk Modulus (GPa) = 40.03661 61.24289 50.63975
# Shear Modulus (GPa) = 26.17424 41.98983 34.08204
#
# Velocity S-wave (km/s) = 3.04585 3.85783 3.47564
# Velocity P-wave (km/s) = 5.15366 6.44599 5.83571
#
# Compressibility (1/GPa) = 0.02497714
#
# Stress axis : x y z
#
# Youngs Moduli (GPa) = 32.72559 161.43712 54.80386
#
# Poissons Ratio (x) = 0.78712 0.60343
# Poissons Ratio (y) = 0.15956 -0.04799
# Poissons Ratio (z) = 0.36033 -0.14137
#
# Static dielectric constant tensor:
#      x y z
#    x 2.680930 0.000000 0.045260 
#    y 0.000000 2.153340 -0.000010 
#    z 0.045260 -0.000010 2.435830 
# 
# From -- ./inp_files/45460.got.cif
#   From: 2010.05.17/outbox.cif.g08.bks.cpg/sg5_23_cif.got.tgz:45460.got - 2010.06.03 18:56:24.
