data_PCOD9121676
_publ_section_title
;
Structure prediction by ZEFSAII (Michael W. Deem and Ramdas Pophale) SiO2 
 PCOD9121676
Probable space group: C 2
;
_chemical_formula_sum "Si O2"
_cell_formula_units_Z 28
_cell_length_a 7.984699
_cell_length_b 13.848419
_cell_length_c 16.836533
_cell_angle_alpha 90.000000
_cell_angle_beta 144.142888
_cell_angle_gamma 90.000000
_cell_volume 1090.524574
_symmetry_space_group_name_H-M "C 2"
_symmetry_group_IT_number 5
_symmetry_cell_setting 'monoclinic'
loop_
_space_group_symop_operation_xyz
x,y,z
-x,y,-z
1/2+x,1/2+y,z
1/2-x,1/2+y,-z
loop_
_atom_site_type_symbol
_atom_site_label
_atom_site_fract_x
_atom_site_fract_y
_atom_site_fract_z
Si Si1 0.023046 0.684070 0.876387
Si Si2 0.013291 0.681444 0.318740
Si Si3 0.563263 0.918796 0.827177
Si Si4 0.289706 0.988529 0.571990
Si Si5 0.937048 0.910010 0.664973
Si Si6 0.422979 0.688536 0.174534
Si Si7 0.318884 0.409587 0.082777
O O1 0.059867 0.650675 0.800396
O O2 0.713952 0.657995 0.794502
O O3 0.079984 0.799076 0.891209
O O4 0.236996 0.651203 0.028383
O O5 0.231229 0.603813 0.435931
O O6 0.253563 0.672235 0.724628
O O7 0.099409 0.793517 0.347443
O O8 0.539290 0.958710 0.728977
O O9 0.248376 0.930358 0.745054
O O10 0.614295 0.804521 0.839256
O O11 0.777987 0.952952 0.979255
O O12 0.000000 0.946885 0.500000
O O13 0.293549 0.950393 0.484698
O O14 0.977246 0.949989 0.769623
O O15 0.000000 0.404776 0.000000
#
# Coordination Sequence:
#
# PCOD9121676 Si02
#       7
#     4   4   4   4   4   4   4
#     4   9  16  30  60  94 122 159 212 255 319 382
#     4  10  19  35  62  90 125 171 215 257 325 375
#     4   8  15  30  56  89 120 155 201 262 320 372
#     4  10  20  36  60  90 126 169 217 263 314 377
#     4   8  16  32  58  89 118 170 210 255 319 378
#     4   9  17  32  61  94 125 160 206 264 316 385
#     4   8  13  27  57  91 123 160 206 258 318 381
#
# _framework density 25.675719000000001
#
# number of rings (size 3 to 8) (size 9 to 14) (size 15 to 20)
#    0.000    3.143    0.000    3.000    0.000    0.000 
#    2.571    0.000   28.286   17.143    0.000    0.000 
#    0.000    0.000    0.000    0.000    0.000    0.000 
#
# Total GULP energy -78228.538621 kJ/mol
# GULP energy per Si atom -5587.752759 kJ/mol
# Density = 2.561728 g / cm^3
# Si number density = 25.675719 Si / 1000 Ang^3
#
#
#
# Elastic Constant Matrix: (Units=GPa)
#
#
# Indices 1 2 3 4 5 6 
#
# 1 127.3552 26.1106 44.2640 -0.0008 -16.0697 0.0002
# 2 26.1106 82.1458 57.3634 0.0000 -15.9512 0.0001
# 3 44.2640 57.3634 197.5949 0.0002 -45.0572 0.0004
# 4 -0.0008 0.0000 0.0002 13.1146 -0.0003 6.5312
# 5 -16.0697 -15.9512 -45.0572 -0.0003 26.3946 0.0003
# 6 0.0002 0.0001 0.0004 6.5312 0.0003 3.4127
#
#
#
# Elastic Compliance Matrix: (Units=1/GPa)
#
#
# Indices 1 2 3 4 5 6 
#
# 1 0.008855 -0.001662 -0.000820 0.000020 0.002987 -0.000039
# 2 -0.001662 0.015701 -0.003689 0.000003 0.002180 -0.000006
# 3 -0.000820 -0.003689 0.009322 0.000025 0.013184 -0.000049
# 4 0.000020 0.000003 0.000025 1.625556 0.000111 -3.110990
# 5 0.002987 0.002180 0.013184 0.000111 0.063529 -0.000220
# 6 -0.000039 -0.000006 -0.000049 -3.110990 -0.000220 6.246842
#
#
# Mechanical properties :
#
#
# Convention : Reuss Voigt Hill
#
# Bulk Modulus (GPa) = 46.43364 73.61909 60.02637
# Shear Modulus (GPa) = 0.62584 27.20823 13.91703
#
# Velocity S-wave (km/s) = 0.49424 3.25882 2.33068
# Velocity P-wave (km/s) = 4.29530 6.54941 5.53825
#
# Compressibility (1/GPa) = 0.02153611
#
# Stress axis : x y z
#
# Youngs Moduli (GPa) = 112.93485 63.69063 107.27477
#
# Poissons Ratio (x) = 0.10585 0.08797
# Poissons Ratio (y) = 0.18769 0.39571
# Poissons Ratio (z) = 0.09261 0.23494
#
# Static dielectric constant tensor:
#      x y z
#    x 2.046520 0.000000 0.038200 
#    y 0.000000 2.021310 0.000000 
#    z 0.038200 0.000000 2.022190 
# 
# From -- ./inp_files/51399.got.cif
#   From: 2010.05.17/outbox.cif.g08.bks.cpg/sg5_26_cif.got.tgz:51399.got - 2010.06.03 18:56:24.
