data_PCOD9121913
_publ_section_title
;
Structure prediction by ZEFSAII (Michael W. Deem and Ramdas Pophale) SiO2 
 PCOD9121913
Probable space group: C 2
;
_chemical_formula_sum "Si O2"
_cell_formula_units_Z 24
_cell_length_a 16.139712
_cell_length_b 16.421305
_cell_length_c 8.837301
_cell_angle_alpha 90.000000
_cell_angle_beta 34.440367
_cell_angle_gamma 90.000000
_cell_volume 1324.624275
_symmetry_space_group_name_H-M "C 2"
_symmetry_group_IT_number 5
_symmetry_cell_setting 'monoclinic'
loop_
_space_group_symop_operation_xyz
x,y,z
-x,y,-z
1/2+x,1/2+y,z
1/2-x,1/2+y,-z
loop_
_atom_site_type_symbol
_atom_site_label
_atom_site_fract_x
_atom_site_fract_y
_atom_site_fract_z
Si Si1 0.607882 0.468830 0.977197
Si Si2 0.395556 0.956863 0.361350
Si Si3 0.699757 0.004329 0.822299
Si Si4 0.953627 0.113655 0.394071
Si Si5 0.150737 0.866377 0.205061
Si Si6 0.036546 0.292518 0.267129
O O1 0.769308 0.483560 0.666185
O O2 0.500000 0.449259 0.000000
O O3 0.540897 0.546611 0.165387
O O4 0.622905 0.396578 0.076319
O O5 0.330887 0.959599 0.290124
O O6 0.452746 0.866704 0.313707
O O7 0.542477 0.011826 0.139490
O O8 0.802907 0.947324 0.769600
O O9 0.784452 0.086334 0.652959
O O10 0.000000 0.111210 0.500000
O O11 0.985570 0.204237 0.288688
O O12 0.000000 0.833678 0.500000
O O13 0.289699 0.807413 0.009591
O O14 0.000000 0.298402 0.500000
#
# Coordination Sequence:
#
# PCOD9121913 Si02
#       6
#     4   4   4   4   4   4
#     4  12  20  35  63  89 111 151 201 238 274 349
#     4  10  21  36  60  87 112 152 205 230 275 349
#     4  10  19  37  59  85 116 156 191 238 284 345
#     4  11  21  39  58  84 118 156 183 239 307 332
#     4  11  19  37  60  86 115 157 197 233 282 350
#     4  10  22  37  60  86 119 153 188 244 293 337
#
# _framework density 18.118345000000001
#
# number of rings (size 3 to 8) (size 9 to 14) (size 15 to 20)
#    0.000    1.333    6.667    0.000    0.000    0.000 
#    6.000    3.333    3.667    0.000    0.000    0.000 
#    0.000    0.000    0.000    0.000    0.000    0.000 
#
# Total GULP energy -66951.098874 kJ/mol
# GULP energy per Si atom -5579.258240 kJ/mol
# Density = 1.807711 g / cm^3
# Si number density = 18.118345 Si / 1000 Ang^3
#
#
#
# Elastic Constant Matrix: (Units=GPa)
#
#
# Indices 1 2 3 4 5 6 
#
# 1 86.8420 35.2700 23.2635 0.0001 -6.1754 0.0000
# 2 35.2700 88.6954 45.1977 0.0001 -18.4378 0.0000
# 3 23.2635 45.1977 167.2777 0.0002 -21.9158 -0.0001
# 4 0.0001 0.0001 0.0002 16.5566 -0.0001 -1.4518
# 5 -6.1754 -18.4378 -21.9158 -0.0001 28.1076 0.0000
# 6 0.0000 0.0000 -0.0001 -1.4518 0.0000 18.5501
#
#
#
# Elastic Compliance Matrix: (Units=1/GPa)
#
#
# Indices 1 2 3 4 5 6 
#
# 1 0.013791 -0.005384 -0.000589 0.000000 -0.000961 0.000000
# 2 -0.005384 0.016331 -0.002690 0.000000 0.007433 0.000000
# 3 -0.000589 -0.002690 0.007283 0.000000 0.003784 0.000000
# 4 0.000000 0.000000 0.000000 0.060816 0.000000 0.004760
# 5 -0.000961 0.007433 0.003784 0.000000 0.043193 0.000000
# 6 0.000000 0.000000 0.000000 0.004760 0.000000 0.054281
#
#
# Mechanical properties :
#
#
# Convention : Reuss Voigt Hill
#
# Bulk Modulus (GPa) = 49.80289 61.14193 55.47241
# Shear Modulus (GPa) = 22.75689 28.58178 25.66933
#
# Velocity S-wave (km/s) = 3.54787 3.97609 3.76807
# Velocity P-wave (km/s) = 6.65811 7.40933 7.04374
#
# Compressibility (1/GPa) = 0.02007915
#
# Stress axis : x y z
#
# Youngs Moduli (GPa) = 72.51013 61.23230 137.31184
#
# Poissons Ratio (x) = 0.32965 0.08091
# Poissons Ratio (y) = 0.39037 0.36939
# Poissons Ratio (z) = 0.04273 0.16472
#
# Static dielectric constant tensor:
#      x y z
#    x 1.625600 0.000000 -0.004640 
#    y 0.000000 1.604670 0.000000 
#    z -0.004640 0.000000 1.657980 
# 
# From -- ./inp_files/24503.got.cif
#   From: 2010.05.17/outbox.cif.g08.bks.cpg/sg5_13_cif.got.tgz:24503.got - 2010.06.03 18:56:24.
