data_PCOD9121638
_publ_section_title
;
Structure prediction by ZEFSAII (Michael W. Deem and Ramdas Pophale) SiO2 
 PCOD9121638
Probable space group: C 2
;
_chemical_formula_sum "Si O2"
_cell_formula_units_Z 26
_cell_length_a 14.536240
_cell_length_b 8.752350
_cell_length_c 12.323475
_cell_angle_alpha 90.000000
_cell_angle_beta 45.398475
_cell_angle_gamma 90.000000
_cell_volume 1116.334716
_symmetry_space_group_name_H-M "C 2"
_symmetry_group_IT_number 5
_symmetry_cell_setting 'monoclinic'
loop_
_space_group_symop_operation_xyz
x,y,z
-x,y,-z
1/2+x,1/2+y,z
1/2-x,1/2+y,-z
loop_
_atom_site_type_symbol
_atom_site_label
_atom_site_fract_x
_atom_site_fract_y
_atom_site_fract_z
Si Si1 0.764245 0.041760 0.420367
Si Si2 0.643049 0.824933 0.767742
Si Si3 0.362695 0.884540 0.675574
Si Si4 0.500000 0.579597 0.000000
Si Si5 0.511365 0.041174 0.229508
Si Si6 0.364757 0.533067 0.679227
Si Si7 0.474289 0.394081 0.800828
O O1 0.821376 0.212975 0.362680
O O2 0.632061 0.045974 0.596373
O O3 0.727499 0.973561 0.333079
O O4 0.881159 0.935245 0.362063
O O5 0.516956 0.924827 0.844392
O O6 0.758968 0.933461 0.705071
O O7 0.613959 0.699306 0.882241
O O8 0.500000 0.879851 0.500000
O O9 0.322086 0.709314 0.723066
O O10 0.389601 0.969990 0.766034
O O11 0.532155 0.478491 0.078225
O O12 0.545263 0.213660 0.171585
O O13 0.500000 0.526094 0.500000
O O14 0.384032 0.464805 0.783163
#
# Coordination Sequence:
#
# PCOD9121638 Si02
#       7
#     4   4   4   2   4   4   4
#     4  10  19  35  59  94 129 159 196 255 316 365
#     4  11  23  40  63  87 127 163 207 253 298 372
#     4   9  19  33  56  93 133 155 187 239 312 381
#     4  10  26  48  58  82 120 176 218 248 296 356
#     4  11  20  35  62  95 122 161 202 258 318 359
#     4  11  21  38  66 101 126 155 197 258 321 363
#     4  11  23  40  63  87 127 163 207 254 299 371
#
# _framework density 23.290505
#
# number of rings (size 3 to 8) (size 9 to 14) (size 15 to 20)
#    0.000    1.538    0.000    6.462    0.000    4.308 
#    0.000    9.231    0.000    0.000    0.000    0.000 
#    0.000    0.000    0.000    0.000    0.000    0.000 
#
# Total GULP energy -72726.597928 kJ/mol
# GULP energy per Si atom -5594.353687 kJ/mol
# Density = 2.323749 g / cm^3
# Si number density = 23.290505 Si / 1000 Ang^3
#
#
#
# Elastic Constant Matrix: (Units=GPa)
#
#
# Indices 1 2 3 4 5 6 
#
# 1 90.9111 45.5213 0.5546 0.0000 30.5166 0.0000
# 2 45.5213 201.3079 33.0300 0.0000 23.8909 0.0000
# 3 0.5546 33.0300 54.2312 0.0000 26.1640 0.0000
# 4 0.0000 0.0000 0.0000 32.6810 0.0000 6.5397
# 5 30.5166 23.8909 26.1640 0.0000 35.4000 0.0000
# 6 0.0000 0.0000 0.0000 6.5397 0.0000 39.0873
#
#
#
# Elastic Compliance Matrix: (Units=1/GPa)
#
#
# Indices 1 2 3 4 5 6 
#
# 1 0.022719 -0.004408 0.016266 0.000000 -0.028632 0.000000
# 2 -0.004408 0.006460 -0.005626 0.000000 0.003598 0.000000
# 3 0.016266 -0.005626 0.041393 0.000000 -0.040819 0.000000
# 4 0.000000 0.000000 0.000000 0.031659 0.000000 -0.005297
# 5 -0.028632 0.003598 -0.040819 0.000000 0.080672 0.000000
# 6 0.000000 0.000000 0.000000 -0.005297 0.000000 0.026470
#
#
# Mechanical properties :
#
#
# Convention : Reuss Voigt Hill
#
# Bulk Modulus (GPa) = 12.04281 56.07356 34.05818
# Shear Modulus (GPa) = 22.26309 39.25661 30.75985
#
# Velocity S-wave (km/s) = 3.09510 4.10996 3.63809
# Velocity P-wave (km/s) = 4.23730 6.83011 5.68353
#
# Compressibility (1/GPa) = 0.08303711
#
# Stress axis : x y z
#
# Youngs Moduli (GPa) = 44.01605 154.78986 24.15876
#
# Poissons Ratio (x) = 0.68236 -0.39297
# Poissons Ratio (y) = 0.19404 0.13591
# Poissons Ratio (z) = -0.71598 0.87078
#
# Static dielectric constant tensor:
#      x y z
#    x 1.824160 0.000000 -0.011540 
#    y 0.000000 1.835310 0.000000 
#    z -0.011540 0.000000 1.982420 
# 
# From -- ./inp_files/41618.got.cif
#   From: 2010.05.17/outbox.cif.g08.bks.cpg/sg5_21_cif.got.tgz:41618.got - 2010.06.03 18:56:24.
