data_PCOD9121418
_publ_section_title
;
Structure prediction by ZEFSAII (Michael W. Deem and Ramdas Pophale) SiO2 
 PCOD9121418
Probable space group: C 2
;
_chemical_formula_sum "Si O2"
_cell_formula_units_Z 24
_cell_length_a 18.204495
_cell_length_b 16.202515
_cell_length_c 9.453288
_cell_angle_alpha 90.000000
_cell_angle_beta 25.083534
_cell_angle_gamma 90.000000
_cell_volume 1182.081688
_symmetry_space_group_name_H-M "C 2"
_symmetry_group_IT_number 5
_symmetry_cell_setting 'monoclinic'
loop_
_space_group_symop_operation_xyz
x,y,z
-x,y,-z
1/2+x,1/2+y,z
1/2-x,1/2+y,-z
loop_
_atom_site_type_symbol
_atom_site_label
_atom_site_fract_x
_atom_site_fract_y
_atom_site_fract_z
Si Si1 0.292070 0.034120 0.835088
Si Si2 0.164531 0.704460 0.781758
Si Si3 0.033181 0.286024 0.096268
Si Si4 0.155324 0.689801 0.117063
Si Si5 0.684552 0.610528 0.735185
Si Si6 0.317769 0.863476 0.896937
O O1 0.500000 0.031056 0.500000
O O2 0.225859 0.114563 0.035620
O O3 0.258446 0.052131 0.728609
O O4 0.224163 0.948072 0.016425
O O5 0.343645 0.756147 0.481013
O O6 0.205424 0.632215 0.596641
O O7 0.112871 0.674390 0.027677
O O8 0.000000 0.751076 0.000000
O O9 0.134695 0.346426 0.022805
O O10 0.141794 0.201109 0.879685
O O11 0.000000 0.323382 0.000000
O O12 0.000000 0.690861 0.500000
O O13 0.227485 0.781155 0.001270
O O14 0.500000 0.578766 0.000000
O O15 0.500000 0.864894 0.500000
#
# Coordination Sequence:
#
# PCOD9121418 Si02
#       6
#     4   4   4   4   4   4
#     4  10  21  37  63  89 124 167 209 261 305 371
#     4  10  19  33  60  91 118 163 210 250 318 372
#     4   9  19  35  61  90 118 161 209 257 308 371
#     4  11  22  37  60  91 126 163 205 258 310 369
#     4   9  19  38  62  91 123 165 210 255 315 368
#     4  11  21  39  61  90 122 164 215 250 313 369
#
# _framework density 20.303163999999999
#
# number of rings (size 3 to 8) (size 9 to 14) (size 15 to 20)
#    0.000    2.333    3.333    2.000    2.333    0.000 
#    0.000    9.167    0.000    0.000    0.000    0.000 
#    0.000    0.000    0.000    0.000    0.000    0.000 
#
# Total GULP energy -66836.264391 kJ/mol
# GULP energy per Si atom -5569.688699 kJ/mol
# Density = 2.025695 g / cm^3
# Si number density = 20.303164 Si / 1000 Ang^3
#
#
#
# Elastic Constant Matrix: (Units=GPa)
#
#
# Indices 1 2 3 4 5 6 
#
# 1 182.4231 60.4836 35.3165 -0.0008 34.5358 0.0003
# 2 60.4836 131.7276 16.4895 -0.0009 10.0421 -0.0013
# 3 35.3165 16.4895 74.1335 -0.0011 21.1573 -0.0009
# 4 -0.0008 -0.0009 -0.0011 13.9082 0.0007 10.2054
# 5 34.5358 10.0421 21.1573 0.0007 33.5225 0.0002
# 6 0.0003 -0.0013 -0.0009 10.2054 0.0002 98.6911
#
#
#
# Elastic Compliance Matrix: (Units=1/GPa)
#
#
# Indices 1 2 3 4 5 6 
#
# 1 0.007950 -0.002997 -0.001268 0.000001 -0.006492 0.000000
# 2 -0.002997 0.009002 -0.000837 0.000000 0.000919 0.000000
# 3 -0.001268 -0.000837 0.016875 0.000002 -0.009093 0.000000
# 4 0.000001 0.000000 0.000002 0.077804 -0.000003 -0.008046
# 5 -0.006492 0.000919 -0.009093 -0.000003 0.041983 0.000000
# 6 0.000000 0.000000 0.000000 -0.008046 0.000000 0.010965
#
#
# Mechanical properties :
#
#
# Convention : Reuss Voigt Hill
#
# Bulk Modulus (GPa) = 42.33050 68.09591 55.21321
# Shear Modulus (GPa) = 27.37399 47.62399 37.49899
#
# Velocity S-wave (km/s) = 3.67585 4.84844 4.30228
# Velocity P-wave (km/s) = 6.23781 8.05950 7.20645
#
# Compressibility (1/GPa) = 0.02362363
#
# Stress axis : x y z
#
# Youngs Moduli (GPa) = 125.78848 111.08565 59.26098
#
# Poissons Ratio (x) = 0.33288 0.07513
# Poissons Ratio (y) = 0.37694 0.04960
# Poissons Ratio (z) = 0.15948 0.09298
#
# Static dielectric constant tensor:
#      x y z
#    x 1.728890 0.000000 0.026670 
#    y 0.000000 1.832070 0.000000 
#    z 0.026670 0.000000 1.732170 
# 
# From -- ./inp_files/27862.got.cif
#   From: 2010.05.17/outbox.cif.g08.bks.cpg/sg5_14_cif.got.tgz:27862.got - 2010.06.03 18:56:24.
