data_PCOD9121243
_publ_section_title
;
Structure prediction by ZEFSAII (Michael W. Deem and Ramdas Pophale) SiO2 
 PCOD9121243
Probable space group: C 2
;
_chemical_formula_sum "Si O2"
_cell_formula_units_Z 24
_cell_length_a 14.552417
_cell_length_b 11.846473
_cell_length_c 5.623475
_cell_angle_alpha 90.000000
_cell_angle_beta 79.676166
_cell_angle_gamma 90.000000
_cell_volume 953.762966
_symmetry_space_group_name_H-M "C 2"
_symmetry_group_IT_number 5
_symmetry_cell_setting 'monoclinic'
loop_
_space_group_symop_operation_xyz
x,y,z
-x,y,-z
1/2+x,1/2+y,z
1/2-x,1/2+y,-z
loop_
_atom_site_type_symbol
_atom_site_label
_atom_site_fract_x
_atom_site_fract_y
_atom_site_fract_z
Si Si1 0.380890 0.779320 0.812944
Si Si2 0.605313 0.779253 0.693783
Si Si3 0.753123 0.506734 0.902284
Si Si4 0.897741 0.748652 0.512821
Si Si5 0.824757 0.536431 0.369750
Si Si6 0.888602 0.833542 0.020345
O O1 0.493264 0.794732 0.754520
O O2 0.363604 0.723097 0.566678
O O3 0.324333 0.897031 0.852718
O O4 0.362986 0.722366 0.075338
O O5 0.644950 0.906634 0.664691
O O6 0.759007 0.550928 0.630647
O O7 0.651303 0.457230 0.007601
O O8 0.788640 0.568582 0.124190
O O9 0.906977 0.620790 0.413423
O O10 0.849961 0.804133 0.303806
O O11 0.000000 0.800796 0.500000
O O12 0.857809 0.764679 0.796994
O O13 0.000000 0.823042 0.000000
#
# Coordination Sequence:
#
# PCOD9121243 Si02
#       6
#     4   4   4   4   4   4
#     4   8  14  23  36  61  89 127 144 195 237 284
#     4   8  14  23  36  61  99 119 142 189 243 304
#     4  10  19  31  50  72 105 132 183 223 245 306
#     4  10  21  34  53  77 113 149 163 207 277 341
#     4  10  19  30  50  80 105 132 171 219 262 313
#     4  10  21  38  51  73 111 149 179 208 266 328
#
# _framework density 25.163484
#
# number of rings (size 3 to 8) (size 9 to 14) (size 15 to 20)
#    0.000    2.667    0.000    2.000    4.667    0.000 
#    6.000    0.000    0.000    0.000    0.000    0.000 
#  100.000    0.000    0.000    0.000    0.000    0.000 
#
# Total GULP energy -66833.535195 kJ/mol
# GULP energy per Si atom -5569.461266 kJ/mol
# Density = 2.510621 g / cm^3
# Si number density = 25.163484 Si / 1000 Ang^3
#
#
#
# Elastic Constant Matrix: (Units=GPa)
#
#
# Indices 1 2 3 4 5 6 
#
# 1 78.5117 14.8744 50.0191 0.0000 -1.3441 0.0000
# 2 14.8744 38.3781 41.6093 0.0000 14.6271 0.0000
# 3 50.0191 41.6093 311.1880 0.0000 40.8811 0.0000
# 4 0.0000 0.0000 0.0000 33.7811 0.0000 -0.9594
# 5 -1.3441 14.6271 40.8811 0.0000 31.2627 0.0000
# 6 0.0000 0.0000 0.0000 -0.9594 0.0000 20.6293
#
#
#
# Elastic Compliance Matrix: (Units=1/GPa)
#
#
# Indices 1 2 3 4 5 6 
#
# 1 0.015632 -0.005807 -0.002634 0.000000 0.006833 0.000000
# 2 -0.005807 0.035972 -0.001971 0.000000 -0.014502 0.000000
# 3 -0.002634 -0.001971 0.004581 0.000000 -0.005182 0.000000
# 4 0.000000 0.000000 0.000000 0.029641 0.000000 0.001379
# 5 0.006833 -0.014502 -0.005182 0.000000 0.045842 0.000000
# 6 0.000000 0.000000 0.000000 0.001379 0.000000 0.048539
#
#
# Mechanical properties :
#
#
# Convention : Reuss Voigt Hill
#
# Bulk Modulus (GPa) = 28.28046 71.23149 49.75597
# Shear Modulus (GPa) = 23.49414 38.57295 31.03355
#
# Velocity S-wave (km/s) = 3.05890 3.91947 3.51561
# Velocity P-wave (km/s) = 4.87226 6.98941 6.02457
#
# Compressibility (1/GPa) = 0.03536011
#
# Stress axis : x y z
#
# Youngs Moduli (GPa) = 63.97049 27.79960 218.28745
#
# Poissons Ratio (x) = 0.16145 0.57494
# Poissons Ratio (y) = 0.37151 0.43028
# Poissons Ratio (z) = 0.16849 0.05480
#
# Static dielectric constant tensor:
#      x y z
#    x 1.950280 0.000000 -0.016390 
#    y 0.000000 2.014350 0.000000 
#    z -0.016390 0.000000 2.070680 
# 
# From -- ./inp_files/6877.got.cif
#   From: 2010.05.17/outbox.cif.g08.bks.cpg/sg5_4_cif.got.tgz:6877.got - 2010.06.03 18:56:24.
