data_PCOD9121374
_publ_section_title
;
Structure prediction by ZEFSAII (Michael W. Deem and Ramdas Pophale) SiO2 
 PCOD9121374
Probable space group: C 2
;
_chemical_formula_sum "Si O2"
_cell_formula_units_Z 28
_cell_length_a 13.729268
_cell_length_b 8.989077
_cell_length_c 11.336059
_cell_angle_alpha 90.000000
_cell_angle_beta 60.486755
_cell_angle_gamma 90.000000
_cell_volume 1217.487583
_symmetry_space_group_name_H-M "C 2"
_symmetry_group_IT_number 5
_symmetry_cell_setting 'monoclinic'
loop_
_space_group_symop_operation_xyz
x,y,z
-x,y,-z
1/2+x,1/2+y,z
1/2-x,1/2+y,-z
loop_
_atom_site_type_symbol
_atom_site_label
_atom_site_fract_x
_atom_site_fract_y
_atom_site_fract_z
Si Si1 0.077358 0.390110 0.109555
Si Si2 0.397313 0.284797 0.266571
Si Si3 0.987446 0.097755 0.212257
Si Si4 0.004227 0.542874 0.635122
Si Si5 0.329482 0.775605 0.466936
Si Si6 0.106480 0.024302 0.383224
Si Si7 0.162616 0.510165 0.835458
O O1 0.062601 0.214710 0.096312
O O2 0.086255 0.437810 0.241879
O O3 0.954561 0.448823 0.143137
O O4 0.164876 0.467046 0.970854
O O5 0.447316 0.438693 0.191799
O O6 0.486097 0.186286 0.287147
O O7 0.298632 0.302021 0.422336
O O8 0.348179 0.184438 0.189863
O O9 0.875774 0.183626 0.326845
O O10 0.065208 0.067552 0.279066
O O11 0.113291 0.436232 0.573013
O O12 0.000000 0.578885 0.500000
O O13 0.376172 0.670366 0.545416
O O14 0.000000 0.938717 0.500000
O O15 0.227726 0.951386 0.297159
#
# Coordination Sequence:
#
# PCOD9121374 Si02
#       7
#     4   4   4   4   4   4   4
#     4   9  19  38  60  80 114 165 206 234 290 359
#     4  10  20  33  54  87 118 150 195 248 292 339
#     4  10  19  33  56  88 117 146 196 250 293 344
#     4  10  19  33  55  84 116 149 192 240 288 342
#     4   9  17  33  55  82 120 158 188 228 291 356
#     4   9  18  33  59  91 122 153 192 243 294 344
#     4   9  19  39  61  80 118 166 198 234 293 360
#
# _framework density 22.998180000000001
#
# number of rings (size 3 to 8) (size 9 to 14) (size 15 to 20)
#    0.000    2.571    0.000    3.000    0.000    5.143 
#    0.000   11.429    0.000    8.571    0.000    0.000 
#    0.000    0.000    0.000    0.000    0.000    0.000 
#
# Total GULP energy -78011.932732 kJ/mol
# GULP energy per Si atom -5572.280909 kJ/mol
# Density = 2.294584 g / cm^3
# Si number density = 22.998180 Si / 1000 Ang^3
#
#
#
# Elastic Constant Matrix: (Units=GPa)
#
#
# Indices 1 2 3 4 5 6 
#
# 1 26.7735 3.5256 18.7491 0.0000 -10.7395 0.0000
# 2 3.5256 128.2921 40.0336 0.0000 -1.9898 0.0000
# 3 18.7491 40.0336 117.1180 0.0000 -0.3215 0.0000
# 4 0.0000 0.0000 0.0000 23.6085 0.0000 -3.8088
# 5 -10.7395 -1.9898 -0.3215 0.0000 30.0121 0.0000
# 6 0.0000 0.0000 0.0000 -3.8088 0.0000 13.2796
#
#
#
# Elastic Compliance Matrix: (Units=1/GPa)
#
#
# Indices 1 2 3 4 5 6 
#
# 1 0.050364 0.001563 -0.008547 0.000000 0.018034 0.000000
# 2 0.001563 0.008783 -0.003249 0.000000 0.001107 0.000000
# 3 -0.008547 -0.003249 0.011009 0.000000 -0.003156 0.000000
# 4 0.000000 0.000000 0.000000 0.044413 0.000000 0.012738
# 5 0.018034 0.001107 -0.003156 0.000000 0.039813 0.000000
# 6 0.000000 0.000000 0.000000 0.012738 0.000000 0.078957
#
#
# Mechanical properties :
#
#
# Convention : Reuss Voigt Hill
#
# Bulk Modulus (GPa) = 20.12553 44.08892 32.10723
# Shear Modulus (GPa) = 18.49324 27.37172 22.93248
#
# Velocity S-wave (km/s) = 2.83877 3.45363 3.16118
# Velocity P-wave (km/s) = 4.41755 5.92584 5.22639
#
# Compressibility (1/GPa) = 0.04968813
#
# Stress axis : x y z
#
# Youngs Moduli (GPa) = 19.85535 113.85770 90.83660
#
# Poissons Ratio (x) = -0.17795 0.77642
# Poissons Ratio (y) = -0.03103 0.29516
# Poissons Ratio (z) = 0.16971 0.36996
#
# Static dielectric constant tensor:
#      x y z
#    x 1.917160 0.000000 0.044440 
#    y 0.000000 1.903020 0.000000 
#    z 0.044440 0.000000 1.965260 
# 
# From -- ./inp_files/41891.got.cif
#   From: 2010.05.17/outbox.cif.g08.bks.cpg/sg5_21_cif.got.tgz:41891.got - 2010.06.03 18:56:24.
