data_PCOD9121032
_publ_section_title
;
Structure prediction by ZEFSAII (Michael W. Deem and Ramdas Pophale) SiO2 
 PCOD9121032
Probable space group: C 2
;
_chemical_formula_sum "Si O2"
_cell_formula_units_Z 26
_cell_length_a 17.336645
_cell_length_b 8.707352
_cell_length_c 7.262367
_cell_angle_alpha 90.000000
_cell_angle_beta 77.903118
_cell_angle_gamma 90.000000
_cell_volume 1071.956108
_symmetry_space_group_name_H-M "C 2"
_symmetry_group_IT_number 5
_symmetry_cell_setting 'monoclinic'
loop_
_space_group_symop_operation_xyz
x,y,z
-x,y,-z
1/2+x,1/2+y,z
1/2-x,1/2+y,-z
loop_
_atom_site_type_symbol
_atom_site_label
_atom_site_fract_x
_atom_site_fract_y
_atom_site_fract_z
Si Si1 0.147142 0.266080 0.087079
Si Si2 0.237761 0.567536 0.134255
Si Si3 0.899781 0.136850 0.519461
Si Si4 0.500000 0.162214 0.000000
Si Si5 0.382419 0.401119 0.229551
Si Si6 0.786205 0.638358 0.451615
Si Si7 0.582929 0.907592 0.752014
O O1 0.174202 0.438837 0.124810
O O2 0.097096 0.170516 0.262581
O O3 0.235197 0.189709 0.029128
O O4 0.100322 0.301362 0.921617
O O5 0.326459 0.507154 0.134442
O O6 0.205845 0.644350 0.333415
O O7 0.805681 0.124616 0.540550
O O8 0.930077 0.291245 0.407070
O O9 0.927899 0.996183 0.370400
O O10 0.430855 0.284996 0.075172
O O11 0.483098 0.037447 0.172249
O O12 0.319663 0.296344 0.364344
O O13 0.837448 0.501723 0.338276
#
# Coordination Sequence:
#
# PCOD9121032 Si02
#       7
#     4   4   4   2   4   4   4
#     4  12  23  37  65 104 130 160 206 265 333 376
#     4  11  23  35  65 101 133 162 203 265 328 383
#     4  11  20  38  64  96 126 158 208 269 327 365
#     4  10  26  44  70  82 124 188 220 250 310 380
#     4  10  21  41  64  92 129 173 211 253 319 381
#     4  10  18  38  62  94 133 161 199 260 327 374
#     4  11  22  42  64  92 128 171 211 261 307 383
#
# _framework density 24.254725000000001
#
# number of rings (size 3 to 8) (size 9 to 14) (size 15 to 20)
#    0.000    1.231    6.154    1.846    4.308    0.615 
#    0.000    0.769    3.385    0.000    0.000    0.000 
#    0.000    0.000    0.000    0.000    0.000    0.000 
#
# Total GULP energy -72483.090101 kJ/mol
# GULP energy per Si atom -5575.622315 kJ/mol
# Density = 2.419952 g / cm^3
# Si number density = 24.254725 Si / 1000 Ang^3
#
#
#
# Elastic Constant Matrix: (Units=GPa)
#
#
# Indices 1 2 3 4 5 6 
#
# 1 66.8148 23.7822 30.4460 0.0000 -22.9980 0.0000
# 2 23.7822 82.9577 17.7231 0.0000 -12.0867 0.0000
# 3 30.4460 17.7231 107.6661 0.0000 -1.8170 0.0000
# 4 0.0000 0.0000 0.0000 49.8838 0.0000 -20.5700
# 5 -22.9980 -12.0867 -1.8170 0.0000 36.6450 0.0000
# 6 0.0000 0.0000 0.0000 -20.5700 0.0000 27.4217
#
#
#
# Elastic Compliance Matrix: (Units=1/GPa)
#
#
# Indices 1 2 3 4 5 6 
#
# 1 0.023444 -0.003546 -0.005822 0.000000 0.013255 0.000000
# 2 -0.003546 0.013652 -0.001207 0.000000 0.002218 0.000000
# 3 -0.005822 -0.001207 0.011074 0.000000 -0.003503 0.000000
# 4 0.000000 0.000000 0.000000 0.029025 0.000000 0.021772
# 5 0.013255 0.002218 -0.003503 0.000000 0.036165 0.000000
# 6 0.000000 0.000000 0.000000 0.021772 0.000000 0.052800
#
#
# Mechanical properties :
#
#
# Convention : Reuss Voigt Hill
#
# Bulk Modulus (GPa) = 37.01002 44.59350 40.80176
# Shear Modulus (GPa) = 25.46898 35.15592 30.31245
#
# Velocity S-wave (km/s) = 3.24398 3.81129 3.53902
# Velocity P-wave (km/s) = 5.41509 6.14763 5.79295
#
# Compressibility (1/GPa) = 0.02701971
#
# Stress axis : x y z
#
# Youngs Moduli (GPa) = 42.65397 73.25010 90.30158
#
# Poissons Ratio (x) = 0.25974 0.52576
# Poissons Ratio (y) = 0.15125 0.10900
# Poissons Ratio (z) = 0.24834 0.08842
#
# Static dielectric constant tensor:
#      x y z
#    x 4.278730 0.000000 1.201850 
#    y 0.000000 1.973340 0.000000 
#    z 1.201850 0.000000 2.558330 
# 
# From -- ./inp_files/28693.got.cif
#   From: 2010.05.17/outbox.cif.g08.bks.cpg/sg5_15_cif.got.tgz:28693.got - 2010.06.03 18:56:24.
