data_PCOD9121894
_publ_section_title
;
Structure prediction by ZEFSAII (Michael W. Deem and Ramdas Pophale) SiO2 
 PCOD9121894
Probable space group: C 2
;
_chemical_formula_sum "Si O2"
_cell_formula_units_Z 28
_cell_length_a 28.692061
_cell_length_b 8.281133
_cell_length_c 9.661326
_cell_angle_alpha 90.000000
_cell_angle_beta 140.875486
_cell_angle_gamma 90.000000
_cell_volume 1448.514866
_symmetry_space_group_name_H-M "C 2"
_symmetry_group_IT_number 5
_symmetry_cell_setting 'monoclinic'
loop_
_space_group_symop_operation_xyz
x,y,z
-x,y,-z
1/2+x,1/2+y,z
1/2-x,1/2+y,-z
loop_
_atom_site_type_symbol
_atom_site_label
_atom_site_fract_x
_atom_site_fract_y
_atom_site_fract_z
Si Si1 0.669024 0.156880 0.014295
Si Si2 0.809329 0.476775 0.683396
Si Si3 0.169520 0.295367 0.540109
Si Si4 0.015115 0.826022 0.692503
Si Si5 0.546942 0.544647 0.223805
Si Si6 0.836581 0.807995 0.583276
Si Si7 0.367980 0.125640 0.390301
O O1 0.746840 0.242299 0.230913
O O2 0.662241 0.996846 0.094545
O O3 0.598372 0.263825 0.892730
O O4 0.663003 0.128493 0.836488
O O5 0.836458 0.344842 0.635970
O O6 0.826335 0.647920 0.650328
O O7 0.723210 0.436712 0.504373
O O8 0.144730 0.450960 0.571360
O O9 0.113356 0.150291 0.435845
O O10 0.000000 0.875722 0.500000
O O11 0.000136 0.972124 0.760938
O O12 0.953489 0.686364 0.581898
O O13 0.584362 0.392973 0.230083
O O14 0.500000 0.636487 0.000000
O O15 0.828110 0.751012 0.403830
#
# Coordination Sequence:
#
# PCOD9121894 Si02
#       7
#     4   4   4   4   4   4   4
#     4  11  21  37  66  86 119 157 204 238 303 360
#     4  11  20  36  59  86 122 151 199 248 299 342
#     4  11  24  39  60  91 122 151 206 255 295 349
#     4   9  21  42  61  84 119 162 196 239 305 366
#     4  11  22  38  62  86 120 156 202 246 303 353
#     4  10  19  37  56  87 119 156 194 248 293 356
#     4   9  23  39  61  85 123 159 197 246 304 360
#
# _framework density 19.330144000000001
#
# number of rings (size 3 to 8) (size 9 to 14) (size 15 to 20)
#    0.000    1.714    2.857    0.857    2.000    2.286 
#    0.000    5.000    0.000    0.000    0.000    0.000 
#    0.000    0.000    0.000    0.000    0.000    0.000 
#
# Total GULP energy -78059.937221 kJ/mol
# GULP energy per Si atom -5575.709801 kJ/mol
# Density = 1.928615 g / cm^3
# Si number density = 19.330144 Si / 1000 Ang^3
#
#
#
# Elastic Constant Matrix: (Units=GPa)
#
#
# Indices 1 2 3 4 5 6 
#
# 1 115.8237 30.6164 44.5469 0.0000 -11.1080 0.0000
# 2 30.6164 56.1354 27.8685 0.0000 -0.6922 0.0000
# 3 44.5469 27.8685 102.5365 0.0000 -2.6528 0.0000
# 4 0.0000 0.0000 0.0000 15.1771 0.0000 -0.0764
# 5 -11.1080 -0.6922 -2.6528 0.0000 30.1260 0.0000
# 6 0.0000 0.0000 0.0000 -0.0764 0.0000 29.3932
#
#
#
# Elastic Compliance Matrix: (Units=1/GPa)
#
#
# Indices 1 2 3 4 5 6 
#
# 1 0.011613 -0.004429 -0.003742 0.000000 0.003851 0.000000
# 2 -0.004429 0.022281 -0.004170 0.000000 -0.001488 0.000000
# 3 -0.003742 -0.004170 0.012502 0.000000 -0.000375 0.000000
# 4 0.000000 0.000000 0.000000 0.065890 0.000000 0.000171
# 5 0.003851 -0.001488 -0.000375 0.000000 0.034547 0.000000
# 6 0.000000 0.000000 0.000000 0.000171 0.000000 0.034022
#
#
# Mechanical properties :
#
#
# Convention : Reuss Voigt Hill
#
# Bulk Modulus (GPa) = 46.05188 53.39547 49.72368
# Shear Modulus (GPa) = 23.49902 26.37017 24.93460
#
# Velocity S-wave (km/s) = 3.49042 3.69751 3.59546
# Velocity P-wave (km/s) = 6.33401 6.77582 6.55863
#
# Compressibility (1/GPa) = 0.02171464
#
# Stress axis : x y z
#
# Youngs Moduli (GPa) = 86.11092 44.88039 79.98641
#
# Poissons Ratio (x) = 0.19875 0.29931
# Poissons Ratio (y) = 0.38134 0.33358
# Poissons Ratio (z) = 0.32223 0.18717
#
# Static dielectric constant tensor:
#      x y z
#    x 1.686310 0.000000 -0.015450 
#    y 0.000000 1.679810 0.000000 
#    z -0.015450 0.000000 1.681290 
# 
# From -- ./inp_files/26796.got.cif
#   From: 2010.05.17/outbox.cif.g08.bks.cpg/sg5_14_cif.got.tgz:26796.got - 2010.06.03 18:56:24.
