data_PCOD9121839
_publ_section_title
;
Structure prediction by ZEFSAII (Michael W. Deem and Ramdas Pophale) SiO2 
 PCOD9121839
Probable space group: C 2
;
_chemical_formula_sum "Si O2"
_cell_formula_units_Z 30
_cell_length_a 18.984841
_cell_length_b 6.445054
_cell_length_c 19.314406
_cell_angle_alpha 90.000000
_cell_angle_beta 41.312062
_cell_angle_gamma 90.000000
_cell_volume 1560.141404
_symmetry_space_group_name_H-M "C 2"
_symmetry_group_IT_number 5
_symmetry_cell_setting 'monoclinic'
loop_
_space_group_symop_operation_xyz
x,y,z
-x,y,-z
1/2+x,1/2+y,z
1/2-x,1/2+y,-z
loop_
_atom_site_type_symbol
_atom_site_label
_atom_site_fract_x
_atom_site_fract_y
_atom_site_fract_z
Si Si1 0.795812 0.887810 0.865555
Si Si2 0.387185 0.233123 0.669080
Si Si3 0.087987 0.543814 0.603303
Si Si4 0.886243 0.570194 0.913443
Si Si5 0.500000 0.589883 0.500000
Si Si6 0.904911 0.802438 0.261008
Si Si7 0.515113 0.687413 0.240684
Si Si8 0.821857 0.414101 0.597618
O O1 0.793348 0.782731 0.792477
O O2 0.825285 0.717895 0.902963
O O3 0.896801 0.043114 0.788370
O O4 0.692380 0.012170 0.966547
O O5 0.481860 0.129478 0.644002
O O6 0.436342 0.438835 0.598520
O O7 0.351884 0.077717 0.634742
O O8 0.110440 0.687763 0.653131
O O9 0.176159 0.527505 0.478585
O O10 0.059511 0.317032 0.653233
O O11 0.920929 0.358256 0.850392
O O12 0.997254 0.685201 0.848304
O O13 0.413643 0.740145 0.528565
O O14 0.792418 0.810579 0.306291
O O15 0.945016 0.034769 0.245932
#
# Coordination Sequence:
#
# PCOD9121839 Si02
#       8
#     4   4   4   4   2   4   4   4
#     4  11  20  35  66  99 121 161 215 278 325 377
#     4  12  23  40  63 100 127 167 226 254 329 399
#     4  11  21  39  60  95 126 166 219 253 322 398
#     4  10  20  37  62  98 122 160 216 276 331 376
#     4  12  24  42  66  84 132 180 212 262 318 400
#     4  10  25  39  61  94 132 167 217 267 332 383
#     4  10  19  36  63  90 128 155 203 274 323 375
#     4  12  26  41  60  93 135 178 211 274 314 402
#
# _framework density 19.229026000000001
#
# number of rings (size 3 to 8) (size 9 to 14) (size 15 to 20)
#    0.000    1.067    8.000    0.800    1.867    2.133 
#    0.000    0.000    0.000    4.800    0.000    0.000 
#    0.000    0.000    0.000    0.000    0.000    0.000 
#
# Total GULP energy -83775.094822 kJ/mol
# GULP energy per Si atom -5585.006321 kJ/mol
# Density = 1.918526 g / cm^3
# Si number density = 19.229026 Si / 1000 Ang^3
#
#
#
# Elastic Constant Matrix: (Units=GPa)
#
#
# Indices 1 2 3 4 5 6 
#
# 1 54.5621 30.8823 29.9491 0.0004 -15.4090 -0.0002
# 2 30.8823 101.8797 31.8061 0.0012 0.0926 -0.0005
# 3 29.9491 31.8061 111.0165 0.0004 1.3943 -0.0003
# 4 0.0004 0.0012 0.0004 36.2543 -0.0006 -2.3504
# 5 -15.4090 0.0926 1.3943 -0.0006 25.7324 0.0002
# 6 -0.0002 -0.0005 -0.0003 -2.3504 0.0002 11.9501
#
#
#
# Elastic Compliance Matrix: (Units=1/GPa)
#
#
# Indices 1 2 3 4 5 6 
#
# 1 0.031724 -0.007563 -0.006635 0.000000 0.019384 0.000000
# 2 -0.007563 0.012583 -0.001508 0.000000 -0.004492 0.000000
# 3 -0.006635 -0.001508 0.011287 0.000000 -0.004579 0.000000
# 4 0.000000 0.000000 0.000000 0.027939 0.000001 0.005495
# 5 0.019384 -0.004492 -0.004579 0.000001 0.050733 -0.000001
# 6 0.000000 0.000000 0.000000 0.005495 -0.000001 0.084762
#
#
# Mechanical properties :
#
#
# Convention : Reuss Voigt Hill
#
# Bulk Modulus (GPa) = 41.35248 50.30373 45.82810
# Shear Modulus (GPa) = 19.34217 26.44206 22.89212
#
# Velocity S-wave (km/s) = 3.17501 3.71227 3.45410
# Velocity P-wave (km/s) = 5.91547 6.67770 6.30811
#
# Compressibility (1/GPa) = 0.02418235
#
# Stress axis : x y z
#
# Youngs Moduli (GPa) = 31.52142 79.47276 88.59517
#
# Poissons Ratio (x) = 0.60103 0.58784
# Poissons Ratio (y) = 0.23839 0.13364
# Poissons Ratio (z) = 0.20915 0.11988
#
# Static dielectric constant tensor:
#      x y z
#    x 1.659370 0.000000 0.006440 
#    y 0.000000 1.681520 0.000000 
#    z 0.006440 0.000000 1.699340 
# 
# From -- ./inp_files/66922.got.cif
#   From: 2010.05.17/outbox.cif.g08.bks.cpg/sg5_34_cif.got.tgz:66922.got - 2010.06.03 18:56:24.
