data_PCOD9121456
_publ_section_title
;
Structure prediction by ZEFSAII (Michael W. Deem and Ramdas Pophale) SiO2 
 PCOD9121456
Probable space group: C 2
;
_chemical_formula_sum "Si O2"
_cell_formula_units_Z 30
_cell_length_a 14.014149
_cell_length_b 7.049065
_cell_length_c 20.939156
_cell_angle_alpha 90.000000
_cell_angle_beta 38.212065
_cell_angle_gamma 90.000000
_cell_volume 1279.525613
_symmetry_space_group_name_H-M "C 2"
_symmetry_group_IT_number 5
_symmetry_cell_setting 'monoclinic'
loop_
_space_group_symop_operation_xyz
x,y,z
-x,y,-z
1/2+x,1/2+y,z
1/2-x,1/2+y,-z
loop_
_atom_site_type_symbol
_atom_site_label
_atom_site_fract_x
_atom_site_fract_y
_atom_site_fract_z
Si Si1 0.930926 0.861270 0.101242
Si Si2 0.891355 0.494027 0.748389
Si Si3 0.249901 0.831469 0.109336
Si Si4 0.000000 0.174891 0.500000
Si Si5 0.391681 0.057127 0.608951
Si Si6 0.834442 0.525487 0.315935
Si Si7 0.528154 0.935548 0.890641
Si Si8 0.439549 0.461758 0.235386
O O1 0.001205 0.656718 0.077544
O O2 0.962920 0.982555 0.147066
O O3 0.745483 0.846087 0.192999
O O4 0.000000 0.940497 0.000000
O O5 0.822037 0.625197 0.841016
O O6 0.901950 0.614982 0.677046
O O7 0.059797 0.437900 0.683710
O O8 0.106001 0.977359 0.180034
O O9 0.355353 0.868235 0.115563
O O10 0.361380 0.842550 0.989651
O O11 0.047412 0.334639 0.421521
O O12 0.153606 0.049229 0.426415
O O13 0.500000 0.151594 0.500000
O O14 0.220595 0.069495 0.669551
O O15 0.888088 0.429108 0.221462
O O16 0.886460 0.745852 0.278899
#
# Coordination Sequence:
#
# PCOD9121456 Si02
#       8
#     4   4   4   2   4   4   4   4
#     4  10  19  34  55  83 108 152 196 241 266 355
#     4  10  21  35  60  87 118 144 203 240 296 329
#     4  10  20  37  54  82 120 161 178 241 295 350
#     4   8  16  36  66  78 116 154 190 238 304 324
#     4   8  16  35  61  83 108 148 195 241 284 348
#     4   9  18  36  57  87 111 151 189 246 276 361
#     4  10  21  38  54  79 123 155 197 225 295 351
#     4   8  17  33  55  79 110 146 197 227 291 335
#
# _framework density 23.446190999999999
#
# number of rings (size 3 to 8) (size 9 to 14) (size 15 to 20)
#    0.400    2.400    1.333    0.800    3.733    0.000 
#    2.400    2.667    4.400    0.000    0.000    0.000 
#    0.000    0.000    0.000    0.000    0.000    0.000 
#
# Total GULP energy -83614.541497 kJ/mol
# GULP energy per Si atom -5574.302766 kJ/mol
# Density = 2.339283 g / cm^3
# Si number density = 23.446191 Si / 1000 Ang^3
#
#
#
# Elastic Constant Matrix: (Units=GPa)
#
#
# Indices 1 2 3 4 5 6 
#
# 1 91.8518 0.6008 50.2734 0.0000 -29.4013 0.0000
# 2 0.6008 44.9636 28.4637 0.0000 -4.4830 0.0000
# 3 50.2734 28.4637 155.3606 0.0000 -29.5307 0.0000
# 4 0.0000 0.0000 0.0000 30.0687 0.0000 0.7210
# 5 -29.4013 -4.4830 -29.5307 0.0000 30.9410 0.0000
# 6 0.0000 0.0000 0.0000 0.7210 0.0000 20.1175
#
#
#
# Elastic Compliance Matrix: (Units=1/GPa)
#
#
# Indices 1 2 3 4 5 6 
#
# 1 0.017103 0.003395 -0.003633 0.000000 0.013277 0.000000
# 2 0.003395 0.025853 -0.005509 0.000000 0.001713 0.000000
# 3 -0.003633 -0.005509 0.009545 0.000000 0.004860 0.000000
# 4 0.000000 0.000000 0.000000 0.033286 0.000000 -0.001193
# 5 0.013277 0.001713 0.004860 0.000000 0.049822 0.000000
# 6 0.000000 0.000000 0.000000 -0.001193 0.000000 0.049751
#
#
# Mechanical properties :
#
#
# Convention : Reuss Voigt Hill
#
# Bulk Modulus (GPa) = 24.38606 50.09465 37.24036
# Shear Modulus (GPa) = 23.75023 30.41464 27.08243
#
# Velocity S-wave (km/s) = 3.18617 3.60559 3.40235
# Velocity P-wave (km/s) = 4.89479 6.22462 5.59932
#
# Compressibility (1/GPa) = 0.04100703
#
# Stress axis : x y z
#
# Youngs Moduli (GPa) = 58.46923 38.67963 104.76306
#
# Poissons Ratio (x) = -0.13131 0.38058
# Poissons Ratio (y) = -0.19850 0.57719
# Poissons Ratio (z) = 0.21241 0.21310
#
# Static dielectric constant tensor:
#      x y z
#    x 1.871370 0.000000 -0.020780 
#    y 0.000000 1.984030 0.000000 
#    z -0.020780 0.000000 1.919220 
# 
# From -- ./inp_files/68702.got.cif
#   From: 2010.05.17/outbox.cif.g08.bks.cpg/sg5_35_cif.got.tgz:68702.got - 2010.06.03 18:56:24.
