data_PCOD9121672
_publ_section_title
;
Structure prediction by ZEFSAII (Michael W. Deem and Ramdas Pophale) SiO2 
 PCOD9121672
Probable space group: C 2
;
_chemical_formula_sum "Si O2"
_cell_formula_units_Z 32
_cell_length_a 11.269176
_cell_length_b 8.662195
_cell_length_c 31.159649
_cell_angle_alpha 90.000000
_cell_angle_beta 30.833165
_cell_angle_gamma 90.000000
_cell_volume 1558.979559
_symmetry_space_group_name_H-M "C 2"
_symmetry_group_IT_number 5
_symmetry_cell_setting 'monoclinic'
loop_
_space_group_symop_operation_xyz
x,y,z
-x,y,-z
1/2+x,1/2+y,z
1/2-x,1/2+y,-z
loop_
_atom_site_type_symbol
_atom_site_label
_atom_site_fract_x
_atom_site_fract_y
_atom_site_fract_z
Si Si1 0.318331 0.895850 0.701794
Si Si2 0.419641 0.722284 0.975663
Si Si3 0.502363 0.022777 0.894285
Si Si4 0.769159 0.059975 0.188355
Si Si5 0.016887 0.129806 0.740170
Si Si6 0.712251 0.365037 0.405747
Si Si7 0.087996 0.333575 0.794322
Si Si8 0.257734 0.561670 0.680611
O O1 0.585580 0.937480 0.627557
O O2 0.315324 0.725297 0.682973
O O3 0.205093 0.920936 0.784770
O O4 0.185163 0.004468 0.709746
O O5 0.554325 0.594614 0.904822
O O6 0.470777 0.892788 0.940701
O O7 0.500000 0.717761 0.000000
O O8 0.153084 0.673175 0.052188
O O9 0.773352 0.056769 0.803214
O O10 0.428032 0.941064 0.872909
O O11 0.798230 0.208709 0.209988
O O12 0.514144 0.061287 0.247640
O O13 0.156663 0.228921 0.661482
O O14 0.953810 0.244878 0.798801
O O15 0.500000 0.308522 0.500000
O O16 0.626786 0.494002 0.398145
O O17 0.280680 0.432821 0.710060
#
# Coordination Sequence:
#
# PCOD9121672 Si02
#       8
#     4   4   4   4   4   4   4   4
#     4  10  20  37  63  86 115 156 198 246 300 360
#     4  11  25  39  57  87 124 159 205 260 307 352
#     4  11  24  39  58  87 119 160 209 253 300 358
#     4   9  20  37  54  81 114 150 198 244 289 355
#     4  10  22  41  63  86 119 163 202 243 302 365
#     4  10  23  40  60  92 125 154 198 252 307 371
#     4   9  19  36  56  79 110 148 193 239 290 351
#     4  10  19  35  62  86 111 152 195 241 300 358
#
# _framework density 20.526247000000001
#
# number of rings (size 3 to 8) (size 9 to 14) (size 15 to 20)
#    0.000    2.000    0.000    3.000    0.000   11.000 
#    0.000    0.625    0.000    0.000    0.000    0.000 
#    0.000    0.000    0.000    0.000    0.000    0.000 
#
# Total GULP energy -89237.921865 kJ/mol
# GULP energy per Si atom -5577.370117 kJ/mol
# Density = 2.047953 g / cm^3
# Si number density = 20.526247 Si / 1000 Ang^3
#
#
#
# Elastic Constant Matrix: (Units=GPa)
#
#
# Indices 1 2 3 4 5 6 
#
# 1 98.0755 33.6588 54.3953 -0.0072 14.3568 0.0028
# 2 33.6588 82.1294 31.7227 -0.0116 15.9158 0.0033
# 3 54.3953 31.7227 102.9682 -0.0307 8.5677 0.0138
# 4 -0.0072 -0.0116 -0.0307 27.5942 -0.0026 5.0682
# 5 14.3568 15.9158 8.5677 -0.0026 20.9042 0.0011
# 6 0.0028 0.0033 0.0138 5.0682 0.0011 22.0750
#
#
#
# Elastic Compliance Matrix: (Units=1/GPa)
#
#
# Indices 1 2 3 4 5 6 
#
# 1 0.015913 -0.002610 -0.007100 -0.000006 -0.006031 0.000005
# 2 -0.002610 0.016145 -0.002817 0.000002 -0.009345 0.000000
# 3 -0.007100 -0.002817 0.014232 0.000015 0.001189 -0.000011
# 4 -0.000006 0.000002 0.000015 0.037835 0.000002 -0.008686
# 5 -0.006031 -0.009345 0.001189 0.000002 0.058607 -0.000002
# 6 0.000005 0.000000 -0.000011 -0.008686 -0.000002 0.047295
#
#
# Mechanical properties :
#
#
# Convention : Reuss Voigt Hill
#
# Bulk Modulus (GPa) = 47.09550 58.08075 52.58812
# Shear Modulus (GPa) = 22.50627 25.00775 23.75701
#
# Velocity S-wave (km/s) = 3.31488 3.49425 3.40574
# Velocity P-wave (km/s) = 6.13556 6.68109 6.41413
#
# Compressibility (1/GPa) = 0.02123345
#
# Stress axis : x y z
#
# Youngs Moduli (GPa) = 62.84170 61.93940 70.26515
#
# Poissons Ratio (x) = 0.16167 0.49891
# Poissons Ratio (y) = 0.16403 0.19797
# Poissons Ratio (z) = 0.44620 0.17451
#
# Static dielectric constant tensor:
#      x y z
#    x 1.747930 0.000000 0.029510 
#    y 0.000000 1.806290 0.000000 
#    z 0.029510 0.000000 1.733620 
# 
# From -- ./inp_files/71755.got.cif
#   From: 2010.05.17/outbox.cif.g08.bks.cpg/sg5_36_cif.got.tgz:71755.got - 2010.06.03 18:56:24.
