data_PCOD9121161
_publ_section_title
;
Structure prediction by ZEFSAII (Michael W. Deem and Ramdas Pophale) SiO2 
 PCOD9121161
Probable space group: C 2
;
_chemical_formula_sum "Si O2"
_cell_formula_units_Z 30
_cell_length_a 11.694606
_cell_length_b 10.973512
_cell_length_c 14.972673
_cell_angle_alpha 90.000000
_cell_angle_beta 126.236158
_cell_angle_gamma 90.000000
_cell_volume 1549.822742
_symmetry_space_group_name_H-M "C 2"
_symmetry_group_IT_number 5
_symmetry_cell_setting 'monoclinic'
loop_
_space_group_symop_operation_xyz
x,y,z
-x,y,-z
1/2+x,1/2+y,z
1/2-x,1/2+y,-z
loop_
_atom_site_type_symbol
_atom_site_label
_atom_site_fract_x
_atom_site_fract_y
_atom_site_fract_z
Si Si1 0.261634 0.053630 0.777971
Si Si2 0.013814 0.876644 0.608752
Si Si3 0.500000 0.948851 0.000000
Si Si4 0.773796 0.022029 0.570759
Si Si5 0.975785 0.209317 0.892371
Si Si6 0.478974 0.706629 0.280897
Si Si7 0.333744 0.130371 0.298965
Si Si8 0.943075 0.489881 0.689279
O O1 0.168690 0.176678 0.739086
O O2 0.140125 0.950274 0.714638
O O3 0.358670 0.037592 0.735833
O O4 0.365424 0.027871 0.909100
O O5 0.058738 0.736993 0.624204
O O6 0.000000 0.922648 0.500000
O O7 0.869494 0.902762 0.595576
O O8 0.476263 0.849434 0.068359
O O9 0.705217 0.042920 0.636041
O O10 0.891101 0.130009 0.616937
O O11 0.653145 0.022135 0.440860
O O12 0.809223 0.197864 0.796748
O O13 0.042883 0.161709 0.832005
O O14 0.000000 0.147736 0.000000
O O15 0.529110 0.845391 0.298401
O O16 0.407008 0.055496 0.254443
#
# Coordination Sequence:
#
# PCOD9121161 Si02
#       8
#     4   4   2   4   4   4   4   4
#     4  11  22  39  63  94 116 166 211 252 315 369
#     4  11  19  37  63  82 120 161 211 253 302 375
#     4  10  18  40  68  86 116 156 220 256 304 380
#     4  10  23  37  59  88 118 166 207 253 304 374
#     4   9  18  40  65  84 113 160 205 259 309 358
#     4  10  23  40  60  91 128 154 213 261 297 384
#     4  11  23  37  58  93 123 162 211 254 314 374
#     4  12  22  39  57  87 134 165 200 256 317 369
#
# _framework density 19.357051999999999
#
# number of rings (size 3 to 8) (size 9 to 14) (size 15 to 20)
#    0.400    1.067    4.000    2.000    1.867    2.133 
#    2.400    0.000    1.467    0.000    0.000    0.000 
#    0.000    0.000    0.000    0.000    0.000    0.000 
#
# Total GULP energy -83592.703131 kJ/mol
# GULP energy per Si atom -5572.846875 kJ/mol
# Density = 1.931299 g / cm^3
# Si number density = 19.357052 Si / 1000 Ang^3
#
#
#
# Elastic Constant Matrix: (Units=GPa)
#
#
# Indices 1 2 3 4 5 6 
#
# 1 114.7922 44.5666 13.4199 0.0000 4.5283 0.0000
# 2 44.5666 44.9834 26.8776 0.0000 -1.4864 0.0000
# 3 13.4199 26.8776 91.1369 0.0000 1.0944 0.0000
# 4 0.0000 0.0000 0.0000 19.9635 0.0000 0.7667
# 5 4.5283 -1.4864 1.0944 0.0000 20.0120 0.0000
# 6 0.0000 0.0000 0.0000 0.7667 0.0000 17.6577
#
#
#
# Elastic Compliance Matrix: (Units=1/GPa)
#
#
# Indices 1 2 3 4 5 6 
#
# 1 0.015085 -0.016766 0.002781 0.000000 -0.004811 0.000000
# 2 -0.016766 0.045740 -0.011114 0.000000 0.007799 0.000000
# 3 0.002781 -0.011114 0.013867 0.000000 -0.002213 0.000000
# 4 0.000000 0.000000 0.000000 0.050175 0.000000 -0.002179
# 5 -0.004811 0.007799 -0.002213 0.000000 0.051759 0.000000
# 6 0.000000 0.000000 0.000000 -0.002179 0.000000 0.056727
#
#
# Mechanical properties :
#
#
# Convention : Reuss Voigt Hill
#
# Bulk Modulus (GPa) = 40.82675 46.73786 43.78231
# Shear Modulus (GPa) = 17.13994 22.59654 19.86824
#
# Velocity S-wave (km/s) = 2.97890 3.42036 3.20724
# Velocity P-wave (km/s) = 5.74186 6.30841 6.03179
#
# Compressibility (1/GPa) = 0.02449374
#
# Stress axis : x y z
#
# Youngs Moduli (GPa) = 66.28975 21.86288 72.11216
#
# Poissons Ratio (x) = 0.36656 -0.20055
# Poissons Ratio (y) = 1.11142 0.80146
# Poissons Ratio (z) = -0.18435 0.24299
#
# Static dielectric constant tensor:
#      x y z
#    x 1.695390 0.000000 -0.013340 
#    y 0.000000 1.702570 0.000000 
#    z -0.013340 0.000000 1.689450 
# 
# From -- ./inp_files/52888.got.cif
#   From: 2010.05.17/outbox.cif.g08.bks.cpg/sg5_27_cif.got.tgz:52888.got - 2010.06.03 18:56:24.
