data_PCOD9121878
_publ_section_title
;
Structure prediction by ZEFSAII (Michael W. Deem and Ramdas Pophale) SiO2 
 PCOD9121878
Probable space group: C 2
;
_chemical_formula_sum "Si O2"
_cell_formula_units_Z 32
_cell_length_a 8.164256
_cell_length_b 23.862073
_cell_length_c 13.508168
_cell_angle_alpha 90.000000
_cell_angle_beta 31.716553
_cell_angle_gamma 90.000000
_cell_volume 1383.482326
_symmetry_space_group_name_H-M "C 2"
_symmetry_group_IT_number 5
_symmetry_cell_setting 'monoclinic'
loop_
_space_group_symop_operation_xyz
x,y,z
-x,y,-z
1/2+x,1/2+y,z
1/2-x,1/2+y,-z
loop_
_atom_site_type_symbol
_atom_site_label
_atom_site_fract_x
_atom_site_fract_y
_atom_site_fract_z
Si Si1 0.619813 0.609060 0.588055
Si Si2 0.842003 0.352888 0.361339
Si Si3 0.503917 0.729686 0.692725
Si Si4 0.824035 0.926572 0.196947
Si Si5 0.483873 0.099622 0.785745
Si Si6 0.673880 0.528544 0.105955
Si Si7 0.229308 0.339989 0.959959
Si Si8 0.834839 0.719097 0.928917
O O1 0.692543 0.674711 0.564513
O O2 0.304450 0.605269 0.684291
O O3 0.905399 0.583492 0.380233
O O4 0.516499 0.576373 0.738155
O O5 0.500000 0.365046 0.500000
O O6 0.850092 0.290349 0.404394
O O7 0.975586 0.406498 0.351299
O O8 0.065180 0.343123 0.151330
O O9 0.172717 0.725522 0.807070
O O10 0.416477 0.720325 0.853073
O O11 0.954074 0.872103 0.186708
O O12 0.943009 0.977453 0.202543
O O13 0.000000 0.932607 0.000000
O O14 0.332797 0.161072 0.871869
O O15 0.281892 0.054152 0.945922
O O16 0.000000 0.516347 0.000000
O O17 0.292486 0.276865 0.893124
O O18 0.000000 0.368287 0.000000
#
# Coordination Sequence:
#
# PCOD9121878 Si02
#       8
#     4   4   4   4   4   4   4   4
#     4   9  17  30  57  98 138 174 218 276 340 409
#     4  10  21  38  64  94 131 173 223 281 343 398
#     4   9  15  30  57  89 130 178 214 265 338 412
#     4  10  21  41  68  91 125 183 235 275 332 411
#     4   9  17  30  55  98 139 174 224 269 336 406
#     4  10  19  36  66  98 132 184 229 276 340 404
#     4  10  20  36  62  94 129 174 223 264 331 415
#     4   9  15  29  55  91 130 176 218 262 326 418
#
# _framework density 23.130039
#
# number of rings (size 3 to 8) (size 9 to 14) (size 15 to 20)
#    0.000    2.500    2.500    0.375    0.000    1.000 
#    0.000    1.250   35.750    0.000    0.000    0.000 
#    0.000    0.000    0.000    0.000    0.000    0.000 
#
# Total GULP energy -89329.917973 kJ/mol
# GULP energy per Si atom -5583.119873 kJ/mol
# Density = 2.307739 g / cm^3
# Si number density = 23.130039 Si / 1000 Ang^3
#
#
#
# Elastic Constant Matrix: (Units=GPa)
#
#
# Indices 1 2 3 4 5 6 
#
# 1 63.0053 30.6745 21.8400 0.0000 -19.9411 0.0000
# 2 30.6745 117.2161 38.2366 0.0000 -17.1631 0.0000
# 3 21.8400 38.2366 77.3106 0.0000 -3.4659 0.0000
# 4 0.0000 0.0000 0.0000 2.0498 0.0000 -7.7331
# 5 -19.9411 -17.1631 -3.4659 0.0000 25.9811 0.0000
# 6 0.0000 0.0000 0.0000 -7.7331 0.0000 15.5370
#
#
#
# Elastic Compliance Matrix: (Units=1/GPa)
#
#
# Indices 1 2 3 4 5 6 
#
# 1 0.023755 -0.002275 -0.004865 0.000000 0.016081 0.000000
# 2 -0.002275 0.011446 -0.004786 0.000000 0.005177 0.000000
# 3 -0.004865 -0.004786 0.016466 0.000000 -0.004699 0.000000
# 4 0.000000 0.000000 0.000000 -0.555829 0.000000 -0.276647
# 5 0.016081 0.005177 -0.004699 0.000000 0.053625 0.000000
# 6 0.000000 0.000000 0.000000 -0.276647 0.000000 -0.073330
#
#
# Mechanical properties :
#
#
# Convention : Reuss Voigt Hill
#
# Bulk Modulus (GPa) = 35.95206 48.78158 42.36682
# Shear Modulus (GPa) = -10.18860 19.83230 4.82185
#
# Velocity S-wave (km/s) = -2.10107 2.93136 1.44540
# Velocity P-wave (km/s) = 3.11307 5.70904 4.59806
#
# Compressibility (1/GPa) = 0.02781481
#
# Stress axis : x y z
#
# Youngs Moduli (GPa) = 42.09627 87.36785 60.73265
#
# Poissons Ratio (x) = 0.19877 0.29544
# Poissons Ratio (y) = 0.09577 0.29068
# Poissons Ratio (z) = 0.20478 0.41816
#
# Static dielectric constant tensor:
#      x y z
#    x 1.916850 0.000000 0.002010 
#    y 0.000000 1.863590 0.000000 
#    z 0.002010 0.000000 1.855660 
# 
# From -- ./inp_files/51680.got.cif
#   From: 2010.05.17/outbox.cif.g08.bks.cpg/sg5_26_cif.got.tgz:51680.got - 2010.06.03 18:56:24.
