data_PCOD9121314
_publ_section_title
;
Structure prediction by ZEFSAII (Michael W. Deem and Ramdas Pophale) SiO2 
 PCOD9121314
Probable space group: C 2
;
_chemical_formula_sum "Si O2"
_cell_formula_units_Z 32
_cell_length_a 23.442451
_cell_length_b 5.030429
_cell_length_c 13.564604
_cell_angle_alpha 90.000000
_cell_angle_beta 111.505510
_cell_angle_gamma 90.000000
_cell_volume 1488.252457
_symmetry_space_group_name_H-M "C 2"
_symmetry_group_IT_number 5
_symmetry_cell_setting 'monoclinic'
loop_
_space_group_symop_operation_xyz
x,y,z
-x,y,-z
1/2+x,1/2+y,z
1/2-x,1/2+y,-z
loop_
_atom_site_type_symbol
_atom_site_label
_atom_site_fract_x
_atom_site_fract_y
_atom_site_fract_z
Si Si1 0.552213 0.797140 0.907046
Si Si2 0.648959 0.502988 0.771580
Si Si3 0.724739 0.484380 0.432281
Si Si4 0.411205 0.820231 0.858790
Si Si5 0.215299 0.086659 0.007781
Si Si6 0.896455 0.797858 0.720540
Si Si7 0.227156 0.500349 0.758340
Si Si8 0.963943 0.782990 0.223576
O O1 0.483278 0.891030 0.891588
O O2 0.540926 0.493068 0.869621
O O3 0.566165 0.001972 0.827407
O O4 0.597041 0.822995 0.028763
O O5 0.677873 0.767905 0.745467
O O6 0.577908 0.420409 0.719250
O O7 0.690536 0.270442 0.754234
O O8 0.660925 0.523362 0.897965
O O9 0.733817 0.774128 0.483015
O O10 0.655045 0.381446 0.389479
O O11 0.744816 0.485810 0.331327
O O12 0.401769 0.536360 0.802901
O O13 0.377299 0.038595 0.771294
O O14 0.219672 0.999024 0.123915
O O15 0.268629 0.896709 0.994559
O O16 0.963281 0.755843 0.712809
#
# Coordination Sequence:
#
# PCOD9121314 Si02
#       8
#     4   4   4   4   4   4   4   4
#     4   9  17  28  46  79 122 161 189 216 261 341
#     4  10  19  35  58  88 121 153 184 220 278 351
#     4  12  26  45  66  85 108 147 202 261 307 340
#     4   9  17  31  50  78 117 155 192 227 273 339
#     4   8  16  30  50  79 114 149 184 217 260 329
#     4  10  21  37  57  82 110 147 193 245 303 347
#     4  10  21  38  59  83 114 152 194 237 281 336
#     4  10  19  32  54  84 120 156 186 227 287 350
#
# _framework density 21.501729000000001
#
# number of rings (size 3 to 8) (size 9 to 14) (size 15 to 20)
#    0.000    2.250    0.000    3.000    0.000    5.000 
#    0.000    5.000    0.000    4.500    0.000    0.000 
#    0.000    0.000    0.000    0.000    0.000    0.000 
#
# Total GULP energy -89290.015216 kJ/mol
# GULP energy per Si atom -5580.625951 kJ/mol
# Density = 2.145279 g / cm^3
# Si number density = 21.501729 Si / 1000 Ang^3
#
#
#
# Elastic Constant Matrix: (Units=GPa)
#
#
# Indices 1 2 3 4 5 6 
#
# 1 68.0989 -15.2722 25.4699 0.0000 5.7402 0.0000
# 2 -15.2722 82.7395 0.6995 0.0000 -6.1061 0.0000
# 3 25.4699 0.6995 53.7479 0.0000 -9.2028 0.0000
# 4 0.0000 0.0000 0.0000 25.0035 0.0000 5.2139
# 5 5.7402 -6.1061 -9.2028 0.0000 25.1438 0.0000
# 6 0.0000 0.0000 0.0000 5.2139 0.0000 12.6503
#
#
#
# Elastic Compliance Matrix: (Units=1/GPa)
#
#
# Indices 1 2 3 4 5 6 
#
# 1 0.020159 0.003236 -0.010933 0.000000 -0.007818 0.000000
# 2 0.003236 0.012833 -0.001380 0.000000 0.001873 0.000000
# 3 -0.010933 -0.001380 0.025791 0.000000 0.011600 0.000000
# 4 0.000000 0.000000 0.000000 0.043755 0.000000 -0.018034
# 5 -0.007818 0.001873 0.011600 0.000000 0.046257 0.000000
# 6 0.000000 0.000000 0.000000 -0.018034 0.000000 0.086483
#
#
# Mechanical properties :
#
#
# Convention : Reuss Voigt Hill
#
# Bulk Modulus (GPa) = 24.61327 25.15343 24.88335
# Shear Modulus (GPa) = 18.72844 25.47211 22.10028
#
# Velocity S-wave (km/s) = 2.95451 3.44561 3.20947
# Velocity P-wave (km/s) = 4.80737 5.24913 5.03310
#
# Compressibility (1/GPa) = 0.04062848
#
# Stress axis : x y z
#
# Youngs Moduli (GPa) = 49.60672 77.92191 38.77371
#
# Poissons Ratio (x) = -0.25219 0.42393
# Poissons Ratio (y) = -0.16055 0.05351
# Poissons Ratio (z) = 0.54237 0.10754
#
# Static dielectric constant tensor:
#      x y z
#    x 1.894920 0.000000 0.000690 
#    y 0.000000 1.768980 0.000000 
#    z 0.000690 0.000000 1.795950 
# 
# From -- ./inp_files/47054.got.cif
#   From: 2010.05.17/outbox.cif.g08.bks.cpg/sg5_24_cif.got.tgz:47054.got - 2010.06.03 18:56:24.
