data_PCOD9121199
_publ_section_title
;
Structure prediction by ZEFSAII (Michael W. Deem and Ramdas Pophale) SiO2 
 PCOD9121199
Probable space group: C 2
;
_chemical_formula_sum "Si O2"
_cell_formula_units_Z 24
_cell_length_a 10.171470
_cell_length_b 9.568618
_cell_length_c 10.554751
_cell_angle_alpha 90.000000
_cell_angle_beta 75.136044
_cell_angle_gamma 90.000000
_cell_volume 992.886730
_symmetry_space_group_name_H-M "C 2"
_symmetry_group_IT_number 5
_symmetry_cell_setting 'monoclinic'
loop_
_space_group_symop_operation_xyz
x,y,z
-x,y,-z
1/2+x,1/2+y,z
1/2-x,1/2+y,-z
loop_
_atom_site_type_symbol
_atom_site_label
_atom_site_fract_x
_atom_site_fract_y
_atom_site_fract_z
Si Si1 0.403770 0.611220 0.700485
Si Si2 0.096499 0.338443 0.715721
Si Si3 0.708041 0.495727 0.027247
Si Si4 0.000000 0.863241 0.500000
Si Si5 0.113874 0.653875 0.663780
Si Si6 0.000000 0.442297 0.000000
Si Si7 0.314757 0.213792 0.840421
O O1 0.523358 0.721529 0.652651
O O2 0.395062 0.563737 0.849308
O O3 0.435820 0.471883 0.614894
O O4 0.258052 0.674903 0.696973
O O5 0.109969 0.486380 0.642254
O O6 0.236189 0.285126 0.743014
O O7 0.002285 0.361325 0.866076
O O8 0.860608 0.525306 0.041956
O O9 0.692897 0.329378 0.044854
O O10 0.722375 0.577872 0.893732
O O11 0.101374 0.758452 0.548697
O O12 0.971515 0.681770 0.773189
#
# Coordination Sequence:
#
# PCOD9121199 Si02
#       7
#     4   4   4   2   4   2   4
#     4  12  26  47  74 107 144 188 249 302 356 428
#     4  11  24  44  73 108 148 189 229 297 366 434
#     4  11  20  41  72 110 148 189 228 296 358 439
#     4  12  30  50  70 106 142 192 260 302 348 430
#     4  12  25  51  76 101 145 194 243 306 362 425
#     4  10  18  42  70 106 154 182 224 288 364 446
#     4  11  23  45  75 112 153 188 235 292 369 441
#
# _framework density 24.171939999999999
#
# number of rings (size 3 to 8) (size 9 to 14) (size 15 to 20)
#    0.000    0.667    6.667    2.000    0.000    6.000 
#    0.000    3.333    0.000    0.000    0.000    0.000 
#    0.000    0.000    0.000    0.000    0.000    0.000 
#
# Total GULP energy -67043.574392 kJ/mol
# GULP energy per Si atom -5586.964533 kJ/mol
# Density = 2.411692 g / cm^3
# Si number density = 24.171940 Si / 1000 Ang^3
#
#
#
# Elastic Constant Matrix: (Units=GPa)
#
#
# Indices 1 2 3 4 5 6 
#
# 1 95.0698 67.2679 1.1807 0.0000 -2.9147 0.0000
# 2 67.2679 160.7919 33.6698 0.0000 9.4475 0.0000
# 3 1.1807 33.6698 61.5225 0.0000 -4.3700 0.0000
# 4 0.0000 0.0000 0.0000 35.7602 0.0000 6.1592
# 5 -2.9147 9.4475 -4.3700 0.0000 22.7692 0.0000
# 6 0.0000 0.0000 0.0000 6.1592 0.0000 40.9651
#
#
#
# Elastic Compliance Matrix: (Units=1/GPa)
#
#
# Indices 1 2 3 4 5 6 
#
# 1 0.016500 -0.008256 0.004659 0.000000 0.006432 0.000000
# 2 -0.008256 0.011477 -0.006627 0.000000 -0.007091 0.000000
# 3 0.004659 -0.006627 0.020306 0.000000 0.007243 0.000000
# 4 0.000000 0.000000 0.000000 0.028707 0.000000 -0.004316
# 5 0.006432 -0.007091 0.007243 0.000000 0.049075 0.000000
# 6 0.000000 0.000000 0.000000 -0.004316 0.000000 0.025060
#
#
# Mechanical properties :
#
#
# Convention : Reuss Voigt Hill
#
# Bulk Modulus (GPa) = 35.92628 57.95791 46.94210
# Shear Modulus (GPa) = 27.64696 34.24994 30.94845
#
# Velocity S-wave (km/s) = 3.38563 3.76830 3.58207
# Velocity P-wave (km/s) = 5.49348 6.55460 6.04736
#
# Compressibility (1/GPa) = 0.02783478
#
# Stress axis : x y z
#
# Youngs Moduli (GPa) = 60.60732 87.12739 49.24686
#
# Poissons Ratio (x) = 0.71933 -0.22942
# Poissons Ratio (y) = 0.50038 0.32634
# Poissons Ratio (z) = -0.28235 0.57736
#
# Static dielectric constant tensor:
#      x y z
#    x 1.915600 0.000000 0.026270 
#    y 0.000000 1.945570 0.000000 
#    z 0.026270 0.000000 2.066810 
# 
# From -- ./inp_files/38294.got.cif
#   From: 2010.05.17/outbox.cif.g08.bks.cpg/sg5_20_cif.got.tgz:38294.got - 2010.06.03 18:56:24.
