data_PCOD9121503
_publ_section_title
;
Structure prediction by ZEFSAII (Michael W. Deem and Ramdas Pophale) SiO2 
 PCOD9121503
Probable space group: C 2
;
_chemical_formula_sum "Si O2"
_cell_formula_units_Z 26
_cell_length_a 14.073830
_cell_length_b 20.453336
_cell_length_c 13.645242
_cell_angle_alpha 90.000000
_cell_angle_beta 21.036443
_cell_angle_gamma 90.000000
_cell_volume 1409.956735
_symmetry_space_group_name_H-M "C 2"
_symmetry_group_IT_number 5
_symmetry_cell_setting 'monoclinic'
loop_
_space_group_symop_operation_xyz
x,y,z
-x,y,-z
1/2+x,1/2+y,z
1/2-x,1/2+y,-z
loop_
_atom_site_type_symbol
_atom_site_label
_atom_site_fract_x
_atom_site_fract_y
_atom_site_fract_z
Si Si1 0.500000 0.326841 0.000000
Si Si2 0.966856 0.919723 0.217004
Si Si3 0.887380 0.593291 0.366176
Si Si4 0.500000 0.013952 0.000000
Si Si5 0.000000 0.235479 0.500000
Si Si6 0.501187 0.948853 0.795123
Si Si7 0.338637 0.618908 0.792499
Si Si8 0.230705 0.049069 0.705893
O O1 0.461213 0.371803 0.941378
O O2 0.747351 0.281636 0.734318
O O3 0.709182 0.906937 0.532189
O O4 0.902787 0.989003 0.225263
O O5 0.209112 0.922432 0.059366
O O6 0.005771 0.520417 0.248397
O O7 0.604642 0.591771 0.585101
O O8 0.825803 0.604889 0.538625
O O9 0.103848 0.632799 0.096430
O O10 0.719785 0.064659 0.831636
O O11 0.573904 0.967730 0.836899
O O12 0.926776 0.185517 0.656955
O O13 0.500000 0.025748 0.500000
O O14 0.000000 0.072203 0.000000
#
# Coordination Sequence:
#
# PCOD9121503 Si02
#       8
#     2   4   4   2   2   4   4   4
#     4  12  25  38  56  76 110 150 191 236 270 298
#     4  11  22  35  50  75 114 151 180 225 262 313
#     4  10  20  32  51  77 114 146 179 212 271 333
#     4  10  19  34  58  84 120 150 163 218 272 346
#     4  12  24  38  58  78 102 144 198 222 276 324
#     4  10  20  32  51  80 110 148 182 201 272 341
#     4  11  21  36  53  79 113 144 176 229 274 319
#     4  11  19  30  51  77 112 151 180 205 262 339
#
# _framework density 18.440282
#
# number of rings (size 3 to 8) (size 9 to 14) (size 15 to 20)
#    0.000    1.231    0.769   10.615    1.077    3.077 
#    0.000    0.000    0.000    0.000    0.000    0.000 
#   80.769    0.000    0.000    0.000    0.000    0.000 
#
# Total GULP energy -72449.934719 kJ/mol
# GULP energy per Si atom -5573.071901 kJ/mol
# Density = 1.839831 g / cm^3
# Si number density = 18.440282 Si / 1000 Ang^3
#
#
#
# Elastic Constant Matrix: (Units=GPa)
#
#
# Indices 1 2 3 4 5 6 
#
# 1 76.5450 26.5814 50.6857 -0.0727 17.1716 -0.1013
# 2 26.5814 43.7794 23.2734 -0.1974 6.1941 0.1462
# 3 50.6857 23.2734 153.6345 -0.1774 8.7215 -0.0733
# 4 -0.0727 -0.1974 -0.1774 39.2827 0.0499 12.7263
# 5 17.1716 6.1941 8.7215 0.0499 45.5810 0.0966
# 6 -0.1013 0.1462 -0.0733 12.7263 0.0966 18.2716
#
#
#
# Elastic Compliance Matrix: (Units=1/GPa)
#
#
# Indices 1 2 3 4 5 6 
#
# 1 0.020962 -0.009161 -0.005207 -0.000113 -0.005656 0.000278
# 2 -0.009161 0.029177 -0.001384 0.000280 -0.000248 -0.000484
# 3 -0.005207 -0.001384 0.008406 0.000021 0.000541 -0.000002
# 4 -0.000113 0.000280 0.000021 0.032877 0.000013 -0.022902
# 5 -0.005656 -0.000248 0.000541 0.000013 0.024000 -0.000163
# 6 0.000278 -0.000484 -0.000002 -0.022902 -0.000163 0.070688
#
#
# Mechanical properties :
#
#
# Convention : Reuss Voigt Hill
#
# Bulk Modulus (GPa) = 36.97805 52.78221 44.88013
# Shear Modulus (GPa) = 22.06259 32.18828 27.12543
#
# Velocity S-wave (km/s) = 3.46270 4.18250 3.83951
# Velocity P-wave (km/s) = 6.00695 7.21179 6.63677
#
# Compressibility (1/GPa) = 0.02704307
#
# Stress axis : x y z
#
# Youngs Moduli (GPa) = 47.70430 34.27305 118.96758
#
# Poissons Ratio (x) = 0.31397 0.61945
# Poissons Ratio (y) = 0.43701 0.16459
# Poissons Ratio (z) = 0.24839 0.04742
#
# Static dielectric constant tensor:
#      x y z
#    x 1.722080 -0.000140 0.037710 
#    y -0.000140 1.622140 0.000050 
#    z 0.037710 0.000050 1.698350 
# 
# From -- ./inp_files/54968.got.cif
#   From: 2010.05.17/outbox.cif.g08.bks.cpg/sg5_28_cif.got.tgz:54968.got - 2010.06.03 18:56:24.
