data_PCOD9121005
_publ_section_title
;
Structure prediction by ZEFSAII (Michael W. Deem and Ramdas Pophale) SiO2 
 PCOD9121005
Probable space group: C 2
;
_chemical_formula_sum "Si O2"
_cell_formula_units_Z 24
_cell_length_a 12.568218
_cell_length_b 23.733863
_cell_length_c 5.307719
_cell_angle_alpha 90.000000
_cell_angle_beta 128.954536
_cell_angle_gamma 90.000000
_cell_volume 1231.208167
_symmetry_space_group_name_H-M "C 2"
_symmetry_group_IT_number 5
_symmetry_cell_setting 'monoclinic'
loop_
_space_group_symop_operation_xyz
x,y,z
-x,y,-z
1/2+x,1/2+y,z
1/2-x,1/2+y,-z
loop_
_atom_site_type_symbol
_atom_site_label
_atom_site_fract_x
_atom_site_fract_y
_atom_site_fract_z
Si Si1 0.906771 0.542330 0.609386
Si Si2 0.353471 0.922550 0.421224
Si Si3 0.500000 0.841241 0.000000
Si Si4 0.000000 0.750369 0.500000
Si Si5 0.797369 0.666239 0.372307
Si Si6 0.845970 0.205884 0.355466
Si Si7 0.271054 0.816473 0.042289
O O1 0.815610 0.485500 0.446504
O O2 0.830537 0.601573 0.479193
O O3 0.000000 0.543505 0.500000
O O4 0.000000 0.538016 0.000000
O O5 0.500000 0.927335 0.500000
O O6 0.391046 0.883502 0.710952
O O7 0.262964 0.881512 0.113305
O O8 0.599365 0.809367 0.953999
O O9 0.067736 0.706239 0.401717
O O10 0.126815 0.791645 0.742685
O O11 0.689174 0.682915 0.423384
O O12 0.745022 0.679013 0.008945
O O13 0.813065 0.272599 0.322647
O O14 0.000000 0.196259 0.500000
#
# Coordination Sequence:
#
# PCOD9121005 Si02
#       7
#     4   4   2   2   4   4   4
#     4  11  21  38  63  94 127 162 215 270 317 374
#     4   9  19  35  59  89 119 159 214 265 313 361
#     4  10  18  38  56  92 114 162 210 260 306 376
#     4  10  24  40  60  96 132 170 202 266 328 398
#     4  11  24  40  63  94 130 165 214 261 335 376
#     4  11  24  41  64  92 122 171 213 268 314 389
#     4  10  23  36  61  89 129 163 209 264 321 383
#
# _framework density 19.493047000000001
#
# number of rings (size 3 to 8) (size 9 to 14) (size 15 to 20)
#    0.000    1.667    1.667    3.000   11.667    0.000 
#    0.000    0.000    1.833    2.000    0.000    0.000 
#    0.000    0.000    0.000    0.000    0.000    0.000 
#
# Total GULP energy -66830.902896 kJ/mol
# GULP energy per Si atom -5569.241908 kJ/mol
# Density = 1.944868 g / cm^3
# Si number density = 19.493047 Si / 1000 Ang^3
#
#
#
# Elastic Constant Matrix: (Units=GPa)
#
#
# Indices 1 2 3 4 5 6 
#
# 1 59.8227 22.2996 18.7620 0.0000 7.7188 0.0000
# 2 22.2996 172.8109 39.9765 0.0000 14.4370 0.0000
# 3 18.7620 39.9765 65.2773 0.0000 4.7089 0.0000
# 4 0.0000 0.0000 0.0000 23.6048 0.0000 -0.6207
# 5 7.7188 14.4370 4.7089 0.0000 35.2086 0.0000
# 6 0.0000 0.0000 0.0000 -0.6207 0.0000 26.4913
#
#
#
# Elastic Compliance Matrix: (Units=1/GPa)
#
#
# Indices 1 2 3 4 5 6 
#
# 1 0.018959 -0.001142 -0.004528 0.000000 -0.003083 0.000000
# 2 -0.001142 0.006989 -0.003800 0.000000 -0.002107 0.000000
# 3 -0.004528 -0.003800 0.018947 0.000000 0.000017 0.000000
# 4 0.000000 0.000000 0.000000 0.042390 0.000000 0.000993
# 5 -0.003083 -0.002107 0.000017 0.000000 0.029940 0.000000
# 6 0.000000 0.000000 0.000000 0.000993 0.000000 0.037771
#
#
# Mechanical properties :
#
#
# Convention : Reuss Voigt Hill
#
# Bulk Modulus (GPa) = 38.52641 51.10969 44.81805
# Shear Modulus (GPa) = 27.38408 31.51913 29.45160
#
# Velocity S-wave (km/s) = 3.75215 4.02548 3.89122
# Velocity P-wave (km/s) = 6.21117 6.91971 6.57499
#
# Compressibility (1/GPa) = 0.02595622
#
# Stress axis : x y z
#
# Youngs Moduli (GPa) = 52.74427 143.07982 52.77980
#
# Poissons Ratio (x) = 0.16333 0.23898
# Poissons Ratio (y) = 0.06021 0.20057
# Poissons Ratio (z) = 0.23882 0.54372
#
# Static dielectric constant tensor:
#      x y z
#    x 1.693920 0.000000 -0.059130 
#    y 0.000000 1.742040 0.000000 
#    z -0.059130 0.000000 1.802000 
# 
# From -- ./inp_files/5919.got.cif
#   From: 2010.05.17/outbox.cif.g08.bks.cpg/sg5_3_cif.got.tgz:5919.got - 2010.06.03 18:56:24.
