data_PCOD9121145
_publ_section_title
;
Structure prediction by ZEFSAII (Michael W. Deem and Ramdas Pophale) SiO2 
 PCOD9121145
Probable space group: C 2
;
_chemical_formula_sum "Si O2"
_cell_formula_units_Z 28
_cell_length_a 18.792320
_cell_length_b 8.750405
_cell_length_c 21.360856
_cell_angle_alpha 90.000000
_cell_angle_beta 20.817288
_cell_angle_gamma 90.000000
_cell_volume 1248.335162
_symmetry_space_group_name_H-M "C 2"
_symmetry_group_IT_number 5
_symmetry_cell_setting 'monoclinic'
loop_
_space_group_symop_operation_xyz
x,y,z
-x,y,-z
1/2+x,1/2+y,z
1/2-x,1/2+y,-z
loop_
_atom_site_type_symbol
_atom_site_label
_atom_site_fract_x
_atom_site_fract_y
_atom_site_fract_z
Si Si1 0.015688 0.068430 0.752708
Si Si2 0.000000 0.841556 0.000000
Si Si3 0.836890 0.763215 0.432682
Si Si4 0.253908 0.611696 0.620340
Si Si5 0.697735 0.445236 0.718179
Si Si6 0.000000 0.676597 0.500000
Si Si7 0.882373 0.874036 0.699305
Si Si8 0.376380 0.075728 0.009143
O O1 0.140006 0.221894 0.634911
O O2 0.800655 0.083878 0.896801
O O3 0.140150 0.931789 0.616122
O O4 0.017401 0.006785 0.822462
O O5 0.857872 0.937500 0.162847
O O6 0.893792 0.730346 0.036223
O O7 0.834894 0.651437 0.374867
O O8 0.021505 0.761147 0.328299
O O9 0.280391 0.779386 0.629723
O O10 0.451041 0.508228 0.450787
O O11 0.083089 0.540871 0.804535
O O12 0.869381 0.567265 0.564796
O O13 0.144417 0.783608 0.341842
O O14 0.691091 0.949140 0.886559
#
# Coordination Sequence:
#
# PCOD9121145 Si02
#       8
#     4   2   4   4   4   2   4   4
#     4  10  20  41  65  97 131 172 225 284 339 409
#     4  10  24  46  68 102 132 182 240 284 332 432
#     4  10  18  40  64  95 128 164 224 274 331 403
#     4  10  22  44  72  95 130 181 231 280 329 427
#     4  10  24  44  65 100 138 177 234 276 351 418
#     4  12  26  40  66 102 136 182 218 290 358 398
#     4  11  24  43  65 101 135 177 222 286 346 401
#     4  10  23  44  71  98 126 180 237 276 335 405
#
# _framework density 22.429872
#
# number of rings (size 3 to 8) (size 9 to 14) (size 15 to 20)
#    0.000    1.714    4.286    0.000    6.000    0.000 
#   15.429    0.000    0.000    0.000    0.000    0.000 
#    0.000    0.000    0.000    0.000    0.000    0.000 
#
# Total GULP energy -78123.047655 kJ/mol
# GULP energy per Si atom -5580.217690 kJ/mol
# Density = 2.237882 g / cm^3
# Si number density = 22.429872 Si / 1000 Ang^3
#
#
#
# Elastic Constant Matrix: (Units=GPa)
#
#
# Indices 1 2 3 4 5 6 
#
# 1 81.1853 32.1114 36.3534 0.0014 10.2131 0.0001
# 2 32.1114 63.5998 43.4909 0.0083 2.2887 0.0002
# 3 36.3534 43.4909 75.1978 0.0097 19.1382 0.0003
# 4 0.0014 0.0083 0.0097 26.1951 -0.0008 0.3633
# 5 10.2131 2.2887 19.1382 -0.0008 41.4370 -0.0002
# 6 0.0001 0.0002 0.0003 0.3633 -0.0002 28.3879
#
#
#
# Elastic Compliance Matrix: (Units=1/GPa)
#
#
# Indices 1 2 3 4 5 6 
#
# 1 0.016650 -0.005185 -0.004622 0.000002 -0.001683 0.000000
# 2 -0.005185 0.029134 -0.016158 -0.000003 0.007132 0.000000
# 3 -0.004622 -0.016158 0.027606 -0.000005 -0.010718 0.000000
# 4 0.000002 -0.000003 -0.000005 0.038182 0.000003 -0.000489
# 5 -0.001683 0.007132 -0.010718 0.000003 0.029104 0.000000
# 6 0.000000 0.000000 0.000000 -0.000489 0.000000 0.035233
#
#
# Mechanical properties :
#
#
# Convention : Reuss Voigt Hill
#
# Bulk Modulus (GPa) = 46.60091 49.32161 47.96126
# Shear Modulus (GPa) = 21.27739 26.40580 23.84159
#
# Velocity S-wave (km/s) = 3.08331 3.43484 3.26381
# Velocity P-wave (km/s) = 5.78767 6.14556 5.96929
#
# Compressibility (1/GPa) = 0.02145881
#
# Stress axis : x y z
#
# Youngs Moduli (GPa) = 60.06092 34.32429 36.22456
#
# Poissons Ratio (x) = 0.17798 0.16743
# Poissons Ratio (y) = 0.31143 0.58532
# Poissons Ratio (z) = 0.27760 0.55461
#
# Static dielectric constant tensor:
#      x y z
#    x 1.916430 0.000000 -0.007870 
#    y 0.000000 1.854160 0.000000 
#    z -0.007870 0.000000 1.811910 
# 
# From -- ./inp_files/69438.got.cif
#   From: 2010.05.17/outbox.cif.g08.bks.cpg/sg5_35_cif.got.tgz:69438.got - 2010.06.03 18:56:24.
