data_PCOD9121280
_publ_section_title
;
Structure prediction by ZEFSAII (Michael W. Deem and Ramdas Pophale) SiO2 
 PCOD9121280
Probable space group: C 2
;
_chemical_formula_sum "Si O2"
_cell_formula_units_Z 22
_cell_length_a 13.079096
_cell_length_b 4.779765
_cell_length_c 13.591719
_cell_angle_alpha 90.000000
_cell_angle_beta 91.280751
_cell_angle_gamma 90.000000
_cell_volume 849.474112
_symmetry_space_group_name_H-M "C 2"
_symmetry_group_IT_number 5
_symmetry_cell_setting 'monoclinic'
loop_
_space_group_symop_operation_xyz
x,y,z
-x,y,-z
1/2+x,1/2+y,z
1/2-x,1/2+y,-z
loop_
_atom_site_type_symbol
_atom_site_label
_atom_site_fract_x
_atom_site_fract_y
_atom_site_fract_z
Si Si1 0.757638 0.493850 0.221738
Si Si2 0.000000 0.035360 0.500000
Si Si3 0.615865 0.991500 0.178379
Si Si4 0.681124 0.136757 0.979344
Si Si5 0.978925 0.495069 0.631390
Si Si6 0.734682 0.698459 0.430985
O O1 0.659491 0.679617 0.186475
O O2 0.834371 0.540620 0.132659
O O3 0.788056 0.599706 0.330986
O O4 0.709881 0.184772 0.221764
O O5 0.980195 0.800086 0.584499
O O6 0.050256 0.275456 0.575121
O O7 0.523199 0.018394 0.251929
O O8 0.601713 0.078775 0.065004
O O9 0.780590 0.954690 0.016588
O O10 0.869946 0.342891 0.605745
O O11 0.712009 0.430067 0.499516
#
# Coordination Sequence:
#
# PCOD9121280 Si02
#       6
#     4   2   4   4   4   4
#     4   9  16  26  39  61  91 121 148 174 213 271
#     4  10  20  32  48  62  90 122 158 198 226 260
#     4   9  15  26  43  61  87 116 146 181 226 275
#     4   8  14  23  38  59  84 116 143 172 218 272
#     4  10  19  32  46  67  91 122 155 190 229 263
#     4  11  20  30  46  67  96 129 155 179 217 273
#
# _framework density 25.898372999999999
#
# number of rings (size 3 to 8) (size 9 to 14) (size 15 to 20)
#    0.000    2.545    0.000    5.455    0.000    0.000 
#    0.000    0.000    0.000    0.000    0.000    0.000 
#    0.000   21.818    0.000    1.818    0.000    0.000 
#
# Total GULP energy -61324.148693 kJ/mol
# GULP energy per Si atom -5574.922608 kJ/mol
# Density = 2.583943 g / cm^3
# Si number density = 25.898373 Si / 1000 Ang^3
#
#
#
# Elastic Constant Matrix: (Units=GPa)
#
#
# Indices 1 2 3 4 5 6 
#
# 1 38.0753 15.7165 58.3598 0.0000 0.4396 0.0000
# 2 15.7165 148.2759 52.4037 0.0000 -1.6283 0.0000
# 3 58.3598 52.4037 274.5249 0.0000 -56.7676 0.0000
# 4 0.0000 0.0000 0.0000 43.5182 0.0000 -9.2316
# 5 0.4396 -1.6283 -56.7676 0.0000 51.8503 0.0000
# 6 0.0000 0.0000 0.0000 -9.2316 0.0000 19.5124
#
#
#
# Elastic Compliance Matrix: (Units=1/GPa)
#
#
# Indices 1 2 3 4 5 6 
#
# 1 0.045982 -0.000576 -0.012603 0.000000 -0.014206 0.000000
# 2 -0.000576 0.007352 -0.001593 0.000000 -0.001508 0.000000
# 3 -0.012603 -0.001593 0.008580 0.000000 0.009451 0.000000
# 4 0.000000 0.000000 0.000000 0.025542 0.000000 0.012084
# 5 -0.014206 -0.001508 0.009451 0.000000 0.029706 0.000000
# 6 0.000000 0.000000 0.000000 0.012084 0.000000 0.056967
#
#
# Mechanical properties :
#
#
# Convention : Reuss Voigt Hill
#
# Bulk Modulus (GPa) = 30.89158 79.31513 55.10335
# Shear Modulus (GPa) = 23.31407 45.26927 34.29167
#
# Velocity S-wave (km/s) = 3.00361 4.18539 3.64275
# Velocity P-wave (km/s) = 4.89722 7.35178 6.24626
#
# Compressibility (1/GPa) = 0.03237128
#
# Stress axis : x y z
#
# Youngs Moduli (GPa) = 21.74744 136.02530 116.54840
#
# Poissons Ratio (x) = 0.07833 1.46884
# Poissons Ratio (y) = 0.01252 0.18563
# Poissons Ratio (z) = 0.27408 0.21666
#
# Static dielectric constant tensor:
#      x y z
#    x 2.773260 0.000000 -0.223500 
#    y 0.000000 1.927650 0.000000 
#    z -0.223500 0.000000 2.161190 
# 
# From -- ./inp_files/45247.got.cif
#   From: 2010.05.17/outbox.cif.g08.bks.cpg/sg5_23_cif.got.tgz:45247.got - 2010.06.03 18:56:24.
