data_PCOD9121564
_publ_section_title
;
Structure prediction by ZEFSAII (Michael W. Deem and Ramdas Pophale) SiO2 
 PCOD9121564
Probable space group: C 2
;
_chemical_formula_sum "Si O2"
_cell_formula_units_Z 22
_cell_length_a 9.707244
_cell_length_b 14.449720
_cell_length_c 7.142957
_cell_angle_alpha 90.000000
_cell_angle_beta 106.906352
_cell_angle_gamma 90.000000
_cell_volume 958.619181
_symmetry_space_group_name_H-M "C 2"
_symmetry_group_IT_number 5
_symmetry_cell_setting 'monoclinic'
loop_
_space_group_symop_operation_xyz
x,y,z
-x,y,-z
1/2+x,1/2+y,z
1/2-x,1/2+y,-z
loop_
_atom_site_type_symbol
_atom_site_label
_atom_site_fract_x
_atom_site_fract_y
_atom_site_fract_z
Si Si1 0.169881 0.290560 0.418139
Si Si2 0.500000 0.116393 0.000000
Si Si3 0.308167 0.988545 0.108824
Si Si4 0.500000 0.429391 0.000000
Si Si5 0.392146 0.262764 0.200555
Si Si6 0.632366 0.769993 0.832451
Si Si7 0.500000 0.964503 0.500000
O O1 0.173833 0.253753 0.631540
O O2 0.038160 0.248748 0.240767
O O3 0.110834 0.395486 0.433335
O O4 0.320141 0.278793 0.372470
O O5 0.502279 0.184127 0.180007
O O6 0.635057 0.046579 0.042035
O O7 0.350153 0.879969 0.112712
O O8 0.401854 0.021346 0.321859
O O9 0.140615 0.990244 0.083836
O O10 0.539932 0.358960 0.847232
O O11 0.253950 0.231758 0.016739
#
# Coordination Sequence:
#
# PCOD9121564 Si02
#       7
#     4   2   4   2   4   4   2
#     4   8  15  31  58  87 107 140 200 247 276 329
#     4  11  24  36  54  85 124 152 192 219 320 350
#     4   9  19  38  56  83 118 149 193 244 278 354
#     4   9  20  34  62  81 110 148 212 235 272 334
#     4  10  19  35  54  85 115 153 187 245 286 343
#     4   8  17  32  61  87 104 148 206 237 276 343
#     4   8  18  34  64  92 106 152 204 238 284 346
#
# _framework density 22.949676
#
# number of rings (size 3 to 8) (size 9 to 14) (size 15 to 20)
#    0.000    3.636    0.000    0.545   10.182    0.000 
#    6.545   13.636    0.000    0.000    0.000    0.000 
#    0.000    0.000    0.000    0.000    0.000    0.000 
#
# Total GULP energy -61261.827403 kJ/mol
# GULP energy per Si atom -5569.257037 kJ/mol
# Density = 2.289744 g / cm^3
# Si number density = 22.949676 Si / 1000 Ang^3
#
#
#
# Elastic Constant Matrix: (Units=GPa)
#
#
# Indices 1 2 3 4 5 6 
#
# 1 165.8548 41.7000 45.6018 0.0000 -30.0217 0.0000
# 2 41.7000 39.9313 20.6981 0.0000 -8.5510 0.0000
# 3 45.6018 20.6981 57.3355 0.0000 -15.5247 0.0000
# 4 0.0000 0.0000 0.0000 13.6985 0.0000 -14.7242
# 5 -30.0217 -8.5510 -15.5247 0.0000 51.8648 0.0000
# 6 0.0000 0.0000 0.0000 -14.7242 0.0000 15.8750
#
#
#
# Elastic Compliance Matrix: (Units=1/GPa)
#
#
# Indices 1 2 3 4 5 6 
#
# 1 0.009527 -0.007126 -0.004167 0.000000 0.003092 0.000000
# 2 -0.007126 0.036313 -0.007549 0.000000 -0.000398 0.000000
# 3 -0.004167 -0.007549 0.024474 0.000000 0.003669 0.000000
# 4 0.000000 0.000000 0.000000 23.951045 0.000000 22.214768
# 5 0.003092 -0.000398 0.003669 0.000000 0.022103 0.000000
# 6 0.000000 0.000000 0.000000 22.214768 0.000000 20.667351
#
#
# Mechanical properties :
#
#
# Convention : Reuss Voigt Hill
#
# Bulk Modulus (GPa) = 30.64739 53.23571 41.94155
# Shear Modulus (GPa) = 0.11171 26.62912 13.37041
#
# Velocity S-wave (km/s) = 0.22086 3.41005 2.41632
# Velocity P-wave (km/s) = 3.66718 6.22508 5.10881
#
# Compressibility (1/GPa) = 0.03262920
#
# Stress axis : x y z
#
# Youngs Moduli (GPa) = 104.96944 27.53860 40.85965
#
# Poissons Ratio (x) = 0.19625 0.17027
# Poissons Ratio (y) = 0.74806 0.30843
# Poissons Ratio (z) = 0.43742 0.20788
#
# Static dielectric constant tensor:
#      x y z
#    x 1.933940 0.000000 0.030640 
#    y 0.000000 1.885200 0.000000 
#    z 0.030640 0.000000 1.962060 
# 
# From -- ./inp_files/15044.got.cif
#   From: 2010.05.17/outbox.cif.g08.bks.cpg/sg5_8_cif.got.tgz:15044.got - 2010.06.03 18:56:24.
