data_PCOD9121597
_publ_section_title
;
Structure prediction by ZEFSAII (Michael W. Deem and Ramdas Pophale) SiO2 
 PCOD9121597
Probable space group: C 2
;
_chemical_formula_sum "Si O2"
_cell_formula_units_Z 28
_cell_length_a 10.967500
_cell_length_b 10.018436
_cell_length_c 19.845575
_cell_angle_alpha 90.000000
_cell_angle_beta 148.375108
_cell_angle_gamma 90.000000
_cell_volume 1143.397942
_symmetry_space_group_name_H-M "C 2"
_symmetry_group_IT_number 5
_symmetry_cell_setting 'monoclinic'
loop_
_space_group_symop_operation_xyz
x,y,z
-x,y,-z
1/2+x,1/2+y,z
1/2-x,1/2+y,-z
loop_
_atom_site_type_symbol
_atom_site_label
_atom_site_fract_x
_atom_site_fract_y
_atom_site_fract_z
Si Si1 0.720957 0.541670 0.687210
Si Si2 0.500000 0.632702 0.000000
Si Si3 0.943811 0.919367 0.087488
Si Si4 0.072879 0.326635 0.137663
Si Si5 0.308292 0.024826 0.583379
Si Si6 0.011869 0.125616 0.224570
Si Si7 0.918116 0.242010 0.595461
Si Si8 0.500000 0.217157 0.000000
O O1 0.873001 0.527429 0.692261
O O2 0.464425 0.482689 0.552100
O O3 0.648501 0.693037 0.665118
O O4 0.816843 0.469834 0.797718
O O5 0.397282 0.540526 0.011231
O O6 0.658893 0.735374 0.117273
O O7 0.063264 0.989466 0.208034
O O8 0.702733 0.852774 0.996944
O O9 0.060845 0.812427 0.092317
O O10 0.109544 0.243986 0.223464
O O11 0.296584 0.172505 0.546086
O O12 0.428854 0.899642 0.606551
O O13 0.088362 0.163445 0.335900
O O14 0.730911 0.137151 0.090961
#
# Coordination Sequence:
#
# PCOD9121597 Si02
#       8
#     4   2   4   4   4   4   4   2
#     4   9  20  37  60  79 113 148 191 246 291 338
#     4   9  20  35  50  82 116 149 187 222 276 340
#     4   9  20  36  51  81 119 147 183 234 268 351
#     4  10  19  35  57  83 114 149 189 233 285 337
#     4   9  20  40  59  81 116 146 196 248 291 343
#     4  10  20  34  60  83 113 154 193 227 289 351
#     4  10  20  38  63  84 112 156 194 242 299 344
#     4   9  20  37  52  80 126 147 179 236 288 326
#
# _framework density 24.488413000000001
#
# number of rings (size 3 to 8) (size 9 to 14) (size 15 to 20)
#    0.857    1.714    1.429    0.000    4.000    0.000 
#    2.571    4.286    6.286    0.000    0.000    0.000 
#    0.000    0.000    0.000    0.000    0.000    0.000 
#
# Total GULP energy -78046.032008 kJ/mol
# GULP energy per Si atom -5574.716572 kJ/mol
# Density = 2.443268 g / cm^3
# Si number density = 24.488413 Si / 1000 Ang^3
#
#
#
# Elastic Constant Matrix: (Units=GPa)
#
#
# Indices 1 2 3 4 5 6 
#
# 1 59.3597 37.7869 6.5755 0.0000 -7.1386 0.0000
# 2 37.7869 91.3526 -5.7936 0.0000 0.9280 0.0000
# 3 6.5755 -5.7936 41.5826 -0.0001 -11.3813 0.0000
# 4 0.0000 0.0000 -0.0001 31.2195 0.0000 -11.7448
# 5 -7.1386 0.9280 -11.3813 0.0000 26.0801 0.0000
# 6 0.0000 0.0000 0.0000 -11.7448 0.0000 40.1592
#
#
#
# Elastic Compliance Matrix: (Units=1/GPa)
#
#
# Indices 1 2 3 4 5 6 
#
# 1 0.024593 -0.010473 -0.003865 0.000000 0.005417 0.000000
# 2 -0.010473 0.015506 0.003272 0.000000 -0.001991 0.000000
# 3 -0.003865 0.003272 0.028157 0.000000 0.011113 0.000000
# 4 0.000000 0.000000 0.000000 0.035991 0.000000 0.010526
# 5 0.005417 -0.001991 0.011113 0.000000 0.044747 0.000000
# 6 0.000000 0.000000 0.000000 0.010526 0.000000 0.027979
#
#
# Mechanical properties :
#
#
# Convention : Reuss Voigt Hill
#
# Bulk Modulus (GPa) = 21.68080 29.93695 25.80888
# Shear Modulus (GPa) = 23.31214 29.74016 26.52615
#
# Velocity S-wave (km/s) = 3.08874 3.48869 3.29479
# Velocity P-wave (km/s) = 4.64684 5.33661 5.00363
#
# Compressibility (1/GPa) = 0.04612375
#
# Stress axis : x y z
#
# Youngs Moduli (GPa) = 40.66249 64.49040 35.51472
#
# Poissons Ratio (x) = 0.67538 0.13727
# Poissons Ratio (y) = 0.42584 -0.11619
# Poissons Ratio (z) = 0.15717 -0.21099
#
# Static dielectric constant tensor:
#      x y z
#    x 1.948490 0.000000 0.008030 
#    y 0.000000 1.990820 0.000000 
#    z 0.008030 0.000000 1.995920 
# 
# From -- ./inp_files/65201.got.cif
#   From: 2010.05.17/outbox.cif.g08.bks.cpg/sg5_33_cif.got.tgz:65201.got - 2010.06.03 18:56:24.
