data_PCOD9121916
_publ_section_title
;
Structure prediction by ZEFSAII (Michael W. Deem and Ramdas Pophale) SiO2 
 PCOD9121916
Probable space group: C 2
;
_chemical_formula_sum "Si O2"
_cell_formula_units_Z 14
_cell_length_a 9.218454
_cell_length_b 14.005075
_cell_length_c 5.219792
_cell_angle_alpha 90.000000
_cell_angle_beta 93.712917
_cell_angle_gamma 90.000000
_cell_volume 672.487485
_symmetry_space_group_name_H-M "C 2"
_symmetry_group_IT_number 5
_symmetry_cell_setting 'monoclinic'
loop_
_space_group_symop_operation_xyz
x,y,z
-x,y,-z
1/2+x,1/2+y,z
1/2-x,1/2+y,-z
loop_
_atom_site_type_symbol
_atom_site_label
_atom_site_fract_x
_atom_site_fract_y
_atom_site_fract_z
Si Si1 0.755220 0.618570 0.306305
Si Si2 0.093783 0.297104 0.257911
Si Si3 0.200764 0.506957 0.175475
Si Si4 0.500000 0.525064 0.000000
O O1 0.739094 0.732408 0.287609
O O2 0.800289 0.578531 0.585169
O O3 0.589966 0.584933 0.220603
O O4 0.841661 0.564967 0.087750
O O5 0.121392 0.409787 0.234028
O O6 0.000000 0.279639 0.500000
O O7 0.000000 0.269610 0.000000
O O8 0.367980 0.475014 0.131358
#
# Coordination Sequence:
#
# PCOD9121916 Si02
#       4
#     4   4   4   2
#     4  10  19  37  59  87 107 151 197 237 271 336
#     4  12  22  37  61  90 114 151 193 236 288 341
#     4  10  21  34  60  86 115 143 196 240 280 327
#     4   8  18  34  60  74 114 138 200 222 280 308
#
# _framework density 20.818231999999998
#
# number of rings (size 3 to 8) (size 9 to 14) (size 15 to 20)
#    1.714    0.000    1.429    6.000    0.000    0.000 
#    0.000    0.000    9.429    0.000    0.000    0.000 
#    0.000    0.000    0.000    0.000    0.000    0.000 
#
# Total GULP energy -38976.147347 kJ/mol
# GULP energy per Si atom -5568.021050 kJ/mol
# Density = 2.077085 g / cm^3
# Si number density = 20.818232 Si / 1000 Ang^3
#
#
#
# Elastic Constant Matrix: (Units=GPa)
#
#
# Indices 1 2 3 4 5 6 
#
# 1 29.2303 6.9413 14.2176 0.0000 -11.9436 0.0000
# 2 6.9413 129.3780 52.8994 0.0000 -12.6869 0.0000
# 3 14.2176 52.8994 164.7734 0.0000 -24.1722 0.0000
# 4 0.0000 0.0000 0.0000 51.9359 0.0000 -23.6888
# 5 -11.9436 -12.6869 -24.1722 0.0000 22.9268 0.0000
# 6 0.0000 0.0000 0.0000 -23.6888 0.0000 47.4487
#
#
#
# Elastic Compliance Matrix: (Units=1/GPa)
#
#
# Indices 1 2 3 4 5 6 
#
# 1 0.043499 0.000051 -0.000522 0.000000 0.022138 0.000000
# 2 0.000051 0.008998 -0.002554 0.000000 0.002313 0.000000
# 3 -0.000522 -0.002554 0.007910 0.000000 0.006655 0.000000
# 4 0.000000 0.000000 0.000000 0.024932 0.000000 0.012447
# 5 0.022138 0.002313 0.006655 0.000000 0.063446 0.000000
# 6 0.000000 0.000000 0.000000 0.012447 0.000000 0.027290
#
#
# Mechanical properties :
#
#
# Convention : Reuss Voigt Hill
#
# Bulk Modulus (GPa) = 18.39715 52.38868 35.39291
# Shear Modulus (GPa) = 24.96971 41.08384 33.02678
#
# Velocity S-wave (km/s) = 3.46702 4.44718 3.98733
# Velocity P-wave (km/s) = 4.98830 7.18257 6.18354
#
# Compressibility (1/GPa) = 0.05435625
#
# Stress axis : x y z
#
# Youngs Moduli (GPa) = 22.98921 111.14192 126.42142
#
# Poissons Ratio (x) = -0.00562 0.06597
# Poissons Ratio (y) = -0.00116 0.32284
# Poissons Ratio (z) = 0.01200 0.28382
#
# Static dielectric constant tensor:
#      x y z
#    x 1.753380 0.000000 0.014170 
#    y 0.000000 1.762010 0.000000 
#    z 0.014170 0.000000 1.715800 
# 
# From -- ./inp_files/89.got.cif
#   From: 2010.05.17/outbox.cif.g08.bks.cpg/sg5_1_cif.got.tgz:89.got - 2010.06.03 18:56:24.
