data_PCOD9121198
_publ_section_title
;
Structure prediction by ZEFSAII (Michael W. Deem and Ramdas Pophale) SiO2 
 PCOD9121198
Probable space group: C 2
;
_chemical_formula_sum "Si O2"
_cell_formula_units_Z 26
_cell_length_a 21.873154
_cell_length_b 9.394635
_cell_length_c 9.177636
_cell_angle_alpha 90.000000
_cell_angle_beta 40.944410
_cell_angle_gamma 90.000000
_cell_volume 1235.890141
_symmetry_space_group_name_H-M "C 2"
_symmetry_group_IT_number 5
_symmetry_cell_setting 'monoclinic'
loop_
_space_group_symop_operation_xyz
x,y,z
-x,y,-z
1/2+x,1/2+y,z
1/2-x,1/2+y,-z
loop_
_atom_site_type_symbol
_atom_site_label
_atom_site_fract_x
_atom_site_fract_y
_atom_site_fract_z
Si Si1 0.000000 0.230350 0.000000
Si Si2 0.041046 0.532354 0.267869
Si Si3 0.692933 0.279556 0.947144
Si Si4 0.861954 0.065306 0.114954
Si Si5 0.215848 0.331151 0.901180
Si Si6 0.587031 0.012701 0.759703
Si Si7 0.776058 0.070201 0.578767
O O1 0.036007 0.136555 0.069119
O O2 0.080295 0.344580 0.811422
O O3 0.000000 0.519562 0.500000
O O4 0.947057 0.531660 0.341115
O O5 0.107572 0.669701 0.127059
O O6 0.113322 0.405317 0.098206
O O7 0.653771 0.417469 0.935683
O O8 0.767631 0.203497 0.704038
O O9 0.739500 0.317069 0.018832
O O10 0.795395 0.179070 0.155363
O O11 0.846492 0.056645 0.317649
O O12 0.274261 0.434157 0.689007
O O13 0.680045 0.071938 0.658295
O O14 0.500000 0.082469 0.000000
#
# Coordination Sequence:
#
# PCOD9121198 Si02
#       7
#     2   4   4   4   4   4   4
#     4  10  20  40  64  88 130 150 210 268 312 354
#     4  11  24  43  67  91 122 176 214 249 319 388
#     4  11  25  40  61  97 135 160 206 273 321 364
#     4  12  23  40  67  95 129 162 211 274 320 363
#     4  11  22  45  62  93 131 169 211 258 311 394
#     4  10  18  42  69  84 124 165 222 263 288 394
#     4  11  23  41  68  96 120 177 221 249 317 391
#
# _framework density 21.037469999999999
#
# number of rings (size 3 to 8) (size 9 to 14) (size 15 to 20)
#    0.462    0.615    6.154    2.769    4.308    1.231 
#    2.769    0.769    0.000    0.000    0.000    0.000 
#    0.000    0.000    0.000    0.000    0.000    0.000 
#
# Total GULP energy -72499.229502 kJ/mol
# GULP energy per Si atom -5576.863808 kJ/mol
# Density = 2.098959 g / cm^3
# Si number density = 21.037470 Si / 1000 Ang^3
#
#
#
# Elastic Constant Matrix: (Units=GPa)
#
#
# Indices 1 2 3 4 5 6 
#
# 1 138.2392 17.2977 20.2269 0.0000 33.9407 0.0000
# 2 17.2977 80.4529 23.3753 0.0000 14.1798 0.0000
# 3 20.2269 23.3753 81.8127 0.0000 32.0565 0.0000
# 4 0.0000 0.0000 0.0000 5.4179 0.0000 12.5851
# 5 33.9407 14.1798 32.0565 0.0000 43.3505 0.0000
# 6 0.0000 0.0000 0.0000 12.5851 0.0000 35.2327
#
#
#
# Elastic Compliance Matrix: (Units=1/GPa)
#
#
# Indices 1 2 3 4 5 6 
#
# 1 0.009047 -0.000902 0.000959 0.000000 -0.007497 0.000000
# 2 -0.000902 0.013797 -0.003136 0.000000 -0.001487 0.000000
# 3 0.000959 -0.003136 0.017985 0.000000 -0.013024 0.000000
# 4 0.000000 0.000000 0.000000 1.083909 0.000000 -0.387170
# 5 -0.007497 -0.001487 -0.013024 0.000000 0.039055 0.000000
# 6 0.000000 0.000000 0.000000 -0.387170 0.000000 0.166679
#
#
# Mechanical properties :
#
#
# Convention : Reuss Voigt Hill
#
# Bulk Modulus (GPa) = 28.84351 46.92271 37.88311
# Shear Modulus (GPa) = 3.70868 32.77389 18.24128
#
# Velocity S-wave (km/s) = 1.32918 3.95128 2.94783
# Velocity P-wave (km/s) = 4.01197 6.57036 5.44360
#
# Compressibility (1/GPa) = 0.03466984
#
# Stress axis : x y z
#
# Youngs Moduli (GPa) = 110.53160 72.47960 55.60054
#
# Poissons Ratio (x) = 0.06540 -0.05330
# Poissons Ratio (y) = 0.09974 0.17437
# Poissons Ratio (z) = -0.10596 0.22731
#
# Static dielectric constant tensor:
#      x y z
#    x 2.306610 0.000000 -0.059500 
#    y 0.000000 1.765290 0.000000 
#    z -0.059500 0.000000 1.871280 
# 
# From -- ./inp_files/29086.got.cif
#   From: 2010.05.17/outbox.cif.g08.bks.cpg/sg5_15_cif.got.tgz:29086.got - 2010.06.03 18:56:24.
