data_PCOD9121266
_publ_section_title
;
Structure prediction by ZEFSAII (Michael W. Deem and Ramdas Pophale) SiO2 
 PCOD9121266
Probable space group: C 2
;
_chemical_formula_sum "Si O2"
_cell_formula_units_Z 28
_cell_length_a 6.891775
_cell_length_b 30.677327
_cell_length_c 5.288525
_cell_angle_alpha 90.000000
_cell_angle_beta 100.505155
_cell_angle_gamma 90.000000
_cell_volume 1099.365355
_symmetry_space_group_name_H-M "C 2"
_symmetry_group_IT_number 5
_symmetry_cell_setting 'monoclinic'
loop_
_space_group_symop_operation_xyz
x,y,z
-x,y,-z
1/2+x,1/2+y,z
1/2-x,1/2+y,-z
loop_
_atom_site_type_symbol
_atom_site_label
_atom_site_fract_x
_atom_site_fract_y
_atom_site_fract_z
Si Si1 0.740005 0.870370 0.088745
Si Si2 0.232693 0.328716 0.591481
Si Si3 0.760079 0.468874 0.915467
Si Si4 0.732666 0.237879 0.099314
Si Si5 0.131793 0.105861 0.280131
Si Si6 0.729904 0.199586 0.592951
Si Si7 0.230010 0.511448 0.580128
O O1 0.807267 0.836326 0.322683
O O2 0.783597 0.919649 0.177611
O O3 0.500000 0.866449 0.000000
O O4 0.812948 0.861942 0.821014
O O5 0.248868 0.282941 0.742789
O O6 0.000000 0.336633 0.500000
O O7 0.692599 0.502420 0.683164
O O8 0.687646 0.481080 0.177679
O O9 0.000000 0.471409 0.000000
O O10 0.811888 0.203685 0.326465
O O11 0.500000 0.230456 0.000000
O O12 0.812303 0.231767 0.832055
O O13 0.254044 0.150585 0.303381
O O14 0.252921 0.061305 0.330643
O O15 0.000000 0.107549 0.500000
O O16 0.000000 0.103920 0.000000
O O17 0.500000 0.210846 0.500000
O O18 0.000000 0.500318 0.500000
#
# Coordination Sequence:
#
# PCOD9121266 Si02
#       7
#     4   4   4   4   4   4   4
#     4   9  17  30  50  80 112 141 181 231 275 315
#     4  10  19  31  51  79 112 146 178 223 280 330
#     4   9  17  31  55  83 109 143 190 235 270 315
#     4  10  21  37  58  81 108 144 186 231 274 324
#     4  12  25  40  59  86 117 148 180 230 290 340
#     4  10  22  41  61  81 108 147 191 231 273 330
#     4  10  20  36  59  84 110 147 191 231 273 330
#
# _framework density 25.469237
#
# number of rings (size 3 to 8) (size 9 to 14) (size 15 to 20)
#    0.000    2.000    0.000    3.857    0.000    5.143 
#    0.000    5.714    0.000    8.571    0.000    0.000 
#    0.000    0.000    0.000    0.000    0.000    0.000 
#
# Total GULP energy -78319.666767 kJ/mol
# GULP energy per Si atom -5594.261912 kJ/mol
# Density = 2.541127 g / cm^3
# Si number density = 25.469237 Si / 1000 Ang^3
#
#
#
# Elastic Constant Matrix: (Units=GPa)
#
#
# Indices 1 2 3 4 5 6 
#
# 1 61.1570 -33.9580 34.8252 0.0000 -9.7750 0.0000
# 2 -33.9580 114.1272 76.0086 0.0000 1.0091 0.0000
# 3 34.8252 76.0086 245.2732 0.0000 -10.7358 0.0000
# 4 0.0000 0.0000 0.0000 51.4601 0.0000 -1.1476
# 5 -9.7750 1.0091 -10.7358 0.0000 52.6637 0.0000
# 6 0.0000 0.0000 0.0000 -1.1476 0.0000 23.9391
#
#
#
# Elastic Compliance Matrix: (Units=1/GPa)
#
#
# Indices 1 2 3 4 5 6 
#
# 1 0.029954 0.014631 -0.008633 0.000000 0.003520 0.000000
# 2 0.014631 0.018232 -0.007692 0.000000 0.000798 0.000000
# 3 -0.008633 -0.007692 0.007692 0.000000 0.000113 0.000000
# 4 0.000000 0.000000 0.000000 0.019453 0.000000 0.000933
# 5 0.003520 0.000798 0.000113 0.000000 0.019649 0.000000
# 6 0.000000 0.000000 0.000000 0.000933 0.000000 0.041817
#
#
# Mechanical properties :
#
#
# Convention : Reuss Voigt Hill
#
# Bulk Modulus (GPa) = 19.05170 63.81213 41.43192
# Shear Modulus (GPa) = 31.70937 48.52467 40.11702
#
# Velocity S-wave (km/s) = 3.53229 4.36963 3.97308
# Velocity P-wave (km/s) = 4.91250 7.11106 6.11146
#
# Compressibility (1/GPa) = 0.05248875
#
# Stress axis : x y z
#
# Youngs Moduli (GPa) = 33.38450 54.84975 130.01175
#
# Poissons Ratio (x) = -0.80252 1.12240
# Poissons Ratio (y) = -0.48845 1.00009
# Poissons Ratio (z) = 0.28821 0.42192
#
# Static dielectric constant tensor:
#      x y z
#    x 2.104740 0.000000 -0.037140 
#    y 0.000000 1.983590 0.000000 
#    z -0.037140 0.000000 1.966840 
# 
# From -- ./inp_files/3988.got.cif
#   From: 2010.05.17/outbox.cif.g08.bks.cpg/sg5_2_cif.got.tgz:3988.got - 2010.06.03 18:56:24.
