data_PCOD9121771
_publ_section_title
;
Structure prediction by ZEFSAII (Michael W. Deem and Ramdas Pophale) SiO2 
 PCOD9121771
Probable space group: C 2
;
_chemical_formula_sum "Si O2"
_cell_formula_units_Z 24
_cell_length_a 13.510622
_cell_length_b 8.020392
_cell_length_c 10.298194
_cell_angle_alpha 90.000000
_cell_angle_beta 99.057265
_cell_angle_gamma 90.000000
_cell_volume 1102.003474
_symmetry_space_group_name_H-M "C 2"
_symmetry_group_IT_number 5
_symmetry_cell_setting 'monoclinic'
loop_
_space_group_symop_operation_xyz
x,y,z
-x,y,-z
1/2+x,1/2+y,z
1/2-x,1/2+y,-z
loop_
_atom_site_type_symbol
_atom_site_label
_atom_site_fract_x
_atom_site_fract_y
_atom_site_fract_z
Si Si1 0.284418 0.845540 0.928829
Si Si2 0.500000 0.571109 0.500000
Si Si3 0.313881 0.817857 0.437470
Si Si4 0.811229 0.717321 0.836804
Si Si5 0.500000 0.671992 0.000000
Si Si6 0.240594 0.657454 0.669844
Si Si7 0.951155 0.954922 0.757553
O O1 0.396902 0.772459 0.964595
O O2 0.223878 0.743393 0.805240
O O3 0.299429 0.032774 0.885696
O O4 0.228679 0.833927 0.054847
O O5 0.408304 0.699736 0.476243
O O6 0.500538 0.457271 0.627705
O O7 0.254481 0.739431 0.305140
O O8 0.253696 0.796648 0.560436
O O9 0.330396 0.010621 0.400361
O O10 0.920282 0.780047 0.814247
O O11 0.512409 0.558952 0.874975
O O12 0.346221 0.556881 0.712904
#
# Coordination Sequence:
#
# PCOD9121771 Si02
#       7
#     4   2   4   4   2   4   4
#     4  11  22  38  62  89 119 158 198 243 297 353
#     4  10  20  36  64  92 120 156 196 252 302 336
#     4  10  19  36  60  86 120 159 197 242 291 350
#     4  11  22  38  60  88 119 159 202 240 293 364
#     4  10  20  38  60  88 122 150 190 250 298 346
#     4   9  19  35  58  85 117 157 195 235 291 354
#     4   9  20  36  58  86 118 154 195 241 296 349
#
# _framework density 21.778516
#
# number of rings (size 3 to 8) (size 9 to 14) (size 15 to 20)
#    0.000    2.000    0.000    5.000    0.000    0.667 
#    0.000    0.000    0.000   69.000    0.000    0.000 
#    0.000    0.000    0.000    0.000    0.000    0.000 
#
# Total GULP energy -67029.965421 kJ/mol
# GULP energy per Si atom -5585.830452 kJ/mol
# Density = 2.172895 g / cm^3
# Si number density = 21.778516 Si / 1000 Ang^3
#
#
#
# Elastic Constant Matrix: (Units=GPa)
#
#
# Indices 1 2 3 4 5 6 
#
# 1 31.6969 13.7371 26.3364 0.0000 -3.8776 0.0000
# 2 13.7371 99.1895 31.1316 0.0000 5.6527 0.0000
# 3 26.3364 31.1316 153.8603 0.0000 -4.7907 0.0000
# 4 0.0000 0.0000 0.0000 17.5341 0.0000 -5.4688
# 5 -3.8776 5.6527 -4.7907 0.0000 25.4625 0.0000
# 6 0.0000 0.0000 0.0000 -5.4688 0.0000 16.2916
#
#
#
# Elastic Compliance Matrix: (Units=1/GPa)
#
#
# Indices 1 2 3 4 5 6 
#
# 1 0.038626 -0.003902 -0.005645 0.000000 0.005686 0.000000
# 2 -0.003902 0.011364 -0.001739 0.000000 -0.003444 0.000000
# 3 -0.005645 -0.001739 0.007849 0.000000 0.001003 0.000000
# 4 0.000000 0.000000 0.000000 0.063701 0.000000 0.021383
# 5 0.005686 -0.003444 0.001003 0.000000 0.041093 0.000000
# 6 0.000000 0.000000 0.000000 0.021383 0.000000 0.068559
#
#
# Mechanical properties :
#
#
# Convention : Reuss Voigt Hill
#
# Bulk Modulus (GPa) = 28.35472 47.46190 37.90831
# Shear Modulus (GPa) = 18.83107 26.09375 22.46241
#
# Velocity S-wave (km/s) = 2.94370 3.46517 3.21503
# Velocity P-wave (km/s) = 4.96001 6.15225 5.58802
#
# Compressibility (1/GPa) = 0.03526750
#
# Stress axis : x y z
#
# Youngs Moduli (GPa) = 25.88939 87.99663 127.40924
#
# Poissons Ratio (x) = 0.34334 0.71924
# Poissons Ratio (y) = 0.10101 0.22153
# Poissons Ratio (z) = 0.14615 0.15300
#
# Static dielectric constant tensor:
#      x y z
#    x 1.890910 0.000000 -0.023420 
#    y 0.000000 1.821150 0.000000 
#    z -0.023420 0.000000 1.777960 
# 
# From -- ./inp_files/22874.got.cif
#   From: 2010.05.17/outbox.cif.g08.bks.cpg/sg5_12_cif.got.tgz:22874.got - 2010.06.03 18:56:24.
