data_PCOD9121618
_publ_section_title
;
Structure prediction by ZEFSAII (Michael W. Deem and Ramdas Pophale) SiO2 
 PCOD9121618
Probable space group: C 2
;
_chemical_formula_sum "Si O2"
_cell_formula_units_Z 20
_cell_length_a 7.692104
_cell_length_b 23.060711
_cell_length_c 8.380484
_cell_angle_alpha 90.000000
_cell_angle_beta 35.622748
_cell_angle_gamma 90.000000
_cell_volume 865.849520
_symmetry_space_group_name_H-M "C 2"
_symmetry_group_IT_number 5
_symmetry_cell_setting 'monoclinic'
loop_
_space_group_symop_operation_xyz
x,y,z
-x,y,-z
1/2+x,1/2+y,z
1/2-x,1/2+y,-z
loop_
_atom_site_type_symbol
_atom_site_label
_atom_site_fract_x
_atom_site_fract_y
_atom_site_fract_z
Si Si1 0.365859 0.741910 0.919218
Si Si2 0.840754 0.056565 0.282633
Si Si3 0.356190 0.166927 0.428961
Si Si4 0.215009 0.374069 0.101567
Si Si5 0.416699 0.439604 0.388597
O O1 0.609634 0.715579 0.621265
O O2 0.302007 0.804915 0.896545
O O3 0.500000 0.748474 0.000000
O O4 0.108446 0.692727 0.126255
O O5 0.500000 0.041780 0.500000
O O6 0.809812 0.104677 0.446003
O O7 0.971617 0.995382 0.236623
O O8 0.000000 0.078274 0.000000
O O9 0.500000 0.164859 0.500000
O O10 0.909283 0.408052 0.374569
O O11 0.500000 0.389573 0.000000
O O12 0.331763 0.393151 0.842010
O O13 0.500000 0.461301 0.500000
#
# Coordination Sequence:
#
# PCOD9121618 Si02
#       5
#     4   4   4   4   4
#     4  10  19  35  58  86 118 157 201 247 297 361
#     4  11  21  38  63  91 123 162 207 254 303 367
#     4   9  18  33  58  87 117 155 200 243 296 363
#     4  12  25  42  63  91 125 165 209 259 314 371
#     4  12  25  42  63  91 125 165 209 259 314 370
#
# _framework density 23.098703
#
# number of rings (size 3 to 8) (size 9 to 14) (size 15 to 20)
#    0.000    1.200    0.000    9.600    0.000    1.600 
#    0.000    2.000    0.000    0.000    0.000    0.000 
#    0.000    0.000    0.000    0.000    0.000    0.000 
#
# Total GULP energy -55783.735731 kJ/mol
# GULP energy per Si atom -5578.373573 kJ/mol
# Density = 2.304613 g / cm^3
# Si number density = 23.098703 Si / 1000 Ang^3
#
#
#
# Elastic Constant Matrix: (Units=GPa)
#
#
# Indices 1 2 3 4 5 6 
#
# 1 41.4948 17.1186 11.4856 0.0000 -2.5620 0.0000
# 2 17.1186 143.4132 4.7607 0.0000 -11.7543 0.0000
# 3 11.4856 4.7607 94.8058 0.0000 -20.9329 0.0000
# 4 0.0000 0.0000 0.0000 54.8690 0.0000 -10.4920
# 5 -2.5620 -11.7543 -20.9329 0.0000 21.7736 0.0000
# 6 0.0000 0.0000 0.0000 -10.4920 0.0000 14.5290
#
#
#
# Elastic Compliance Matrix: (Units=1/GPa)
#
#
# Indices 1 2 3 4 5 6 
#
# 1 0.026245 -0.003178 -0.003449 0.000000 -0.001943 0.000000
# 2 -0.003178 0.007711 0.001059 0.000000 0.004807 0.000000
# 3 -0.003449 0.001059 0.013900 0.000000 0.013529 0.000000
# 4 0.000000 0.000000 0.000000 0.021145 0.000000 0.015270
# 5 -0.001943 0.004807 0.013529 0.000000 0.061300 0.000000
# 6 0.000000 0.000000 0.000000 0.015270 0.000000 0.079855
#
#
# Mechanical properties :
#
#
# Convention : Reuss Voigt Hill
#
# Bulk Modulus (GPa) = 27.23250 38.49374 32.86312
# Shear Modulus (GPa) = 21.41045 34.65758 28.03402
#
# Velocity S-wave (km/s) = 3.04782 3.87772 3.48754
# Velocity P-wave (km/s) = 4.91944 6.06218 5.52046
#
# Compressibility (1/GPa) = 0.03672083
#
# Stress axis : x y z
#
# Youngs Moduli (GPa) = 38.10251 129.68524 71.94403
#
# Poissons Ratio (x) = 0.41208 0.24814
# Poissons Ratio (y) = 0.12107 -0.07620
# Poissons Ratio (z) = 0.13142 -0.13735
#
# Static dielectric constant tensor:
#      x y z
#    x 1.947600 0.000000 -0.020610 
#    y 0.000000 1.872630 0.000000 
#    z -0.020610 0.000000 1.790960 
# 
# From -- ./inp_files/2673.got.cif
#   From: 2010.05.17/outbox.cif.g08.bks.cpg/sg5_2_cif.got.tgz:2673.got - 2010.06.03 18:56:24.
