data_PCOD9121427
_publ_section_title
;
Structure prediction by ZEFSAII (Michael W. Deem and Ramdas Pophale) SiO2 
 PCOD9121427
Probable space group: C 2
;
_chemical_formula_sum "Si O2"
_cell_formula_units_Z 18
_cell_length_a 20.959755
_cell_length_b 5.132587
_cell_length_c 13.410991
_cell_angle_alpha 90.000000
_cell_angle_beta 27.199010
_cell_angle_gamma 90.000000
_cell_volume 659.444184
_symmetry_space_group_name_H-M "C 2"
_symmetry_group_IT_number 5
_symmetry_cell_setting 'monoclinic'
loop_
_space_group_symop_operation_xyz
x,y,z
-x,y,-z
1/2+x,1/2+y,z
1/2-x,1/2+y,-z
loop_
_atom_site_type_symbol
_atom_site_label
_atom_site_fract_x
_atom_site_fract_y
_atom_site_fract_z
Si Si1 0.500000 0.882951 0.500000
Si Si2 0.839240 0.141741 0.896478
Si Si3 0.818945 0.595981 0.282528
Si Si4 0.790969 0.610141 0.660910
Si Si5 0.548074 0.358995 0.733359
O O1 0.462385 0.702043 0.645535
O O2 0.368817 0.064485 0.656309
O O3 0.915598 0.031769 0.889179
O O4 0.757105 0.413983 0.015244
O O5 0.815378 0.340957 0.218388
O O6 0.686816 0.541279 0.542002
O O7 0.775375 0.840457 0.278246
O O8 0.945359 0.681802 0.177812
O O9 0.919521 0.676267 0.406466
#
# Coordination Sequence:
#
# PCOD9121427 Si02
#       5
#     2   4   4   4   4
#     4  12  24  50  72 106 166 192 242 316 368 456
#     4  12  29  44  73 116 151 200 248 300 383 453
#     4  10  19  33  66 105 134 185 257 292 357 442
#     4  10  20  33  64 104 131 190 241 290 369 431
#     4  10  20  39  65 105 148 183 253 307 351 444
#
# _framework density 27.295712000000002
#
# number of rings (size 3 to 8) (size 9 to 14) (size 15 to 20)
#    1.333    0.000    4.444    1.333    0.000    8.000 
#    0.000    0.000    0.000    1.333    5.778    0.000 
#    0.000    0.000    0.000    0.000    0.000    0.000 
#
# Total GULP energy -50430.896608 kJ/mol
# GULP energy per Si atom -5603.432956 kJ/mol
# Density = 2.723359 g / cm^3
# Si number density = 27.295712 Si / 1000 Ang^3
#
#
#
# Elastic Constant Matrix: (Units=GPa)
#
#
# Indices 1 2 3 4 5 6 
#
# 1 159.2564 66.2637 27.6949 0.0003 -20.2802 0.0004
# 2 66.2637 186.8031 40.0892 -0.0025 -10.8404 0.0011
# 3 27.6949 40.0892 105.8596 0.0050 -23.9280 0.0025
# 4 0.0003 -0.0025 0.0050 51.0087 -0.0021 -12.5818
# 5 -20.2802 -10.8404 -23.9280 -0.0021 41.7918 0.0003
# 6 0.0004 0.0011 0.0025 -12.5818 0.0003 61.7324
#
#
#
# Elastic Compliance Matrix: (Units=1/GPa)
#
#
# Indices 1 2 3 4 5 6 
#
# 1 0.007757 -0.002491 -0.000438 0.000000 0.002867 0.000000
# 2 -0.002491 0.006630 -0.002003 0.000001 -0.000636 0.000000
# 3 -0.000438 -0.002003 0.011663 -0.000001 0.005946 -0.000001
# 4 0.000000 0.000001 -0.000001 0.020642 0.000000 0.004207
# 5 0.002867 -0.000636 0.005946 0.000000 0.028559 0.000000
# 6 0.000000 0.000000 -0.000001 0.004207 0.000000 0.017056
#
#
# Mechanical properties :
#
#
# Convention : Reuss Voigt Hill
#
# Bulk Modulus (GPa) = 61.77887 80.00164 70.89026
# Shear Modulus (GPa) = 46.48258 52.09798 49.29028
#
# Velocity S-wave (km/s) = 4.13113 4.37355 4.25407
# Velocity P-wave (km/s) = 6.74072 7.40789 7.08216
#
# Compressibility (1/GPa) = 0.01618676
#
# Stress axis : x y z
#
# Youngs Moduli (GPa) = 128.91538 150.83339 85.73793
#
# Poissons Ratio (x) = 0.37576 0.03754
# Poissons Ratio (y) = 0.32116 0.17171
# Poissons Ratio (z) = 0.05644 0.30207
#
# Static dielectric constant tensor:
#      x y z
#    x 2.081650 0.000000 0.034690 
#    y 0.000000 1.998210 0.000000 
#    z 0.034690 0.000000 2.222070 
# 
# From -- ./inp_files/56287.got.cif
#   From: 2010.05.17/outbox.cif.g08.bks.cpg/sg5_29_cif.got.tgz:56287.got - 2010.06.03 18:56:24.
