data_PCOD9121710
_publ_section_title
;
Structure prediction by ZEFSAII (Michael W. Deem and Ramdas Pophale) SiO2 
 PCOD9121710
Probable space group: C 2
;
_chemical_formula_sum "Si O2"
_cell_formula_units_Z 20
_cell_length_a 19.263092
_cell_length_b 6.479581
_cell_length_c 14.265416
_cell_angle_alpha 90.000000
_cell_angle_beta 24.426480
_cell_angle_gamma 90.000000
_cell_volume 736.307827
_symmetry_space_group_name_H-M "C 2"
_symmetry_group_IT_number 5
_symmetry_cell_setting 'monoclinic'
loop_
_space_group_symop_operation_xyz
x,y,z
-x,y,-z
1/2+x,1/2+y,z
1/2-x,1/2+y,-z
loop_
_atom_site_type_symbol
_atom_site_label
_atom_site_fract_x
_atom_site_fract_y
_atom_site_fract_z
Si Si1 0.926434 0.497440 0.214191
Si Si2 0.113383 0.132613 0.088937
Si Si3 0.497802 0.877037 0.610467
Si Si4 0.621170 0.265476 0.553538
Si Si5 0.849148 0.874656 0.129135
O O1 0.791681 0.380829 0.313981
O O2 0.834791 0.619869 0.411922
O O3 0.029205 0.316279 0.135841
O O4 0.060222 0.666534 0.015488
O O5 0.136388 0.255916 0.160150
O O6 0.996150 0.947572 0.266781
O O7 0.214006 0.013865 0.881190
O O8 0.500000 0.809210 0.500000
O O9 0.696494 0.826210 0.386817
O O10 0.511983 0.121392 0.617918
O O11 0.000000 0.984888 0.000000
#
# Coordination Sequence:
#
# PCOD9121710 Si02
#       5
#     4   4   4   4   4
#     4  10  19  35  66 104 136 174 229 296 359 422
#     4  10  22  42  66  98 138 190 231 292 352 426
#     4  11  26  47  67 103 148 192 241 288 359 439
#     4  10  19  37  69  97 138 181 229 292 356 418
#     4  11  24  41  69 109 138 179 244 295 366 428
#
# _framework density 27.162552000000002
#
# number of rings (size 3 to 8) (size 9 to 14) (size 15 to 20)
#    0.000    1.600    2.000    2.400    5.600    4.800 
#   10.800    0.000    0.000    0.000    0.000    0.000 
#    0.000    0.000    0.000    0.000    0.000    0.000 
#
# Total GULP energy -55777.064285 kJ/mol
# GULP energy per Si atom -5577.706428 kJ/mol
# Density = 2.710073 g / cm^3
# Si number density = 27.162552 Si / 1000 Ang^3
#
#
#
# Elastic Constant Matrix: (Units=GPa)
#
#
# Indices 1 2 3 4 5 6 
#
# 1 117.2768 30.2660 -1.8170 -0.0011 25.0316 0.0004
# 2 30.2660 158.4124 32.7817 -0.0043 19.4078 0.0016
# 3 -1.8170 32.7817 110.8314 -0.0024 18.0999 0.0014
# 4 -0.0011 -0.0043 -0.0024 64.7812 0.0009 19.6249
# 5 25.0316 19.4078 18.0999 0.0009 32.0356 0.0000
# 6 0.0004 0.0016 0.0014 19.6249 0.0000 23.1605
#
#
#
# Elastic Compliance Matrix: (Units=1/GPa)
#
#
# Indices 1 2 3 4 5 6 
#
# 1 0.010781 -0.001410 0.002016 0.000000 -0.008708 -0.000001
# 2 -0.001410 0.007230 -0.001792 0.000001 -0.002266 -0.000001
# 3 0.002016 -0.001792 0.010648 0.000001 -0.006506 -0.000001
# 4 0.000000 0.000001 0.000001 0.020767 -0.000002 -0.017597
# 5 -0.008708 -0.002266 -0.006506 -0.000002 0.043069 0.000002
# 6 -0.000001 -0.000001 -0.000001 -0.017597 0.000002 0.058088
#
#
# Mechanical properties :
#
#
# Convention : Reuss Voigt Hill
#
# Bulk Modulus (GPa) = 38.04012 56.55354 47.29683
# Shear Modulus (GPa) = 30.91819 45.68146 38.29982
#
# Velocity S-wave (km/s) = 3.37748 4.10540 3.75910
# Velocity P-wave (km/s) = 5.40785 6.58316 6.02424
#
# Compressibility (1/GPa) = 0.02628803
#
# Stress axis : x y z
#
# Youngs Moduli (GPa) = 92.75834 138.30401 93.91282
#
# Poissons Ratio (x) = 0.19501 -0.18933
# Poissons Ratio (y) = 0.13079 0.16826
# Poissons Ratio (z) = -0.18700 0.24779
#
# Static dielectric constant tensor:
#      x y z
#    x 2.336880 0.000000 -0.001550 
#    y 0.000000 2.118450 0.000000 
#    z -0.001550 0.000000 2.229020 
# 
# From -- ./inp_files/40965.got.cif
#   From: 2010.05.17/outbox.cif.g08.bks.cpg/sg5_21_cif.got.tgz:40965.got - 2010.06.03 18:56:24.
