data_PCOD9121469
_publ_section_title
;
Structure prediction by ZEFSAII (Michael W. Deem and Ramdas Pophale) SiO2 
 PCOD9121469
Probable space group: C 2
;
_chemical_formula_sum "Si O2"
_cell_formula_units_Z 22
_cell_length_a 24.634242
_cell_length_b 4.986879
_cell_length_c 7.168397
_cell_angle_alpha 90.000000
_cell_angle_beta 87.262906
_cell_angle_gamma 90.000000
_cell_volume 879.618478
_symmetry_space_group_name_H-M "C 2"
_symmetry_group_IT_number 5
_symmetry_cell_setting 'monoclinic'
loop_
_space_group_symop_operation_xyz
x,y,z
-x,y,-z
1/2+x,1/2+y,z
1/2-x,1/2+y,-z
loop_
_atom_site_type_symbol
_atom_site_label
_atom_site_fract_x
_atom_site_fract_y
_atom_site_fract_z
Si Si1 0.500000 0.156271 0.500000
Si Si2 0.822993 0.763973 0.338103
Si Si3 0.394647 0.426378 0.631703
Si Si4 0.631402 0.761676 0.881697
Si Si5 0.730467 0.882006 0.102637
Si Si6 0.933900 0.441424 0.809615
O O1 0.445194 0.329101 0.493822
O O2 0.490283 0.992333 0.691928
O O3 0.839021 0.839741 0.544602
O O4 0.856799 0.977318 0.208967
O O5 0.760195 0.811782 0.290768
O O6 0.845368 0.476386 0.270341
O O7 0.405476 0.234311 0.807392
O O8 0.405430 0.733496 0.671132
O O9 0.670552 0.794109 0.057176
O O10 0.573395 0.822295 0.983985
O O11 0.736350 0.193249 0.049809
#
# Coordination Sequence:
#
# PCOD9121469 Si02
#       6
#     2   4   4   4   4   4
#     4   8  22  36  60  64 110 144 176 200 282 318
#     4  10  19  34  56  81 107 136 175 217 254 307
#     4  10  20  36  57  74 103 145 174 210 266 316
#     4  10  19  34  56  81 107 136 175 217 254 307
#     4   8  16  30  50  76 108 140 162 200 268 314
#     4  10  20  36  57  74 103 145 174 210 266 316
#
# _framework density 25.010843999999999
#
# number of rings (size 3 to 8) (size 9 to 14) (size 15 to 20)
#    1.091    1.455    0.000    2.727    0.000    0.000 
#    0.000    2.727    0.000    0.000    0.000    0.000 
#    0.000    0.000    0.000    0.000    0.000    0.000 
#
# Total GULP energy -61318.770476 kJ/mol
# GULP energy per Si atom -5574.433680 kJ/mol
# Density = 2.495392 g / cm^3
# Si number density = 25.010844 Si / 1000 Ang^3
#
#
#
# Elastic Constant Matrix: (Units=GPa)
#
#
# Indices 1 2 3 4 5 6 
#
# 1 46.4915 6.7694 25.0783 0.0000 5.2067 0.0000
# 2 6.7694 78.8880 4.9480 0.0000 0.2714 0.0000
# 3 25.0783 4.9480 34.7666 0.0000 5.0484 0.0000
# 4 0.0000 0.0000 0.0000 9.7416 0.0000 -4.9263
# 5 5.2067 0.2714 5.0484 0.0000 43.4686 0.0000
# 6 0.0000 0.0000 0.0000 -4.9263 0.0000 23.6261
#
#
#
# Elastic Compliance Matrix: (Units=1/GPa)
#
#
# Indices 1 2 3 4 5 6 
#
# 1 0.035446 -0.001458 -0.025170 0.000000 -0.001313 0.000000
# 2 -0.001458 0.012851 -0.000804 0.000000 0.000188 0.000000
# 3 -0.025170 -0.000804 0.047395 0.000000 -0.002484 0.000000
# 4 0.000000 0.000000 0.000000 0.114752 0.000000 0.023927
# 5 -0.001313 0.000188 -0.002484 0.000000 0.023450 0.000000
# 6 0.000000 0.000000 0.000000 0.023927 0.000000 0.047315
#
#
# Mechanical properties :
#
#
# Convention : Reuss Voigt Hill
#
# Bulk Modulus (GPa) = 24.49413 25.97084 25.23248
# Shear Modulus (GPa) = 14.29866 23.59062 18.94464
#
# Velocity S-wave (km/s) = 2.39362 3.07451 2.75518
# Velocity P-wave (km/s) = 4.17778 4.79686 4.49799
#
# Compressibility (1/GPa) = 0.04082610
#
# Stress axis : x y z
#
# Youngs Moduli (GPa) = 28.21200 77.81409 21.09948
#
# Poissons Ratio (x) = 0.11348 0.53108
# Poissons Ratio (y) = 0.04114 0.01697
# Poissons Ratio (z) = 0.71010 0.06259
#
# Static dielectric constant tensor:
#      x y z
#    x 2.074880 0.000000 0.008120 
#    y 0.000000 1.946070 0.000000 
#    z 0.008120 0.000000 2.030860 
# 
# From -- ./inp_files/31216.got.cif
#   From: 2010.05.17/outbox.cif.g08.bks.cpg/sg5_16_cif.got.tgz:31216.got - 2010.06.03 18:56:24.
