data_PCOD9121360
_publ_section_title
;
Structure prediction by ZEFSAII (Michael W. Deem and Ramdas Pophale) SiO2 
 PCOD9121360
Probable space group: C 2
;
_chemical_formula_sum "Si O2"
_cell_formula_units_Z 28
_cell_length_a 9.428504
_cell_length_b 11.991728
_cell_length_c 15.812886
_cell_angle_alpha 90.000000
_cell_angle_beta 129.548247
_cell_angle_gamma 90.000000
_cell_volume 1378.605576
_symmetry_space_group_name_H-M "C 2"
_symmetry_group_IT_number 5
_symmetry_cell_setting 'monoclinic'
loop_
_space_group_symop_operation_xyz
x,y,z
-x,y,-z
1/2+x,1/2+y,z
1/2-x,1/2+y,-z
loop_
_atom_site_type_symbol
_atom_site_label
_atom_site_fract_x
_atom_site_fract_y
_atom_site_fract_z
Si Si1 0.466909 0.918020 0.233012
Si Si2 0.798646 0.106501 0.934003
Si Si3 0.977684 0.868832 0.756849
Si Si4 0.254641 0.256702 0.246903
Si Si5 0.879655 0.522859 0.370911
Si Si6 0.712024 0.039250 0.080183
Si Si7 0.358905 0.243735 0.867834
O O1 0.621540 0.847641 0.240958
O O2 0.302390 0.830260 0.180151
O O3 0.367831 0.022541 0.150194
O O4 0.499604 0.969140 0.339295
O O5 0.808525 0.208049 0.870054
O O6 0.768084 0.118984 0.022489
O O7 0.000000 0.049933 0.000000
O O8 0.053646 0.818532 0.699346
O O9 0.949348 0.771179 0.813509
O O10 0.140558 0.943725 0.857373
O O11 0.793824 0.940900 0.681021
O O12 0.293941 0.142997 0.312733
O O13 0.000000 0.532530 0.500000
O O14 0.722471 0.120077 0.164083
O O15 0.500000 0.999244 0.000000
O O16 0.500000 0.251324 0.000000
#
# Coordination Sequence:
#
# PCOD9121360 Si02
#       7
#     4   4   4   4   4   4   4
#     4  10  20  37  61  86 116 155 196 243 298 354
#     4  11  21  35  55  87 128 166 201 237 279 341
#     4  11  23  39  60  87 120 158 199 244 293 349
#     4  11  23  39  63  89 118 155 199 247 300 354
#     4  10  24  45  64  85 114 148 197 259 314 364
#     4  11  21  34  55  86 126 163 197 233 276 341
#     4  10  19  33  54  82 121 163 195 229 278 339
#
# _framework density 20.310379000000001
#
# number of rings (size 3 to 8) (size 9 to 14) (size 15 to 20)
#    0.000    1.429    0.000    8.143    0.000    4.000 
#    0.000    0.000    0.000    0.000    0.000    0.000 
#    0.000    0.000    0.000    0.000    0.000    0.000 
#
# Total GULP energy -78093.741421 kJ/mol
# GULP energy per Si atom -5578.124387 kJ/mol
# Density = 2.026415 g / cm^3
# Si number density = 20.310379 Si / 1000 Ang^3
#
#
#
# Elastic Constant Matrix: (Units=GPa)
#
#
# Indices 1 2 3 4 5 6 
#
# 1 146.1247 52.5638 30.9732 0.0000 -11.4677 0.0000
# 2 52.5638 104.9596 25.6401 0.0000 -11.0007 0.0000
# 3 30.9732 25.6401 61.1625 0.0000 -5.4684 0.0000
# 4 0.0000 0.0000 0.0000 -3.2251 0.0000 0.2035
# 5 -11.4677 -11.0007 -5.4684 0.0000 14.8328 0.0000
# 6 0.0000 0.0000 0.0000 0.2035 0.0000 40.2505
#
#
#
# Elastic Compliance Matrix: (Units=1/GPa)
#
#
# Indices 1 2 3 4 5 6 
#
# 1 0.008934 -0.003446 -0.002782 0.000000 0.003326 0.000000
# 2 -0.003446 0.012575 -0.003031 0.000000 0.005545 0.000000
# 3 -0.002782 -0.003031 0.019271 0.000000 0.002706 0.000000
# 4 0.000000 0.000000 0.000000 -0.309973 0.000000 0.001567
# 5 0.003326 0.005545 0.002706 0.000000 0.075099 0.000000
# 6 0.000000 0.000000 0.000000 0.001567 0.000000 0.024836
#
#
# Mechanical properties :
#
#
# Convention : Reuss Voigt Hill
#
# Bulk Modulus (GPa) = 44.91946 58.95566 51.93756
# Shear Modulus (GPa) = -34.88714 23.90963 -5.48876
#
# Velocity S-wave (km/s) = -4.14901 3.43477 -1.64569
# Velocity P-wave (km/s) = 0.88762 6.69482 4.69216
#
# Compressibility (1/GPa) = 0.02226206
#
# Stress axis : x y z
#
# Youngs Moduli (GPa) = 111.93542 79.52532 51.89067
#
# Poissons Ratio (x) = 0.27403 0.14437
# Poissons Ratio (y) = 0.38571 0.15727
# Poissons Ratio (z) = 0.31143 0.24102
#
# Static dielectric constant tensor:
#      x y z
#    x 1.796330 0.000000 -0.046300 
#    y 0.000000 1.775820 0.000000 
#    z -0.046300 0.000000 1.734990 
# 
# From -- ./inp_files/50419.got.cif
#   From: 2010.05.17/outbox.cif.g08.bks.cpg/sg5_26_cif.got.tgz:50419.got - 2010.06.03 18:56:24.
