data_PCOD9121015
_publ_section_title
;
Structure prediction by ZEFSAII (Michael W. Deem and Ramdas Pophale) SiO2 
 PCOD9121015
Probable space group: C 2
;
_chemical_formula_sum "Si O2"
_cell_formula_units_Z 24
_cell_length_a 11.786807
_cell_length_b 20.761726
_cell_length_c 7.784138
_cell_angle_alpha 90.000000
_cell_angle_beta 139.706855
_cell_angle_gamma 90.000000
_cell_volume 1231.890274
_symmetry_space_group_name_H-M "C 2"
_symmetry_group_IT_number 5
_symmetry_cell_setting 'monoclinic'
loop_
_space_group_symop_operation_xyz
x,y,z
-x,y,-z
1/2+x,1/2+y,z
1/2-x,1/2+y,-z
loop_
_atom_site_type_symbol
_atom_site_label
_atom_site_fract_x
_atom_site_fract_y
_atom_site_fract_z
Si Si1 0.862345 0.479940 0.183524
Si Si2 0.000000 0.546008 0.000000
Si Si3 0.290444 0.107004 0.242451
Si Si4 0.764269 0.653981 0.588179
Si Si5 0.430208 0.719515 0.114412
Si Si6 0.814639 0.337016 0.183533
Si Si7 0.000000 0.760507 0.000000
O O1 0.739071 0.539051 0.100162
O O2 0.777820 0.409544 0.076917
O O3 0.000000 0.475671 0.500000
O O4 0.959421 0.503203 0.121390
O O5 0.836969 0.595522 0.786689
O O6 0.500000 0.109358 0.500000
O O7 0.229244 0.119651 0.365211
O O8 0.218854 0.165542 0.049302
O O9 0.587198 0.693706 0.416460
O O10 0.912252 0.710294 0.762531
O O11 0.353616 0.787685 0.076349
O O12 0.500000 0.723721 0.000000
O O13 0.654537 0.305508 0.104583
O O14 0.000000 0.338504 0.500000
#
# Coordination Sequence:
#
# PCOD9121015 Si02
#       7
#     4   2   4   4   4   4   2
#     4  10  22  39  61  91 129 177 212 265 325 389
#     4  11  20  38  68  88 127 174 214 268 325 388
#     4  10  18  38  60  90 124 164 212 264 320 371
#     4  10  20  36  62  95 120 164 218 263 324 376
#     4  10  22  37  63  94 129 164 214 280 313 383
#     4  11  23  41  62  91 132 171 218 264 326 391
#     4  11  22  40  66  92 125 170 216 272 325 386
#
# _framework density 19.482254999999999
#
# number of rings (size 3 to 8) (size 9 to 14) (size 15 to 20)
#    0.000    1.667    5.000    1.000    3.500    0.000 
#    4.500    0.000    0.000    6.000    0.000    0.000 
#    0.000    0.000    0.000    0.000    0.000    0.000 
#
# Total GULP energy -66851.716409 kJ/mol
# GULP energy per Si atom -5570.976367 kJ/mol
# Density = 1.943791 g / cm^3
# Si number density = 19.482255 Si / 1000 Ang^3
#
#
#
# Elastic Constant Matrix: (Units=GPa)
#
#
# Indices 1 2 3 4 5 6 
#
# 1 104.1146 65.3883 21.3471 0.0000 -4.5897 0.0000
# 2 65.3883 205.2396 39.4962 0.0000 -2.7787 0.0000
# 3 21.3471 39.4962 62.0485 0.0000 3.5812 0.0000
# 4 0.0000 0.0000 0.0000 23.2613 0.0000 -0.8547
# 5 -4.5897 -2.7787 3.5812 0.0000 25.4245 0.0000
# 6 0.0000 0.0000 0.0000 -0.8547 0.0000 18.6212
#
#
#
# Elastic Compliance Matrix: (Units=1/GPa)
#
#
# Indices 1 2 3 4 5 6 
#
# 1 0.012329 -0.003486 -0.002147 0.000000 0.002147 0.000000
# 2 -0.003486 0.006569 -0.003012 0.000000 0.000513 0.000000
# 3 -0.002147 -0.003012 0.018968 0.000000 -0.003388 0.000000
# 4 0.000000 0.000000 0.000000 0.043062 0.000000 0.001977
# 5 0.002147 0.000513 -0.003388 0.000000 0.040253 0.000000
# 6 0.000000 0.000000 0.000000 0.001977 0.000000 0.053793
#
#
# Mechanical properties :
#
#
# Convention : Reuss Voigt Hill
#
# Bulk Modulus (GPa) = 48.59781 69.31843 58.95812
# Shear Modulus (GPa) = 25.11013 29.80612 27.45813
#
# Velocity S-wave (km/s) = 3.59398 3.91565 3.75826
# Velocity P-wave (km/s) = 6.49777 7.49004 7.01148
#
# Compressibility (1/GPa) = 0.02057706
#
# Stress axis : x y z
#
# Youngs Moduli (GPa) = 81.11106 152.21907 52.72070
#
# Poissons Ratio (x) = 0.53059 0.11318
# Poissons Ratio (y) = 0.28273 0.15880
# Poissons Ratio (z) = 0.17412 0.45850
#
# Static dielectric constant tensor:
#      x y z
#    x 1.790550 0.000000 -0.015760 
#    y 0.000000 1.704740 0.000000 
#    z -0.015760 0.000000 1.727920 
# 
# From -- ./inp_files/21213.got.cif
#   From: 2010.05.17/outbox.cif.g08.bks.cpg/sg5_11_cif.got.tgz:21213.got - 2010.06.03 18:56:24.
