data_PCOD9121589
_publ_section_title
;
Structure prediction by ZEFSAII (Michael W. Deem and Ramdas Pophale) SiO2 
 PCOD9121589
Probable space group: C 2
;
_chemical_formula_sum "Si O2"
_cell_formula_units_Z 26
_cell_length_a 25.082085
_cell_length_b 5.489276
_cell_length_c 9.482166
_cell_angle_alpha 90.000000
_cell_angle_beta 119.122209
_cell_angle_gamma 90.000000
_cell_volume 1140.488082
_symmetry_space_group_name_H-M "C 2"
_symmetry_group_IT_number 5
_symmetry_cell_setting 'monoclinic'
loop_
_space_group_symop_operation_xyz
x,y,z
-x,y,-z
1/2+x,1/2+y,z
1/2-x,1/2+y,-z
loop_
_atom_site_type_symbol
_atom_site_label
_atom_site_fract_x
_atom_site_fract_y
_atom_site_fract_z
Si Si1 0.270535 0.863470 0.947576
Si Si2 0.894174 0.545241 0.207851
Si Si3 0.000000 0.288903 0.000000
Si Si4 0.671637 0.319581 0.610817
Si Si5 0.575032 0.712353 0.518287
Si Si6 0.990773 0.930389 0.225081
Si Si7 0.410399 0.083947 0.706333
O O1 0.240707 0.835733 0.754430
O O2 0.261553 0.601934 0.017237
O O3 0.340917 0.939608 0.042197
O O4 0.860799 0.683345 0.297015
O O5 0.926771 0.320316 0.328340
O O6 0.939105 0.735080 0.192467
O O7 0.062729 0.419382 0.134369
O O8 0.973738 0.146986 0.101245
O O9 0.640371 0.585987 0.571645
O O10 0.653875 0.184261 0.441022
O O11 0.527108 0.511022 0.410322
O O12 0.566121 0.934912 0.400154
O O13 0.047579 0.815652 0.213243
#
# Coordination Sequence:
#
# PCOD9121589 Si02
#       7
#     4   4   2   4   4   4   4
#     4  10  19  35  56  84 130 171 208 245 305 392
#     4  10  20  32  52  85 125 168 197 249 313 382
#     4  10  20  38  54  78 124 162 214 256 302 378
#     4   9  18  32  53  83 121 160 198 245 310 380
#     4   9  18  33  49  78 118 158 196 243 306 379
#     4  10  21  34  54  82 122 164 202 253 307 376
#     4   9  19  33  55  78 114 154 206 255 309 367
#
# _framework density 22.797256000000001
#
# number of rings (size 3 to 8) (size 9 to 14) (size 15 to 20)
#    0.000    2.462    1.538    0.462    0.000    9.231 
#    0.000    0.000    0.000    0.000    0.000    0.000 
#   78.462    2.769    0.923    0.000    0.000    0.000 
#
# Total GULP energy -72381.510339 kJ/mol
# GULP energy per Si atom -5567.808488 kJ/mol
# Density = 2.274537 g / cm^3
# Si number density = 22.797256 Si / 1000 Ang^3
#
#
#
# Elastic Constant Matrix: (Units=GPa)
#
#
# Indices 1 2 3 4 5 6 
#
# 1 14.8419 9.9989 31.5688 0.0000 6.5230 0.0000
# 2 9.9989 82.2904 54.9510 0.0000 7.3397 0.0000
# 3 31.5688 54.9510 213.3483 0.0000 21.3189 0.0000
# 4 0.0000 0.0000 0.0000 54.3684 0.0000 -0.3165
# 5 6.5230 7.3397 21.3189 0.0000 23.2508 0.0000
# 6 0.0000 0.0000 0.0000 -0.3165 0.0000 25.5856
#
#
#
# Elastic Compliance Matrix: (Units=1/GPa)
#
#
# Indices 1 2 3 4 5 6 
#
# 1 0.104199 -0.002411 -0.013158 0.000000 -0.016407 0.000000
# 2 -0.002411 0.014767 -0.003356 0.000000 -0.000908 0.000000
# 3 -0.013158 -0.003356 0.007732 0.000000 -0.002339 0.000000
# 4 0.000000 0.000000 0.000000 0.018394 0.000000 0.000228
# 5 -0.016407 -0.000908 -0.002339 0.000000 0.050043 0.000000
# 6 0.000000 0.000000 0.000000 0.000228 0.000000 0.039087
#
#
# Mechanical properties :
#
#
# Convention : Reuss Voigt Hill
#
# Bulk Modulus (GPa) = 11.25515 55.94645 33.60080
# Shear Modulus (GPa) = 16.57338 34.90509 25.73923
#
# Velocity S-wave (km/s) = 2.69920 3.91718 3.36378
# Velocity P-wave (km/s) = 3.82910 6.71217 5.46421
#
# Compressibility (1/GPa) = 0.08884824
#
# Stress axis : x y z
#
# Youngs Moduli (GPa) = 9.59706 67.71828 129.32975
#
# Poissons Ratio (x) = 0.16329 1.70166
# Poissons Ratio (y) = 0.02314 0.43402
# Poissons Ratio (z) = 0.12627 0.22726
#
# Static dielectric constant tensor:
#      x y z
#    x 2.066460 0.000000 -0.129580 
#    y 0.000000 1.987210 0.000000 
#    z -0.129580 0.000000 1.968410 
# 
# From -- ./inp_files/48170.got.cif
#   From: 2010.05.17/outbox.cif.g08.bks.cpg/sg5_25_cif.got.tgz:48170.got - 2010.06.03 18:56:24.
