data_PCOD9121164
_publ_section_title
;
Structure prediction by ZEFSAII (Michael W. Deem and Ramdas Pophale) SiO2 
 PCOD9121164
Probable space group: C 2
;
_chemical_formula_sum "Si O2"
_cell_formula_units_Z 28
_cell_length_a 13.062089
_cell_length_b 13.248505
_cell_length_c 8.780599
_cell_angle_alpha 90.000000
_cell_angle_beta 77.073683
_cell_angle_gamma 90.000000
_cell_volume 1481.003731
_symmetry_space_group_name_H-M "C 2"
_symmetry_group_IT_number 5
_symmetry_cell_setting 'monoclinic'
loop_
_space_group_symop_operation_xyz
x,y,z
-x,y,-z
1/2+x,1/2+y,z
1/2-x,1/2+y,-z
loop_
_atom_site_type_symbol
_atom_site_label
_atom_site_fract_x
_atom_site_fract_y
_atom_site_fract_z
Si Si1 0.000000 0.840950 0.500000
Si Si2 0.500000 0.853140 0.500000
Si Si3 0.424825 0.184588 0.278482
Si Si4 0.438563 0.832598 0.861891
Si Si5 0.626096 0.066724 0.148247
Si Si6 0.267369 0.671015 0.863227
Si Si7 0.114342 0.031960 0.417540
Si Si8 0.176224 0.521188 0.468723
O O1 0.052204 0.771697 0.609042
O O2 0.081620 0.916900 0.390537
O O3 0.489726 0.807996 0.676455
O O4 0.607863 0.918916 0.478559
O O5 0.529974 0.144700 0.164154
O O6 0.331551 0.213617 0.197713
O O7 0.384261 0.087959 0.386956
O O8 0.336184 0.762547 0.901140
O O9 0.412307 0.952347 0.868267
O O10 0.500000 0.813562 0.000000
O O11 0.664323 0.072259 0.309166
O O12 0.718589 0.099553 0.007323
O O13 0.335408 0.600328 0.728650
O O14 0.202956 0.019236 0.518683
O O15 0.000000 0.076904 0.500000
#
# Coordination Sequence:
#
# PCOD9121164 Si02
#       8
#     2   2   4   4   4   4   4   4
#     4  10  21  39  68  92 126 170 223 253 320 394
#     4  10  21  39  72  96 124 170 227 277 316 392
#     4  11  19  41  66  97 124 166 222 274 311 394
#     4  11  25  44  66  97 132 176 223 273 336 396
#     4  11  22  42  65  95 131 167 217 282 327 382
#     4  11  26  41  64  96 134 169 214 273 343 387
#     4   9  24  41  61  91 136 173 204 266 332 397
#     4  10  18  40  68  94 121 170 220 267 327 379
#
# _framework density 18.906096000000002
#
# number of rings (size 3 to 8) (size 9 to 14) (size 15 to 20)
#    0.429    1.143    4.286    1.286    7.000    2.286 
#    2.571    0.000    0.000    0.000    0.000    0.000 
#    0.000    0.000    0.000    0.000    0.000    0.000 
#
# Total GULP energy -78002.325316 kJ/mol
# GULP energy per Si atom -5571.594665 kJ/mol
# Density = 1.886306 g / cm^3
# Si number density = 18.906096 Si / 1000 Ang^3
#
#
#
# Elastic Constant Matrix: (Units=GPa)
#
#
# Indices 1 2 3 4 5 6 
#
# 1 120.4063 18.1155 49.0267 0.0000 -0.8103 0.0000
# 2 18.1155 50.8209 3.8566 0.0000 -2.9878 0.0000
# 3 49.0267 3.8566 100.0840 0.0000 -2.5512 0.0000
# 4 0.0000 0.0000 0.0000 1.0478 0.0000 -8.0649
# 5 -0.8103 -2.9878 -2.5512 0.0000 35.9697 0.0000
# 6 0.0000 0.0000 0.0000 -8.0649 0.0000 20.1457
#
#
#
# Elastic Compliance Matrix: (Units=1/GPa)
#
#
# Indices 1 2 3 4 5 6 
#
# 1 0.010972 -0.003537 -0.005249 0.000000 -0.000419 0.000000
# 2 -0.003537 0.020966 0.000969 0.000000 0.001731 0.000000
# 3 -0.005249 0.000969 0.012547 0.000000 0.000852 0.000000
# 4 0.000000 0.000000 0.000000 -0.458533 0.000000 -0.183565
# 5 -0.000419 0.001731 0.000852 0.000000 0.027996 0.000000
# 6 0.000000 0.000000 0.000000 -0.183565 0.000000 -0.023848
#
#
# Mechanical properties :
#
#
# Convention : Reuss Voigt Hill
#
# Bulk Modulus (GPa) = 34.66142 45.92318 40.29230
# Shear Modulus (GPa) = -12.99887 24.78678 5.89395
#
# Velocity S-wave (km/s) = -2.62496 3.62477 1.76756
# Velocity P-wave (km/s) = 3.03085 6.47004 5.05210
#
# Compressibility (1/GPa) = 0.02885052
#
# Stress axis : x y z
#
# Youngs Moduli (GPa) = 91.14223 47.69612 79.69883
#
# Poissons Ratio (x) = 0.16872 0.41834
# Poissons Ratio (y) = 0.32240 -0.07723
# Poissons Ratio (z) = 0.47841 -0.04622
#
# Static dielectric constant tensor:
#      x y z
#    x 1.673470 0.000000 -0.002320 
#    y 0.000000 1.649280 0.000000 
#    z -0.002320 0.000000 1.665990 
# 
# From -- ./inp_files/20365.got.cif
#   From: 2010.05.17/outbox.cif.g08.bks.cpg/sg5_11_cif.got.tgz:20365.got - 2010.06.03 18:56:24.
