data_PCOD9121193
_publ_section_title
;
Structure prediction by ZEFSAII (Michael W. Deem and Ramdas Pophale) SiO2 
 PCOD9121193
Probable space group: C 2
;
_chemical_formula_sum "Si O2"
_cell_formula_units_Z 18
_cell_length_a 13.684259
_cell_length_b 7.023895
_cell_length_c 7.760956
_cell_angle_alpha 90.000000
_cell_angle_beta 107.221335
_cell_angle_gamma 90.000000
_cell_volume 712.515581
_symmetry_space_group_name_H-M "C 2"
_symmetry_group_IT_number 5
_symmetry_cell_setting 'monoclinic'
loop_
_space_group_symop_operation_xyz
x,y,z
-x,y,-z
1/2+x,1/2+y,z
1/2-x,1/2+y,-z
loop_
_atom_site_type_symbol
_atom_site_label
_atom_site_fract_x
_atom_site_fract_y
_atom_site_fract_z
Si Si1 0.336742 0.196990 0.060078
Si Si2 0.239309 0.932953 0.279381
Si Si3 0.025668 0.849942 0.321045
Si Si4 0.500000 0.900601 0.000000
Si Si5 0.575707 0.896473 0.388364
O O1 0.421737 0.353965 0.155874
O O2 0.283139 0.118875 0.204485
O O3 0.262545 0.277418 0.875659
O O4 0.404057 0.029054 0.011434
O O5 0.125289 0.941525 0.291243
O O6 0.311863 0.875693 0.475858
O O7 0.055388 0.623501 0.349218
O O8 0.000000 0.912947 0.500000
O O9 0.459291 0.802062 0.807466
O O10 0.500000 0.837875 0.500000
#
# Coordination Sequence:
#
# PCOD9121193 Si02
#       5
#     4   4   4   2   4
#     4  11  22  40  73 102 143 185 237 290 356 431
#     4  12  22  40  77 107 136 198 239 283 376 420
#     4  10  20  43  69  99 144 186 230 299 355 425
#     4  10  18  42  66  96 144 186 216 302 346 416
#     4  10  19  39  68 102 134 183 236 283 350 425
#
# _framework density 25.262606000000002
#
# number of rings (size 3 to 8) (size 9 to 14) (size 15 to 20)
#    0.000    1.333   11.111    0.000    0.000    1.778 
#    0.000    0.000   14.667    0.000    0.000    0.000 
#    0.000    0.000    0.000    0.000    0.000    0.000 
#
# Total GULP energy -50391.992803 kJ/mol
# GULP energy per Si atom -5599.110311 kJ/mol
# Density = 2.520511 g / cm^3
# Si number density = 25.262606 Si / 1000 Ang^3
#
#
#
# Elastic Constant Matrix: (Units=GPa)
#
#
# Indices 1 2 3 4 5 6 
#
# 1 146.5190 38.9258 63.3191 0.0000 -27.9861 0.0000
# 2 38.9258 65.6741 28.9513 0.0000 15.5036 0.0000
# 3 63.3191 28.9513 237.1920 0.0000 6.3858 0.0000
# 4 0.0000 0.0000 0.0000 8.2796 0.0000 18.4674
# 5 -27.9861 15.5036 6.3858 0.0000 52.9332 0.0000
# 6 0.0000 0.0000 0.0000 18.4674 0.0000 20.7621
#
#
#
# Elastic Compliance Matrix: (Units=1/GPa)
#
#
# Indices 1 2 3 4 5 6 
#
# 1 0.011622 -0.007907 -0.002373 0.000000 0.008747 0.000000
# 2 -0.007907 0.022612 -0.000359 0.000000 -0.010760 0.000000
# 3 -0.002373 -0.000359 0.004940 0.000000 -0.001745 0.000000
# 4 0.000000 0.000000 0.000000 -0.122749 0.000000 0.109182
# 5 0.008747 -0.010760 -0.001745 0.000000 0.026878 0.000000
# 6 0.000000 0.000000 0.000000 0.109182 0.000000 -0.048950
#
#
# Mechanical properties :
#
#
# Convention : Reuss Voigt Hill
#
# Bulk Modulus (GPa) = 55.88112 79.08641 67.48377
# Shear Modulus (GPa) = -63.77344 37.60755 -13.08294
#
# Velocity S-wave (km/s) = -5.02981 3.86251 -2.27816
# Velocity P-wave (km/s) = 3.40057 7.16000 4.45543
#
# Compressibility (1/GPa) = 0.01789513
#
# Stress axis : x y z
#
# Youngs Moduli (GPa) = 86.04426 44.22427 202.41727
#
# Poissons Ratio (x) = 0.34969 0.48030
# Poissons Ratio (y) = 0.68038 0.07276
# Poissons Ratio (z) = 0.20417 0.01590
#
# Static dielectric constant tensor:
#      x y z
#    x 1.943510 0.000000 0.001400 
#    y 0.000000 2.067780 0.000000 
#    z 0.001400 0.000000 2.016140 
# 
# From -- ./inp_files/22596.got.cif
#   From: 2010.05.17/outbox.cif.g08.bks.cpg/sg5_12_cif.got.tgz:22596.got - 2010.06.03 18:56:24.
