data_PCOD9121809
_publ_section_title
;
Structure prediction by ZEFSAII (Michael W. Deem and Ramdas Pophale) SiO2 
 PCOD9121809
Probable space group: C 2
;
_chemical_formula_sum "Si O2"
_cell_formula_units_Z 32
_cell_length_a 8.509304
_cell_length_b 13.933267
_cell_length_c 11.935940
_cell_angle_alpha 90.000000
_cell_angle_beta 89.056215
_cell_angle_gamma 90.000000
_cell_volume 1414.961764
_symmetry_space_group_name_H-M "C 2"
_symmetry_group_IT_number 5
_symmetry_cell_setting 'monoclinic'
loop_
_space_group_symop_operation_xyz
x,y,z
-x,y,-z
1/2+x,1/2+y,z
1/2-x,1/2+y,-z
loop_
_atom_site_type_symbol
_atom_site_label
_atom_site_fract_x
_atom_site_fract_y
_atom_site_fract_z
Si Si1 0.644118 0.239650 0.369336
Si Si2 0.835826 0.332706 0.551347
Si Si3 0.661502 0.219541 0.018374
Si Si4 0.480170 0.370410 0.805811
Si Si5 0.254820 0.050289 0.537063
Si Si6 0.802650 0.322705 0.814123
Si Si7 0.429720 0.557728 0.681876
Si Si8 0.584984 0.722594 0.813521
O O1 0.689521 0.293985 0.481898
O O2 0.515656 0.290054 0.293566
O O3 0.635483 0.129025 0.404513
O O4 0.798361 0.248887 0.288580
O O5 0.831406 0.446704 0.536471
O O6 0.824492 0.310865 0.681699
O O7 0.000000 0.292745 0.500000
O O8 0.606035 0.315491 0.090682
O O9 0.803740 0.181121 0.090699
O O10 0.500000 0.162608 0.000000
O O11 0.723590 0.244289 0.895580
O O12 0.661687 0.400665 0.827795
O O13 0.394569 0.461191 0.752114
O O14 0.200390 0.078114 0.411816
O O15 0.093159 0.043248 0.611028
O O16 0.983866 0.315481 0.852141
O O17 0.467516 0.642497 0.767442
#
# Coordination Sequence:
#
# PCOD9121809 Si02
#       8
#     4   4   4   4   4   4   4   4
#     4  10  21  38  60  89 122 167 204 258 313 371
#     4  12  22  37  58  90 128 167 204 254 315 374
#     4   9  21  40  64  89 117 164 211 256 304 375
#     4  10  20  39  64  86 123 163 211 253 313 364
#     4  10  21  36  55  90 131 158 207 254 314 379
#     4  11  21  37  61  91 119 163 205 250 308 371
#     4  10  19  36  61  92 119 161 206 261 306 371
#     4  10  20  38  65  89 121 159 208 261 312 367
#
# _framework density 22.615451
#
# number of rings (size 3 to 8) (size 9 to 14) (size 15 to 20)
#    0.000    1.750    3.750    1.125    1.750    0.500 
#    4.500    3.750    0.000    3.000    0.000    0.000 
#    0.000    0.000    0.000    0.000    0.000    0.000 
#
# Total GULP energy -89168.028716 kJ/mol
# GULP energy per Si atom -5573.001795 kJ/mol
# Density = 2.256398 g / cm^3
# Si number density = 22.615451 Si / 1000 Ang^3
#
#
#
# Elastic Constant Matrix: (Units=GPa)
#
#
# Indices 1 2 3 4 5 6 
#
# 1 72.3295 -4.1306 27.7020 0.0000 5.9781 0.0000
# 2 -4.1306 64.5079 12.6153 0.0000 18.9043 0.0000
# 3 27.7020 12.6153 116.9440 0.0000 13.4851 0.0000
# 4 0.0000 0.0000 0.0000 11.3442 0.0000 0.3158
# 5 5.9781 18.9043 13.4851 0.0000 47.4356 0.0000
# 6 0.0000 0.0000 0.0000 0.3158 0.0000 18.8512
#
#
#
# Elastic Compliance Matrix: (Units=1/GPa)
#
#
# Indices 1 2 3 4 5 6 
#
# 1 0.015524 0.002247 -0.003713 0.000000 -0.001796 0.000000
# 2 0.002247 0.018021 -0.001670 0.000000 -0.006990 0.000000
# 3 -0.003713 -0.001670 0.009801 0.000000 -0.001653 0.000000
# 4 0.000000 0.000000 0.000000 0.088192 0.000000 -0.001477
# 5 -0.001796 -0.006990 -0.001653 0.000000 0.024563 0.000000
# 6 0.000000 0.000000 0.000000 -0.001477 0.000000 0.053072
#
#
# Mechanical properties :
#
#
# Convention : Reuss Voigt Hill
#
# Bulk Modulus (GPa) = 26.97299 36.23942 31.60621
# Shear Modulus (GPa) = 21.94870 30.03251 25.99061
#
# Velocity S-wave (km/s) = 3.11869 3.64808 3.39372
# Velocity P-wave (km/s) = 4.99210 5.81409 5.41870
#
# Compressibility (1/GPa) = 0.03707412
#
# Stress axis : x y z
#
# Youngs Moduli (GPa) = 64.41514 55.49096 102.02710
#
# Poissons Ratio (x) = -0.12466 0.37879
# Poissons Ratio (y) = -0.14471 0.17040
# Poissons Ratio (z) = 0.23915 0.09268
#
# Static dielectric constant tensor:
#      x y z
#    x 1.947400 0.000000 0.034140 
#    y 0.000000 1.852500 0.000000 
#    z 0.034140 0.000000 1.849400 
# 
# From -- ./inp_files/36409.got.cif
#   From: 2010.05.17/outbox.cif.g08.bks.cpg/sg5_19_cif.got.tgz:36409.got - 2010.06.03 18:56:24.
