data_PCOD9121744
_publ_section_title
;
Structure prediction by ZEFSAII (Michael W. Deem and Ramdas Pophale) SiO2 
 PCOD9121744
Probable space group: C 2
;
_chemical_formula_sum "Si O2"
_cell_formula_units_Z 28
_cell_length_a 6.084979
_cell_length_b 22.755053
_cell_length_c 10.821788
_cell_angle_alpha 90.000000
_cell_angle_beta 113.160059
_cell_angle_gamma 90.000000
_cell_volume 1377.669533
_symmetry_space_group_name_H-M "C 2"
_symmetry_group_IT_number 5
_symmetry_cell_setting 'monoclinic'
loop_
_space_group_symop_operation_xyz
x,y,z
-x,y,-z
1/2+x,1/2+y,z
1/2-x,1/2+y,-z
loop_
_atom_site_type_symbol
_atom_site_label
_atom_site_fract_x
_atom_site_fract_y
_atom_site_fract_z
Si Si1 0.000000 0.269740 0.500000
Si Si2 0.764402 0.128737 0.879650
Si Si3 0.500000 0.011596 0.500000
Si Si4 0.984006 0.957416 0.645752
Si Si5 0.993527 0.178651 0.307475
Si Si6 0.999345 0.743647 0.869399
Si Si7 0.524753 0.325274 0.355716
Si Si8 0.301636 0.065500 0.699935
O O1 0.882096 0.223642 0.570262
O O2 0.194733 0.312159 0.601485
O O3 0.670639 0.187486 0.925124
O O4 0.544497 0.084004 0.822943
O O5 0.839605 0.152206 0.761202
O O6 0.000000 0.105733 0.000000
O O7 0.375251 0.049986 0.576946
O O8 0.708387 0.973666 0.610688
O O9 0.043709 0.891288 0.696974
O O10 0.000000 0.956626 0.500000
O O11 0.160741 0.009667 0.724659
O O12 0.764964 0.216978 0.212098
O O13 0.870707 0.121515 0.339488
O O14 0.084354 0.779283 0.766622
O O15 0.000000 0.777567 0.000000
O O16 0.500000 0.319283 0.500000
#
# Coordination Sequence:
#
# PCOD9121744 Si02
#       8
#     2   4   2   4   4   4   4   4
#     4  10  21  32  56  90 122 151 188 246 302 362
#     4  11  21  36  59  80 116 163 199 239 308 364
#     4  10  19  36  58  84 120 159 192 242 318 354
#     4   9  19  35  56  84 119 160 204 246 302 361
#     4  10  21  34  54  86 123 150 194 248 302 366
#     4  10  20  37  57  88 118 155 202 245 303 369
#     4  10  20  37  59  87 123 157 199 254 296 359
#     4  10  22  33  56  88 117 156 202 255 294 368
#
# _framework density 20.324178
#
# number of rings (size 3 to 8) (size 9 to 14) (size 15 to 20)
#    0.000    2.000    1.429    2.143    5.000    0.000 
#    2.571    0.000    0.000    5.143    0.000    0.000 
#    0.000    0.000    0.000    0.000    0.000    0.000 
#
# Total GULP energy -78037.125109 kJ/mol
# GULP energy per Si atom -5574.080365 kJ/mol
# Density = 2.027792 g / cm^3
# Si number density = 20.324178 Si / 1000 Ang^3
#
#
#
# Elastic Constant Matrix: (Units=GPa)
#
#
# Indices 1 2 3 4 5 6 
#
# 1 69.6720 38.0513 12.1006 0.0000 2.6910 0.0000
# 2 38.0513 127.1702 42.9777 0.0000 11.7486 0.0000
# 3 12.1006 42.9777 58.4408 0.0000 -1.9458 0.0000
# 4 0.0000 0.0000 0.0000 13.3819 0.0000 -0.3267
# 5 2.6910 11.7486 -1.9458 0.0000 37.2349 0.0000
# 6 0.0000 0.0000 0.0000 -0.3267 0.0000 20.8070
#
#
#
# Elastic Compliance Matrix: (Units=1/GPa)
#
#
# Indices 1 2 3 4 5 6 
#
# 1 0.017168 -0.005299 0.000357 0.000000 0.000450 0.000000
# 2 -0.005299 0.012638 -0.008331 0.000000 -0.004040 0.000000
# 3 0.000357 -0.008331 0.023291 0.000000 0.003820 0.000000
# 4 0.000000 0.000000 0.000000 0.074756 0.000000 0.001174
# 5 0.000450 -0.004040 0.003820 0.000000 0.028298 0.000000
# 6 0.000000 0.000000 0.000000 0.001174 0.000000 0.048079
#
#
# Mechanical properties :
#
#
# Convention : Reuss Voigt Hill
#
# Bulk Modulus (GPa) = 37.66371 49.06023 43.36197
# Shear Modulus (GPa) = 20.86576 25.09500 22.98038
#
# Velocity S-wave (km/s) = 3.20761 3.51769 3.36622
# Velocity P-wave (km/s) = 5.68243 6.37888 6.04070
#
# Compressibility (1/GPa) = 0.02655075
#
# Stress axis : x y z
#
# Youngs Moduli (GPa) = 58.24910 79.12719 42.93436
#
# Poissons Ratio (x) = 0.41931 -0.01534
# Poissons Ratio (y) = 0.30867 0.35770
# Poissons Ratio (z) = -0.02081 0.65923
#
# Static dielectric constant tensor:
#      x y z
#    x 1.772300 0.000000 -0.007140 
#    y 0.000000 1.722440 0.000000 
#    z -0.007140 0.000000 1.799120 
# 
# From -- ./inp_files/33936.got.cif
#   From: 2010.05.17/outbox.cif.g08.bks.cpg/sg5_17_cif.got.tgz:33936.got - 2010.06.03 18:56:24.
