data_PCOD9121641
_publ_section_title
;
Structure prediction by ZEFSAII (Michael W. Deem and Ramdas Pophale) SiO2 
 PCOD9121641
Probable space group: C 2
;
_chemical_formula_sum "Si O2"
_cell_formula_units_Z 26
_cell_length_a 17.507819
_cell_length_b 5.336037
_cell_length_c 12.315327
_cell_angle_alpha 90.000000
_cell_angle_beta 115.111675
_cell_angle_gamma 90.000000
_cell_volume 1041.781915
_symmetry_space_group_name_H-M "C 2"
_symmetry_group_IT_number 5
_symmetry_cell_setting 'monoclinic'
loop_
_space_group_symop_operation_xyz
x,y,z
-x,y,-z
1/2+x,1/2+y,z
1/2-x,1/2+y,-z
loop_
_atom_site_type_symbol
_atom_site_label
_atom_site_fract_x
_atom_site_fract_y
_atom_site_fract_z
Si Si1 0.895847 0.010630 0.942113
Si Si2 0.164885 0.428399 0.722557
Si Si3 0.861579 0.942133 0.169067
Si Si4 0.578983 0.012138 0.132328
Si Si5 0.549745 0.308458 0.323260
Si Si6 0.000000 0.535595 0.500000
Si Si7 0.226551 0.053823 0.422786
O O1 0.858523 0.001915 0.039568
O O2 0.872990 0.258288 0.862915
O O3 0.000000 0.004102 0.000000
O O4 0.869386 0.754401 0.871077
O O5 0.164172 0.663939 0.806095
O O6 0.224007 0.499284 0.658004
O O7 0.070957 0.399141 0.613050
O O8 0.181394 0.165756 0.791208
O O9 0.962130 0.946593 0.251533
O O10 0.551369 0.078936 0.237279
O O11 0.500000 0.003011 0.000000
O O12 0.628103 0.489304 0.353835
O O13 0.550632 0.204090 0.444832
O O14 0.259719 0.836927 0.526588
#
# Coordination Sequence:
#
# PCOD9121641 Si02
#       7
#     4   4   4   4   4   2   4
#     4  10  19  35  60 101 129 158 212 283 332 385
#     4  11  25  42  63  96 138 178 223 275 346 397
#     4  11  23  40  70 100 129 174 225 288 330 402
#     4  10  20  36  62 100 130 163 218 280 333 390
#     4  11  24  43  70 101 138 179 229 280 340 407
#     4  10  24  40  64 102 130 178 222 286 320 400
#     4  12  27  47  64  95 142 192 225 277 341 418
#
# _framework density 24.957239999999999
#
# number of rings (size 3 to 8) (size 9 to 14) (size 15 to 20)
#    0.000    1.231    4.615    1.846   10.769    1.846 
#    0.000    0.000    0.000    3.692    0.000    0.000 
#    0.000    0.000    0.000    0.000    0.000    0.000 
#
# Total GULP energy -72795.801046 kJ/mol
# GULP energy per Si atom -5599.677004 kJ/mol
# Density = 2.490044 g / cm^3
# Si number density = 24.957240 Si / 1000 Ang^3
#
#
#
# Elastic Constant Matrix: (Units=GPa)
#
#
# Indices 1 2 3 4 5 6 
#
# 1 81.2413 15.1676 13.9853 0.0000 2.3247 0.0000
# 2 15.1676 167.9292 52.2284 0.0000 -13.3859 0.0000
# 3 13.9853 52.2284 123.7765 0.0000 -39.6807 0.0000
# 4 0.0000 0.0000 0.0000 45.8363 0.0000 -10.9514
# 5 2.3247 -13.3859 -39.6807 0.0000 45.7712 0.0000
# 6 0.0000 0.0000 0.0000 -10.9514 0.0000 18.9570
#
#
#
# Elastic Compliance Matrix: (Units=1/GPa)
#
#
# Indices 1 2 3 4 5 6 
#
# 1 0.012861 -0.000758 -0.001958 0.000000 -0.002572 0.000000
# 2 -0.000758 0.006915 -0.003007 0.000000 -0.000546 0.000000
# 3 -0.001958 -0.003007 0.012906 0.000000 0.010409 0.000000
# 4 0.000000 0.000000 0.000000 0.025310 0.000000 0.014622
# 5 -0.002572 -0.000546 0.010409 0.000000 0.030842 0.000000
# 6 0.000000 0.000000 0.000000 0.014622 0.000000 0.061198
#
#
# Mechanical properties :
#
#
# Convention : Reuss Voigt Hill
#
# Bulk Modulus (GPa) = 47.08983 59.52330 53.30656
# Shear Modulus (GPa) = 29.66338 41.55062 35.60700
#
# Velocity S-wave (km/s) = 3.45130 4.08471 3.78129
# Velocity P-wave (km/s) = 5.89840 6.79326 6.36158
#
# Compressibility (1/GPa) = 0.02123601
#
# Stress axis : x y z
#
# Youngs Moduli (GPa) = 77.75348 144.61040 77.48203
#
# Poissons Ratio (x) = 0.10957 0.15172
# Poissons Ratio (y) = 0.05891 0.23302
# Poissons Ratio (z) = 0.15225 0.43491
#
# Static dielectric constant tensor:
#      x y z
#    x 1.881830 0.000000 -0.014590 
#    y 0.000000 1.971090 0.000000 
#    z -0.014590 0.000000 1.977790 
# 
# From -- ./inp_files/43768.got.cif
#   From: 2010.05.17/outbox.cif.g08.bks.cpg/sg5_22_cif.got.tgz:43768.got - 2010.06.03 18:56:24.
