data_PCOD9121893
_publ_section_title
;
Structure prediction by ZEFSAII (Michael W. Deem and Ramdas Pophale) SiO2 
 PCOD9121893
Probable space group: C 2
;
_chemical_formula_sum "Si O2"
_cell_formula_units_Z 30
_cell_length_a 9.252656
_cell_length_b 22.440718
_cell_length_c 12.588074
_cell_angle_alpha 90.000000
_cell_angle_beta 37.158099
_cell_angle_gamma 90.000000
_cell_volume 1578.742181
_symmetry_space_group_name_H-M "C 2"
_symmetry_group_IT_number 5
_symmetry_cell_setting 'monoclinic'
loop_
_space_group_symop_operation_xyz
x,y,z
-x,y,-z
1/2+x,1/2+y,z
1/2-x,1/2+y,-z
loop_
_atom_site_type_symbol
_atom_site_label
_atom_site_fract_x
_atom_site_fract_y
_atom_site_fract_z
Si Si1 0.791379 0.126480 0.537575
Si Si2 0.886068 0.410172 0.683523
Si Si3 0.867563 0.153086 0.242722
Si Si4 0.613465 0.046702 0.314325
Si Si5 0.000000 0.827439 0.000000
Si Si6 0.240832 0.335427 0.617867
Si Si7 0.989881 0.734263 0.337340
Si Si8 0.658703 0.765858 0.041952
O O1 0.868950 0.139838 0.368573
O O2 0.587207 0.075754 0.644762
O O3 0.663062 0.188499 0.643967
O O4 0.000000 0.112763 0.500000
O O5 0.831578 0.478675 0.743738
O O6 0.000000 0.407410 0.500000
O O7 0.082572 0.382655 0.647855
O O8 0.649732 0.369924 0.833457
O O9 0.837054 0.091145 0.198448
O O10 0.643915 0.191978 0.326513
O O11 0.083868 0.196768 0.089331
O O12 0.500000 0.047257 0.500000
O O13 0.813323 0.785721 0.050960
O O14 0.500000 0.359710 0.500000
O O15 0.313939 0.278659 0.502075
O O16 0.074310 0.307799 0.808070
O O17 0.171445 0.771053 0.158437
#
# Coordination Sequence:
#
# PCOD9121893 Si02
#       8
#     4   4   4   4   2   4   4   4
#     4  10  20  33  58  86 119 152 192 250 300 343
#     4  10  21  41  60  81 115 162 198 237 298 348
#     4  10  19  37  56  84 119 150 194 245 283 355
#     4   8  18  37  60  80 110 156 205 240 283 351
#     4  10  24  38  54  94 126 146 196 254 290 354
#     4  11  21  35  56  85 118 148 194 245 287 352
#     4  11  20  35  55  84 116 156 194 227 301 361
#     4  11  22  34  57  84 124 151 190 243 295 349
#
# _framework density 19.002469000000001
#
# number of rings (size 3 to 8) (size 9 to 14) (size 15 to 20)
#    0.000    1.867    2.667    2.400    1.867    1.067 
#    4.800    0.000    0.000    0.000    0.000    0.000 
#    0.000    0.000    0.000    0.000    0.000    0.000 
#
# Total GULP energy -83605.224086 kJ/mol
# GULP energy per Si atom -5573.681606 kJ/mol
# Density = 1.895922 g / cm^3
# Si number density = 19.002469 Si / 1000 Ang^3
#
#
#
# Elastic Constant Matrix: (Units=GPa)
#
#
# Indices 1 2 3 4 5 6 
#
# 1 98.0514 38.4682 3.1698 0.0000 -13.1401 0.0000
# 2 38.4682 111.4008 4.7451 0.0000 -10.4142 0.0000
# 3 3.1698 4.7451 56.0327 0.0000 -5.6866 0.0000
# 4 0.0000 0.0000 0.0000 15.8677 0.0000 -4.2999
# 5 -13.1401 -10.4142 -5.6866 0.0000 24.1038 0.0000
# 6 0.0000 0.0000 0.0000 -4.2999 0.0000 18.9339
#
#
#
# Elastic Compliance Matrix: (Units=1/GPa)
#
#
# Indices 1 2 3 4 5 6 
#
# 1 0.012373 -0.003798 0.000143 0.000000 0.005138 0.000000
# 2 -0.003798 0.010529 -0.000436 0.000000 0.002376 0.000000
# 3 0.000143 -0.000436 0.018303 0.000000 0.004208 0.000000
# 4 0.000000 0.000000 0.000000 0.067154 0.000000 0.015251
# 5 0.005138 0.002376 0.004208 0.000000 0.046307 0.000000
# 6 0.000000 0.000000 0.000000 0.015251 0.000000 0.056279
#
#
# Mechanical properties :
#
#
# Convention : Reuss Voigt Hill
#
# Bulk Modulus (GPa) = 30.28234 39.80567 35.04401
# Shear Modulus (GPa) = 21.72656 26.38786 24.05721
#
# Velocity S-wave (km/s) = 3.38502 3.73051 3.56196
# Velocity P-wave (km/s) = 5.59003 6.28878 5.94967
#
# Compressibility (1/GPa) = 0.03302255
#
# Stress axis : x y z
#
# Youngs Moduli (GPa) = 80.82246 94.97720 54.63719
#
# Poissons Ratio (x) = 0.36075 -0.00782
# Poissons Ratio (y) = 0.30699 0.02380
# Poissons Ratio (z) = -0.01157 0.04138
#
# Static dielectric constant tensor:
#      x y z
#    x 1.678600 0.000000 -0.007980 
#    y 0.000000 1.657990 0.000000 
#    z -0.007980 0.000000 1.715350 
# 
# From -- ./inp_files/37532.got.cif
#   From: 2010.05.17/outbox.cif.g08.bks.cpg/sg5_19_cif.got.tgz:37532.got - 2010.06.03 18:56:24.
