data_PCOD9121319
_publ_section_title
;
Structure prediction by ZEFSAII (Michael W. Deem and Ramdas Pophale) SiO2 
 PCOD9121319
Probable space group: C 2
;
_chemical_formula_sum "Si O2"
_cell_formula_units_Z 26
_cell_length_a 8.754826
_cell_length_b 20.968570
_cell_length_c 9.122174
_cell_angle_alpha 90.000000
_cell_angle_beta 47.154665
_cell_angle_gamma 90.000000
_cell_volume 1227.813545
_symmetry_space_group_name_H-M "C 2"
_symmetry_group_IT_number 5
_symmetry_cell_setting 'monoclinic'
loop_
_space_group_symop_operation_xyz
x,y,z
-x,y,-z
1/2+x,1/2+y,z
1/2-x,1/2+y,-z
loop_
_atom_site_type_symbol
_atom_site_label
_atom_site_fract_x
_atom_site_fract_y
_atom_site_fract_z
Si Si1 0.806316 0.194000 0.206162
Si Si2 0.000000 0.397531 0.500000
Si Si3 0.467148 0.272067 0.848127
Si Si4 0.000000 0.597383 0.500000
Si Si5 0.223037 0.403943 0.928410
Si Si6 0.000000 0.904833 0.500000
Si Si7 0.745383 0.492510 0.819892
Si Si8 0.831425 0.305158 0.406590
O O1 0.655882 0.221697 0.176190
O O2 0.689691 0.146908 0.393609
O O3 0.886506 0.253431 0.250246
O O4 0.000000 0.162154 0.000000
O O5 0.199104 0.443682 0.351174
O O6 0.993170 0.349170 0.639846
O O7 0.346833 0.339990 0.900208
O O8 0.695874 0.275492 0.626048
O O9 0.500000 0.259515 0.000000
O O10 0.900191 0.551545 0.688464
O O11 0.379709 0.438297 0.709861
O O12 0.187812 0.453662 0.080916
O O13 0.000000 0.388260 0.000000
O O14 0.175384 0.856267 0.440196
O O15 0.500000 0.505871 0.000000
#
# Coordination Sequence:
#
# PCOD9121319 Si02
#       8
#     4   2   4   2   4   2   4   4
#     4  12  24  43  69  95 131 187 233 277 340 408
#     4  11  24  34  63 106 145 165 216 284 358 405
#     4  11  22  37  63 101 145 173 223 281 345 411
#     4  11  25  52  68  92 130 190 246 270 328 409
#     4  11  21  37  62 100 139 177 213 274 351 404
#     4  10  19  32  55  88 141 171 208 252 336 414
#     4  11  24  43  69  97 134 182 232 282 328 407
#     4  11  20  38  59  98 142 177 207 280 344 406
#
# _framework density 21.175853
#
# number of rings (size 3 to 8) (size 9 to 14) (size 15 to 20)
#    0.000    0.923    4.615    5.077    4.308    1.231 
#    0.000    0.769    0.000    1.846    0.000    0.000 
#    0.000    0.000    0.000    0.000    0.000    0.000 
#
# Total GULP energy -72468.144237 kJ/mol
# GULP energy per Si atom -5574.472634 kJ/mol
# Density = 2.112766 g / cm^3
# Si number density = 21.175853 Si / 1000 Ang^3
#
#
#
# Elastic Constant Matrix: (Units=GPa)
#
#
# Indices 1 2 3 4 5 6 
#
# 1 51.8677 28.7181 20.6721 0.0000 3.0055 0.0000
# 2 28.7181 87.3943 40.6117 0.0000 -1.6251 0.0000
# 3 20.6721 40.6117 157.5749 0.0000 -14.8420 0.0000
# 4 0.0000 0.0000 0.0000 55.5811 0.0000 -5.7081
# 5 3.0055 -1.6251 -14.8420 0.0000 39.0421 0.0000
# 6 0.0000 0.0000 0.0000 -5.7081 0.0000 2.6814
#
#
#
# Elastic Compliance Matrix: (Units=1/GPa)
#
#
# Indices 1 2 3 4 5 6 
#
# 1 0.024064 -0.007238 -0.001550 0.000000 -0.002743 0.000000
# 2 -0.007238 0.015198 -0.002961 0.000000 0.000064 0.000000
# 3 -0.001550 -0.002961 0.007584 0.000000 0.002879 0.000000
# 4 0.000000 0.000000 0.000000 0.023026 0.000000 0.049018
# 5 -0.002743 0.000064 0.002879 0.000000 0.026922 0.000000
# 6 0.000000 0.000000 0.000000 0.049018 0.000000 0.477294
#
#
# Mechanical properties :
#
#
# Convention : Reuss Voigt Hill
#
# Bulk Modulus (GPa) = 42.83164 52.98231 47.90697
# Shear Modulus (GPa) = 8.25941 33.24990 20.75466
#
# Velocity S-wave (km/s) = 1.97708 3.96685 3.13407
# Velocity P-wave (km/s) = 5.04801 6.78643 5.98072
#
# Compressibility (1/GPa) = 0.02334723
#
# Stress axis : x y z
#
# Youngs Moduli (GPa) = 41.55545 65.79674 131.85778
#
# Poissons Ratio (x) = 0.47627 0.20435
# Poissons Ratio (y) = 0.30080 0.39049
# Poissons Ratio (z) = 0.06440 0.19485
#
# Static dielectric constant tensor:
#      x y z
#    x 1.674360 0.000000 -0.034720 
#    y 0.000000 1.769950 0.000000 
#    z -0.034720 0.000000 1.847990 
# 
# From -- ./inp_files/17029.got.cif
#   From: 2010.05.17/outbox.cif.g08.bks.cpg/sg5_9_cif.got.tgz:17029.got - 2010.06.03 18:56:24.
