data_PCOD9121654
_publ_section_title
;
Structure prediction by ZEFSAII (Michael W. Deem and Ramdas Pophale) SiO2 
 PCOD9121654
Probable space group: C 2
;
_chemical_formula_sum "Si O2"
_cell_formula_units_Z 32
_cell_length_a 8.332830
_cell_length_b 14.316758
_cell_length_c 13.800665
_cell_angle_alpha 90.000000
_cell_angle_beta 122.092750
_cell_angle_gamma 90.000000
_cell_volume 1394.818207
_symmetry_space_group_name_H-M "C 2"
_symmetry_group_IT_number 5
_symmetry_cell_setting 'monoclinic'
loop_
_space_group_symop_operation_xyz
x,y,z
-x,y,-z
1/2+x,1/2+y,z
1/2-x,1/2+y,-z
loop_
_atom_site_type_symbol
_atom_site_label
_atom_site_fract_x
_atom_site_fract_y
_atom_site_fract_z
Si Si1 0.810329 0.306140 0.048584
Si Si2 0.589351 0.995313 0.429411
Si Si3 0.700525 0.189125 0.463385
Si Si4 0.722864 0.897967 0.145157
Si Si5 0.919070 0.181847 0.335448
Si Si6 0.218532 0.608452 0.089254
Si Si7 0.791125 0.386214 0.241242
Si Si8 0.077302 0.897719 0.373613
O O1 0.825646 0.193883 0.068323
O O2 0.716922 0.358908 0.111026
O O3 0.016686 0.356581 0.107282
O O4 0.706490 0.324150 0.913451
O O5 0.500000 0.952929 0.500000
O O6 0.467623 0.957189 0.301451
O O7 0.808686 0.965795 0.516518
O O8 0.554852 0.105507 0.419867
O O9 0.822554 0.166958 0.407154
O O10 0.624020 0.293374 0.427102
O O11 0.855318 0.172718 0.596711
O O12 0.854497 0.905930 0.281980
O O13 0.726605 0.995837 0.085834
O O14 0.800363 0.122874 0.222335
O O15 0.883888 0.289636 0.303483
O O16 0.000000 0.632706 0.000000
O O17 0.653752 0.413057 0.286668
#
# Coordination Sequence:
#
# PCOD9121654 Si02
#       8
#     4   4   4   4   4   4   4   4
#     4  10  24  43  65  95 131 171 220 285 329 397
#     4  10  20  37  59  90 127 163 212 269 330 393
#     4  10  19  35  60  90 119 162 213 269 322 399
#     4  11  24  46  64  97 141 167 224 289 336 393
#     4   9  19  36  61  86 118 159 218 259 316 397
#     4  11  23  42  72  94 128 184 220 271 345 404
#     4   9  19  39  62  87 122 166 217 266 320 400
#     4  10  21  40  64  90 129 174 212 275 337 392
#
# _framework density 22.942057999999999
#
# number of rings (size 3 to 8) (size 9 to 14) (size 15 to 20)
#    0.000    2.000    2.500    0.750    7.000    0.000 
#    9.000    1.250    0.000    0.000    0.000    0.000 
#    0.000    0.000    0.000    0.000    0.000    0.000 
#
# Total GULP energy -89077.141826 kJ/mol
# GULP energy per Si atom -5567.321364 kJ/mol
# Density = 2.288984 g / cm^3
# Si number density = 22.942058 Si / 1000 Ang^3
#
#
#
# Elastic Constant Matrix: (Units=GPa)
#
#
# Indices 1 2 3 4 5 6 
#
# 1 47.1820 19.2830 11.8476 0.0000 10.5300 0.0000
# 2 19.2830 115.2858 18.5964 0.0000 -0.4497 0.0000
# 3 11.8476 18.5964 74.0058 0.0000 20.6468 0.0000
# 4 0.0000 0.0000 0.0000 29.9694 0.0000 -2.8320
# 5 10.5300 -0.4497 20.6468 0.0000 29.0369 0.0000
# 6 0.0000 0.0000 0.0000 -2.8320 0.0000 20.6931
#
#
#
# Elastic Compliance Matrix: (Units=1/GPa)
#
#
# Indices 1 2 3 4 5 6 
#
# 1 0.024963 -0.004126 -0.000519 0.000000 -0.008747 0.000000
# 2 -0.004126 0.009835 -0.002833 0.000000 0.003663 0.000000
# 3 -0.000519 -0.002833 0.017798 0.000000 -0.012511 0.000000
# 4 0.000000 0.000000 0.000000 0.033805 0.000000 0.004626
# 5 -0.008747 0.003663 -0.012511 0.000000 0.046564 0.000000
# 6 0.000000 0.000000 0.000000 0.004626 0.000000 0.048958
#
#
# Mechanical properties :
#
#
# Convention : Reuss Voigt Hill
#
# Bulk Modulus (GPa) = 26.56692 37.32529 31.94610
# Shear Modulus (GPa) = 23.87481 28.38965 26.13223
#
# Velocity S-wave (km/s) = 3.22942 3.52156 3.37865
# Velocity P-wave (km/s) = 5.05081 5.73061 5.40141
#
# Compressibility (1/GPa) = 0.03764080
#
# Stress axis : x y z
#
# Youngs Moduli (GPa) = 40.05879 101.67325 56.18683
#
# Poissons Ratio (x) = 0.41948 0.02917
# Poissons Ratio (y) = 0.16527 0.15917
# Poissons Ratio (z) = 0.02080 0.28803
#
# Static dielectric constant tensor:
#      x y z
#    x 1.887900 0.000000 0.057790 
#    y 0.000000 1.862060 0.000000 
#    z 0.057790 0.000000 1.912110 
# 
# From -- ./inp_files/50966.got.cif
#   From: 2010.05.17/outbox.cif.g08.bks.cpg/sg5_26_cif.got.tgz:50966.got - 2010.06.03 18:56:24.
