data_PCOD9121255
_publ_section_title
;
Structure prediction by ZEFSAII (Michael W. Deem and Ramdas Pophale) SiO2 
 PCOD9121255
Probable space group: C 2
;
_chemical_formula_sum "Si O2"
_cell_formula_units_Z 32
_cell_length_a 18.993728
_cell_length_b 13.865251
_cell_length_c 18.708923
_cell_angle_alpha 90.000000
_cell_angle_beta 156.573577
_cell_angle_gamma 90.000000
_cell_volume 1958.851583
_symmetry_space_group_name_H-M "C 2"
_symmetry_group_IT_number 5
_symmetry_cell_setting 'monoclinic'
loop_
_space_group_symop_operation_xyz
x,y,z
-x,y,-z
1/2+x,1/2+y,z
1/2-x,1/2+y,-z
loop_
_atom_site_type_symbol
_atom_site_label
_atom_site_fract_x
_atom_site_fract_y
_atom_site_fract_z
Si Si1 0.795557 0.228170 0.305098
Si Si2 0.359932 0.495341 0.615890
Si Si3 0.894735 0.403823 0.736229
Si Si4 0.269941 0.488961 0.119910
Si Si5 0.297596 0.011084 0.785469
Si Si6 0.877906 0.220561 0.630968
Si Si7 0.741834 0.215964 0.088190
Si Si8 0.385304 0.312787 0.728041
O O1 0.740885 0.237456 0.171885
O O2 0.681481 0.287527 0.255049
O O3 0.000000 0.256079 0.500000
O O4 0.777276 0.114569 0.307943
O O5 0.199053 0.466487 0.413389
O O6 0.545167 0.474026 0.747592
O O7 0.356763 0.608435 0.629798
O O8 0.358232 0.423677 0.681437
O O9 0.806785 0.437158 0.728806
O O10 0.866362 0.293612 0.686542
O O11 0.103873 0.426255 0.938892
O O12 0.298166 0.476715 0.231549
O O13 0.212886 0.600786 0.055372
O O14 0.500000 0.028166 0.000000
O O15 0.732187 0.251730 0.437185
O O16 0.067998 0.235277 0.769714
O O17 0.586489 0.277416 0.908623
#
# Coordination Sequence:
#
# PCOD9121255 Si02
#       8
#     4   4   4   4   4   4   4   4
#     4  11  19  30  51  77 100 124 159 208 255 293
#     4  10  21  32  50  73  98 134 167 200 239 294
#     4  10  19  31  50  73 104 132 159 203 247 291
#     4   9  18  32  49  77  99 125 161 203 251 291
#     4   9  18  30  49  77 101 127 156 202 255 295
#     4  10  20  34  49  75 101 133 168 199 241 290
#     4  10  19  32  53  74 104 125 157 209 251 294
#     4  11  20  33  50  76 100 132 164 199 252 296
#
# _framework density 16.336102
#
# number of rings (size 3 to 8) (size 9 to 14) (size 15 to 20)
#    0.000    2.000    1.250    4.875    3.500    0.000 
#    0.000    0.000    0.000    4.500    6.500    0.000 
#    0.000    0.000    0.000    0.000    0.000    0.000 
#
# Total GULP energy -89269.611863 kJ/mol
# GULP energy per Si atom -5579.350741 kJ/mol
# Density = 1.629892 g / cm^3
# Si number density = 16.336102 Si / 1000 Ang^3
#
#
#
# Elastic Constant Matrix: (Units=GPa)
#
#
# Indices 1 2 3 4 5 6 
#
# 1 61.7204 48.3145 14.7566 -0.0004 -0.5759 -0.0001
# 2 48.3145 101.3063 36.7931 -0.0022 -3.4431 -0.0015
# 3 14.7566 36.7931 65.4115 -0.0020 -1.5219 -0.0015
# 4 -0.0004 -0.0022 -0.0020 15.4001 -0.0008 -9.0934
# 5 -0.5759 -3.4431 -1.5219 -0.0008 14.0886 -0.0006
# 6 -0.0001 -0.0015 -0.0015 -9.0934 -0.0006 17.3252
#
#
#
# Elastic Compliance Matrix: (Units=1/GPa)
#
#
# Indices 1 2 3 4 5 6 
#
# 1 0.026008 -0.012973 0.001384 -0.000002 -0.001958 -0.000002
# 2 -0.012973 0.018950 -0.007656 0.000003 0.003274 0.000003
# 3 0.001384 -0.007656 0.019288 0.000003 0.000269 0.000003
# 4 -0.000002 0.000003 0.000003 0.094097 0.000009 0.049388
# 5 -0.001958 0.003274 0.000269 0.000009 0.071728 0.000007
# 6 -0.000002 0.000003 0.000003 0.049388 0.000007 0.083641
#
#
# Mechanical properties :
#
#
# Convention : Reuss Voigt Hill
#
# Bulk Modulus (GPa) = 38.82528 47.57407 43.19967
# Shear Modulus (GPa) = 13.85854 17.93439 15.89646
#
# Velocity S-wave (km/s) = 2.91578 3.31696 3.12282
# Velocity P-wave (km/s) = 5.92907 6.62230 6.28525
#
# Compressibility (1/GPa) = 0.02575642
#
# Stress axis : x y z
#
# Youngs Moduli (GPa) = 38.44973 52.77064 51.84466
#
# Poissons Ratio (x) = 0.68459 -0.07176
# Poissons Ratio (y) = 0.49880 0.39694
# Poissons Ratio (z) = -0.05322 0.40403
#
# Static dielectric constant tensor:
#      x y z
#    x 1.553960 0.000000 0.010040 
#    y 0.000000 1.531640 0.000000 
#    z 0.010040 0.000000 1.562610 
# 
# From -- ./inp_files/63036.got.cif
#   From: 2010.05.17/outbox.cif.g08.bks.cpg/sg5_32_cif.got.tgz:63036.got - 2010.06.03 18:56:24.
