data_PCOD9121012
_publ_section_title
;
Structure prediction by ZEFSAII (Michael W. Deem and Ramdas Pophale) SiO2 
 PCOD9121012
Probable space group: C 2
;
_chemical_formula_sum "Si O2"
_cell_formula_units_Z 28
_cell_length_a 18.906001
_cell_length_b 5.110951
_cell_length_c 26.030163
_cell_angle_alpha 90.000000
_cell_angle_beta 147.776707
_cell_angle_gamma 90.000000
_cell_volume 1341.173334
_symmetry_space_group_name_H-M "C 2"
_symmetry_group_IT_number 5
_symmetry_cell_setting 'monoclinic'
loop_
_space_group_symop_operation_xyz
x,y,z
-x,y,-z
1/2+x,1/2+y,z
1/2-x,1/2+y,-z
loop_
_atom_site_type_symbol
_atom_site_label
_atom_site_fract_x
_atom_site_fract_y
_atom_site_fract_z
Si Si1 0.620003 0.321800 0.002615
Si Si2 0.400224 0.356305 0.126099
Si Si3 0.214707 0.693537 0.840771
Si Si4 0.086505 0.356384 0.235225
Si Si5 0.068585 0.330502 0.108434
Si Si6 0.417970 0.190385 0.621629
Si Si7 0.780921 0.193393 0.585103
O O1 0.663114 0.312092 0.969112
O O2 0.524770 0.631337 0.827525
O O3 0.530534 0.072489 0.958976
O O4 0.737185 0.401834 0.113214
O O5 0.302214 0.331076 0.113917
O O6 0.511857 0.128870 0.201176
O O7 0.322011 0.807900 0.867927
O O8 0.073231 0.709173 0.726526
O O9 0.481215 0.567373 0.055177
O O10 0.130256 0.360879 0.203037
O O11 0.201509 0.274720 0.345177
O O12 0.362485 0.218779 0.529631
O O13 0.342238 0.410583 0.609064
O O14 0.371834 0.905908 0.611864
#
# Coordination Sequence:
#
# PCOD9121012 Si02
#       7
#     4   4   4   4   4   4   4
#     4  10  25  43  57  83 124 166 197 252 311 364
#     4  10  22  37  63  90 114 156 215 252 302 356
#     4  12  23  42  64  93 122 157 219 259 295 361
#     4  10  18  40  61  87 124 166 193 248 315 371
#     4  10  25  41  61  85 122 166 203 243 315 366
#     4  10  22  33  62  97 119 159 202 259 303 365
#     4  10  18  38  59  91 131 155 196 250 325 359
#
# _framework density 20.877241000000001
#
# number of rings (size 3 to 8) (size 9 to 14) (size 15 to 20)
#    0.000    1.714    2.857    0.429    0.000   10.286 
#    0.000    2.143    0.000    0.000    0.000   12.000 
#    0.000    0.000    0.000    0.000    0.000    0.000 
#
# Total GULP energy -78319.688633 kJ/mol
# GULP energy per Si atom -5594.263474 kJ/mol
# Density = 2.082972 g / cm^3
# Si number density = 20.877241 Si / 1000 Ang^3
#
#
#
# Elastic Constant Matrix: (Units=GPa)
#
#
# Indices 1 2 3 4 5 6 
#
# 1 167.1827 31.4508 68.4681 0.0015 -14.3368 -0.0037
# 2 31.4508 107.9811 22.8065 0.0049 6.0777 -0.0024
# 3 68.4681 22.8065 181.3896 0.0015 -22.8497 -0.0002
# 4 0.0015 0.0049 0.0015 27.5663 0.0004 -7.4509
# 5 -14.3368 6.0777 -22.8497 0.0004 33.2625 0.0004
# 6 -0.0037 -0.0024 -0.0002 -7.4509 0.0004 20.0335
#
#
#
# Elastic Compliance Matrix: (Units=1/GPa)
#
#
# Indices 1 2 3 4 5 6 
#
# 1 0.007441 -0.001781 -0.002342 0.000000 0.001923 0.000001
# 2 -0.001781 0.010184 -0.001028 -0.000002 -0.003335 0.000000
# 3 -0.002342 -0.001028 0.007031 0.000000 0.004009 -0.000001
# 4 0.000000 -0.000002 0.000000 0.040330 0.000000 0.015000
# 5 0.001923 -0.003335 0.004009 0.000000 0.034256 -0.000001
# 6 0.000001 0.000000 -0.000001 0.015000 -0.000001 0.055495
#
#
# Mechanical properties :
#
#
# Convention : Reuss Voigt Hill
#
# Bulk Modulus (GPa) = 69.66980 78.00047 73.83514
# Shear Modulus (GPa) = 29.44194 38.42768 33.93481
#
# Velocity S-wave (km/s) = 3.75939 4.29493 4.03605
# Velocity P-wave (km/s) = 7.23102 7.87641 7.56061
#
# Compressibility (1/GPa) = 0.01435342
#
# Stress axis : x y z
#
# Youngs Moduli (GPa) = 134.39536 98.18885 142.21826
#
# Poissons Ratio (x) = 0.17485 0.33314
# Poissons Ratio (y) = 0.23932 0.14627
# Poissons Ratio (z) = 0.31481 0.10098
#
# Static dielectric constant tensor:
#      x y z
#    x 1.738820 0.000000 -0.056710 
#    y 0.000000 1.781880 0.000000 
#    z -0.056710 0.000000 1.787420 
# 
# From -- ./inp_files/70988.got.cif
#   From: 2010.05.17/outbox.cif.g08.bks.cpg/sg5_36_cif.got.tgz:70988.got - 2010.06.03 18:56:24.
