data_PCOD9121682
_publ_section_title
;
Structure prediction by ZEFSAII (Michael W. Deem and Ramdas Pophale) SiO2 
 PCOD9121682
Probable space group: C 2
;
_chemical_formula_sum "Si O2"
_cell_formula_units_Z 24
_cell_length_a 18.580332
_cell_length_b 5.878142
_cell_length_c 9.903078
_cell_angle_alpha 90.000000
_cell_angle_beta 108.755538
_cell_angle_gamma 90.000000
_cell_volume 1024.159096
_symmetry_space_group_name_H-M "C 2"
_symmetry_group_IT_number 5
_symmetry_cell_setting 'monoclinic'
loop_
_space_group_symop_operation_xyz
x,y,z
-x,y,-z
1/2+x,1/2+y,z
1/2-x,1/2+y,-z
loop_
_atom_site_type_symbol
_atom_site_label
_atom_site_fract_x
_atom_site_fract_y
_atom_site_fract_z
Si Si1 0.000000 0.997431 0.000000
Si Si2 0.500000 0.994638 0.500000
Si Si3 0.707287 0.899338 0.250131
Si Si4 0.161701 0.889262 0.191150
Si Si5 0.195158 0.426201 0.917541
Si Si6 0.551639 0.669183 0.757293
Si Si7 0.874161 0.776112 0.327581
O O1 0.922575 0.865222 0.921164
O O2 0.014547 0.149032 0.878810
O O3 0.509811 0.847455 0.639766
O O4 0.418734 0.118679 0.458747
O O5 0.671256 0.646702 0.262373
O O6 0.796999 0.882062 0.338296
O O7 0.678183 0.150379 0.279182
O O8 0.698467 0.918544 0.080434
O O9 0.224895 0.902762 0.109977
O O10 0.139912 0.226245 0.835811
O O11 0.154088 0.640138 0.822371
O O12 0.557898 0.436430 0.680785
#
# Coordination Sequence:
#
# PCOD9121682 Si02
#       7
#     2   2   4   4   4   4   4
#     4  12  24  40  66 118 156 176 220 334 396 410
#     4  10  24  42  66 102 140 202 252 290 354 446
#     4  11  20  36  62  95 138 177 241 284 353 424
#     4  11  22  36  58  99 144 184 219 292 367 431
#     4  10  19  35  62  97 135 184 237 281 351 437
#     4  11  21  42  66 102 149 182 240 301 370 433
#     4  10  21  37  66  99 132 190 246 303 335 437
#
# _framework density 23.433859999999999
#
# number of rings (size 3 to 8) (size 9 to 14) (size 15 to 20)
#    0.000    1.333    3.333    4.500    0.000    0.667 
#    6.000    0.000    0.000    0.000   65.000    0.000 
#    0.000    0.000    0.000    0.000    0.000    0.000 
#
# Total GULP energy -66946.557203 kJ/mol
# GULP energy per Si atom -5578.879767 kJ/mol
# Density = 2.338052 g / cm^3
# Si number density = 23.433860 Si / 1000 Ang^3
#
#
#
# Elastic Constant Matrix: (Units=GPa)
#
#
# Indices 1 2 3 4 5 6 
#
# 1 102.0626 33.4541 52.3059 0.0000 29.9016 0.0000
# 2 33.4541 142.4024 41.7312 0.0000 16.5150 0.0000
# 3 52.3059 41.7312 81.7350 0.0000 39.1782 0.0000
# 4 0.0000 0.0000 0.0000 26.7950 0.0000 16.6429
# 5 29.9016 16.5150 39.1782 0.0000 29.5152 0.0000
# 6 0.0000 0.0000 0.0000 16.6429 0.0000 13.7900
#
#
#
# Elastic Compliance Matrix: (Units=1/GPa)
#
#
# Indices 1 2 3 4 5 6 
#
# 1 0.015188 -0.001053 -0.005743 0.000000 -0.007175 0.000000
# 2 -0.001053 0.008409 -0.005156 0.000000 0.003206 0.000000
# 3 -0.005743 -0.005156 0.039508 0.000000 -0.043739 0.000000
# 4 0.000000 0.000000 0.000000 0.149056 0.000000 -0.179893
# 5 -0.007175 0.003206 -0.043739 0.000000 0.097415 0.000000
# 6 0.000000 0.000000 0.000000 -0.179893 0.000000 0.289627
#
#
# Mechanical properties :
#
#
# Convention : Reuss Voigt Hill
#
# Bulk Modulus (GPa) = 25.50936 64.57581 45.04258
# Shear Modulus (GPa) = 7.85949 27.26728 17.56338
#
# Velocity S-wave (km/s) = 1.83335 3.41484 2.74065
# Velocity P-wave (km/s) = 3.92312 6.56998 5.41089
#
# Compressibility (1/GPa) = 0.03920129
#
# Stress axis : x y z
#
# Youngs Moduli (GPa) = 65.84024 118.92087 25.31133
#
# Poissons Ratio (x) = 0.12523 0.14536
# Poissons Ratio (y) = 0.06933 0.13051
# Poissons Ratio (z) = 0.37811 0.61317
#
# Static dielectric constant tensor:
#      x y z
#    x 1.822860 0.000000 0.009860 
#    y 0.000000 2.068220 0.000000 
#    z 0.009860 0.000000 1.815060 
# 
# From -- ./inp_files/43734.got.cif
#   From: 2010.05.17/outbox.cif.g08.bks.cpg/sg5_22_cif.got.tgz:43734.got - 2010.06.03 18:56:24.
