data_PCOD9121949
_publ_section_title
;
Structure prediction by ZEFSAII (Michael W. Deem and Ramdas Pophale) SiO2 
 PCOD9121949
Probable space group: C 2
;
_chemical_formula_sum "Si O2"
_cell_formula_units_Z 28
_cell_length_a 13.957765
_cell_length_b 6.040045
_cell_length_c 15.107232
_cell_angle_alpha 90.000000
_cell_angle_beta 111.456524
_cell_angle_gamma 90.000000
_cell_volume 1185.355237
_symmetry_space_group_name_H-M "C 2"
_symmetry_group_IT_number 5
_symmetry_cell_setting 'monoclinic'
loop_
_space_group_symop_operation_xyz
x,y,z
-x,y,-z
1/2+x,1/2+y,z
1/2-x,1/2+y,-z
loop_
_atom_site_type_symbol
_atom_site_label
_atom_site_fract_x
_atom_site_fract_y
_atom_site_fract_z
Si Si1 0.367297 0.133830 0.392224
Si Si2 0.097656 0.165025 0.896226
Si Si3 0.218865 0.463001 0.276143
Si Si4 0.297832 0.935715 0.530961
Si Si5 0.075042 0.259873 0.689176
Si Si6 0.000000 0.879825 0.000000
Si Si7 0.500000 0.520665 0.500000
Si Si8 0.329504 0.018514 0.934865
O O1 0.270206 0.221630 0.305754
O O2 0.366663 0.944767 0.465938
O O3 0.405789 0.350817 0.456034
O O4 0.433195 0.017421 0.338877
O O5 0.058136 0.234028 0.786784
O O6 0.012067 0.019445 0.915261
O O7 0.208308 0.047434 0.914750
O O8 0.124272 0.354205 0.976571
O O9 0.169551 0.490093 0.357071
O O10 0.310524 0.649134 0.292322
O O11 0.158073 0.455090 0.164183
O O12 0.239329 0.175118 0.485927
O O13 0.000139 0.134452 0.595942
O O14 0.895750 0.739998 0.964123
#
# Coordination Sequence:
#
# PCOD9121949 Si02
#       8
#     4   4   4   4   4   2   2   4
#     4  10  20  36  64  90 137 182 238 300 372 460
#     4  11  25  45  75 107 146 197 247 318 386 451
#     4   9  21  37  63  99 128 184 243 302 378 452
#     4  10  19  37  61  95 134 172 230 302 365 446
#     4  10  21  40  64  96 136 188 242 300 382 454
#     4  12  26  48  72 108 150 190 254 312 376 476
#     4  10  22  38  58  94 134 180 240 286 366 456
#     4  11  24  45  74 104 147 195 253 313 389 450
#
# _framework density 23.621611000000001
#
# number of rings (size 3 to 8) (size 9 to 14) (size 15 to 20)
#    0.000    1.714    2.857    0.857    2.000    2.286 
#    0.000    4.286    0.000    0.000    0.000    0.000 
#    0.000    0.000    0.000    0.000    0.000    0.000 
#
# Total GULP energy -77957.749796 kJ/mol
# GULP energy per Si atom -5568.410700 kJ/mol
# Density = 2.356785 g / cm^3
# Si number density = 23.621611 Si / 1000 Ang^3
#
#
#
# Elastic Constant Matrix: (Units=GPa)
#
#
# Indices 1 2 3 4 5 6 
#
# 1 38.6496 1.1703 12.7503 0.0000 -16.5550 0.0000
# 2 1.1703 69.9730 57.1286 0.0000 -7.5817 0.0000
# 3 12.7503 57.1286 223.6960 0.0000 -38.6295 0.0000
# 4 0.0000 0.0000 0.0000 31.1760 0.0000 -4.8143
# 5 -16.5550 -7.5817 -38.6295 0.0000 38.0988 0.0000
# 6 0.0000 0.0000 0.0000 -4.8143 0.0000 33.4789
#
#
#
# Elastic Compliance Matrix: (Units=1/GPa)
#
#
# Indices 1 2 3 4 5 6 
#
# 1 0.031900 0.000603 0.000536 0.000000 0.014525 0.000000
# 2 0.000603 0.018122 -0.004842 0.000000 -0.001042 0.000000
# 3 0.000536 -0.004842 0.006728 0.000000 0.006091 0.000000
# 4 0.000000 0.000000 0.000000 0.032804 0.000000 0.004717
# 5 0.014525 -0.001042 0.006091 0.000000 0.038528 0.000000
# 6 0.000000 0.000000 0.000000 0.004717 0.000000 0.030548
#
#
# Mechanical properties :
#
#
# Convention : Reuss Voigt Hill
#
# Bulk Modulus (GPa) = 20.26632 52.71299 36.48965
# Shear Modulus (GPa) = 27.39949 37.96868 32.68408
#
# Velocity S-wave (km/s) = 3.40947 4.01355 3.72378
# Velocity P-wave (km/s) = 4.90892 6.62134 5.82837
#
# Compressibility (1/GPa) = 0.04934295
#
# Stress axis : x y z
#
# Youngs Moduli (GPa) = 31.34798 55.18265 148.62513
#
# Poissons Ratio (x) = -0.03325 -0.07969
# Poissons Ratio (y) = -0.01889 0.71967
# Poissons Ratio (z) = -0.01681 0.26721
#
# Static dielectric constant tensor:
#      x y z
#    x 2.126690 0.000000 0.088790 
#    y 0.000000 1.943160 0.000000 
#    z 0.088790 0.000000 1.901150 
# 
# From -- ./inp_files/55383.got.cif
#   From: 2010.05.17/outbox.cif.g08.bks.cpg/sg5_28_cif.got.tgz:55383.got - 2010.06.03 18:56:24.
