data_PCOD9121934
_publ_section_title
;
Structure prediction by ZEFSAII (Michael W. Deem and Ramdas Pophale) SiO2 
 PCOD9121934
Probable space group: C 2
;
_chemical_formula_sum "Si O2"
_cell_formula_units_Z 18
_cell_length_a 11.926620
_cell_length_b 18.987587
_cell_length_c 5.191386
_cell_angle_alpha 90.000000
_cell_angle_beta 58.547408
_cell_angle_gamma 90.000000
_cell_volume 1002.896858
_symmetry_space_group_name_H-M "C 2"
_symmetry_group_IT_number 5
_symmetry_cell_setting 'monoclinic'
loop_
_space_group_symop_operation_xyz
x,y,z
-x,y,-z
1/2+x,1/2+y,z
1/2-x,1/2+y,-z
loop_
_atom_site_type_symbol
_atom_site_label
_atom_site_fract_x
_atom_site_fract_y
_atom_site_fract_z
Si Si1 0.146787 0.658650 0.887025
Si Si2 0.500000 0.465597 0.000000
Si Si3 0.211326 0.749038 0.308115
Si Si4 0.109947 0.079018 0.562203
Si Si5 0.000000 0.209858 0.000000
Si Si6 0.000000 0.869625 0.500000
O O1 0.180902 0.715976 0.624330
O O2 0.252218 0.596540 0.730588
O O3 0.161690 0.695145 0.146521
O O4 0.000000 0.634968 0.000000
O O5 0.385385 0.521580 0.215925
O O6 0.520951 0.415699 0.219110
O O7 0.369639 0.753296 0.084479
O O8 0.127227 0.819608 0.382252
O O9 0.000000 0.051428 0.500000
O O10 0.051291 0.153958 0.726617
#
# Coordination Sequence:
#
# PCOD9121934 Si02
#       6
#     4   2   4   4   2   2
#     4  11  20  35  58  92 117 138 181 249 304 330
#     4  11  24  38  58  82 110 165 202 222 262 349
#     4  11  21  35  58  88 119 146 182 238 293 342
#     4  10  19  37  61  84 113 146 195 240 282 333
#     4   9  20  34  60  92 112 139 186 248 304 325
#     4  12  22  38  58  82 120 156 194 226 272 348
#
# _framework density 17.948004999999998
#
# number of rings (size 3 to 8) (size 9 to 14) (size 15 to 20)
#    0.000    1.333    5.556    1.333    0.000    0.000 
#    0.000    0.000    2.444    2.667    0.000    0.000 
#    0.000    0.000    0.000    0.000    0.000    0.000 
#
# Total GULP energy -50160.041337 kJ/mol
# GULP energy per Si atom -5573.337926 kJ/mol
# Density = 1.790716 g / cm^3
# Si number density = 17.948005 Si / 1000 Ang^3
#
#
#
# Elastic Constant Matrix: (Units=GPa)
#
#
# Indices 1 2 3 4 5 6 
#
# 1 96.4560 36.2608 30.0562 0.0000 -23.5445 0.0000
# 2 36.2608 92.9880 33.5661 0.0000 -6.5302 0.0000
# 3 30.0562 33.5661 60.4782 0.0000 -6.7301 0.0000
# 4 0.0000 0.0000 0.0000 15.0680 0.0000 14.0541
# 5 -23.5445 -6.5302 -6.7301 0.0000 48.3676 0.0000
# 6 0.0000 0.0000 0.0000 14.0541 0.0000 11.5609
#
#
#
# Elastic Compliance Matrix: (Units=1/GPa)
#
#
# Indices 1 2 3 4 5 6 
#
# 1 0.014622 -0.003625 -0.004588 0.000000 0.005990 0.000000
# 2 -0.003625 0.014377 -0.006255 0.000000 -0.000694 0.000000
# 3 -0.004588 -0.006255 0.022289 0.000000 0.000023 0.000000
# 4 0.000000 0.000000 0.000000 -0.495774 0.000000 0.602692
# 5 0.005990 -0.000694 0.000023 0.000000 0.023500 0.000000
# 6 0.000000 0.000000 0.000000 0.602692 0.000000 -0.646170
#
#
# Mechanical properties :
#
#
# Convention : Reuss Voigt Hill
#
# Bulk Modulus (GPa) = 44.73948 49.96538 47.35243
# Shear Modulus (GPa) = -4.85075 25.00190 10.07557
#
# Velocity S-wave (km/s) = -1.64576 3.73636 2.37191
# Velocity P-wave (km/s) = 4.62277 6.82007 5.82595
#
# Compressibility (1/GPa) = 0.02235162
#
# Stress axis : x y z
#
# Youngs Moduli (GPa) = 68.38999 69.55658 44.86445
#
# Poissons Ratio (x) = 0.25214 0.20585
# Poissons Ratio (y) = 0.24791 0.28063
# Poissons Ratio (z) = 0.31380 0.43507
#
# Static dielectric constant tensor:
#      x y z
#    x 1.660810 0.000000 0.023870 
#    y 0.000000 1.610060 0.000000 
#    z 0.023870 0.000000 1.659040 
# 
# From -- ./inp_files/4910.got.cif
#   From: 2010.05.17/outbox.cif.g08.bks.cpg/sg5_3_cif.got.tgz:4910.got - 2010.06.03 18:56:24.
