data_PCOD9121000
_publ_section_title
;
Structure prediction by ZEFSAII (Michael W. Deem and Ramdas Pophale) SiO2 
 PCOD9121000
Probable space group: C 2
;
_chemical_formula_sum "Si O2"
_cell_formula_units_Z 28
_cell_length_a 8.497523
_cell_length_b 12.602735
_cell_length_c 11.727513
_cell_angle_alpha 90.000000
_cell_angle_beta 115.399514
_cell_angle_gamma 90.000000
_cell_volume 1134.524303
_symmetry_space_group_name_H-M "C 2"
_symmetry_group_IT_number 5
_symmetry_cell_setting 'monoclinic'
loop_
_space_group_symop_operation_xyz
x,y,z
-x,y,-z
1/2+x,1/2+y,z
1/2-x,1/2+y,-z
loop_
_atom_site_type_symbol
_atom_site_label
_atom_site_fract_x
_atom_site_fract_y
_atom_site_fract_z
Si Si1 0.876725 0.123450 0.201867
Si Si2 0.722093 0.976797 0.832769
Si Si3 0.885708 0.435101 0.858578
Si Si4 0.000000 0.145876 0.000000
Si Si5 0.079249 0.803999 0.686308
Si Si6 0.000000 0.613143 0.500000
Si Si7 0.093084 0.767486 0.131550
Si Si8 0.318706 0.489565 0.604141
O O1 0.753053 0.201812 0.231689
O O2 0.931125 0.183869 0.102402
O O3 0.036967 0.078878 0.323344
O O4 0.756464 0.019822 0.139200
O O5 0.530988 0.985746 0.822894
O O6 0.824027 0.870758 0.902511
O O7 0.733408 0.963641 0.700419
O O8 0.838863 0.074564 0.906783
O O9 0.770141 0.354997 0.748192
O O10 0.000000 0.390826 0.000000
O O11 0.073499 0.693968 0.618062
O O12 0.036078 0.790855 0.806610
O O13 0.927875 0.886936 0.597292
O O14 0.845530 0.542857 0.507706
O O15 0.000000 0.705328 0.000000
#
# Coordination Sequence:
#
# PCOD9121000 Si02
#       8
#     4   4   4   2   4   2   4   4
#     4  10  22  37  61  97 136 177 231 271 353 417
#     4  10  20  37  64  89 133 179 215 276 352 403
#     4  11  20  38  68 103 138 180 215 282 365 428
#     4  10  18  38  54  90 138 178 212 272 328 430
#     4  10  26  47  69 104 140 178 245 288 348 428
#     4  12  26  50  76  96 138 194 246 298 346 408
#     4  11  22  39  63 101 139 176 217 283 347 438
#     4   9  24  47  66  95 133 179 236 302 340 402
#
# _framework density 24.679946999999999
#
# number of rings (size 3 to 8) (size 9 to 14) (size 15 to 20)
#    0.000    1.714    2.143    2.143    4.000    2.286 
#    6.429    0.000    0.000    0.000    0.000    0.000 
#    0.000    0.000    0.000    0.000    0.000    0.000 
#
# Total GULP energy -78262.929871 kJ/mol
# GULP energy per Si atom -5590.209277 kJ/mol
# Density = 2.462377 g / cm^3
# Si number density = 24.679947 Si / 1000 Ang^3
#
#
#
# Elastic Constant Matrix: (Units=GPa)
#
#
# Indices 1 2 3 4 5 6 
#
# 1 126.8815 16.4556 26.8357 0.0000 21.1751 0.0000
# 2 16.4556 52.5277 14.2229 0.0000 21.1929 0.0000
# 3 26.8357 14.2229 57.8715 0.0000 18.9972 0.0000
# 4 0.0000 0.0000 0.0000 33.6841 0.0000 6.6399
# 5 21.1751 21.1929 18.9972 0.0000 46.7606 0.0000
# 6 0.0000 0.0000 0.0000 6.6399 0.0000 39.1780
#
#
#
# Elastic Compliance Matrix: (Units=1/GPa)
#
#
# Indices 1 2 3 4 5 6 
#
# 1 0.009081 -0.001035 -0.003186 0.000000 -0.002349 0.000000
# 2 -0.001035 0.023762 -0.002283 0.000000 -0.009373 0.000000
# 3 -0.003186 -0.002283 0.021352 0.000000 -0.006197 0.000000
# 4 0.000000 0.000000 0.000000 0.030714 0.000000 -0.005205
# 5 -0.002349 -0.009373 -0.006197 0.000000 0.029215 0.000000
# 6 0.000000 0.000000 0.000000 -0.005205 0.000000 0.026407
#
#
# Mechanical properties :
#
#
# Convention : Reuss Voigt Hill
#
# Bulk Modulus (GPa) = 24.27862 39.14547 31.71204
# Shear Modulus (GPa) = 29.89224 35.90896 32.90060
#
# Velocity S-wave (km/s) = 3.48400 3.81857 3.65511
# Velocity P-wave (km/s) = 5.10324 5.94454 5.53989
#
# Compressibility (1/GPa) = 0.04118851
#
# Stress axis : x y z
#
# Youngs Moduli (GPa) = 110.11522 42.08476 46.83307
#
# Poissons Ratio (x) = 0.04354 0.14920
# Poissons Ratio (y) = 0.11392 0.10693
# Poissons Ratio (z) = 0.35079 0.09609
#
# Static dielectric constant tensor:
#      x y z
#    x 1.927010 0.000000 0.070590 
#    y 0.000000 2.040850 0.000000 
#    z 0.070590 0.000000 2.053240 
# 
# From -- ./inp_files/36527.got.cif
#   From: 2010.05.17/outbox.cif.g08.bks.cpg/sg5_19_cif.got.tgz:36527.got - 2010.06.03 18:56:24.
