data_PCOD9121853
_publ_section_title
;
Structure prediction by ZEFSAII (Michael W. Deem and Ramdas Pophale) SiO2 
 PCOD9121853
Probable space group: C 2
;
_chemical_formula_sum "Si O2"
_cell_formula_units_Z 26
_cell_length_a 11.232256
_cell_length_b 17.370689
_cell_length_c 5.553783
_cell_angle_alpha 90.000000
_cell_angle_beta 92.144745
_cell_angle_gamma 90.000000
_cell_volume 1082.850753
_symmetry_space_group_name_H-M "C 2"
_symmetry_group_IT_number 5
_symmetry_cell_setting 'monoclinic'
loop_
_space_group_symop_operation_xyz
x,y,z
-x,y,-z
1/2+x,1/2+y,z
1/2-x,1/2+y,-z
loop_
_atom_site_type_symbol
_atom_site_label
_atom_site_fract_x
_atom_site_fract_y
_atom_site_fract_z
Si Si1 0.000000 0.730770 0.000000
Si Si2 0.771803 0.243515 0.447617
Si Si3 0.209371 0.012292 0.246757
Si Si4 0.000000 0.707502 0.500000
Si Si5 0.000000 0.965586 0.500000
Si Si6 0.139058 0.402854 0.472362
Si Si7 0.337295 0.374867 0.110187
Si Si8 0.356541 0.666162 0.960376
O O1 0.890719 0.792861 0.026334
O O2 0.995382 0.675805 0.231140
O O3 0.629690 0.247664 0.484976
O O4 0.813869 0.328693 0.381935
O O5 0.808383 0.196044 0.214313
O O6 0.829388 0.213376 0.706627
O O7 0.099149 0.023734 0.413641
O O8 0.317567 0.983747 0.416467
O O9 0.214390 0.086448 0.085489
O O10 0.166836 0.937556 0.098277
O O11 0.069367 0.909512 0.688423
O O12 0.206737 0.384455 0.225176
O O13 0.000000 0.400421 0.500000
O O14 0.500000 0.657396 0.000000
#
# Coordination Sequence:
#
# PCOD9121853 Si02
#       8
#     2   4   4   2   2   4   4   4
#     4  12  20  38  72 110 144 176 244 316 370 430
#     4  12  28  50  77 112 154 206 250 314 384 457
#     4  11  25  42  74 107 143 196 253 313 376 445
#     4  12  25  46  72 108 146 195 252 302 370 451
#     4  10  19  36  64 104 142 173 234 310 368 433
#     4  11  26  47  72 109 153 200 255 313 384 456
#     4  11  21  36  68 107 139 184 235 314 373 430
#     4  12  28  50  77 112 155 203 253 311 384 463
#
# _framework density 24.010693
#
# number of rings (size 3 to 8) (size 9 to 14) (size 15 to 20)
#    0.000    0.615    3.077    4.615    8.615    0.615 
#    1.385    1.538    0.000    0.000    0.000    0.000 
#    0.000    0.000    0.000    0.000    0.000    0.000 
#
# Total GULP energy -72481.721496 kJ/mol
# GULP energy per Si atom -5575.517038 kJ/mol
# Density = 2.395604 g / cm^3
# Si number density = 24.010693 Si / 1000 Ang^3
#
#
#
# Elastic Constant Matrix: (Units=GPa)
#
#
# Indices 1 2 3 4 5 6 
#
# 1 193.7198 12.2033 32.3739 0.0000 -22.7218 0.0000
# 2 12.2033 63.0507 30.4815 0.0000 -6.1383 0.0000
# 3 32.3739 30.4815 144.1286 0.0000 -10.4813 0.0000
# 4 0.0000 0.0000 0.0000 33.4616 0.0000 2.7688
# 5 -22.7218 -6.1383 -10.4813 0.0000 35.2098 0.0000
# 6 0.0000 0.0000 0.0000 2.7688 0.0000 10.0361
#
#
#
# Elastic Compliance Matrix: (Units=1/GPa)
#
#
# Indices 1 2 3 4 5 6 
#
# 1 0.005739 -0.000310 -0.000979 0.000000 0.003358 0.000000
# 2 -0.000310 0.017824 -0.003566 0.000000 0.001846 0.000000
# 3 -0.000979 -0.003566 0.007994 0.000000 0.001126 0.000000
# 4 0.000000 0.000000 0.000000 0.030583 0.000000 -0.008437
# 5 0.003358 0.001846 0.001126 0.000000 0.031225 0.000000
# 6 0.000000 0.000000 0.000000 -0.008437 0.000000 0.101968
#
#
# Mechanical properties :
#
#
# Convention : Reuss Voigt Hill
#
# Bulk Modulus (GPa) = 45.77384 61.22405 53.49895
# Shear Modulus (GPa) = 23.54864 37.46420 30.50642
#
# Velocity S-wave (km/s) = 3.13510 3.95437 3.56832
# Velocity P-wave (km/s) = 5.67543 6.81200 6.26952
#
# Compressibility (1/GPa) = 0.02184654
#
# Stress axis : x y z
#
# Youngs Moduli (GPa) = 174.24124 56.10481 125.09097
#
# Poissons Ratio (x) = 0.01742 0.12250
# Poissons Ratio (y) = 0.05410 0.44602
# Poissons Ratio (z) = 0.17063 0.20005
#
# Static dielectric constant tensor:
#      x y z
#    x 1.950800 0.000000 0.040090 
#    y 0.000000 1.975380 0.000000 
#    z 0.040090 0.000000 2.045530 
# 
# From -- ./inp_files/5203.got.cif
#   From: 2010.05.17/outbox.cif.g08.bks.cpg/sg5_3_cif.got.tgz:5203.got - 2010.06.03 18:56:24.
