data_PCOD9121906
_publ_section_title
;
Structure prediction by ZEFSAII (Michael W. Deem and Ramdas Pophale) SiO2 
 PCOD9121906
Probable space group: C 2
;
_chemical_formula_sum "Si O2"
_cell_formula_units_Z 24
_cell_length_a 17.564687
_cell_length_b 15.939425
_cell_length_c 10.226668
_cell_angle_alpha 90.000000
_cell_angle_beta 154.131120
_cell_angle_gamma 90.000000
_cell_volume 1249.238924
_symmetry_space_group_name_H-M "C 2"
_symmetry_group_IT_number 5
_symmetry_cell_setting 'monoclinic'
loop_
_space_group_symop_operation_xyz
x,y,z
-x,y,-z
1/2+x,1/2+y,z
1/2-x,1/2+y,-z
loop_
_atom_site_type_symbol
_atom_site_label
_atom_site_fract_x
_atom_site_fract_y
_atom_site_fract_z
Si Si1 0.429497 0.917080 0.713910
Si Si2 0.615754 0.736675 0.062478
Si Si3 0.468535 0.317498 0.597474
Si Si4 0.738878 0.481393 0.677235
Si Si5 0.947922 0.153042 0.571618
Si Si6 0.180392 0.325835 0.695944
O O1 0.307424 0.947009 0.643328
O O2 0.327543 0.899552 0.423153
O O3 0.524238 0.827295 0.890308
O O4 0.591934 0.981107 0.966324
O O5 0.811819 0.759190 0.409397
O O6 0.500000 0.698589 0.000000
O O7 0.600545 0.680850 0.908074
O O8 0.500000 0.286598 0.500000
O O9 0.392317 0.411358 0.473241
O O10 0.648704 0.323922 0.952306
O O11 0.648910 0.570623 0.529729
O O12 0.825483 0.235141 0.382500
O O13 0.000000 0.140470 0.500000
O O14 0.000000 0.331492 0.500000
#
# Coordination Sequence:
#
# PCOD9121906 Si02
#       6
#     4   4   4   4   4   4
#     4   9  18  38  60  82 120 160 203 244 296 362
#     4  10  19  41  62  84 121 162 204 249 296 363
#     4  11  20  36  65  88 115 164 206 248 307 359
#     4  10  19  37  58  86 119 163 193 244 312 361
#     4  10  21  38  60  86 122 158 197 251 305 364
#     4  10  21  38  61  91 118 153 210 258 293 367
#
# _framework density 19.211696
#
# number of rings (size 3 to 8) (size 9 to 14) (size 15 to 20)
#    0.000    2.000    3.333    4.500    0.000    0.667 
#    9.000    0.000    0.000    4.000    0.000    0.000 
#    0.000    0.000    0.000    0.000    0.000    0.000 
#
# Total GULP energy -66868.742935 kJ/mol
# GULP energy per Si atom -5572.395245 kJ/mol
# Density = 1.916797 g / cm^3
# Si number density = 19.211696 Si / 1000 Ang^3
#
#
#
# Elastic Constant Matrix: (Units=GPa)
#
#
# Indices 1 2 3 4 5 6 
#
# 1 73.8576 32.7593 63.3719 0.0000 0.5992 0.0000
# 2 32.7593 69.2076 21.2522 0.0000 3.6965 0.0000
# 3 63.3719 21.2522 154.0533 0.0000 -10.2888 0.0000
# 4 0.0000 0.0000 0.0000 20.4649 0.0000 -0.8655
# 5 0.5992 3.6965 -10.2888 0.0000 28.1943 0.0000
# 6 0.0000 0.0000 0.0000 -0.8655 0.0000 18.8101
#
#
#
# Elastic Compliance Matrix: (Units=1/GPa)
#
#
# Indices 1 2 3 4 5 6 
#
# 1 0.025801 -0.009131 -0.009543 0.000000 -0.002834 0.000000
# 2 -0.009131 0.018540 0.001075 0.000000 -0.001844 0.000000
# 3 -0.009543 0.001075 0.010529 0.000000 0.003904 0.000000
# 4 0.000000 0.000000 0.000000 0.048959 0.000000 0.002253
# 5 -0.002834 -0.001844 0.003904 0.000000 0.037195 0.000000
# 6 0.000000 0.000000 0.000000 0.002253 0.000000 0.053267
#
#
# Mechanical properties :
#
#
# Convention : Reuss Voigt Hill
#
# Bulk Modulus (GPa) = 50.83253 59.09835 54.96544
# Shear Modulus (GPa) = 21.18235 25.47621 23.32928
#
# Velocity S-wave (km/s) = 3.32411 3.64549 3.48850
# Velocity P-wave (km/s) = 6.42258 6.96763 6.70065
#
# Compressibility (1/GPa) = 0.01967244
#
# Stress axis : x y z
#
# Youngs Moduli (GPa) = 38.75846 53.93841 94.97253
#
# Poissons Ratio (x) = 0.49251 0.90634
# Poissons Ratio (y) = 0.35390 -0.10213
# Poissons Ratio (z) = 0.36988 -0.05800
#
# Static dielectric constant tensor:
#      x y z
#    x 1.735050 0.000000 -0.013930 
#    y 0.000000 1.655450 0.000000 
#    z -0.013930 0.000000 1.701240 
# 
# From -- ./inp_files/27904.got.cif
#   From: 2010.05.17/outbox.cif.g08.bks.cpg/sg5_14_cif.got.tgz:27904.got - 2010.06.03 18:56:24.
