data_PCOD9121075
_publ_section_title
;
Structure prediction by ZEFSAII (Michael W. Deem and Ramdas Pophale) SiO2 
 PCOD9121075
Probable space group: C 2
;
_chemical_formula_sum "Si O2"
_cell_formula_units_Z 26
_cell_length_a 5.170206
_cell_length_b 27.180892
_cell_length_c 9.219410
_cell_angle_alpha 90.000000
_cell_angle_beta 67.032860
_cell_angle_gamma 90.000000
_cell_volume 1192.906502
_symmetry_space_group_name_H-M "C 2"
_symmetry_group_IT_number 5
_symmetry_cell_setting 'monoclinic'
loop_
_space_group_symop_operation_xyz
x,y,z
-x,y,-z
1/2+x,1/2+y,z
1/2-x,1/2+y,-z
loop_
_atom_site_type_symbol
_atom_site_label
_atom_site_fract_x
_atom_site_fract_y
_atom_site_fract_z
Si Si1 0.123970 0.663620 0.608120
Si Si2 0.822768 0.403884 0.391881
Si Si3 0.313075 0.093666 0.896558
Si Si4 0.801528 0.311050 0.181540
Si Si5 0.822193 0.263172 0.678761
Si Si6 0.500000 0.577667 0.500000
Si Si7 0.531997 0.011209 0.669009
O O1 0.281303 0.705268 0.663067
O O2 0.284389 0.618653 0.489197
O O3 0.000000 0.693153 0.500000
O O4 0.942789 0.634926 0.764443
O O5 0.500000 0.416069 0.500000
O O6 0.810085 0.358826 0.283788
O O7 0.951933 0.454067 0.298344
O O8 0.000000 0.393535 0.500000
O O9 0.309989 0.042591 0.806664
O O10 0.500000 0.088473 0.000000
O O11 0.000000 0.108169 0.000000
O O12 0.478618 0.291556 0.234646
O O13 0.978544 0.270289 0.228217
O O14 0.000000 0.322036 0.000000
O O15 0.000000 0.281569 0.500000
O O16 0.320781 0.541242 0.638362
O O17 0.500000 0.014636 0.500000
#
# Coordination Sequence:
#
# PCOD9121075 Si02
#       7
#     4   4   4   4   4   2   4
#     4  11  25  41  71  95 133 177 234 279 334 400
#     4  11  23  43  72 104 128 178 235 287 335 404
#     4  11  27  41  62  97 140 179 218 276 343 406
#     4  12  27  46  70 100 149 181 222 287 361 417
#     4  12  25  46  73 103 132 182 240 289 337 407
#     4  10  18  38  66  94 128 158 222 268 340 364
#     4  10  23  41  70  94 135 175 231 279 335 400
#
# _framework density 21.795504999999999
#
# number of rings (size 3 to 8) (size 9 to 14) (size 15 to 20)
#    0.000    0.923    1.538    6.000    8.615    2.462 
#    0.000    1.538    0.000    0.000    0.000    0.000 
#    0.000    0.000    0.000    0.000    0.000    0.000 
#
# Total GULP energy -72535.547702 kJ/mol
# GULP energy per Si atom -5579.657516 kJ/mol
# Density = 2.174590 g / cm^3
# Si number density = 21.795505 Si / 1000 Ang^3
#
#
#
# Elastic Constant Matrix: (Units=GPa)
#
#
# Indices 1 2 3 4 5 6 
#
# 1 101.2403 5.6516 23.5898 0.0000 -5.1491 0.0000
# 2 5.6516 128.0213 18.0252 0.0000 -8.6368 0.0000
# 3 23.5898 18.0252 78.2392 0.0000 -1.9300 0.0000
# 4 0.0000 0.0000 0.0000 19.2883 0.0000 3.5064
# 5 -5.1491 -8.6368 -1.9300 0.0000 29.1622 0.0000
# 6 0.0000 0.0000 0.0000 3.5064 0.0000 20.8105
#
#
#
# Elastic Compliance Matrix: (Units=1/GPa)
#
#
# Indices 1 2 3 4 5 6 
#
# 1 0.010706 0.000094 -0.003208 0.000000 0.001706 0.000000
# 2 0.000094 0.008227 -0.001866 0.000000 0.002330 0.000000
# 3 -0.003208 -0.001866 0.014174 0.000000 -0.000181 0.000000
# 4 0.000000 0.000000 0.000000 0.053483 0.000000 -0.009011
# 5 0.001706 0.002330 -0.000181 0.000000 0.035270 0.000000
# 6 0.000000 0.000000 0.000000 -0.009011 0.000000 0.049571
#
#
# Mechanical properties :
#
#
# Convention : Reuss Voigt Hill
#
# Bulk Modulus (GPa) = 43.20101 44.67048 43.93574
# Shear Modulus (GPa) = 26.43999 31.20112 28.82055
#
# Velocity S-wave (km/s) = 3.48673 3.78767 3.64031
# Velocity P-wave (km/s) = 6.00615 6.29828 6.15395
#
# Compressibility (1/GPa) = 0.02314761
#
# Stress axis : x y z
#
# Youngs Moduli (GPa) = 93.40192 121.55129 70.55192
#
# Poissons Ratio (x) = -0.01144 0.22631
# Poissons Ratio (y) = -0.00879 0.13167
# Poissons Ratio (z) = 0.29960 0.22685
#
# Static dielectric constant tensor:
#      x y z
#    x 1.948680 0.000000 -0.041760 
#    y 0.000000 1.765730 0.000000 
#    z -0.041760 0.000000 1.796780 
# 
# From -- ./inp_files/13151.got.cif
#   From: 2010.05.17/outbox.cif.g08.bks.cpg/sg5_7_cif.got.tgz:13151.got - 2010.06.03 18:56:24.
