data_PCOD9121687
_publ_section_title
;
Structure prediction by ZEFSAII (Michael W. Deem and Ramdas Pophale) SiO2 
 PCOD9121687
Probable space group: C 2
;
_chemical_formula_sum "Si O2"
_cell_formula_units_Z 24
_cell_length_a 7.722474
_cell_length_b 18.248830
_cell_length_c 7.593078
_cell_angle_alpha 90.000000
_cell_angle_beta 113.433552
_cell_angle_gamma 90.000000
_cell_volume 981.806225
_symmetry_space_group_name_H-M "C 2"
_symmetry_group_IT_number 5
_symmetry_cell_setting 'monoclinic'
loop_
_space_group_symop_operation_xyz
x,y,z
-x,y,-z
1/2+x,1/2+y,z
1/2-x,1/2+y,-z
loop_
_atom_site_type_symbol
_atom_site_label
_atom_site_fract_x
_atom_site_fract_y
_atom_site_fract_z
Si Si1 0.296628 0.370750 0.896617
Si Si2 0.792479 0.709291 0.038033
Si Si3 0.706591 0.333612 0.516238
Si Si4 0.053581 0.462962 0.311789
Si Si5 0.389321 0.127597 0.643794
Si Si6 0.930768 0.192339 0.696976
O O1 0.292646 0.344623 0.692229
O O2 0.122775 0.424829 0.855426
O O3 0.500000 0.408138 0.000000
O O4 0.292553 0.297418 0.013811
O O5 0.676949 0.683526 0.162427
O O6 0.001208 0.681913 0.177519
O O7 0.650389 0.682062 0.827100
O O8 0.500000 0.309290 0.500000
O O9 0.766694 0.409820 0.630294
O O10 0.871676 0.275699 0.624178
O O11 0.091670 0.545828 0.274177
O O12 0.000000 0.463954 0.500000
O O13 0.500000 0.130718 0.500000
O O14 0.179692 0.145304 0.491392
#
# Coordination Sequence:
#
# PCOD9121687 Si02
#       6
#     4   4   4   4   4   4
#     4  11  21  37  61  93 120 156 206 254 298 355
#     4  10  20  35  61  93 118 157 205 251 296 360
#     4  11  21  38  64  87 118 164 205 247 304 359
#     4   9  20  38  59  88 125 160 198 246 304 361
#     4   9  18  37  59  89 127 162 198 245 302 364
#     4  10  19  35  63  90 119 160 203 245 302 358
#
# _framework density 24.444744
#
# number of rings (size 3 to 8) (size 9 to 14) (size 15 to 20)
#    0.000    2.000    1.667    3.500    0.000    0.000 
#   12.000    0.000    7.333    4.000    0.000    0.000 
#    0.000    0.000    0.000    0.000    0.000    0.000 
#
# Total GULP energy -67111.024741 kJ/mol
# GULP energy per Si atom -5592.585395 kJ/mol
# Density = 2.438911 g / cm^3
# Si number density = 24.444744 Si / 1000 Ang^3
#
#
#
# Elastic Constant Matrix: (Units=GPa)
#
#
# Indices 1 2 3 4 5 6 
#
# 1 123.9825 17.8230 68.2437 0.0000 43.9646 0.0000
# 2 17.8230 162.5122 72.5107 0.0000 41.2226 0.0000
# 3 68.2437 72.5107 188.7617 0.0000 41.7709 0.0000
# 4 0.0000 0.0000 0.0000 28.3426 0.0000 -1.4310
# 5 43.9646 41.2226 41.7709 0.0000 53.8606 0.0000
# 6 0.0000 0.0000 0.0000 -1.4310 0.0000 3.3957
#
#
#
# Elastic Compliance Matrix: (Units=1/GPa)
#
#
# Indices 1 2 3 4 5 6 
#
# 1 0.013231 0.002711 -0.003592 0.000000 -0.010089 0.000000
# 2 0.002711 0.008858 -0.002888 0.000000 -0.006752 0.000000
# 3 -0.003592 -0.002888 0.007929 0.000000 -0.001006 0.000000
# 4 0.000000 0.000000 0.000000 0.036050 0.000000 0.015192
# 5 -0.010089 -0.006752 -0.001006 0.000000 0.032749 0.000000
# 6 0.000000 0.000000 0.000000 0.015192 0.000000 0.300892
#
#
# Mechanical properties :
#
#
# Convention : Reuss Voigt Hill
#
# Bulk Modulus (GPa) = 44.48965 88.04569 66.26767
# Shear Modulus (GPa) = 12.05574 38.23169 25.14372
#
# Velocity S-wave (km/s) = 2.22318 3.95904 3.21065
# Velocity P-wave (km/s) = 4.98294 7.54951 6.39628
#
# Compressibility (1/GPa) = 0.02247714
#
# Stress axis : x y z
#
# Youngs Moduli (GPa) = 75.58199 112.89819 126.12617
#
# Poissons Ratio (x) = -0.30605 0.45307
# Poissons Ratio (y) = -0.20489 0.36431
# Poissons Ratio (z) = 0.27150 0.32610
#
# Static dielectric constant tensor:
#      x y z
#    x 2.034690 0.000000 -0.003690 
#    y 0.000000 1.910300 0.000000 
#    z -0.003690 0.000000 1.971930 
# 
# From -- ./inp_files/16853.got.cif
#   From: 2010.05.17/outbox.cif.g08.bks.cpg/sg5_9_cif.got.tgz:16853.got - 2010.06.03 18:56:24.
