data_PCOD9121305
_publ_section_title
;
Structure prediction by ZEFSAII (Michael W. Deem and Ramdas Pophale) SiO2 
 PCOD9121305
Probable space group: C 2
;
_chemical_formula_sum "Si O2"
_cell_formula_units_Z 32
_cell_length_a 14.309673
_cell_length_b 14.979946
_cell_length_c 21.272984
_cell_angle_alpha 90.000000
_cell_angle_beta 159.959803
_cell_angle_gamma 90.000000
_cell_volume 1562.630390
_symmetry_space_group_name_H-M "C 2"
_symmetry_group_IT_number 5
_symmetry_cell_setting 'monoclinic'
loop_
_space_group_symop_operation_xyz
x,y,z
-x,y,-z
1/2+x,1/2+y,z
1/2-x,1/2+y,-z
loop_
_atom_site_type_symbol
_atom_site_label
_atom_site_fract_x
_atom_site_fract_y
_atom_site_fract_z
Si Si1 0.281745 0.821020 0.553243
Si Si2 0.371050 0.830620 0.849472
Si Si3 0.172184 0.439515 0.298081
Si Si4 0.421256 0.624387 0.862388
Si Si5 0.173335 0.994877 0.308411
Si Si6 0.483987 0.114129 0.742149
Si Si7 0.249078 0.306287 0.610670
Si Si8 0.275707 0.115477 0.482270
O O1 0.401111 0.884397 0.683690
O O2 0.358621 0.831757 0.527942
O O3 0.323509 0.715776 0.594792
O O4 0.955469 0.834568 0.347273
O O5 0.442319 0.897158 0.838161
O O6 0.435435 0.731254 0.864735
O O7 0.500000 0.843277 0.000000
O O8 0.500000 0.433743 0.500000
O O9 0.082089 0.541565 0.247549
O O10 0.454969 0.560003 0.823729
O O11 0.101952 0.611721 0.676327
O O12 0.698101 0.603468 0.075918
O O13 0.500000 0.991999 0.500000
O O14 0.093260 0.892050 0.262744
O O15 0.135818 0.042720 0.351201
O O16 0.431567 0.217978 0.722576
O O17 0.266048 0.094497 0.549427
O O18 0.000000 0.287118 0.500000
#
# Coordination Sequence:
#
# PCOD9121305 Si02
#       8
#     4   4   4   4   4   4   4   4
#     4   9  18  33  56  80 105 138 176 223 270 308
#     4  10  19  34  56  82 108 131 169 226 279 320
#     4  10  21  36  54  80 108 139 180 220 261 315
#     4  10  19  32  52  81 106 130 171 224 272 310
#     4   9  18  32  52  75 103 135 171 217 261 307
#     4  11  21  32  51  75 108 145 174 211 259 310
#     4  10  20  34  52  77 109 147 184 212 251 316
#     4   9  17  33  54  78 102 133 177 221 264 308
#
# _framework density 20.478293000000001
#
# number of rings (size 3 to 8) (size 9 to 14) (size 15 to 20)
#    0.000    2.250    0.000    4.500    0.000    5.000 
#    0.000    0.000    0.000    1.500    0.000    7.875 
#    0.000    0.000    0.000    0.000    0.000    0.000 
#
# Total GULP energy -89142.260697 kJ/mol
# GULP energy per Si atom -5571.391294 kJ/mol
# Density = 2.043168 g / cm^3
# Si number density = 20.478293 Si / 1000 Ang^3
#
#
#
# Elastic Constant Matrix: (Units=GPa)
#
#
# Indices 1 2 3 4 5 6 
#
# 1 79.2520 38.3430 8.0601 0.0805 -12.5134 0.0605
# 2 38.3430 96.7538 18.1182 0.0237 -35.6007 0.0407
# 3 8.0601 18.1182 41.7048 0.1460 -11.5385 0.1365
# 4 0.0805 0.0237 0.1460 9.3327 0.0382 2.0521
# 5 -12.5134 -35.6007 -11.5385 0.0382 24.0427 0.0270
# 6 0.0605 0.0407 0.1365 2.0521 0.0270 12.0572
#
#
#
# Elastic Compliance Matrix: (Units=1/GPa)
#
#
# Indices 1 2 3 4 5 6 
#
# 1 0.015685 -0.007041 -0.000689 -0.000090 -0.002593 -0.000026
# 2 -0.007041 0.025883 -0.000338 -0.000118 0.034500 -0.000105
# 3 -0.000689 -0.000338 0.027701 -0.000419 0.012436 -0.000265
# 4 -0.000090 -0.000118 -0.000419 0.111324 -0.000578 -0.018941
# 5 -0.002593 0.034500 0.012436 -0.000578 0.097298 -0.000364
# 6 -0.000026 -0.000105 -0.000265 -0.018941 -0.000364 0.086166
#
#
# Mechanical properties :
#
#
# Convention : Reuss Voigt Hill
#
# Bulk Modulus (GPa) = 18.82072 38.52814 28.67443
# Shear Modulus (GPa) = 12.56579 19.29916 15.93248
#
# Velocity S-wave (km/s) = 2.47981 3.07322 2.79232
# Velocity P-wave (km/s) = 4.17251 5.60784 4.94255
#
# Compressibility (1/GPa) = 0.05313294
#
# Stress axis : x y z
#
# Youngs Moduli (GPa) = 63.75412 38.63482 36.09962
#
# Poissons Ratio (x) = 0.27202 0.02489
# Poissons Ratio (y) = 0.44888 0.01221
# Poissons Ratio (z) = 0.04396 0.01306
#
# Static dielectric constant tensor:
#      x y z
#    x 1.812320 0.000010 -0.020000 
#    y 0.000010 1.727540 -0.000050 
#    z -0.020000 -0.000050 1.742770 
# 
# From -- ./inp_files/24608.got.cif
#   From: 2010.05.17/outbox.cif.g08.bks.cpg/sg5_13_cif.got.tgz:24608.got - 2010.06.03 18:56:24.
