data_PCOD9121158
_publ_section_title
;
Structure prediction by ZEFSAII (Michael W. Deem and Ramdas Pophale) SiO2 
 PCOD9121158
Probable space group: C 2
;
_chemical_formula_sum "Si O2"
_cell_formula_units_Z 24
_cell_length_a 11.005192
_cell_length_b 11.677577
_cell_length_c 14.657313
_cell_angle_alpha 90.000000
_cell_angle_beta 149.883334
_cell_angle_gamma 90.000000
_cell_volume 945.154512
_symmetry_space_group_name_H-M "C 2"
_symmetry_group_IT_number 5
_symmetry_cell_setting 'monoclinic'
loop_
_space_group_symop_operation_xyz
x,y,z
-x,y,-z
1/2+x,1/2+y,z
1/2-x,1/2+y,-z
loop_
_atom_site_type_symbol
_atom_site_label
_atom_site_fract_x
_atom_site_fract_y
_atom_site_fract_z
Si Si1 0.500000 0.628460 0.500000
Si Si2 0.000000 0.258843 0.000000
Si Si3 0.350591 0.443448 0.146628
Si Si4 0.942397 0.187912 0.657873
Si Si5 0.912575 0.617788 0.345619
Si Si6 0.505568 0.054948 0.213638
Si Si7 0.896805 0.782007 0.033956
O O1 0.521245 0.705315 0.603956
O O2 0.288076 0.543702 0.390683
O O3 0.770107 0.340379 0.875000
O O4 0.854807 0.176308 0.833087
O O5 0.480227 0.554456 0.272075
O O6 0.486637 0.393724 0.145730
O O7 0.109639 0.487692 0.942194
O O8 0.653161 0.197865 0.481513
O O9 0.107524 0.268942 0.827826
O O10 0.000000 0.569475 0.500000
O O11 0.912326 0.538253 0.255159
O O12 0.459729 0.183774 0.147619
O O13 0.000000 0.765526 0.000000
#
# Coordination Sequence:
#
# PCOD9121158 Si02
#       7
#     2   2   4   4   4   4   4
#     4  10  18  40  66  96 128 176 232 282 338 406
#     4  12  24  46  76 104 138 184 246 294 342 412
#     4  11  24  42  69 105 135 181 236 288 346 419
#     4  10  23  43  69 100 142 181 232 288 355 408
#     4  11  25  45  72  98 144 188 228 284 360 414
#     4  10  22  43  68  95 137 179 226 285 352 403
#     4  11  21  42  69  97 133 185 227 281 343 416
#
# _framework density 25.392672999999998
#
# number of rings (size 3 to 8) (size 9 to 14) (size 15 to 20)
#    0.000    1.333    3.333    2.000    4.667    1.333 
#   18.000    0.000    3.667    0.000    0.000    0.000 
#    0.000    0.000    0.000    0.000    0.000    0.000 
#
# Total GULP energy -66854.207039 kJ/mol
# GULP energy per Si atom -5571.183920 kJ/mol
# Density = 2.533488 g / cm^3
# Si number density = 25.392673 Si / 1000 Ang^3
#
#
#
# Elastic Constant Matrix: (Units=GPa)
#
#
# Indices 1 2 3 4 5 6 
#
# 1 96.3208 -6.8107 22.3188 0.0056 -7.5162 0.0002
# 2 -6.8107 51.1367 21.2022 0.0081 -6.4581 0.0017
# 3 22.3188 21.2022 145.1342 0.0188 -11.5477 0.0043
# 4 0.0056 0.0081 0.0188 -68.8888 0.0084 10.6464
# 5 -7.5162 -6.4581 -11.5477 0.0084 39.8725 0.0004
# 6 0.0002 0.0017 0.0043 10.6464 0.0004 7.7305
#
#
#
# Elastic Compliance Matrix: (Units=1/GPa)
#
#
# Indices 1 2 3 4 5 6 
#
# 1 0.011161 0.002534 -0.001931 0.000001 0.001955 -0.000001
# 2 0.002534 0.021648 -0.003311 0.000001 0.003025 -0.000005
# 3 -0.001931 -0.003311 0.007778 0.000001 0.001352 -0.000005
# 4 0.000001 0.000001 0.000001 -0.011969 0.000003 0.016483
# 5 0.001955 0.003025 0.001352 0.000003 0.026330 -0.000007
# 6 -0.000001 -0.000005 -0.000005 0.016483 -0.000007 0.106657
#
#
# Mechanical properties :
#
#
# Convention : Reuss Voigt Hill
#
# Bulk Modulus (GPa) = 28.43270 40.66801 34.55035
# Shear Modulus (GPa) = 27.97251 12.80159 20.38705
#
# Velocity S-wave (km/s) = 3.32263 2.24775 2.83657
# Velocity P-wave (km/s) = 5.09327 4.77357 4.93601
#
# Compressibility (1/GPa) = 0.03517077
#
# Stress axis : x y z
#
# Youngs Moduli (GPa) = 89.59644 46.19370 128.55956
#
# Poissons Ratio (x) = -0.11706 0.24825
# Poissons Ratio (y) = -0.22704 0.42572
# Poissons Ratio (z) = 0.17301 0.15297
#
# Static dielectric constant tensor:
#      x y z
#    x 2.126640 0.000000 0.064120 
#    y 0.000000 2.117050 0.000000 
#    z 0.064120 0.000000 2.067880 
# 
# From -- ./inp_files/53116.got.cif
#   From: 2010.05.17/outbox.cif.g08.bks.cpg/sg5_27_cif.got.tgz:53116.got - 2010.06.03 18:56:24.
