data_PCOD9121213
_publ_section_title
;
Structure prediction by ZEFSAII (Michael W. Deem and Ramdas Pophale) SiO2 
 PCOD9121213
Probable space group: C 2
;
_chemical_formula_sum "Si O2"
_cell_formula_units_Z 22
_cell_length_a 10.316195
_cell_length_b 14.189445
_cell_length_c 7.902081
_cell_angle_alpha 90.000000
_cell_angle_beta 129.383740
_cell_angle_gamma 90.000000
_cell_volume 894.040965
_symmetry_space_group_name_H-M "C 2"
_symmetry_group_IT_number 5
_symmetry_cell_setting 'monoclinic'
loop_
_space_group_symop_operation_xyz
x,y,z
-x,y,-z
1/2+x,1/2+y,z
1/2-x,1/2+y,-z
loop_
_atom_site_type_symbol
_atom_site_label
_atom_site_fract_x
_atom_site_fract_y
_atom_site_fract_z
Si Si1 0.000000 0.855630 0.000000
Si Si2 0.263132 0.398851 0.086278
Si Si3 0.698429 0.237672 0.675117
Si Si4 0.727976 0.059215 0.497097
Si Si5 0.000000 0.015264 0.500000
Si Si6 0.000000 0.529184 0.000000
Si Si7 0.673095 0.839587 0.540521
O O1 0.154857 0.805345 0.222941
O O2 0.893500 0.914606 0.045794
O O3 0.244105 0.287689 0.103783
O O4 0.353648 0.446243 0.320830
O O5 0.096726 0.458744 0.950782
O O6 0.500000 0.260946 0.500000
O O7 0.811646 0.287792 0.625929
O O8 0.705244 0.128148 0.636595
O O9 0.697782 0.952081 0.532954
O O10 0.917084 0.071983 0.582550
O O11 0.613506 0.082905 0.234155
O O12 0.500000 0.823845 0.500000
#
# Coordination Sequence:
#
# PCOD9121213 Si02
#       7
#     2   4   4   4   2   2   4
#     4  12  22  39  77  98 136 190 242 283 367 430
#     4  11  20  42  70  98 133 185 236 290 360 419
#     4  12  23  45  69  97 143 189 231 299 364 414
#     4  11  23  42  72 100 144 184 237 297 361 427
#     4  10  18  44  66  94 136 188 220 294 360 416
#     4  10  22  43  75 102 138 186 242 293 361 436
#     4  12  25  45  70 105 142 190 239 298 359 436
#
# _framework density 24.607375000000001
#
# number of rings (size 3 to 8) (size 9 to 14) (size 15 to 20)
#    0.000    0.727    8.182    1.636    1.273    0.727 
#    0.000    0.909    4.000    0.000    0.000    0.000 
#    0.000    0.000    0.000    0.000    0.000    0.000 
#
# Total GULP energy -61345.569430 kJ/mol
# GULP energy per Si atom -5576.869948 kJ/mol
# Density = 2.455137 g / cm^3
# Si number density = 24.607375 Si / 1000 Ang^3
#
#
#
# Elastic Constant Matrix: (Units=GPa)
#
#
# Indices 1 2 3 4 5 6 
#
# 1 198.3193 27.7656 2.4997 0.0000 5.5603 0.0000
# 2 27.7656 114.1309 8.0852 0.0000 1.3103 0.0000
# 3 2.4997 8.0852 69.6679 0.0000 11.1832 0.0000
# 4 0.0000 0.0000 0.0000 -4.0018 0.0000 2.1021
# 5 5.5603 1.3103 11.1832 0.0000 36.5305 0.0000
# 6 0.0000 0.0000 0.0000 2.1021 0.0000 20.5043
#
#
#
# Elastic Compliance Matrix: (Units=1/GPa)
#
#
# Indices 1 2 3 4 5 6 
#
# 1 0.005241 -0.001272 0.000084 0.000000 -0.000778 0.000000
# 2 -0.001272 0.009143 -0.001045 0.000000 0.000186 0.000000
# 3 0.000084 -0.001045 0.015216 0.000000 -0.004633 0.000000
# 4 0.000000 0.000000 0.000000 -0.237120 0.000000 0.024310
# 5 -0.000778 0.000186 -0.004633 0.000000 0.028905 0.000000
# 6 0.000000 0.000000 0.000000 0.024310 0.000000 0.046278
#
#
# Mechanical properties :
#
#
# Convention : Reuss Voigt Hill
#
# Bulk Modulus (GPa) = 39.78598 50.97990 45.38294
# Shear Modulus (GPa) = -41.84360 33.52445 -4.15958
#
# Velocity S-wave (km/s) = -4.12812 3.69504 -1.30156
# Velocity P-wave (km/s) = 2.55313 6.24233 4.02792
#
# Compressibility (1/GPa) = 0.02513448
#
# Stress axis : x y z
#
# Youngs Moduli (GPa) = 190.79509 109.37014 65.72091
#
# Poissons Ratio (x) = 0.13913 -0.00555
# Poissons Ratio (y) = 0.24272 0.06870
# Poissons Ratio (z) = -0.01611 0.11432
#
# Static dielectric constant tensor:
#      x y z
#    x 2.216640 0.000000 -0.060080 
#    y 0.000000 2.014140 0.000000 
#    z -0.060080 0.000000 2.113350 
# 
# From -- ./inp_files/20238.got.cif
#   From: 2010.05.17/outbox.cif.g08.bks.cpg/sg5_11_cif.got.tgz:20238.got - 2010.06.03 18:56:24.
