data_PCOD9121173
_publ_section_title
;
Structure prediction by ZEFSAII (Michael W. Deem and Ramdas Pophale) SiO2 
 PCOD9121173
Probable space group: C 2
;
_chemical_formula_sum "Si O2"
_cell_formula_units_Z 28
_cell_length_a 14.065092
_cell_length_b 13.043705
_cell_length_c 9.694508
_cell_angle_alpha 90.000000
_cell_angle_beta 145.512674
_cell_angle_gamma 90.000000
_cell_volume 1007.065072
_symmetry_space_group_name_H-M "C 2"
_symmetry_group_IT_number 5
_symmetry_cell_setting 'monoclinic'
loop_
_space_group_symop_operation_xyz
x,y,z
-x,y,-z
1/2+x,1/2+y,z
1/2-x,1/2+y,-z
loop_
_atom_site_type_symbol
_atom_site_label
_atom_site_fract_x
_atom_site_fract_y
_atom_site_fract_z
Si Si1 0.718688 0.903110 0.829353
Si Si2 0.449384 0.390831 0.586692
Si Si3 0.188399 0.107966 0.687012
Si Si4 0.315342 0.914025 0.532709
Si Si5 0.219995 0.657762 0.490703
Si Si6 0.132842 0.628353 0.809207
Si Si7 0.928005 0.269049 0.118182
O O1 0.285622 0.882949 0.338302
O O2 0.628024 0.808765 0.796681
O O3 0.892650 0.910869 0.124031
O O4 0.635416 0.014714 0.749703
O O5 0.500000 0.345297 0.500000
O O6 0.353968 0.493597 0.418751
O O7 0.312874 0.347001 0.528834
O O8 0.291905 0.164023 0.690854
O O9 0.291090 0.109514 0.948808
O O10 0.000000 0.143785 0.500000
O O11 0.491162 0.881886 0.817904
O O12 0.274429 0.033176 0.480910
O O13 0.414919 0.697187 0.736168
O O14 0.049731 0.675527 0.377703
O O15 0.264617 0.702104 0.885975
#
# Coordination Sequence:
#
# PCOD9121173 Si02
#       7
#     4   4   4   4   4   4   4
#     4  12  25  48  81 122 167 217 268 348 427 483
#     4  10  21  45  77 111 155 213 267 330 395 499
#     4  10  18  40  72 106 152 194 270 333 393 464
#     4  11  26  48  81 120 169 210 273 348 422 484
#     4  11  25  46  75 116 164 216 269 344 410 484
#     4  12  24  46  79 116 164 219 265 347 419 479
#     4  12  28  47  79 123 163 212 286 338 394 514
#
# _framework density 27.803566
#
# number of rings (size 3 to 8) (size 9 to 14) (size 15 to 20)
#    0.000    0.857    5.714    2.143    6.000    0.000 
#    0.000    3.571    0.000    0.000    0.000    0.000 
#    0.000    0.000    0.000    0.000    0.000    0.000 
#
# Total GULP energy -78054.572958 kJ/mol
# GULP energy per Si atom -5575.326640 kJ/mol
# Density = 2.774028 g / cm^3
# Si number density = 27.803566 Si / 1000 Ang^3
#
#
#
# Elastic Constant Matrix: (Units=GPa)
#
#
# Indices 1 2 3 4 5 6 
#
# 1 170.3925 33.2196 96.0816 0.0000 24.3813 0.0000
# 2 33.2196 106.7040 63.2294 0.0000 23.2475 0.0000
# 3 96.0816 63.2294 206.3148 0.0000 17.1894 0.0000
# 4 0.0000 0.0000 0.0000 41.3061 0.0000 17.9794
# 5 24.3813 23.2475 17.1894 0.0000 69.0950 0.0000
# 6 0.0000 0.0000 0.0000 17.9794 0.0000 50.1493
#
#
#
# Elastic Compliance Matrix: (Units=1/GPa)
#
#
# Indices 1 2 3 4 5 6 
#
# 1 0.008218 0.000058 -0.003678 0.000000 -0.002004 0.000000
# 2 0.000058 0.012114 -0.003470 0.000000 -0.003233 0.000000
# 3 -0.003678 -0.003470 0.007575 0.000000 0.000581 0.000000
# 4 0.000000 0.000000 0.000000 0.028686 0.000000 -0.010284
# 5 -0.002004 -0.003233 0.000581 0.000000 0.016123 0.000000
# 6 0.000000 0.000000 0.000000 -0.010284 0.000000 0.023628
#
#
# Mechanical properties :
#
#
# Convention : Reuss Voigt Hill
#
# Bulk Modulus (GPa) = 72.85142 96.49695 84.67419
# Shear Modulus (GPa) = 43.44001 51.50214 47.47107
#
# Velocity S-wave (km/s) = 3.95700 4.30857 4.13652
# Velocity P-wave (km/s) = 6.86558 7.71581 7.30308
#
# Compressibility (1/GPa) = 0.01372657
#
# Stress axis : x y z
#
# Youngs Moduli (GPa) = 121.67940 82.54580 132.01492
#
# Poissons Ratio (x) = -0.00475 0.48554
# Poissons Ratio (y) = -0.00700 0.45811
# Poissons Ratio (z) = 0.44753 0.28645
#
# Static dielectric constant tensor:
#      x y z
#    x 2.231780 0.000000 0.081050 
#    y 0.000000 2.388970 0.000000 
#    z 0.081050 0.000000 2.226590 
# 
# From -- ./inp_files/62996.got.cif
#   From: 2010.05.17/outbox.cif.g08.bks.cpg/sg5_32_cif.got.tgz:62996.got - 2010.06.03 18:56:24.
