data_PCOD9121397
_publ_section_title
;
Structure prediction by ZEFSAII (Michael W. Deem and Ramdas Pophale) SiO2 
 PCOD9121397
Probable space group: C 2
;
_chemical_formula_sum "Si O2"
_cell_formula_units_Z 24
_cell_length_a 16.423061
_cell_length_b 18.837666
_cell_length_c 10.617822
_cell_angle_alpha 90.000000
_cell_angle_beta 156.979000
_cell_angle_gamma 90.000000
_cell_volume 1284.604555
_symmetry_space_group_name_H-M "C 2"
_symmetry_group_IT_number 5
_symmetry_cell_setting 'monoclinic'
loop_
_space_group_symop_operation_xyz
x,y,z
-x,y,-z
1/2+x,1/2+y,z
1/2-x,1/2+y,-z
loop_
_atom_site_type_symbol
_atom_site_label
_atom_site_fract_x
_atom_site_fract_y
_atom_site_fract_z
Si Si1 0.941576 0.710340 0.710458
Si Si2 0.100520 0.590403 0.513556
Si Si3 0.301661 0.345725 0.626657
Si Si4 0.649559 0.998977 0.332931
Si Si5 0.951640 0.119578 0.740951
Si Si6 0.882542 0.232079 0.457985
O O1 0.992160 0.667254 0.656747
O O2 0.877418 0.792724 0.623006
O O3 0.739961 0.667216 0.475822
O O4 0.146973 0.707135 0.089254
O O5 0.075390 0.537790 0.357713
O O6 0.000000 0.563512 0.500000
O O7 0.343135 0.606582 0.886114
O O8 0.203559 0.418086 0.440216
O O9 0.143915 0.297692 0.484422
O O10 0.500000 0.360314 0.000000
O O11 0.500000 0.004992 0.000000
O O12 0.853703 0.042698 0.582597
O O13 0.000262 0.165303 0.686612
O O14 0.000000 0.254913 0.500000
#
# Coordination Sequence:
#
# PCOD9121397 Si02
#       6
#     4   4   4   4   4   4
#     4   9  18  35  55  80 110 145 186 222 269 332
#     4  11  22  36  58  86 114 142 181 236 285 326
#     4   9  19  35  55  78 109 150 190 225 269 331
#     4  11  22  37  57  80 110 149 192 229 270 331
#     4  10  19  34  57  80 108 146 189 225 266 330
#     4  10  19  33  57  86 116 144 177 231 286 328
#
# _framework density 18.682793
#
# number of rings (size 3 to 8) (size 9 to 14) (size 15 to 20)
#    0.000    2.000    0.000    7.500    0.000    4.000 
#    0.000    0.000    0.000    1.000    0.000    0.000 
#    0.000    0.000    0.000    0.000    0.000    0.000 
#
# Total GULP energy -66826.651235 kJ/mol
# GULP energy per Si atom -5568.887603 kJ/mol
# Density = 1.864027 g / cm^3
# Si number density = 18.682793 Si / 1000 Ang^3
#
#
#
# Elastic Constant Matrix: (Units=GPa)
#
#
# Indices 1 2 3 4 5 6 
#
# 1 84.5158 59.8502 37.6378 0.0000 -12.8564 0.0000
# 2 59.8502 133.1041 51.4708 0.0000 -24.6615 0.0000
# 3 37.6378 51.4708 109.5459 0.0001 -16.1702 0.0000
# 4 0.0000 0.0000 0.0001 29.5501 0.0001 -14.2410
# 5 -12.8564 -24.6615 -16.1702 0.0001 29.1902 0.0000
# 6 0.0000 0.0000 0.0000 -14.2410 0.0000 25.8307
#
#
#
# Elastic Compliance Matrix: (Units=1/GPa)
#
#
# Indices 1 2 3 4 5 6 
#
# 1 0.018103 -0.006926 -0.002888 0.000000 0.000521 0.000000
# 2 -0.006926 0.012848 -0.002728 0.000000 0.006293 0.000000
# 3 -0.002888 -0.002728 0.011843 0.000000 0.002984 0.000000
# 4 0.000000 0.000000 0.000000 0.046085 0.000000 0.025408
# 5 0.000521 0.006293 0.002984 0.000000 0.041457 0.000000
# 6 0.000000 0.000000 0.000000 0.025408 0.000000 0.052721
#
#
# Mechanical properties :
#
#
# Convention : Reuss Voigt Hill
#
# Bulk Modulus (GPa) = 56.47046 69.45371 62.96209
# Shear Modulus (GPa) = 23.35940 28.79469 26.07705
#
# Velocity S-wave (km/s) = 3.53982 3.93012 3.74007
# Velocity P-wave (km/s) = 6.85555 7.60595 7.24048
#
# Compressibility (1/GPa) = 0.01770837
#
# Stress axis : x y z
#
# Youngs Moduli (GPa) = 55.24071 77.83141 84.43635
#
# Poissons Ratio (x) = 0.53909 0.24388
# Poissons Ratio (y) = 0.38262 0.23036
# Poissons Ratio (z) = 0.15956 0.21234
#
# Static dielectric constant tensor:
#      x y z
#    x 1.752910 0.000000 -0.008100 
#    y 0.000000 1.640110 0.000000 
#    z -0.008100 0.000000 1.662610 
# 
# From -- ./inp_files/15809.got.cif
#   From: 2010.05.17/outbox.cif.g08.bks.cpg/sg5_8_cif.got.tgz:15809.got - 2010.06.03 18:56:24.
