data_PCOD9121852
_publ_section_title
;
Structure prediction by ZEFSAII (Michael W. Deem and Ramdas Pophale) SiO2 
 PCOD9121852
Probable space group: C 2
;
_chemical_formula_sum "Si O2"
_cell_formula_units_Z 26
_cell_length_a 11.567330
_cell_length_b 19.195320
_cell_length_c 5.420848
_cell_angle_alpha 90.000000
_cell_angle_beta 111.538588
_cell_angle_gamma 90.000000
_cell_volume 1119.588128
_symmetry_space_group_name_H-M "C 2"
_symmetry_group_IT_number 5
_symmetry_cell_setting 'monoclinic'
loop_
_space_group_symop_operation_xyz
x,y,z
-x,y,-z
1/2+x,1/2+y,z
1/2-x,1/2+y,-z
loop_
_atom_site_type_symbol
_atom_site_label
_atom_site_fract_x
_atom_site_fract_y
_atom_site_fract_z
Si Si1 0.205671 0.264750 0.291192
Si Si2 0.500000 0.724263 0.500000
Si Si3 0.274223 0.670319 0.080296
Si Si4 0.500000 0.859964 0.000000
Si Si5 0.000000 0.447333 0.500000
Si Si6 0.139960 0.806889 0.197258
Si Si7 0.142287 0.031944 0.676752
Si Si8 0.774454 0.962058 0.763133
O O1 0.332324 0.296959 0.489322
O O2 0.107283 0.263108 0.437703
O O3 0.232972 0.187009 0.215785
O O4 0.123117 0.312910 0.047693
O O5 0.421183 0.682358 0.241042
O O6 0.191210 0.734131 0.120063
O O7 0.262172 0.596837 0.204414
O O8 0.475966 0.904358 0.734692
O O9 0.129832 0.484466 0.661795
O O10 0.210875 0.878858 0.197195
O O11 0.000000 0.815289 0.000000
O O12 0.000000 0.050931 0.500000
O O13 0.181741 0.985557 0.473620
O O14 0.150374 0.994315 0.948775
#
# Coordination Sequence:
#
# PCOD9121852 Si02
#       8
#     4   2   4   2   2   4   4   4
#     4  11  22  36  71 109 143 187 240 314 383 433
#     4  10  19  36  64 102 144 171 232 314 362 433
#     4  11  24  42  72 107 145 196 254 314 377 447
#     4  12  20  38  72 112 146 178 246 320 376 434
#     4  12  25  46  72 108 150 195 256 306 372 457
#     4  11  26  47  71 108 154 197 256 312 388 461
#     4  12  28  50  78 112 158 203 258 315 394 461
#     4  12  28  50  78 113 153 209 252 318 389 466
#
# _framework density 23.222823999999999
#
# number of rings (size 3 to 8) (size 9 to 14) (size 15 to 20)
#    0.000    0.615    3.846    3.692    6.462    1.846 
#    2.769    0.000    0.000    0.000    0.000    0.000 
#    0.000    0.000    0.000    0.000    0.000    0.000 
#
# Total GULP energy -72426.543943 kJ/mol
# GULP energy per Si atom -5571.272611 kJ/mol
# Density = 2.316997 g / cm^3
# Si number density = 23.222824 Si / 1000 Ang^3
#
#
#
# Elastic Constant Matrix: (Units=GPa)
#
#
# Indices 1 2 3 4 5 6 
#
# 1 66.1462 17.3206 24.8307 0.0000 5.9503 0.0000
# 2 17.3206 91.4677 36.9809 0.0000 -15.7059 0.0000
# 3 24.8307 36.9809 149.5986 0.0000 8.3050 0.0000
# 4 0.0000 0.0000 0.0000 27.3928 0.0000 -2.0548
# 5 5.9503 -15.7059 8.3050 0.0000 49.5116 0.0000
# 6 0.0000 0.0000 0.0000 -2.0548 0.0000 20.1585
#
#
#
# Elastic Compliance Matrix: (Units=1/GPa)
#
#
# Indices 1 2 3 4 5 6 
#
# 1 0.016827 -0.002846 -0.001945 0.000000 -0.002599 0.000000
# 2 -0.002846 0.013657 -0.003193 0.000000 0.005210 0.000000
# 3 -0.001945 -0.003193 0.007914 0.000000 -0.002106 0.000000
# 4 0.000000 0.000000 0.000000 0.036787 0.000000 0.003750
# 5 -0.002599 0.005210 -0.002106 0.000000 0.022516 0.000000
# 6 0.000000 0.000000 0.000000 0.003750 0.000000 0.049989
#
#
# Mechanical properties :
#
#
# Convention : Reuss Voigt Hill
#
# Bulk Modulus (GPa) = 44.58395 51.71964 48.15180
# Shear Modulus (GPa) = 29.21664 34.61795 31.91730
#
# Velocity S-wave (km/s) = 3.55082 3.86513 3.71130
# Velocity P-wave (km/s) = 6.00426 6.49910 6.25657
#
# Compressibility (1/GPa) = 0.02242959
#
# Stress axis : x y z
#
# Youngs Moduli (GPa) = 59.42720 73.22090 126.36411
#
# Poissons Ratio (x) = 0.20841 0.24580
# Poissons Ratio (y) = 0.16915 0.40347
# Poissons Ratio (z) = 0.11559 0.23379
#
# Static dielectric constant tensor:
#      x y z
#    x 1.919000 0.000000 -0.058580 
#    y 0.000000 1.960080 0.000000 
#    z -0.058580 0.000000 2.058510 
# 
# From -- ./inp_files/5710.got.cif
#   From: 2010.05.17/outbox.cif.g08.bks.cpg/sg5_3_cif.got.tgz:5710.got - 2010.06.03 18:56:24.
