data_PCOD9121905
_publ_section_title
;
Structure prediction by ZEFSAII (Michael W. Deem and Ramdas Pophale) SiO2 
 PCOD9121905
Probable space group: C 2
;
_chemical_formula_sum "Si O2"
_cell_formula_units_Z 30
_cell_length_a 13.212345
_cell_length_b 7.012555
_cell_length_c 13.564945
_cell_angle_alpha 90.000000
_cell_angle_beta 69.098360
_cell_angle_gamma 90.000000
_cell_volume 1174.117116
_symmetry_space_group_name_H-M "C 2"
_symmetry_group_IT_number 5
_symmetry_cell_setting 'monoclinic'
loop_
_space_group_symop_operation_xyz
x,y,z
-x,y,-z
1/2+x,1/2+y,z
1/2-x,1/2+y,-z
loop_
_atom_site_type_symbol
_atom_site_label
_atom_site_fract_x
_atom_site_fract_y
_atom_site_fract_z
Si Si1 0.502407 0.731700 0.355450
Si Si2 0.500000 0.969949 0.000000
Si Si3 0.656334 0.922573 0.449223
Si Si4 0.031830 0.522049 0.199636
Si Si5 0.350033 0.185900 0.379011
Si Si6 0.297891 0.486713 0.725024
Si Si7 0.204852 0.198247 0.902198
Si Si8 0.259591 0.316668 0.100892
O O1 0.585416 0.888599 0.376859
O O2 0.396630 0.760600 0.459025
O O3 0.482406 0.816622 0.254137
O O4 0.575453 0.542995 0.333903
O O5 0.505894 0.084165 0.098339
O O6 0.397243 0.837237 0.049799
O O7 0.782006 0.877623 0.390032
O O8 0.641197 0.119114 0.511263
O O9 0.967247 0.669513 0.289799
O O10 0.156639 0.460323 0.152377
O O11 0.271473 0.033317 0.348636
O O12 0.272275 0.288277 0.786909
O O13 0.255242 0.647375 0.817604
O O14 0.156132 0.984609 0.909182
O O15 0.260187 0.235227 0.990876
#
# Coordination Sequence:
#
# PCOD9121905 Si02
#       8
#     4   2   4   4   4   4   4   4
#     4   8  17  35  58  78 110 161 192 229 301 360
#     4  10  20  34  58  84 124 156 196 232 302 344
#     4   9  18  35  59  80 113 149 196 243 301 351
#     4   9  18  35  56  84 116 159 190 235 295 352
#     4  10  19  37  58  86 113 153 192 250 301 345
#     4  10  19  37  59  83 117 152 194 245 289 351
#     4  11  20  37  57  86 116 161 196 239 279 349
#     4  10  21  36  59  84 119 159 199 230 287 350
#
# _framework density 25.551113999999998
#
# number of rings (size 3 to 8) (size 9 to 14) (size 15 to 20)
#    0.000    2.400    2.667    0.000    0.000    0.000 
#    9.600    2.000    0.000    0.000    0.000    0.000 
#    0.000    0.000    0.000    0.000    0.000    0.000 
#
# Total GULP energy -83676.991082 kJ/mol
# GULP energy per Si atom -5578.466072 kJ/mol
# Density = 2.549296 g / cm^3
# Si number density = 25.551114 Si / 1000 Ang^3
#
#
#
# Elastic Constant Matrix: (Units=GPa)
#
#
# Indices 1 2 3 4 5 6 
#
# 1 50.3900 8.9713 2.1123 0.0000 -8.8817 0.0000
# 2 8.9713 69.1271 -0.5557 0.0000 7.0087 0.0000
# 3 2.1123 -0.5557 78.5758 0.0000 13.1851 0.0000
# 4 0.0000 0.0000 0.0000 27.6284 0.0000 3.0260
# 5 -8.8817 7.0087 13.1851 0.0000 30.8631 0.0000
# 6 0.0000 0.0000 0.0000 3.0260 0.0000 21.1401
#
#
#
# Elastic Compliance Matrix: (Units=1/GPa)
#
#
# Indices 1 2 3 4 5 6 
#
# 1 0.021993 -0.003681 -0.001960 0.000000 0.008003 0.000000
# 2 -0.003681 0.015461 0.001051 0.000000 -0.005019 0.000000
# 3 -0.001960 0.001051 0.013919 0.000000 -0.006749 0.000000
# 4 0.000000 0.000000 0.000000 0.036771 0.000000 -0.005263
# 5 0.008003 -0.005019 -0.006749 0.000000 0.038727 0.000000
# 6 0.000000 0.000000 0.000000 -0.005263 0.000000 0.048057
#
#
# Mechanical properties :
#
#
# Convention : Reuss Voigt Hill
#
# Bulk Modulus (GPa) = 23.70128 24.34986 24.02557
# Shear Modulus (GPa) = 25.23026 28.43065 26.83045
#
# Velocity S-wave (km/s) = 3.14577 3.33933 3.24399
# Velocity P-wave (km/s) = 4.74243 4.94153 4.84300
#
# Compressibility (1/GPa) = 0.04219181
#
# Stress axis : x y z
#
# Youngs Moduli (GPa) = 45.46841 64.67793 71.84325
#
# Poissons Ratio (x) = 0.23810 0.14082
# Poissons Ratio (y) = 0.16739 -0.07547
# Poissons Ratio (z) = 0.08912 -0.06795
#
# Static dielectric constant tensor:
#      x y z
#    x 2.189110 0.000000 -0.059170 
#    y 0.000000 2.127710 0.000000 
#    z -0.059170 0.000000 2.086960 
# 
# From -- ./inp_files/54017.got.cif
#   From: 2010.05.17/outbox.cif.g08.bks.cpg/sg5_28_cif.got.tgz:54017.got - 2010.06.03 18:56:24.
