data_PCOD9121472
_publ_section_title
;
Structure prediction by ZEFSAII (Michael W. Deem and Ramdas Pophale) SiO2 
 PCOD9121472
Probable space group: C 2
;
_chemical_formula_sum "Si O2"
_cell_formula_units_Z 28
_cell_length_a 5.197163
_cell_length_b 31.512712
_cell_length_c 8.830628
_cell_angle_alpha 90.000000
_cell_angle_beta 121.885138
_cell_angle_gamma 90.000000
_cell_volume 1228.024454
_symmetry_space_group_name_H-M "C 2"
_symmetry_group_IT_number 5
_symmetry_cell_setting 'monoclinic'
loop_
_space_group_symop_operation_xyz
x,y,z
-x,y,-z
1/2+x,1/2+y,z
1/2-x,1/2+y,-z
loop_
_atom_site_type_symbol
_atom_site_label
_atom_site_fract_x
_atom_site_fract_y
_atom_site_fract_z
Si Si1 0.400107 0.579580 0.302951
Si Si2 0.649641 0.750905 0.709783
Si Si3 0.340669 0.293840 0.286315
Si Si4 0.274860 0.890085 0.786679
Si Si5 0.272589 0.433382 0.784328
Si Si6 0.854127 0.168053 0.119622
Si Si7 0.292155 0.030102 0.202060
O O1 0.500000 0.593668 0.500000
O O2 0.389657 0.620773 0.194086
O O3 0.660860 0.549878 0.315085
O O4 0.078585 0.555166 0.221287
O O5 0.500000 0.758265 0.500000
O O6 0.506524 0.782010 0.789699
O O7 0.546285 0.704482 0.733031
O O8 0.996842 0.762880 0.783081
O O9 0.500000 0.288445 0.500000
O O10 0.359126 0.343031 0.251059
O O11 0.496886 0.900608 0.716833
O O12 0.997681 0.922757 0.717432
O O13 0.500000 0.894655 0.000000
O O14 0.140964 0.480708 0.749983
O O15 0.500000 0.430028 0.000000
O O16 0.500000 0.176394 0.000000
O O17 0.000000 0.171569 0.000000
O O18 0.000000 0.032840 0.000000
#
# Coordination Sequence:
#
# PCOD9121472 Si02
#       7
#     4   4   4   4   4   4   4
#     4  12  25  42  63  92 129 164 200 249 313 371
#     4  10  22  41  61  84 119 159 196 241 302 361
#     4  10  21  37  58  84 117 158 198 238 295 361
#     4  10  19  34  56  84 116 152 197 246 296 349
#     4   9  19  35  57  84 115 154 198 248 301 349
#     4  12  25  42  65  93 121 153 202 251 298 359
#     4  11  22  41  67  91 121 164 213 257 302 362
#
# _framework density 22.800847999999998
#
# number of rings (size 3 to 8) (size 9 to 14) (size 15 to 20)
#    0.000    1.429    0.000    6.000    0.000    4.000 
#    0.000    8.571    0.000    0.000    0.000    0.000 
#    0.000    0.000    0.000    0.000    0.000    0.000 
#
# Total GULP energy -78241.081964 kJ/mol
# GULP energy per Si atom -5588.648712 kJ/mol
# Density = 2.274895 g / cm^3
# Si number density = 22.800848 Si / 1000 Ang^3
#
#
#
# Elastic Constant Matrix: (Units=GPa)
#
#
# Indices 1 2 3 4 5 6 
#
# 1 181.8356 55.3195 26.1764 0.0000 -22.4445 0.0000
# 2 55.3195 110.5078 -8.6269 0.0000 -9.0868 0.0000
# 3 26.1764 -8.6269 37.3537 0.0000 -6.3125 0.0000
# 4 0.0000 0.0000 0.0000 70.9458 0.0000 13.0318
# 5 -22.4445 -9.0868 -6.3125 0.0000 19.2971 0.0000
# 6 0.0000 0.0000 0.0000 13.0318 0.0000 45.8906
#
#
#
# Elastic Compliance Matrix: (Units=1/GPa)
#
#
# Indices 1 2 3 4 5 6 
#
# 1 0.008310 -0.004133 -0.005794 0.000000 0.005824 0.000000
# 2 -0.004133 0.011820 0.006091 0.000000 0.002751 0.000000
# 3 -0.005794 0.006091 0.033432 0.000000 0.007066 0.000000
# 4 0.000000 0.000000 0.000000 0.014871 0.000000 -0.004223
# 5 0.005824 0.002751 0.007066 0.000000 0.062201 0.000000
# 6 0.000000 0.000000 0.000000 -0.004223 0.000000 0.022990
#
#
# Mechanical properties :
#
#
# Convention : Reuss Voigt Hill
#
# Bulk Modulus (GPa) = 21.79109 52.82611 37.30860
# Shear Modulus (GPa) = 28.31374 44.34858 36.33116
#
# Velocity S-wave (km/s) = 3.52772 4.41505 3.99609
# Velocity P-wave (km/s) = 5.11576 7.01491 6.13921
#
# Compressibility (1/GPa) = 0.04589031
#
# Stress axis : x y z
#
# Youngs Moduli (GPa) = 120.34006 84.60281 29.91139
#
# Poissons Ratio (x) = 0.34968 0.17330
# Poissons Ratio (y) = 0.49740 -0.18220
# Poissons Ratio (z) = 0.69721 -0.51533
#
# Static dielectric constant tensor:
#      x y z
#    x 1.803260 0.000000 0.033320 
#    y 0.000000 1.866350 0.000000 
#    z 0.033320 0.000000 1.825560 
# 
# From -- ./inp_files/13387.got.cif
#   From: 2010.05.17/outbox.cif.g08.bks.cpg/sg5_7_cif.got.tgz:13387.got - 2010.06.03 18:56:24.
