data_PCOD9121034
_publ_section_title
;
Structure prediction by ZEFSAII (Michael W. Deem and Ramdas Pophale) SiO2 
 PCOD9121034
Probable space group: C 2
;
_chemical_formula_sum "Si O2"
_cell_formula_units_Z 30
_cell_length_a 11.960747
_cell_length_b 14.295642
_cell_length_c 18.932763
_cell_angle_alpha 90.000000
_cell_angle_beta 151.774079
_cell_angle_gamma 90.000000
_cell_volume 1531.054560
_symmetry_space_group_name_H-M "C 2"
_symmetry_group_IT_number 5
_symmetry_cell_setting 'monoclinic'
loop_
_space_group_symop_operation_xyz
x,y,z
-x,y,-z
1/2+x,1/2+y,z
1/2-x,1/2+y,-z
loop_
_atom_site_type_symbol
_atom_site_label
_atom_site_fract_x
_atom_site_fract_y
_atom_site_fract_z
Si Si1 0.495312 0.955120 0.320739
Si Si2 0.919657 0.073718 0.591158
Si Si3 0.462236 0.770570 0.396803
Si Si4 0.897900 0.381006 0.020652
Si Si5 0.000000 0.913137 0.000000
Si Si6 0.259663 0.081040 0.912015
Si Si7 0.283275 0.425706 0.339846
Si Si8 0.089766 0.761899 0.932055
O O1 0.518429 0.855877 0.374851
O O2 0.214961 0.969519 0.154771
O O3 0.611281 0.957147 0.307243
O O4 0.662477 0.027477 0.454428
O O5 0.900495 0.176093 0.546463
O O6 0.048931 0.078743 0.738562
O O7 0.088740 0.008573 0.634406
O O8 0.500000 0.795904 0.500000
O O9 0.187231 0.744000 0.231125
O O10 0.117940 0.368739 0.195514
O O11 0.785325 0.484109 0.968073
O O12 0.699447 0.305101 0.923242
O O13 0.000000 0.378782 0.000000
O O14 0.888991 0.842383 0.996217
O O15 0.500000 0.090142 0.000000
O O16 0.266840 0.171244 0.964898
O O17 0.500000 0.375024 0.500000
#
# Coordination Sequence:
#
# PCOD9121034 Si02
#       8
#     4   4   4   4   2   4   4   4
#     4  10  22  36  63  98 130 165 213 272 334 375
#     4  11  21  39  65  98 122 167 226 267 316 388
#     4  11  23  38  62  96 128 167 218 274 320 383
#     4  11  22  36  63  97 128 170 216 268 325 381
#     4  10  18  38  62  96 126 170 208 266 324 388
#     4  11  19  37  63  94 123 163 219 268 315 380
#     4  10  19  34  60  92 126 161 210 267 314 374
#     4  11  21  37  65  94 128 167 220 261 324 388
#
# _framework density 19.594336999999999
#
# number of rings (size 3 to 8) (size 9 to 14) (size 15 to 20)
#    0.000    1.333    6.000    2.000    1.867    0.000 
#    0.000    0.000    1.467    8.800    1.733    0.000 
#    0.000    0.000    0.000    0.000    0.000    0.000 
#
# Total GULP energy -83694.136515 kJ/mol
# GULP energy per Si atom -5579.609101 kJ/mol
# Density = 1.954974 g / cm^3
# Si number density = 19.594337 Si / 1000 Ang^3
#
#
#
# Elastic Constant Matrix: (Units=GPa)
#
#
# Indices 1 2 3 4 5 6 
#
# 1 39.8808 35.2285 19.2515 -0.0025 1.6751 0.0016
# 2 35.2285 84.9184 40.3855 0.0037 16.9185 0.0011
# 3 19.2515 40.3855 119.1327 0.0052 -1.8983 0.0033
# 4 -0.0025 0.0037 0.0052 19.9390 -0.0010 2.7454
# 5 1.6751 16.9185 -1.8983 -0.0010 26.2658 0.0020
# 6 0.0016 0.0011 0.0033 2.7454 0.0020 21.8640
#
#
#
# Elastic Compliance Matrix: (Units=1/GPa)
#
#
# Indices 1 2 3 4 5 6 
#
# 1 0.041634 -0.019165 -0.000077 0.000010 0.009684 -0.000004
# 2 -0.019165 0.025636 -0.005844 -0.000007 -0.015713 0.000003
# 3 -0.000077 -0.005844 0.010460 -0.000001 0.004525 -0.000002
# 4 0.000010 -0.000007 -0.000001 0.051035 0.000006 -0.006408
# 5 0.009684 -0.015713 0.004525 0.000006 0.047903 -0.000006
# 6 -0.000004 0.000003 -0.000002 -0.006408 -0.000006 0.046542
#
#
# Mechanical properties :
#
#
# Convention : Reuss Voigt Hill
#
# Bulk Modulus (GPa) = 36.28595 48.18476 42.23536
# Shear Modulus (GPa) = 17.69481 23.55152 20.62317
#
# Velocity S-wave (km/s) = 3.00835 3.47068 3.24776
# Velocity P-wave (km/s) = 5.53405 6.38008 5.97206
#
# Compressibility (1/GPa) = 0.02755887
#
# Stress axis : x y z
#
# Youngs Moduli (GPa) = 24.01870 39.00692 95.60552
#
# Poissons Ratio (x) = 0.74756 0.00735
# Poissons Ratio (y) = 0.46031 0.55873
# Poissons Ratio (z) = 0.00185 0.22796
#
# Static dielectric constant tensor:
#      x y z
#    x 1.706630 0.000000 -0.000110 
#    y 0.000000 1.684520 0.000000 
#    z -0.000110 0.000000 1.714740 
# 
# From -- ./inp_files/44889.got.cif
#   From: 2010.05.17/outbox.cif.g08.bks.cpg/sg5_23_cif.got.tgz:44889.got - 2010.06.03 18:56:24.
