data_PCOD9121501
_publ_section_title
;
Structure prediction by ZEFSAII (Michael W. Deem and Ramdas Pophale) SiO2 
 PCOD9121501
Probable space group: C 2
;
_chemical_formula_sum "Si O2"
_cell_formula_units_Z 32
_cell_length_a 18.528453
_cell_length_b 18.275668
_cell_length_c 13.541161
_cell_angle_alpha 90.000000
_cell_angle_beta 18.743135
_cell_angle_gamma 90.000000
_cell_volume 1473.378052
_symmetry_space_group_name_H-M "C 2"
_symmetry_group_IT_number 5
_symmetry_cell_setting 'monoclinic'
loop_
_space_group_symop_operation_xyz
x,y,z
-x,y,-z
1/2+x,1/2+y,z
1/2-x,1/2+y,-z
loop_
_atom_site_type_symbol
_atom_site_label
_atom_site_fract_x
_atom_site_fract_y
_atom_site_fract_z
Si Si1 0.463071 0.378220 0.705954
Si Si2 0.439330 0.601342 0.313222
Si Si3 0.648810 0.908427 0.931665
Si Si4 0.495601 0.753132 0.850546
Si Si5 0.383266 0.226962 0.509865
Si Si6 0.995514 0.584774 0.263866
Si Si7 0.315842 0.072392 0.169155
Si Si8 0.312291 0.988705 0.823324
O O1 0.329850 0.409077 0.784774
O O2 0.723982 0.386904 0.335814
O O3 0.438624 0.291037 0.741378
O O4 0.361911 0.422959 0.927439
O O5 0.468560 0.689393 0.276584
O O6 0.235376 0.583431 0.501091
O O7 0.388113 0.569778 0.489994
O O8 0.657228 0.557718 0.994035
O O9 0.589349 0.991951 0.984681
O O10 0.493909 0.841614 0.170713
O O11 0.687309 0.735242 0.681931
O O12 0.248719 0.738161 0.216879
O O13 0.477706 0.147380 0.369068
O O14 0.058462 0.512997 0.243860
O O15 0.185747 0.607267 0.936497
O O16 0.500000 0.110859 0.000000
O O17 0.500000 0.970649 0.500000
#
# Coordination Sequence:
#
# PCOD9121501 Si02
#       8
#     4   4   4   4   4   4   4   4
#     4  10  21  36  54  85 117 151 203 259 302 363
#     4  10  22  40  61  93 125 156 205 260 313 369
#     4  10  19  34  58  83 118 151 201 254 300 357
#     4   9  19  34  59  90 114 158 205 246 309 368
#     4   9  19  36  59  83 122 157 198 258 306 362
#     4  10  22  40  61  92 122 158 206 253 313 384
#     4  10  20  35  64  91 120 160 202 256 315 368
#     4  12  24  38  62  85 122 165 208 252 320 372
#
# _framework density 21.718796999999999
#
# number of rings (size 3 to 8) (size 9 to 14) (size 15 to 20)
#    0.000    2.000    2.500    0.750    5.250    2.000 
#    0.000    1.250    0.000    0.000    0.000    0.000 
#    0.000    0.000    0.000    0.000    0.000    0.000 
#
# Total GULP energy -89101.684062 kJ/mol
# GULP energy per Si atom -5568.855254 kJ/mol
# Density = 2.166936 g / cm^3
# Si number density = 21.718797 Si / 1000 Ang^3
#
#
#
# Elastic Constant Matrix: (Units=GPa)
#
#
# Indices 1 2 3 4 5 6 
#
# 1 65.2687 10.9028 18.4039 0.0035 0.8809 -0.0044
# 2 10.9028 104.7452 44.4500 -0.0138 7.9546 -0.0139
# 3 18.4039 44.4500 69.3105 0.0189 12.3964 -0.0596
# 4 0.0035 -0.0138 0.0189 34.2541 -0.0077 2.5006
# 5 0.8809 7.9546 12.3964 -0.0077 33.7484 0.0115
# 6 -0.0044 -0.0139 -0.0596 2.5006 0.0115 19.3752
#
#
#
# Elastic Compliance Matrix: (Units=1/GPa)
#
#
# Indices 1 2 3 4 5 6 
#
# 1 0.016615 0.000196 -0.004765 0.000002 0.001270 -0.000012
# 2 0.000196 0.013119 -0.008468 0.000011 0.000013 -0.000018
# 3 -0.004765 -0.008468 0.022203 -0.000021 -0.006035 0.000067
# 4 0.000002 0.000011 -0.000021 0.029471 0.000013 -0.003804
# 5 0.001270 0.000013 -0.006035 0.000013 0.031812 -0.000039
# 6 -0.000012 -0.000018 0.000067 -0.003804 -0.000039 0.052104
#
#
# Mechanical properties :
#
#
# Convention : Reuss Voigt Hill
#
# Bulk Modulus (GPa) = 38.66371 42.98196 40.82283
# Shear Modulus (GPa) = 24.99778 28.51339 26.75558
#
# Velocity S-wave (km/s) = 3.39628 3.62725 3.51366
# Velocity P-wave (km/s) = 5.76370 6.11357 5.94121
#
# Compressibility (1/GPa) = 0.02586405
#
# Stress axis : x y z
#
# Youngs Moduli (GPa) = 60.18709 76.22522 45.03883
#
# Poissons Ratio (x) = -0.01494 0.21459
# Poissons Ratio (y) = -0.01180 0.38138
# Poissons Ratio (z) = 0.28677 0.64546
#
# Static dielectric constant tensor:
#      x y z
#    x 1.844910 -0.000040 -0.023300 
#    y -0.000040 1.856440 0.000040 
#    z -0.023300 0.000040 1.904850 
# 
# From -- ./inp_files/57264.got.cif
#   From: 2010.05.17/outbox.cif.g08.bks.cpg/sg5_29_cif.got.tgz:57264.got - 2010.06.03 18:56:24.
