data_PCOD9121552
_publ_section_title
;
Structure prediction by ZEFSAII (Michael W. Deem and Ramdas Pophale) SiO2 
 PCOD9121552
Probable space group: C 2
;
_chemical_formula_sum "Si O2"
_cell_formula_units_Z 20
_cell_length_a 17.182114
_cell_length_b 9.495721
_cell_length_c 8.626008
_cell_angle_alpha 90.000000
_cell_angle_beta 35.416890
_cell_angle_gamma 90.000000
_cell_volume 815.612556
_symmetry_space_group_name_H-M "C 2"
_symmetry_group_IT_number 5
_symmetry_cell_setting 'monoclinic'
loop_
_space_group_symop_operation_xyz
x,y,z
-x,y,-z
1/2+x,1/2+y,z
1/2-x,1/2+y,-z
loop_
_atom_site_type_symbol
_atom_site_label
_atom_site_fract_x
_atom_site_fract_y
_atom_site_fract_z
Si Si1 0.852097 0.669790 0.691424
Si Si2 0.500000 0.259742 0.000000
Si Si3 0.924613 0.938228 0.383633
Si Si4 0.057514 0.237256 0.246447
Si Si5 0.260585 0.084194 0.526621
Si Si6 0.500000 0.775821 0.000000
O O1 0.881537 0.828187 0.581676
O O2 0.812691 0.566598 0.614683
O O3 0.000000 0.622993 0.500000
O O4 0.715029 0.693505 0.009888
O O5 0.528521 0.358981 0.101203
O O6 0.376133 0.161751 0.244335
O O7 0.794211 0.957062 0.485093
O O8 0.979788 0.087476 0.347955
O O9 0.000000 0.297659 0.500000
O O10 0.031468 0.327624 0.128156
O O11 0.130272 0.180533 0.761241
#
# Coordination Sequence:
#
# PCOD9121552 Si02
#       6
#     4   2   4   4   4   2
#     4  10  21  37  62  95 127 162 210 265 319 378
#     4  10  19  34  63  92 118 160 211 256 311 372
#     4  10  20  39  63  89 126 169 210 258 317 378
#     4  10  20  37  65  90 123 171 211 257 320 379
#     4   9  19  36  61  90 122 166 212 259 313 377
#     4   8  17  36  57  84 118 158 203 250 301 366
#
# _framework density 24.521447999999999
#
# number of rings (size 3 to 8) (size 9 to 14) (size 15 to 20)
#    0.000    2.400    0.000    4.200    0.000    6.400 
#    0.000   13.000    0.000   38.400    0.000    5.600 
#    0.000    0.000    0.000    0.000    0.000    0.000 
#
# Total GULP energy -55785.303289 kJ/mol
# GULP energy per Si atom -5578.530329 kJ/mol
# Density = 2.446564 g / cm^3
# Si number density = 24.521448 Si / 1000 Ang^3
#
#
#
# Elastic Constant Matrix: (Units=GPa)
#
#
# Indices 1 2 3 4 5 6 
#
# 1 144.1055 0.7021 78.2350 0.0000 -22.8772 0.0000
# 2 0.7021 48.1436 40.8861 0.0000 -1.1719 0.0000
# 3 78.2350 40.8861 155.9284 0.0000 3.6029 0.0000
# 4 0.0000 0.0000 0.0000 -5.3996 0.0000 19.4491
# 5 -22.8772 -1.1719 3.6029 0.0000 44.8393 0.0000
# 6 0.0000 0.0000 0.0000 19.4491 0.0000 18.8741
#
#
#
# Elastic Compliance Matrix: (Units=1/GPa)
#
#
# Indices 1 2 3 4 5 6 
#
# 1 0.012587 0.007075 -0.008339 0.000000 0.007277 0.000000
# 2 0.007075 0.030771 -0.011742 0.000000 0.005358 0.000000
# 3 -0.008339 -0.011742 0.013807 0.000000 -0.005671 0.000000
# 4 0.000000 0.000000 0.000000 -0.039306 0.000000 0.040504
# 5 0.007277 0.005358 -0.005671 0.000000 0.026610 0.000000
# 6 0.000000 0.000000 0.000000 0.040504 0.000000 0.011245
#
#
# Mechanical properties :
#
#
# Convention : Reuss Voigt Hill
#
# Bulk Modulus (GPa) = 32.09892 65.31375 48.70634
# Shear Modulus (GPa) = 54.28291 26.88638 40.58465
#
# Velocity S-wave (km/s) = 4.71009 3.31485 4.07267
# Velocity P-wave (km/s) = 6.53441 6.42994 6.48239
#
# Compressibility (1/GPa) = 0.03115369
#
# Stress axis : x y z
#
# Youngs Moduli (GPa) = 79.44458 32.49864 72.42641
#
# Poissons Ratio (x) = -0.22994 0.60396
# Poissons Ratio (y) = -0.56211 0.85044
# Poissons Ratio (z) = 0.66249 0.38160
#
# Static dielectric constant tensor:
#      x y z
#    x 2.085740 0.000000 0.012210 
#    y 0.000000 1.949400 0.000000 
#    z 0.012210 0.000000 1.953830 
# 
# From -- ./inp_files/19033.got.cif
#   From: 2010.05.17/outbox.cif.g08.bks.cpg/sg5_10_cif.got.tgz:19033.got - 2010.06.03 18:56:24.
