data_PCOD9121847
_publ_section_title
;
Structure prediction by ZEFSAII (Michael W. Deem and Ramdas Pophale) SiO2 
 PCOD9121847
Probable space group: C 2
;
_chemical_formula_sum "Si O2"
_cell_formula_units_Z 30
_cell_length_a 17.853489
_cell_length_b 5.261779
_cell_length_c 14.447613
_cell_angle_alpha 90.000000
_cell_angle_beta 74.131347
_cell_angle_gamma 90.000000
_cell_volume 1305.502440
_symmetry_space_group_name_H-M "C 2"
_symmetry_group_IT_number 5
_symmetry_cell_setting 'monoclinic'
loop_
_space_group_symop_operation_xyz
x,y,z
-x,y,-z
1/2+x,1/2+y,z
1/2-x,1/2+y,-z
loop_
_atom_site_type_symbol
_atom_site_label
_atom_site_fract_x
_atom_site_fract_y
_atom_site_fract_z
Si Si1 0.959882 0.149470 0.816514
Si Si2 0.727279 0.624859 0.956766
Si Si3 0.058110 0.515336 0.331848
Si Si4 0.077754 0.862963 0.634077
Si Si5 0.500000 0.656334 0.500000
Si Si6 0.602852 0.675116 0.872716
Si Si7 0.822925 0.883638 0.771963
Si Si8 0.323458 0.175216 0.244036
O O1 0.010595 0.166693 0.890641
O O2 0.936331 0.409460 0.774077
O O3 0.024277 0.017496 0.726152
O O4 0.881476 0.992305 0.829910
O O5 0.639397 0.707595 0.961777
O O6 0.770419 0.685249 0.845449
O O7 0.740528 0.336337 0.982914
O O8 0.057500 0.308107 0.411476
O O9 0.121909 0.735688 0.318722
O O10 0.969901 0.608360 0.367388
O O11 0.156699 0.779323 0.659200
O O12 0.061453 0.007082 0.544266
O O13 0.640301 0.403351 0.829396
O O14 0.630830 0.913956 0.798883
O O15 0.765746 0.095810 0.747742
#
# Coordination Sequence:
#
# PCOD9121847 Si02
#       8
#     4   4   4   4   2   4   4   4
#     4   9  19  35  62  93 121 161 219 273 313 388
#     4  11  24  42  65  92 135 175 214 264 333 389
#     4  10  19  36  63  97 126 166 218 273 328 386
#     4   9  18  35  56  98 122 169 218 266 323 397
#     4  10  20  34  62 102 132 170 220 286 334 388
#     4  10  20  39  64  91 127 170 220 263 321 399
#     4  10  23  37  65  98 129 167 226 276 322 391
#     4  10  20  36  63  98 123 170 222 267 315 394
#
# _framework density 22.979657
#
# number of rings (size 3 to 8) (size 9 to 14) (size 15 to 20)
#    0.000    2.133    1.333    2.000    5.600    0.000 
#    0.000    0.667    0.000    0.000   58.933    0.000 
#    0.000    0.000    0.000    0.000    0.000    0.000 
#
# Total GULP energy -83582.893191 kJ/mol
# GULP energy per Si atom -5572.192879 kJ/mol
# Density = 2.292735 g / cm^3
# Si number density = 22.979657 Si / 1000 Ang^3
#
#
#
# Elastic Constant Matrix: (Units=GPa)
#
#
# Indices 1 2 3 4 5 6 
#
# 1 179.3461 33.0774 41.9959 0.0000 15.2038 0.0000
# 2 33.0774 96.0527 12.4122 0.0000 2.6822 0.0000
# 3 41.9959 12.4122 53.3314 0.0000 20.0341 0.0000
# 4 0.0000 0.0000 0.0000 36.6491 0.0000 -6.6661
# 5 15.2038 2.6822 20.0341 0.0000 28.2228 0.0000
# 6 0.0000 0.0000 0.0000 -6.6661 0.0000 5.6115
#
#
#
# Elastic Compliance Matrix: (Units=1/GPa)
#
#
# Indices 1 2 3 4 5 6 
#
# 1 0.007120 -0.001780 -0.005202 0.000000 0.000026 0.000000
# 2 -0.001780 0.011201 -0.001589 0.000000 0.001023 0.000000
# 3 -0.005202 -0.001589 0.030146 0.000000 -0.018446 0.000000
# 4 0.000000 0.000000 0.000000 0.034806 0.000000 0.041347
# 5 0.000026 0.001023 -0.018446 0.000000 0.048415 0.000000
# 6 0.000000 0.000000 0.000000 0.041347 0.000000 0.227321
#
#
# Mechanical properties :
#
#
# Convention : Reuss Voigt Hill
#
# Bulk Modulus (GPa) = 31.92450 55.96679 43.94564
# Shear Modulus (GPa) = 12.93344 30.17967 21.55656
#
# Velocity S-wave (km/s) = 2.37496 3.62791 3.06612
# Velocity P-wave (km/s) = 4.63068 6.47740 5.63028
#
# Compressibility (1/GPa) = 0.03132391
#
# Stress axis : x y z
#
# Youngs Moduli (GPa) = 140.44712 89.27900 33.17146
#
# Poissons Ratio (x) = 0.15895 0.17257
# Poissons Ratio (y) = 0.25005 0.05271
# Poissons Ratio (z) = 0.73065 0.14186
#
# Static dielectric constant tensor:
#      x y z
#    x 1.917590 0.000000 0.034540 
#    y 0.000000 1.918490 0.000000 
#    z 0.034540 0.000000 2.021130 
# 
# From -- ./inp_files/55448.got.cif
#   From: 2010.05.17/outbox.cif.g08.bks.cpg/sg5_28_cif.got.tgz:55448.got - 2010.06.03 18:56:24.
