data_PCOD9121206
_publ_section_title
;
Structure prediction by ZEFSAII (Michael W. Deem and Ramdas Pophale) SiO2 
 PCOD9121206
Probable space group: C 2
;
_chemical_formula_sum "Si O2"
_cell_formula_units_Z 22
_cell_length_a 12.772633
_cell_length_b 14.288454
_cell_length_c 7.882827
_cell_angle_alpha 90.000000
_cell_angle_beta 142.764299
_cell_angle_gamma 90.000000
_cell_volume 870.505382
_symmetry_space_group_name_H-M "C 2"
_symmetry_group_IT_number 5
_symmetry_cell_setting 'monoclinic'
loop_
_space_group_symop_operation_xyz
x,y,z
-x,y,-z
1/2+x,1/2+y,z
1/2-x,1/2+y,-z
loop_
_atom_site_type_symbol
_atom_site_label
_atom_site_fract_x
_atom_site_fract_y
_atom_site_fract_z
Si Si1 0.465615 0.687830 0.183724
Si Si2 0.113901 0.776894 0.786572
Si Si3 0.743748 0.806342 0.682471
Si Si4 0.315384 0.943866 0.691022
Si Si5 0.500000 0.526865 0.500000
Si Si6 0.334744 0.145610 0.588569
O O1 0.547521 0.775450 0.396609
O O2 0.442480 0.596836 0.272810
O O3 0.630554 0.660478 0.277408
O O4 0.278365 0.730384 0.910315
O O5 0.000000 0.829586 0.500000
O O6 0.181551 0.833632 0.038775
O O7 0.982726 0.695467 0.674510
O O8 0.826584 0.704277 0.753248
O O9 0.775010 0.875282 0.563596
O O10 0.176678 0.979449 0.651758
O O11 0.367929 0.037443 0.657241
O O12 0.500000 0.904594 0.000000
#
# Coordination Sequence:
#
# PCOD9121206 Si02
#       6
#     4   4   4   4   2   4
#     4   9  19  41  73 102 140 185 239 304 371 423
#     4  12  22  40  74 103 141 204 256 288 363 451
#     4  10  22  43  68 111 156 181 241 324 365 417
#     4  11  22  41  75 114 152 193 244 307 377 446
#     4  10  18  42  80 108 146 198 246 294 376 462
#     4   9  22  44  77 101 147 188 245 314 378 430
#
# _framework density 25.272675
#
# number of rings (size 3 to 8) (size 9 to 14) (size 15 to 20)
#    1.091    0.727    1.818    2.727    0.000    2.182 
#    4.909    1.818   16.000    2.182    0.000    0.000 
#    0.000    0.000    0.000    0.000    0.000    0.000 
#
# Total GULP energy -61244.565298 kJ/mol
# GULP energy per Si atom -5567.687754 kJ/mol
# Density = 2.521515 g / cm^3
# Si number density = 25.272675 Si / 1000 Ang^3
#
#
#
# Elastic Constant Matrix: (Units=GPa)
#
#
# Indices 1 2 3 4 5 6 
#
# 1 131.7918 32.5225 59.2211 0.0000 15.4275 0.0000
# 2 32.5225 74.0915 19.1602 0.0000 0.6675 0.0000
# 3 59.2211 19.1602 214.9588 0.0000 0.5776 0.0000
# 4 0.0000 0.0000 0.0000 2.0530 0.0000 4.2893
# 5 15.4275 0.6675 0.5776 0.0000 43.2328 0.0000
# 6 0.0000 0.0000 0.0000 4.2893 0.0000 -36.1608
#
#
#
# Elastic Compliance Matrix: (Units=1/GPa)
#
#
# Indices 1 2 3 4 5 6 
#
# 1 0.010001 -0.003735 -0.002413 0.000000 -0.003479 0.000000
# 2 -0.003735 0.015212 -0.000330 0.000000 0.001102 0.000000
# 3 -0.002413 -0.000330 0.005344 0.000000 0.000795 0.000000
# 4 0.000000 0.000000 0.000000 0.390349 0.000000 0.046303
# 5 -0.003479 0.001102 0.000795 0.000000 0.024344 0.000000
# 6 0.000000 0.000000 0.000000 0.046303 0.000000 -0.022162
#
#
# Mechanical properties :
#
#
# Convention : Reuss Voigt Hill
#
# Bulk Modulus (GPa) = 56.81350 71.40554 64.10952
# Shear Modulus (GPa) = 11.31451 22.48756 16.90103
#
# Velocity S-wave (km/s) = 2.11818 2.98618 2.58882
# Velocity P-wave (km/s) = 5.33959 6.34075 5.86159
#
# Compressibility (1/GPa) = 0.01760145
#
# Stress axis : x y z
#
# Youngs Moduli (GPa) = 99.99172 65.73969 187.12184
#
# Poissons Ratio (x) = 0.24551 0.45153
# Poissons Ratio (y) = 0.37342 0.06174
# Poissons Ratio (z) = 0.24128 0.02169
#
# Static dielectric constant tensor:
#      x y z
#    x 2.898230 0.000000 -0.858990 
#    y 0.000000 1.968150 0.000000 
#    z -0.858990 0.000000 2.962620 
# 
# From -- ./inp_files/42967.got.cif
#   From: 2010.05.17/outbox.cif.g08.bks.cpg/sg5_22_cif.got.tgz:42967.got - 2010.06.03 18:56:24.
