data_PCOD9121724
_publ_section_title
;
Structure prediction by ZEFSAII (Michael W. Deem and Ramdas Pophale) SiO2 
 PCOD9121724
Probable space group: C 2
;
_chemical_formula_sum "Si O2"
_cell_formula_units_Z 30
_cell_length_a 14.925130
_cell_length_b 9.385455
_cell_length_c 24.820212
_cell_angle_alpha 90.000000
_cell_angle_beta 25.300445
_cell_angle_gamma 90.000000
_cell_volume 1485.859605
_symmetry_space_group_name_H-M "C 2"
_symmetry_group_IT_number 5
_symmetry_cell_setting 'monoclinic'
loop_
_space_group_symop_operation_xyz
x,y,z
-x,y,-z
1/2+x,1/2+y,z
1/2-x,1/2+y,-z
loop_
_atom_site_type_symbol
_atom_site_label
_atom_site_fract_x
_atom_site_fract_y
_atom_site_fract_z
Si Si1 0.866732 0.613070 0.291117
Si Si2 0.043811 0.381896 0.129279
Si Si3 0.751246 0.472320 0.082251
Si Si4 0.500000 0.393814 0.500000
Si Si5 0.260976 0.720483 0.147419
Si Si6 0.556778 0.288978 0.029086
Si Si7 0.683651 0.392668 0.736844
Si Si8 0.171330 0.686808 0.322702
O O1 0.697469 0.498565 0.403291
O O2 0.761770 0.761156 0.331169
O O3 0.944422 0.535005 0.194355
O O4 0.072929 0.647209 0.214687
O O5 0.887787 0.255295 0.227002
O O6 0.113718 0.369874 0.030075
O O7 0.243320 0.373573 0.058352
O O8 0.745769 0.390129 0.141586
O O9 0.524401 0.462542 0.177384
O O10 0.859606 0.625680 0.021240
O O11 0.514019 0.290162 0.440155
O O12 0.198274 0.697608 0.243669
O O13 0.500000 0.675459 0.000000
O O14 0.381614 0.328208 0.169073
O O15 0.500000 0.333500 0.000000
O O16 0.846289 0.521012 0.653675
#
# Coordination Sequence:
#
# PCOD9121724 Si02
#       8
#     4   4   4   2   4   4   4   4
#     4  10  23  43  67  92 130 177 229 269 331 398
#     4  10  20  36  55  85 132 176 205 252 329 401
#     4  10  19  36  55  94 138 174 204 255 345 415
#     4  10  26  50  70  84 124 198 234 266 328 402
#     4  11  23  36  69 108 136 164 214 284 352 398
#     4  11  22  30  54  94 138 171 208 264 330 411
#     4  10  22  37  60  94 126 172 217 277 336 394
#     4  11  23  43  67  93 128 176 228 275 331 399
#
# _framework density 20.190332000000001
#
# number of rings (size 3 to 8) (size 9 to 14) (size 15 to 20)
#    0.000    1.600    4.000    0.400    5.600    0.533 
#    0.000    4.000    0.000    0.000    0.000    0.000 
#    0.000    0.000    0.000    0.000    0.000    0.000 
#
# Total GULP energy -83552.422284 kJ/mol
# GULP energy per Si atom -5570.161486 kJ/mol
# Density = 2.014438 g / cm^3
# Si number density = 20.190332 Si / 1000 Ang^3
#
#
#
# Elastic Constant Matrix: (Units=GPa)
#
#
# Indices 1 2 3 4 5 6 
#
# 1 95.4519 35.5070 34.6688 0.0055 16.7656 0.0008
# 2 35.5070 156.1245 46.6796 0.0003 9.8440 0.0007
# 3 34.6688 46.6796 68.2903 0.0043 10.2398 0.0010
# 4 0.0055 0.0003 0.0043 27.1622 -0.0036 -1.6897
# 5 16.7656 9.8440 10.2398 -0.0036 19.5898 0.0003
# 6 0.0008 0.0007 0.0010 -1.6897 0.0003 24.6947
#
#
#
# Elastic Compliance Matrix: (Units=1/GPa)
#
#
# Indices 1 2 3 4 5 6 
#
# 1 0.014361 -0.001159 -0.005146 -0.000003 -0.009018 0.000000
# 2 -0.001159 0.008173 -0.004917 0.000001 -0.000545 0.000000
# 3 -0.005146 -0.004917 0.021251 -0.000003 -0.004233 -0.000001
# 4 -0.000003 0.000001 -0.000003 0.036973 0.000011 0.002530
# 5 -0.009018 -0.000545 -0.004233 0.000011 0.061252 0.000000
# 6 0.000000 0.000000 -0.000001 0.002530 0.000000 0.040668
#
#
# Mechanical properties :
#
#
# Convention : Reuss Voigt Hill
#
# Bulk Modulus (GPa) = 46.85587 61.50862 54.18224
# Shear Modulus (GPa) = 23.55877 27.82341 25.69109
#
# Velocity S-wave (km/s) = 3.41960 3.71624 3.57100
# Velocity P-wave (km/s) = 6.23290 6.99603 6.62546
#
# Compressibility (1/GPa) = 0.02134204
#
# Stress axis : x y z
#
# Youngs Moduli (GPa) = 69.63479 122.35278 47.05561
#
# Poissons Ratio (x) = 0.14178 0.24216
# Poissons Ratio (y) = 0.08069 0.23136
# Poissons Ratio (z) = 0.35835 0.60157
#
# Static dielectric constant tensor:
#      x y z
#    x 1.734580 0.000000 -0.002100 
#    y 0.000000 1.760210 0.000000 
#    z -0.002100 0.000000 1.744840 
# 
# From -- ./inp_files/57593.got.cif
#   From: 2010.05.17/outbox.cif.g08.bks.cpg/sg5_29_cif.got.tgz:57593.got - 2010.06.03 18:56:24.
