data_PCOD9121553
_publ_section_title
;
Structure prediction by ZEFSAII (Michael W. Deem and Ramdas Pophale) SiO2 
 PCOD9121553
Probable space group: C 2
;
_chemical_formula_sum "Si O2"
_cell_formula_units_Z 32
_cell_length_a 14.804284
_cell_length_b 17.728182
_cell_length_c 11.623450
_cell_angle_alpha 90.000000
_cell_angle_beta 151.553061
_cell_angle_gamma 90.000000
_cell_volume 1453.141788
_symmetry_space_group_name_H-M "C 2"
_symmetry_group_IT_number 5
_symmetry_cell_setting 'monoclinic'
loop_
_space_group_symop_operation_xyz
x,y,z
-x,y,-z
1/2+x,1/2+y,z
1/2-x,1/2+y,-z
loop_
_atom_site_type_symbol
_atom_site_label
_atom_site_fract_x
_atom_site_fract_y
_atom_site_fract_z
Si Si1 0.709476 0.592220 0.684097
Si Si2 0.036364 0.784387 0.674318
Si Si3 0.280674 0.099841 0.220109
Si Si4 0.715557 0.182517 0.452629
Si Si5 0.451297 0.448958 0.629097
Si Si6 0.659272 0.024593 0.946868
Si Si7 0.068476 0.255280 0.957072
Si Si8 0.748127 0.016378 0.598210
O O1 0.500000 0.612570 0.500000
O O2 0.779168 0.656269 0.674054
O O3 0.670891 0.512210 0.575367
O O4 0.849963 0.572339 0.946174
O O5 0.000000 0.764902 0.500000
O O6 0.962087 0.723003 0.683317
O O7 0.925677 0.862262 0.570746
O O8 0.263662 0.793043 0.927774
O O9 0.500000 0.110269 0.500000
O O10 0.269115 0.079253 0.074109
O O11 0.224567 0.028763 0.236244
O O12 0.160001 0.175017 0.100336
O O13 0.755110 0.103242 0.561845
O O14 0.890685 0.236725 0.678505
O O15 0.398547 0.465686 0.701571
O O16 0.669704 0.466829 0.845678
O O17 0.461794 0.991792 0.679424
O O18 0.000000 0.293246 0.000000
#
# Coordination Sequence:
#
# PCOD9121553 Si02
#       8
#     4   4   4   4   4   4   4   4
#     4   9  19  40  62  91 124 162 208 255 307 374
#     4  12  23  40  58  90 131 165 213 259 314 378
#     4  10  19  34  63  93 124 148 198 269 309 359
#     4  11  23  37  62  93 123 161 204 263 313 365
#     4  10  23  37  60  85 125 166 201 254 308 368
#     4  10  20  36  60  89 120 161 198 251 311 365
#     4  12  21  35  59  91 121 159 200 257 325 369
#     4  10  20  37  60  94 120 152 209 256 308 362
#
# _framework density 22.021252
#
# number of rings (size 3 to 8) (size 9 to 14) (size 15 to 20)
#    0.000    1.500    2.500    5.250    0.000    3.000 
#    0.000    1.250    0.000   11.250    0.000    0.000 
#    0.000    0.000    0.000    0.000    0.000    0.000 
#
# Total GULP energy -89351.493185 kJ/mol
# GULP energy per Si atom -5584.468324 kJ/mol
# Density = 2.197113 g / cm^3
# Si number density = 22.021252 Si / 1000 Ang^3
#
#
#
# Elastic Constant Matrix: (Units=GPa)
#
#
# Indices 1 2 3 4 5 6 
#
# 1 148.4881 61.6358 29.2163 0.0000 -6.5630 0.0000
# 2 61.6358 77.5903 10.3701 0.0000 -3.1729 0.0000
# 3 29.2163 10.3701 71.4194 0.0000 -0.9120 0.0000
# 4 0.0000 0.0000 0.0000 13.1663 0.0000 9.4111
# 5 -6.5630 -3.1729 -0.9120 0.0000 44.0649 0.0000
# 6 0.0000 0.0000 0.0000 9.4111 0.0000 24.5357
#
#
#
# Elastic Compliance Matrix: (Units=1/GPa)
#
#
# Indices 1 2 3 4 5 6 
#
# 1 0.010765 -0.008082 -0.003218 0.000000 0.000955 0.000000
# 2 -0.008082 0.019248 0.000514 0.000000 0.000193 0.000000
# 3 -0.003218 0.000514 0.015242 0.000000 -0.000127 0.000000
# 4 0.000000 0.000000 0.000000 0.104641 0.000000 -0.040137
# 5 0.000955 0.000193 -0.000127 0.000000 0.022847 0.000000
# 6 0.000000 0.000000 0.000000 -0.040137 0.000000 0.056152
#
#
# Mechanical properties :
#
#
# Convention : Reuss Voigt Hill
#
# Bulk Modulus (GPa) = 42.22595 55.54911 48.88753
# Shear Modulus (GPa) = 19.35274 29.43841 24.39558
#
# Velocity S-wave (km/s) = 2.96771 3.66022 3.33200
# Velocity P-wave (km/s) = 5.56415 6.56833 6.08698
#
# Compressibility (1/GPa) = 0.02368212
#
# Stress axis : x y z
#
# Youngs Moduli (GPa) = 92.89644 51.95452 65.60846
#
# Poissons Ratio (x) = 0.41990 0.21112
# Poissons Ratio (y) = 0.75080 -0.03372
# Poissons Ratio (z) = 0.29893 -0.02670
#
# Static dielectric constant tensor:
#      x y z
#    x 1.894980 0.000000 0.038320 
#    y 0.000000 1.784290 0.000000 
#    z 0.038320 0.000000 1.899770 
# 
# From -- ./inp_files/43390.got.cif
#   From: 2010.05.17/outbox.cif.g08.bks.cpg/sg5_22_cif.got.tgz:43390.got - 2010.06.03 18:56:24.
