data_PCOD9121061
_publ_section_title
;
Structure prediction by ZEFSAII (Michael W. Deem and Ramdas Pophale) SiO2 
 PCOD9121061
Probable space group: C 2
;
_chemical_formula_sum "Si O2"
_cell_formula_units_Z 28
_cell_length_a 14.527060
_cell_length_b 11.422876
_cell_length_c 9.109951
_cell_angle_alpha 90.000000
_cell_angle_beta 126.916297
_cell_angle_gamma 90.000000
_cell_volume 1208.635155
_symmetry_space_group_name_H-M "C 2"
_symmetry_group_IT_number 5
_symmetry_cell_setting 'monoclinic'
loop_
_space_group_symop_operation_xyz
x,y,z
-x,y,-z
1/2+x,1/2+y,z
1/2-x,1/2+y,-z
loop_
_atom_site_type_symbol
_atom_site_label
_atom_site_fract_x
_atom_site_fract_y
_atom_site_fract_z
Si Si1 0.754308 0.727880 0.748390
Si Si2 0.322726 0.435470 0.651600
Si Si3 0.818900 0.564864 0.271988
Si Si4 0.061032 0.362239 0.713453
Si Si5 0.444225 0.654198 0.672292
Si Si6 0.862933 0.833587 0.372907
Si Si7 0.684383 0.539585 0.864434
O O1 0.845665 0.816585 0.765195
O O2 0.685911 0.805202 0.804373
O O3 0.667748 0.683624 0.535239
O O4 0.779864 0.611502 0.863443
O O5 0.204321 0.485654 0.606504
O O6 0.404572 0.548902 0.739558
O O7 0.319083 0.393647 0.480467
O O8 0.919081 0.501091 0.272444
O O9 0.836301 0.697241 0.334061
O O10 0.710129 0.555296 0.059327
O O11 0.000000 0.334590 0.500000
O O12 0.992089 0.282995 0.763711
O O13 0.558716 0.595821 0.709237
O O14 0.000000 0.845695 0.500000
O O15 0.815391 0.908313 0.192240
#
# Coordination Sequence:
#
# PCOD9121061 Si02
#       7
#     4   4   4   4   4   4   4
#     4   9  18  35  63  89 122 166 216 269 325 396
#     4  11  22  40  64  99 126 170 233 275 325 405
#     4  11  26  39  65 103 129 174 229 289 334 390
#     4   8  17  35  62  87 120 163 215 258 324 396
#     4  10  18  38  65  91 122 180 214 267 335 413
#     4  12  24  43  67  95 135 183 229 268 333 417
#     4  11  22  40  65  93 135 172 225 275 349 394
#
# _framework density 23.166626999999998
#
# number of rings (size 3 to 8) (size 9 to 14) (size 15 to 20)
#    0.000    1.714    2.857    2.571    6.000    0.571 
#    0.000    0.000    0.000    0.000    0.000    0.000 
#    0.000    0.000    0.000    0.000    0.000    0.000 
#
# Total GULP energy -77960.152630 kJ/mol
# GULP energy per Si atom -5568.582331 kJ/mol
# Density = 2.311390 g / cm^3
# Si number density = 23.166627 Si / 1000 Ang^3
#
#
#
# Elastic Constant Matrix: (Units=GPa)
#
#
# Indices 1 2 3 4 5 6 
#
# 1 70.6694 55.5523 30.2777 0.0000 -15.2511 0.0000
# 2 55.5523 188.3698 37.9912 0.0000 -11.3283 0.0000
# 3 30.2777 37.9912 79.4662 0.0000 -11.2560 0.0000
# 4 0.0000 0.0000 0.0000 5.8417 0.0000 6.9182
# 5 -15.2511 -11.3283 -11.2560 0.0000 14.1948 0.0000
# 6 0.0000 0.0000 0.0000 6.9182 0.0000 58.1074
#
#
#
# Elastic Compliance Matrix: (Units=1/GPa)
#
#
# Indices 1 2 3 4 5 6 
#
# 1 0.023869 -0.005119 -0.004048 0.000000 0.018350 0.000000
# 2 -0.005119 0.007072 -0.001588 0.000000 -0.001116 0.000000
# 3 -0.004048 -0.001588 0.015873 0.000000 0.006970 0.000000
# 4 0.000000 0.000000 0.000000 0.199281 0.000000 -0.023726
# 5 0.018350 -0.001116 0.006970 0.000000 0.094800 0.000000
# 6 0.000000 0.000000 0.000000 -0.023726 0.000000 0.020034
#
#
# Mechanical properties :
#
#
# Convention : Reuss Voigt Hill
#
# Bulk Modulus (GPa) = 39.52174 65.12753 52.32464
# Shear Modulus (GPa) = 12.79186 29.94105 21.36646
#
# Velocity S-wave (km/s) = 2.35237 3.59893 3.04023
# Velocity P-wave (km/s) = 4.94722 6.74117 5.91263
#
# Compressibility (1/GPa) = 0.02530253
#
# Stress axis : x y z
#
# Youngs Moduli (GPa) = 41.89541 141.40927 63.00047
#
# Poissons Ratio (x) = 0.72392 0.25501
# Poissons Ratio (y) = 0.21448 0.10007
# Poissons Ratio (z) = 0.16958 0.22462
#
# Static dielectric constant tensor:
#      x y z
#    x 1.958100 0.000000 0.029370 
#    y 0.000000 1.973170 0.000000 
#    z 0.029370 0.000000 1.872850 
# 
# From -- ./inp_files/23951.got.cif
#   From: 2010.05.17/outbox.cif.g08.bks.cpg/sg5_12_cif.got.tgz:23951.got - 2010.06.03 18:56:24.
