data_PCOD9121466
_publ_section_title
;
Structure prediction by ZEFSAII (Michael W. Deem and Ramdas Pophale) SiO2 
 PCOD9121466
Probable space group: C 2
;
_chemical_formula_sum "Si O2"
_cell_formula_units_Z 32
_cell_length_a 15.876090
_cell_length_b 10.292178
_cell_length_c 17.137892
_cell_angle_alpha 90.000000
_cell_angle_beta 31.714550
_cell_angle_gamma 90.000000
_cell_volume 1472.095729
_symmetry_space_group_name_H-M "C 2"
_symmetry_group_IT_number 5
_symmetry_cell_setting 'monoclinic'
loop_
_space_group_symop_operation_xyz
x,y,z
-x,y,-z
1/2+x,1/2+y,z
1/2-x,1/2+y,-z
loop_
_atom_site_type_symbol
_atom_site_label
_atom_site_fract_x
_atom_site_fract_y
_atom_site_fract_z
Si Si1 0.202203 0.023880 0.985360
Si Si2 0.575468 0.090905 0.336648
Si Si3 0.361093 0.835835 0.490794
Si Si4 0.115980 0.050218 0.845925
Si Si5 0.561877 0.589285 0.361096
Si Si6 0.640405 0.243957 0.054540
Si Si7 0.050500 0.835442 0.639460
Si Si8 0.835023 0.761869 0.198399
O O1 0.302430 0.077996 0.833118
O O2 0.258677 0.115341 0.010446
O O3 0.244032 0.872525 0.958281
O O4 0.008897 0.033599 0.126494
O O5 0.466800 0.215112 0.406075
O O6 0.472243 0.959966 0.419618
O O7 0.706985 0.107612 0.302185
O O8 0.464968 0.706713 0.396458
O O9 0.232164 0.861806 0.524422
O O10 0.266394 0.800118 0.644501
O O11 0.151938 0.904287 0.850049
O O12 0.000000 0.120229 0.000000
O O13 0.500000 0.570419 0.500000
O O14 0.531584 0.459754 0.335791
O O15 0.739377 0.649033 0.230757
O O16 0.541438 0.287134 0.210083
O O17 0.510022 0.222979 0.089866
#
# Coordination Sequence:
#
# PCOD9121466 Si02
#       8
#     4   4   4   4   4   4   4   4
#     4   9  19  35  56  79 108 140 183 227 272 323
#     4  10  19  34  56  80 106 144 182 226 268 325
#     4  10  19  34  60  78 107 149 186 217 273 334
#     4   9  17  33  55  76 103 140 184 223 263 317
#     4  10  20  36  55  81 114 146 179 228 278 328
#     4   9  19  37  57  79 110 144 183 231 272 328
#     4  10  21  36  53  82 117 141 178 233 283 321
#     4   9  18  35  56  79 107 142 186 225 267 328
#
# _framework density 21.737717
#
# number of rings (size 3 to 8) (size 9 to 14) (size 15 to 20)
#    0.000    2.500    1.250    0.750    0.000    2.000 
#    6.750    1.250    0.000    0.000    0.000    0.000 
#    0.000    0.000    0.000    0.000    0.000    0.000 
#
# Total GULP energy -89251.234224 kJ/mol
# GULP energy per Si atom -5578.202139 kJ/mol
# Density = 2.168824 g / cm^3
# Si number density = 21.737717 Si / 1000 Ang^3
#
#
#
# Elastic Constant Matrix: (Units=GPa)
#
#
# Indices 1 2 3 4 5 6 
#
# 1 91.5689 47.7022 44.0382 0.0000 -35.9119 0.0000
# 2 47.7022 108.0293 40.4575 0.0003 -31.9112 -0.0001
# 3 44.0382 40.4575 70.3026 0.0001 -26.1169 -0.0001
# 4 0.0000 0.0003 0.0001 22.4686 0.0000 -6.0867
# 5 -35.9119 -31.9112 -26.1169 0.0000 39.4775 0.0000
# 6 0.0000 -0.0001 -0.0001 -6.0867 0.0000 40.8426
#
#
#
# Elastic Compliance Matrix: (Units=1/GPa)
#
#
# Indices 1 2 3 4 5 6 
#
# 1 0.020221 -0.003033 -0.006627 0.000000 0.011559 0.000000
# 2 -0.003033 0.013757 -0.003859 0.000000 0.005808 0.000000
# 3 -0.006627 -0.003859 0.022802 0.000000 0.005936 0.000000
# 4 0.000000 0.000000 0.000000 0.046379 0.000000 0.006912
# 5 0.011559 0.005808 0.005936 0.000000 0.044468 0.000000
# 6 0.000000 0.000000 0.000000 0.006912 0.000000 0.025514
#
#
# Mechanical properties :
#
#
# Convention : Reuss Voigt Hill
#
# Bulk Modulus (GPa) = 33.62326 59.36629 46.49478
# Shear Modulus (GPa) = 23.79882 29.73792 26.76837
#
# Velocity S-wave (km/s) = 3.31239 3.70271 3.51297
# Velocity P-wave (km/s) = 5.48913 6.75645 6.15549
#
# Compressibility (1/GPa) = 0.02974132
#
# Stress axis : x y z
#
# Youngs Moduli (GPa) = 49.45331 72.69055 43.85557
#
# Poissons Ratio (x) = 0.22044 0.29065
# Poissons Ratio (y) = 0.14997 0.16926
# Poissons Ratio (z) = 0.32775 0.28054
#
# Static dielectric constant tensor:
#      x y z
#    x 1.906500 0.000000 0.049160 
#    y 0.000000 1.761880 0.000000 
#    z 0.049160 0.000000 1.866340 
# 
# From -- ./inp_files/69089.got.cif
#   From: 2010.05.17/outbox.cif.g08.bks.cpg/sg5_35_cif.got.tgz:69089.got - 2010.06.03 18:56:24.
