data_PCOD9121856
_publ_section_title
;
Structure prediction by ZEFSAII (Michael W. Deem and Ramdas Pophale) SiO2 
 PCOD9121856
Probable space group: C 2
;
_chemical_formula_sum "Si O2"
_cell_formula_units_Z 28
_cell_length_a 32.664597
_cell_length_b 7.477582
_cell_length_c 9.812372
_cell_angle_alpha 90.000000
_cell_angle_beta 146.417782
_cell_angle_gamma 90.000000
_cell_volume 1325.690303
_symmetry_space_group_name_H-M "C 2"
_symmetry_group_IT_number 5
_symmetry_cell_setting 'monoclinic'
loop_
_space_group_symop_operation_xyz
x,y,z
-x,y,-z
1/2+x,1/2+y,z
1/2-x,1/2+y,-z
loop_
_atom_site_type_symbol
_atom_site_label
_atom_site_fract_x
_atom_site_fract_y
_atom_site_fract_z
Si Si1 0.305964 0.549340 0.756655
Si Si2 0.575301 0.724116 0.419199
Si Si3 0.695707 0.652993 0.972556
Si Si4 0.526708 0.042713 0.430525
Si Si5 0.526164 0.430867 0.730047
Si Si6 0.203396 0.224897 0.558957
Si Si7 0.315880 0.226983 0.100574
O O1 0.239555 0.414340 0.613272
O O2 0.299182 0.610961 0.584254
O O3 0.304517 0.700796 0.869980
O O4 0.388458 0.473533 0.007095
O O5 0.634845 0.742168 0.708089
O O6 0.526402 0.548868 0.316576
O O7 0.624504 0.728876 0.418968
O O8 0.526056 0.898963 0.308648
O O9 0.679707 0.440080 0.910683
O O10 0.774921 0.693383 0.128742
O O11 0.500000 0.960311 0.500000
O O12 0.480418 0.219038 0.267761
O O13 0.606571 0.130628 0.681060
O O14 0.500000 0.468270 0.500000
O O15 0.261574 0.153881 0.832943
#
# Coordination Sequence:
#
# PCOD9121856 Si02
#       7
#     4   4   4   4   4   4   4
#     4  11  23  43  65  92 133 177 219 273 321 398
#     4  11  22  41  66 101 129 171 215 277 331 396
#     4  10  19  36  64  92 127 167 215 268 330 378
#     4  11  21  35  66 103 128 162 218 275 331 387
#     4  11  21  43  69  99 134 168 218 276 333 393
#     4  10  24  42  62  94 134 173 224 261 335 390
#     4  10  19  37  60  97 129 160 217 273 315 399
#
# _framework density 21.121072000000002
#
# number of rings (size 3 to 8) (size 9 to 14) (size 15 to 20)
#    0.000    1.429    2.857    5.571    0.000    4.000 
#    5.143    0.000    0.000    0.000    0.000    0.000 
#    0.000    0.000    0.000    0.000    0.000    0.000 
#
# Total GULP energy -78171.839699 kJ/mol
# GULP energy per Si atom -5583.702836 kJ/mol
# Density = 2.107300 g / cm^3
# Si number density = 21.121072 Si / 1000 Ang^3
#
#
#
# Elastic Constant Matrix: (Units=GPa)
#
#
# Indices 1 2 3 4 5 6 
#
# 1 148.3870 24.2583 19.8047 0.0000 -11.3606 0.0000
# 2 24.2583 47.7269 4.7346 0.0000 -12.6676 0.0000
# 3 19.8047 4.7346 30.4053 0.0000 -11.8461 0.0000
# 4 0.0000 0.0000 0.0000 9.6255 0.0000 7.6178
# 5 -11.3606 -12.6676 -11.8461 0.0000 30.4897 0.0000
# 6 0.0000 0.0000 0.0000 7.6178 0.0000 37.6959
#
#
#
# Elastic Compliance Matrix: (Units=1/GPa)
#
#
# Indices 1 2 3 4 5 6 
#
# 1 0.007944 -0.003676 -0.004765 0.000000 -0.000419 0.000000
# 2 -0.003676 0.025251 0.002376 0.000000 0.010045 0.000000
# 3 -0.004765 0.002376 0.041615 0.000000 0.015380 0.000000
# 4 0.000000 0.000000 0.000000 0.123669 0.000000 -0.024992
# 5 -0.000419 0.010045 0.015380 0.000000 0.042791 0.000000
# 6 0.000000 0.000000 0.000000 -0.024992 0.000000 0.031579
#
#
# Mechanical properties :
#
#
# Convention : Reuss Voigt Hill
#
# Bulk Modulus (GPa) = 15.95414 36.01270 25.98342
# Shear Modulus (GPa) = 16.34666 27.41032 21.87849
#
# Velocity S-wave (km/s) = 2.78501 3.60637 3.22197
# Velocity P-wave (km/s) = 4.23223 5.86761 5.11569
#
# Compressibility (1/GPa) = 0.06267965
#
# Stress axis : x y z
#
# Youngs Moduli (GPa) = 125.88055 39.60186 24.02976
#
# Poissons Ratio (x) = 0.14558 0.11450
# Poissons Ratio (y) = 0.46276 -0.05709
# Poissons Ratio (z) = 0.59983 -0.09409
#
# Static dielectric constant tensor:
#      x y z
#    x 1.796500 0.000000 0.003850 
#    y 0.000000 1.822020 0.000000 
#    z 0.003850 0.000000 1.767610 
# 
# From -- ./inp_files/32531.got.cif
#   From: 2010.05.17/outbox.cif.g08.bks.cpg/sg5_17_cif.got.tgz:32531.got - 2010.06.03 18:56:24.
