data_PCOD9121369
_publ_section_title
;
Structure prediction by ZEFSAII (Michael W. Deem and Ramdas Pophale) SiO2 
 PCOD9121369
Probable space group: C 2
;
_chemical_formula_sum "Si O2"
_cell_formula_units_Z 32
_cell_length_a 24.477509
_cell_length_b 8.348923
_cell_length_c 22.808474
_cell_angle_alpha 90.000000
_cell_angle_beta 159.655326
_cell_angle_gamma 90.000000
_cell_volume 1620.530305
_symmetry_space_group_name_H-M "C 2"
_symmetry_group_IT_number 5
_symmetry_cell_setting 'monoclinic'
loop_
_space_group_symop_operation_xyz
x,y,z
-x,y,-z
1/2+x,1/2+y,z
1/2-x,1/2+y,-z
loop_
_atom_site_type_symbol
_atom_site_label
_atom_site_fract_x
_atom_site_fract_y
_atom_site_fract_z
Si Si1 0.629773 0.288810 0.873277
Si Si2 0.938458 0.440887 0.142460
Si Si3 0.667823 0.577945 0.638155
Si Si4 0.327910 0.725406 0.563835
Si Si5 0.087245 0.950743 0.268407
Si Si6 0.497543 0.500901 0.642560
Si Si7 0.667972 0.043742 0.081097
Si Si8 0.931821 0.831703 0.872276
O O1 0.584612 0.420606 0.877387
O O2 0.525636 0.345439 0.712016
O O3 0.606404 0.113569 0.876184
O O4 0.806849 0.316269 0.031249
O O5 0.097053 0.381321 0.330903
O O6 0.936456 0.442842 0.069754
O O7 0.500000 0.620900 0.500000
O O8 0.617617 0.482837 0.529055
O O9 0.775117 0.492975 0.796362
O O10 0.772904 0.730594 0.724807
O O11 0.173046 0.787722 0.376288
O O12 0.327716 0.598692 0.616083
O O13 0.430210 0.639325 0.616582
O O14 0.090845 0.953951 0.202874
O O15 0.667402 0.555890 0.788647
O O16 0.566110 0.203869 0.987713
O O17 0.000000 0.905770 0.000000
#
# Coordination Sequence:
#
# PCOD9121369 Si02
#       8
#     4   4   4   4   4   4   4   4
#     4  10  20  32  55  79 117 144 186 225 283 327
#     4  11  20  37  53  86 112 150 186 231 277 348
#     4   9  17  32  53  83 114 148 194 233 269 327
#     4  11  23  34  56  78 117 142 188 229 295 330
#     4  11  21  36  53  83 108 151 182 239 278 339
#     4   9  18  34  51  84 111 150 183 235 273 332
#     4   9  18  30  55  81 111 146 191 227 271 324
#     4  10  19  33  55  80 111 150 192 235 273 329
#
# _framework density 19.746621000000001
#
# number of rings (size 3 to 8) (size 9 to 14) (size 15 to 20)
#    0.000    2.000    2.500    3.000    0.000    0.000 
#    0.000    0.000    0.000    6.750    0.000    9.625 
#    0.000    0.000    0.000    0.000    0.000    0.000 
#
# Total GULP energy -89144.948177 kJ/mol
# GULP energy per Si atom -5571.559261 kJ/mol
# Density = 1.970168 g / cm^3
# Si number density = 19.746621 Si / 1000 Ang^3
#
#
#
# Elastic Constant Matrix: (Units=GPa)
#
#
# Indices 1 2 3 4 5 6 
#
# 1 98.3543 15.3647 34.8024 0.0000 -38.9741 0.0000
# 2 15.3647 52.9488 10.4599 -0.0001 -11.8183 0.0000
# 3 34.8024 10.4599 75.7318 -0.0001 -30.6737 -0.0001
# 4 0.0000 -0.0001 -0.0001 20.5177 0.0000 -4.3088
# 5 -38.9741 -11.8183 -30.6737 0.0000 36.0273 0.0000
# 6 0.0000 0.0000 -0.0001 -4.3088 0.0000 26.0350
#
#
#
# Elastic Compliance Matrix: (Units=1/GPa)
#
#
# Indices 1 2 3 4 5 6 
#
# 1 0.017855 -0.000934 -0.000575 0.000000 0.018520 0.000000
# 2 -0.000934 0.020428 -0.000133 0.000000 0.005577 0.000000
# 3 -0.000575 -0.000133 0.020175 0.000000 0.016510 0.000000
# 4 0.000000 0.000000 0.000000 0.050493 0.000000 0.008357
# 5 0.018520 0.005577 0.016510 0.000000 0.063678 0.000000
# 6 0.000000 0.000000 0.000000 0.008357 0.000000 0.039793
#
#
# Mechanical properties :
#
#
# Convention : Reuss Voigt Hill
#
# Bulk Modulus (GPa) = 18.12478 38.69876 28.41177
# Shear Modulus (GPa) = 21.35848 27.60985 24.48416
#
# Velocity S-wave (km/s) = 3.29238 3.74332 3.52507
# Velocity P-wave (km/s) = 4.86329 6.19059 5.56664
#
# Compressibility (1/GPa) = 0.05517309
#
# Stress axis : x y z
#
# Youngs Moduli (GPa) = 56.00519 48.95137 49.56730
#
# Poissons Ratio (x) = 0.04572 0.02852
# Poissons Ratio (y) = 0.05231 0.00661
# Poissons Ratio (z) = 0.03223 0.00652
#
# Static dielectric constant tensor:
#      x y z
#    x 1.736600 0.000000 0.006510 
#    y 0.000000 1.668790 0.000000 
#    z 0.006510 0.000000 1.758170 
# 
# From -- ./inp_files/30597.got.cif
#   From: 2010.05.17/outbox.cif.g08.bks.cpg/sg5_16_cif.got.tgz:30597.got - 2010.06.03 18:56:24.
