data_PCOD9121580
_publ_section_title
;
Structure prediction by ZEFSAII (Michael W. Deem and Ramdas Pophale) SiO2 
 PCOD9121580
Probable space group: C 2
;
_chemical_formula_sum "Si O2"
_cell_formula_units_Z 24
_cell_length_a 12.013935
_cell_length_b 7.941915
_cell_length_c 12.322199
_cell_angle_alpha 90.000000
_cell_angle_beta 86.003878
_cell_angle_gamma 90.000000
_cell_volume 1172.847577
_symmetry_space_group_name_H-M "C 2"
_symmetry_group_IT_number 5
_symmetry_cell_setting 'monoclinic'
loop_
_space_group_symop_operation_xyz
x,y,z
-x,y,-z
1/2+x,1/2+y,z
1/2-x,1/2+y,-z
loop_
_atom_site_type_symbol
_atom_site_label
_atom_site_fract_x
_atom_site_fract_y
_atom_site_fract_z
Si Si1 0.913266 0.200690 0.924873
Si Si2 0.874925 0.264167 0.543901
Si Si3 0.209589 0.045353 0.643523
Si Si4 0.298162 0.259685 0.832891
Si Si5 0.728509 0.983751 0.012538
Si Si6 0.963945 0.005473 0.711062
O O1 0.967298 0.133364 0.812774
O O2 0.856377 0.048434 0.997261
O O3 0.813079 0.330714 0.909980
O O4 0.000000 0.285863 0.000000
O O5 0.807873 0.190014 0.445898
O O6 0.803822 0.412362 0.603299
O O7 0.897583 0.106888 0.622926
O O8 0.000000 0.320603 0.500000
O O9 0.237346 0.135745 0.754738
O O10 0.087341 0.962282 0.662918
O O11 0.220442 0.406025 0.891439
O O12 0.396495 0.347286 0.760683
O O13 0.333975 0.145757 0.933988
#
# Coordination Sequence:
#
# PCOD9121580 Si02
#       6
#     4   4   4   4   4   4
#     4  10  19  35  56  79 114 155 192 235 287 336
#     4  10  23  40  62  88 115 149 193 241 293 348
#     4  11  22  40  62  86 117 152 191 241 294 344
#     4  10  20  37  60  84 119 157 193 237 285 339
#     4   9  19  35  54  82 114 150 193 233 273 335
#     4  10  21  37  58  85 116 151 192 239 288 340
#
# _framework density 20.463017000000001
#
# number of rings (size 3 to 8) (size 9 to 14) (size 15 to 20)
#    0.000    2.000    0.000    4.000    0.000    1.333 
#    0.000   17.500    0.000    0.000    0.000    0.000 
#    0.000    0.000    0.000    0.000    0.000    0.000 
#
# Total GULP energy -66826.611279 kJ/mol
# GULP energy per Si atom -5568.884273 kJ/mol
# Density = 2.041644 g / cm^3
# Si number density = 20.463017 Si / 1000 Ang^3
#
#
#
# Elastic Constant Matrix: (Units=GPa)
#
#
# Indices 1 2 3 4 5 6 
#
# 1 83.6304 53.1151 31.4185 0.0000 -25.4589 0.0000
# 2 53.1151 80.4110 36.5194 0.0000 -7.6683 0.0000
# 3 31.4185 36.5194 81.5932 0.0000 -9.2413 0.0000
# 4 0.0000 0.0000 0.0000 46.4989 0.0000 -19.7243
# 5 -25.4589 -7.6683 -9.2413 0.0000 29.7011 0.0000
# 6 0.0000 0.0000 0.0000 -19.7243 0.0000 26.7357
#
#
#
# Elastic Compliance Matrix: (Units=1/GPa)
#
#
# Indices 1 2 3 4 5 6 
#
# 1 0.029391 -0.016791 -0.001492 0.000000 0.020393 0.000000
# 2 -0.016791 0.025309 -0.005962 0.000000 -0.009714 0.000000
# 3 -0.001492 -0.005962 0.015734 0.000000 0.002077 0.000000
# 4 0.000000 0.000000 0.000000 0.031302 0.000000 0.023093
# 5 0.020393 -0.009714 0.002077 0.000000 0.049288 0.000000
# 6 0.000000 0.000000 0.000000 0.023093 0.000000 0.054440
#
#
# Mechanical properties :
#
#
# Convention : Reuss Voigt Hill
#
# Bulk Modulus (GPa) = 45.57339 54.19339 49.88339
# Shear Modulus (GPa) = 19.13739 28.89258 24.01498
#
# Velocity S-wave (km/s) = 3.06145 3.76166 3.42947
# Velocity P-wave (km/s) = 5.90052 6.73853 6.33340
#
# Compressibility (1/GPa) = 0.02194263
#
# Stress axis : x y z
#
# Youngs Moduli (GPa) = 34.02452 39.51151 63.55543
#
# Poissons Ratio (x) = 0.66345 0.09482
# Poissons Ratio (y) = 0.57132 0.37893
# Poissons Ratio (z) = 0.05076 0.23558
#
# Static dielectric constant tensor:
#      x y z
#    x 1.733780 0.000000 -0.006540 
#    y 0.000000 1.759530 0.000000 
#    z -0.006540 0.000000 1.749580 
# 
# From -- ./inp_files/38334.got.cif
#   From: 2010.05.17/outbox.cif.g08.bks.cpg/sg5_20_cif.got.tgz:38334.got - 2010.06.03 18:56:24.
