data_PCOD9121634
_publ_section_title
;
Structure prediction by ZEFSAII (Michael W. Deem and Ramdas Pophale) SiO2 
 PCOD9121634
Probable space group: C 2
;
_chemical_formula_sum "Si O2"
_cell_formula_units_Z 20
_cell_length_a 13.664029
_cell_length_b 4.837473
_cell_length_c 12.803142
_cell_angle_alpha 90.000000
_cell_angle_beta 111.318961
_cell_angle_gamma 90.000000
_cell_volume 788.369539
_symmetry_space_group_name_H-M "C 2"
_symmetry_group_IT_number 5
_symmetry_cell_setting 'monoclinic'
loop_
_space_group_symop_operation_xyz
x,y,z
-x,y,-z
1/2+x,1/2+y,z
1/2-x,1/2+y,-z
loop_
_atom_site_type_symbol
_atom_site_label
_atom_site_fract_x
_atom_site_fract_y
_atom_site_fract_z
Si Si1 0.623497 0.018070 0.059628
Si Si2 0.621243 0.392903 0.244246
Si Si3 0.347569 0.848339 0.269561
Si Si4 0.983043 0.841632 0.377571
Si Si5 0.114467 0.023148 0.922844
O O1 0.638182 0.107255 0.185047
O O2 0.643914 0.708194 0.034208
O O3 0.500000 0.043786 0.000000
O O4 0.652443 0.225160 0.975475
O O5 0.511762 0.518054 0.152273
O O6 0.742093 0.484055 0.276232
O O7 0.589037 0.391414 0.352863
O O8 0.424147 0.109280 0.285591
O O9 0.333926 0.669457 0.157595
O O10 0.411828 0.617440 0.360186
O O11 0.000000 0.731385 0.500000
#
# Coordination Sequence:
#
# PCOD9121634 Si02
#       5
#     4   4   4   4   4
#     4  10  19  35  59  88 129 169 198 241 301 359
#     4  10  24  41  66  94 127 167 212 258 305 370
#     4  11  24  42  67  95 123 164 211 256 315 375
#     4  11  26  46  65  91 125 159 209 271 321 372
#     4  10  21  38  58  92 132 163 200 246 297 364
#
# _framework density 25.368818000000001
#
# number of rings (size 3 to 8) (size 9 to 14) (size 15 to 20)
#    0.000    1.600    0.000    6.000    0.000   12.800 
#    0.000    0.000    0.000    0.000    0.000    0.000 
#    0.000    0.000    0.000    0.000    0.000    0.000 
#
# Total GULP energy -55753.473495 kJ/mol
# GULP energy per Si atom -5575.347350 kJ/mol
# Density = 2.531108 g / cm^3
# Si number density = 25.368818 Si / 1000 Ang^3
#
#
#
# Elastic Constant Matrix: (Units=GPa)
#
#
# Indices 1 2 3 4 5 6 
#
# 1 190.6686 -3.5576 34.1132 0.0000 -34.4087 0.0000
# 2 -3.5576 44.5776 24.4166 0.0000 -11.7037 0.0000
# 3 34.1132 24.4166 96.4983 0.0000 -29.5992 0.0000
# 4 0.0000 0.0000 0.0000 21.1207 0.0000 -1.7426
# 5 -34.4087 -11.7037 -29.5992 0.0000 29.3364 0.0000
# 6 0.0000 0.0000 0.0000 -1.7426 0.0000 13.0983
#
#
#
# Elastic Compliance Matrix: (Units=1/GPa)
#
#
# Indices 1 2 3 4 5 6 
#
# 1 0.007020 0.003212 -0.000544 0.000000 0.008966 0.000000
# 2 0.003212 0.028120 -0.005292 0.000000 0.009647 0.000000
# 3 -0.000544 -0.005292 0.016004 0.000000 0.013398 0.000000
# 4 0.000000 0.000000 0.000000 0.047872 0.000000 0.006369
# 5 0.008966 0.009647 0.013398 0.000000 0.061971 0.000000
# 6 0.000000 0.000000 0.000000 0.006369 0.000000 0.077193
#
#
# Mechanical properties :
#
#
# Convention : Reuss Voigt Hill
#
# Bulk Modulus (GPa) = 21.78774 49.07653 35.43214
# Shear Modulus (GPa) = 19.32545 31.16257 25.24401
#
# Velocity S-wave (km/s) = 2.76303 3.50863 3.15791
# Velocity P-wave (km/s) = 4.33430 5.98341 5.22433
#
# Compressibility (1/GPa) = 0.04589737
#
# Stress axis : x y z
#
# Youngs Moduli (GPa) = 142.44785 35.56129 62.48549
#
# Poissons Ratio (x) = -0.11424 0.03401
# Poissons Ratio (y) = -0.45760 0.33065
# Poissons Ratio (z) = 0.07752 0.18818
#
# Static dielectric constant tensor:
#      x y z
#    x 2.139320 0.000000 0.002930 
#    y 0.000000 2.241120 0.000000 
#    z 0.002930 0.000000 2.012540 
# 
# From -- ./inp_files/51936.got.cif
#   From: 2010.05.17/outbox.cif.g08.bks.cpg/sg5_26_cif.got.tgz:51936.got - 2010.06.03 18:56:24.
