data_PCOD9121513
_publ_section_title
;
Structure prediction by ZEFSAII (Michael W. Deem and Ramdas Pophale) SiO2 
 PCOD9121513
Probable space group: C 2
;
_chemical_formula_sum "Si O2"
_cell_formula_units_Z 24
_cell_length_a 19.100602
_cell_length_b 5.151567
_cell_length_c 8.953406
_cell_angle_alpha 90.000000
_cell_angle_beta 106.645996
_cell_angle_gamma 90.000000
_cell_volume 844.077487
_symmetry_space_group_name_H-M "C 2"
_symmetry_group_IT_number 5
_symmetry_cell_setting 'monoclinic'
loop_
_space_group_symop_operation_xyz
x,y,z
-x,y,-z
1/2+x,1/2+y,z
1/2-x,1/2+y,-z
loop_
_atom_site_type_symbol
_atom_site_label
_atom_site_fract_x
_atom_site_fract_y
_atom_site_fract_z
Si Si1 0.612122 0.888940 0.513254
Si Si2 0.788475 0.709523 0.086176
Si Si3 0.704653 0.819820 0.304609
Si Si4 0.000000 0.476289 0.000000
Si Si5 0.369930 0.317536 0.864733
Si Si6 0.962731 0.174880 0.262478
Si Si7 0.500000 0.282630 0.500000
O O1 0.685647 0.825373 0.468968
O O2 0.541279 0.758754 0.386433
O O3 0.602542 0.796648 0.677605
O O4 0.578595 0.173996 0.488712
O O5 0.777347 0.739021 0.257433
O O6 0.858184 0.805057 0.036563
O O7 0.769381 0.418849 0.020488
O O8 0.647888 0.601927 0.206198
O O9 0.686272 0.111312 0.241681
O O10 0.054738 0.672516 0.114693
O O11 0.036738 0.286130 0.901510
O O12 0.967969 0.886088 0.323847
#
# Coordination Sequence:
#
# PCOD9121513 Si02
#       7
#     4   4   4   2   4   4   2
#     4   9  18  34  52  80 105 153 199 241 277 337
#     4   8  16  33  52  78 110 144 190 246 280 322
#     4  10  19  34  59  81 109 150 198 246 285 329
#     4  12  22  36  52  86 128 166 180 230 296 362
#     4  10  22  34  52  85 119 154 191 229 293 346
#     4   9  20  33  49  76 122 155 190 230 281 351
#     4   8  18  36  54  72 124 152 198 244 278 344
#
# _framework density 28.433405
#
# number of rings (size 3 to 8) (size 9 to 14) (size 15 to 20)
#    0.000    3.000    1.667    0.000    4.667    0.667 
#    6.000    0.000    0.000    0.000    0.000   14.000 
#    0.000    0.000    0.000    0.000    0.000    0.000 
#
# Total GULP energy -66937.286384 kJ/mol
# GULP energy per Si atom -5578.107199 kJ/mol
# Density = 2.836869 g / cm^3
# Si number density = 28.433405 Si / 1000 Ang^3
#
#
#
# Elastic Constant Matrix: (Units=GPa)
#
#
# Indices 1 2 3 4 5 6 
#
# 1 88.9597 33.6834 70.6646 0.0000 -32.4211 0.0000
# 2 33.6834 82.0650 58.2989 0.0000 -5.1474 0.0000
# 3 70.6646 58.2989 194.3500 0.0000 -56.4030 0.0000
# 4 0.0000 0.0000 0.0000 11.6108 0.0000 0.4421
# 5 -32.4211 -5.1474 -56.4030 0.0000 78.5932 0.0000
# 6 0.0000 0.0000 0.0000 0.4421 0.0000 9.0518
#
#
#
# Elastic Compliance Matrix: (Units=1/GPa)
#
#
# Indices 1 2 3 4 5 6 
#
# 1 0.017391 -0.004111 -0.003898 0.000000 0.004107 0.000000
# 2 -0.004111 0.017010 -0.004770 0.000000 -0.004005 0.000000
# 3 -0.003898 -0.004770 0.009392 0.000000 0.004820 0.000000
# 4 0.000000 0.000000 0.000000 0.086287 0.000000 -0.004215
# 5 0.004107 -0.004005 0.004820 0.000000 0.017615 0.000000
# 6 0.000000 0.000000 0.000000 -0.004215 0.000000 0.110682
#
#
# Mechanical properties :
#
#
# Convention : Reuss Voigt Hill
#
# Bulk Modulus (GPa) = 54.83968 76.74095 65.79032
# Shear Modulus (GPa) = 17.24049 33.36633 25.30341
#
# Velocity S-wave (km/s) = 2.46508 3.42934 2.98639
# Velocity P-wave (km/s) = 5.23747 6.53673 5.92283
#
# Compressibility (1/GPa) = 0.01823497
#
# Stress axis : x y z
#
# Youngs Moduli (GPa) = 57.50093 58.78759 106.46935
#
# Poissons Ratio (x) = 0.24170 0.41502
# Poissons Ratio (y) = 0.23641 0.50787
# Poissons Ratio (z) = 0.22414 0.28042
#
# Static dielectric constant tensor:
#      x y z
#    x 2.222230 0.000000 -0.026090 
#    y 0.000000 2.444520 0.000000 
#    z -0.026090 0.000000 2.279570 
# 
# From -- ./inp_files/31293.got.cif
#   From: 2010.05.17/outbox.cif.g08.bks.cpg/sg5_16_cif.got.tgz:31293.got - 2010.06.03 18:56:24.
