data_PCOD9121059
_publ_section_title
;
Structure prediction by ZEFSAII (Michael W. Deem and Ramdas Pophale) SiO2 
 PCOD9121059
Probable space group: C 2
;
_chemical_formula_sum "Si O2"
_cell_formula_units_Z 18
_cell_length_a 10.401732
_cell_length_b 10.662188
_cell_length_c 10.974746
_cell_angle_alpha 90.000000
_cell_angle_beta 31.657748
_cell_angle_gamma 90.000000
_cell_volume 638.817469
_symmetry_space_group_name_H-M "C 2"
_symmetry_group_IT_number 5
_symmetry_cell_setting 'monoclinic'
loop_
_space_group_symop_operation_xyz
x,y,z
-x,y,-z
1/2+x,1/2+y,z
1/2-x,1/2+y,-z
loop_
_atom_site_type_symbol
_atom_site_label
_atom_site_fract_x
_atom_site_fract_y
_atom_site_fract_z
Si Si1 0.300240 0.298560 0.346891
Si Si2 0.764899 0.875249 0.851935
Si Si3 0.525935 0.994907 0.259196
Si Si4 0.000000 0.074557 0.500000
Si Si5 0.500000 0.473527 0.000000
Si Si6 0.000000 0.680052 0.500000
O O1 0.575764 0.303922 0.173949
O O2 0.309572 0.384629 0.221220
O O3 0.112459 0.367193 0.586871
O O4 0.214925 0.163112 0.375026
O O5 0.782462 0.770040 0.728783
O O6 0.930376 0.986357 0.666364
O O7 0.551195 0.952545 0.094251
O O8 0.814406 0.032632 0.053404
O O9 0.415900 0.094735 0.451657
#
# Coordination Sequence:
#
# PCOD9121059 Si02
#       6
#     4   4   4   2   2   2
#     4  11  22  42  68  96 131 180 226 276 348 410
#     4  10  28  42  66 106 132 178 230 280 348 410
#     4  11  22  42  68  96 131 180 226 276 348 410
#     4  11  23  48  66  98 143 171 228 292 336 413
#     4  10  18  38  64  98 124 174 230 266 346 408
#     4  11  23  48  66  98 143 171 228 292 336 413
#
# _framework density 28.177063
#
# number of rings (size 3 to 8) (size 9 to 14) (size 15 to 20)
#    0.000    1.333    4.444    0.000    6.222    0.000 
#    0.000    2.222    0.000    0.000    0.000    0.000 
#    0.000    0.000    0.000    0.000    0.000    0.000 
#
# Total GULP energy -50105.964316 kJ/mol
# GULP energy per Si atom -5567.329368 kJ/mol
# Density = 2.811293 g / cm^3
# Si number density = 28.177063 Si / 1000 Ang^3
#
#
#
# Elastic Constant Matrix: (Units=GPa)
#
#
# Indices 1 2 3 4 5 6 
#
# 1 108.9638 29.5502 20.2356 -0.0032 0.5016 0.0021
# 2 29.5502 165.8284 60.6870 -0.0019 20.1528 0.0023
# 3 20.2356 60.6870 150.1710 -0.0064 46.4386 0.0041
# 4 -0.0032 -0.0019 -0.0064 47.3657 0.0037 -26.2250
# 5 0.5016 20.1528 46.4386 0.0037 57.4218 -0.0022
# 6 0.0021 0.0023 0.0041 -26.2250 -0.0022 -10.5400
#
#
#
# Elastic Compliance Matrix: (Units=1/GPa)
#
#
# Indices 1 2 3 4 5 6 
#
# 1 0.009787 -0.001494 -0.001135 0.000000 0.001356 0.000000
# 2 -0.001494 0.007307 -0.002617 0.000000 -0.000435 0.000000
# 3 -0.001135 -0.002617 0.010111 0.000002 -0.007249 0.000000
# 4 0.000000 0.000000 0.000002 0.008880 -0.000003 -0.022094
# 5 0.001356 -0.000435 -0.007249 -0.000003 0.023418 0.000000
# 6 0.000000 0.000000 0.000000 -0.022094 0.000000 -0.039904
#
#
# Mechanical properties :
#
#
# Convention : Reuss Voigt Hill
#
# Bulk Modulus (GPa) = 59.82867 71.76765 65.79816
# Shear Modulus (GPa) = 140.20903 39.81552 90.01227
#
# Velocity S-wave (km/s) = 7.06173 3.76313 5.65814
# Velocity P-wave (km/s) = 9.36856 6.66386 8.12948
#
# Compressibility (1/GPa) = 0.01671439
#
# Stress axis : x y z
#
# Youngs Moduli (GPa) = 102.17759 136.85252 98.89990
#
# Poissons Ratio (x) = 0.20440 0.11221
# Poissons Ratio (y) = 0.15261 0.25884
# Poissons Ratio (z) = 0.11593 0.35817
#
# Static dielectric constant tensor:
#      x y z
#    x 3.214430 0.000000 -0.542240 
#    y 0.000000 2.285350 0.000000 
#    z -0.542240 0.000000 2.443200 
# 
# From -- ./inp_files/4491.got.cif
#   From: 2010.05.17/outbox.cif.g08.bks.cpg/sg5_3_cif.got.tgz:4491.got - 2010.06.03 18:56:24.
