data_PCOD9121828
_publ_section_title
;
Structure prediction by ZEFSAII (Michael W. Deem and Ramdas Pophale) SiO2 
 PCOD9121828
Probable space group: C 2
;
_chemical_formula_sum "Si O2"
_cell_formula_units_Z 26
_cell_length_a 14.406688
_cell_length_b 9.714828
_cell_length_c 12.130881
_cell_angle_alpha 90.000000
_cell_angle_beta 44.721760
_cell_angle_gamma 90.000000
_cell_volume 1194.695736
_symmetry_space_group_name_H-M "C 2"
_symmetry_group_IT_number 5
_symmetry_cell_setting 'monoclinic'
loop_
_space_group_symop_operation_xyz
x,y,z
-x,y,-z
1/2+x,1/2+y,z
1/2-x,1/2+y,-z
loop_
_atom_site_type_symbol
_atom_site_label
_atom_site_fract_x
_atom_site_fract_y
_atom_site_fract_z
Si Si1 0.324575 0.104990 0.786034
Si Si2 0.984812 0.204323 0.669888
Si Si3 0.273063 0.653107 0.671078
Si Si4 0.594923 0.794922 0.021105
Si Si5 0.363484 0.368384 0.080833
Si Si6 0.500000 0.963777 0.500000
Si Si7 0.980763 0.597636 0.861265
O O1 0.376541 0.063792 0.622431
O O2 0.450295 0.115326 0.758827
O O3 0.229192 0.977137 0.901101
O O4 0.238612 0.239974 0.869734
O O5 0.125403 0.141083 0.516039
O O6 0.951077 0.223637 0.825514
O O7 0.996577 0.356912 0.604789
O O8 0.866977 0.129999 0.699728
O O9 0.217102 0.806351 0.747448
O O10 0.134689 0.580009 0.762163
O O11 0.589251 0.958421 0.041875
O O12 0.500000 0.760271 0.000000
O O13 0.500000 0.438415 0.000000
O O14 0.412547 0.231830 0.974369
#
# Coordination Sequence:
#
# PCOD9121828 Si02
#       7
#     4   4   4   4   4   2   4
#     4  12  22  40  66  99 134 174 218 279 333 394
#     4  10  19  42  67  97 127 181 224 280 312 410
#     4   9  18  36  67  94 121 167 241 258 310 390
#     4  12  26  41  61 101 143 171 211 287 356 373
#     4  10  19  36  62  94 126 179 236 262 305 416
#     4  10  20  40  72  92 128 182 228 260 326 408
#     4  11  22  38  66  98 134 177 219 274 336 398
#
# _framework density 21.762864
#
# number of rings (size 3 to 8) (size 9 to 14) (size 15 to 20)
#    0.000    1.538    4.615    3.692    0.000    1.231 
#    0.000    0.000    0.000   17.538    0.000    0.000 
#    0.000    0.000    0.000    0.000    0.000    0.000 
#
# Total GULP energy -72456.773070 kJ/mol
# GULP energy per Si atom -5573.597928 kJ/mol
# Density = 2.171333 g / cm^3
# Si number density = 21.762864 Si / 1000 Ang^3
#
#
#
# Elastic Constant Matrix: (Units=GPa)
#
#
# Indices 1 2 3 4 5 6 
#
# 1 112.7263 15.5047 42.8972 0.0000 -11.4165 0.0000
# 2 15.5047 81.6282 29.6605 0.0000 -16.3167 0.0000
# 3 42.8972 29.6605 109.1939 0.0000 -21.4696 0.0000
# 4 0.0000 0.0000 0.0000 29.9452 0.0000 -7.2870
# 5 -11.4165 -16.3167 -21.4696 0.0000 39.2807 0.0000
# 6 0.0000 0.0000 0.0000 -7.2870 0.0000 22.2021
#
#
#
# Elastic Compliance Matrix: (Units=1/GPa)
#
#
# Indices 1 2 3 4 5 6 
#
# 1 0.010472 -0.000440 -0.003845 0.000000 0.000759 0.000000
# 2 -0.000440 0.014216 -0.002860 0.000000 0.004214 0.000000
# 3 -0.003845 -0.002860 0.012316 0.000000 0.004426 0.000000
# 4 0.000000 0.000000 0.000000 0.036293 0.000000 0.011912
# 5 0.000759 0.004214 0.004426 0.000000 0.029848 0.000000
# 6 0.000000 0.000000 0.000000 0.011912 0.000000 0.048950
#
#
# Mechanical properties :
#
#
# Convention : Reuss Voigt Hill
#
# Bulk Modulus (GPa) = 44.02816 53.29700 48.66258
# Shear Modulus (GPa) = 28.74297 32.65134 30.69716
#
# Velocity S-wave (km/s) = 3.63813 3.87760 3.75978
# Velocity P-wave (km/s) = 6.15815 6.67763 6.42315
#
# Compressibility (1/GPa) = 0.02271274
#
# Stress axis : x y z
#
# Youngs Moduli (GPa) = 95.49592 70.34420 81.19771
#
# Poissons Ratio (x) = 0.03096 0.31221
# Poissons Ratio (y) = 0.04203 0.23223
# Poissons Ratio (z) = 0.36718 0.20118
#
# Static dielectric constant tensor:
#      x y z
#    x 1.851250 0.000000 -0.006240 
#    y 0.000000 1.826710 0.000000 
#    z -0.006240 0.000000 1.872370 
# 
# From -- ./inp_files/54299.got.cif
#   From: 2010.05.17/outbox.cif.g08.bks.cpg/sg5_28_cif.got.tgz:54299.got - 2010.06.03 18:56:24.
