data_PCOD9121653
_publ_section_title
;
Structure prediction by ZEFSAII (Michael W. Deem and Ramdas Pophale) SiO2 
 PCOD9121653
Probable space group: C 2
;
_chemical_formula_sum "Si O2"
_cell_formula_units_Z 22
_cell_length_a 5.377236
_cell_length_b 27.051226
_cell_length_c 9.813515
_cell_angle_alpha 90.000000
_cell_angle_beta 135.623684
_cell_angle_gamma 90.000000
_cell_volume 998.335151
_symmetry_space_group_name_H-M "C 2"
_symmetry_group_IT_number 5
_symmetry_cell_setting 'monoclinic'
loop_
_space_group_symop_operation_xyz
x,y,z
-x,y,-z
1/2+x,1/2+y,z
1/2-x,1/2+y,-z
loop_
_atom_site_type_symbol
_atom_site_label
_atom_site_fract_x
_atom_site_fract_y
_atom_site_fract_z
Si Si1 0.686042 0.959370 0.264680
Si Si2 0.106169 0.780989 0.884153
Si Si3 0.500000 0.874821 0.000000
Si Si4 0.686485 0.518597 0.264464
Si Si5 0.814669 0.131455 0.740169
Si Si6 0.291853 0.180728 0.722275
O O1 0.000000 0.950978 0.500000
O O2 0.380921 0.993047 0.212861
O O3 0.521422 0.909066 0.141054
O O4 0.878839 0.986495 0.213723
O O5 0.158194 0.838009 0.860327
O O6 0.850696 0.739200 0.725686
O O7 0.500000 0.761611 0.000000
O O8 0.000000 0.782388 0.000000
O O9 0.568884 0.574857 0.196669
O O10 0.000000 0.520806 0.500000
O O11 0.500000 0.132186 0.500000
O O12 0.636715 0.151665 0.807487
O O13 0.125006 0.166027 0.801348
O O14 0.000000 0.163948 0.500000
#
# Coordination Sequence:
#
# PCOD9121653 Si02
#       6
#     4   4   2   4   4   4
#     4  10  21  38  62  89 118 158 202 246 299 363
#     4  10  23  41  58  81 113 166 191 248 316 346
#     4  10  26  42  64  82 124 158 204 258 314 346
#     4   9  18  34  59  91 121 153 194 242 297 360
#     4   9  17  31  58  90 121 152 189 240 300 353
#     4  10  19  35  60  90 115 153 200 243 290 365
#
# _framework density 22.036688999999999
#
# number of rings (size 3 to 8) (size 9 to 14) (size 15 to 20)
#    0.545    1.818    0.000    2.182    2.545    4.364 
#    3.273    0.000   20.000    0.000    0.000    0.000 
#    0.000    0.000    0.000    0.000    0.000    0.000 
#
# Total GULP energy -61366.336050 kJ/mol
# GULP energy per Si atom -5578.757823 kJ/mol
# Density = 2.198653 g / cm^3
# Si number density = 22.036689 Si / 1000 Ang^3
#
#
#
# Elastic Constant Matrix: (Units=GPa)
#
#
# Indices 1 2 3 4 5 6 
#
# 1 179.1684 63.5302 23.6828 0.0000 -3.0485 0.0000
# 2 63.5302 143.1498 16.6067 0.0000 9.3490 0.0000
# 3 23.6828 16.6067 56.4481 0.0000 9.1100 0.0000
# 4 0.0000 0.0000 0.0000 33.7431 0.0000 -14.2470
# 5 -3.0485 9.3490 9.1100 0.0000 27.1044 0.0000
# 6 0.0000 0.0000 0.0000 -14.2470 0.0000 60.7083
#
#
#
# Elastic Compliance Matrix: (Units=1/GPa)
#
#
# Indices 1 2 3 4 5 6 
#
# 1 0.007020 -0.003000 -0.002492 0.000000 0.002662 0.000000
# 2 -0.003000 0.008607 -0.000782 0.000000 -0.003043 0.000000
# 3 -0.002492 -0.000782 0.020082 0.000000 -0.006760 0.000000
# 4 0.000000 0.000000 0.000000 0.032895 0.000000 0.007720
# 5 0.002662 -0.003043 -0.006760 0.000000 0.040516 0.000000
# 6 0.000000 0.000000 0.000000 0.007720 0.000000 0.018284
#
#
# Mechanical properties :
#
#
# Convention : Reuss Voigt Hill
#
# Bulk Modulus (GPa) = 43.17865 65.15619 54.16742
# Shear Modulus (GPa) = 33.85879 42.64094 38.24986
#
# Velocity S-wave (km/s) = 3.92404 4.40363 4.17074
# Velocity P-wave (km/s) = 6.33777 7.44898 6.91573
#
# Compressibility (1/GPa) = 0.02315959
#
# Stress axis : x y z
#
# Youngs Moduli (GPa) = 142.45285 116.18913 49.79561
#
# Poissons Ratio (x) = 0.34859 0.12410
# Poissons Ratio (y) = 0.42738 0.03895
# Poissons Ratio (z) = 0.35502 0.09088
#
# Static dielectric constant tensor:
#      x y z
#    x 1.785040 0.000000 0.010810 
#    y 0.000000 1.793760 0.000000 
#    z 0.010810 0.000000 1.845550 
# 
# From -- ./inp_files/34155.got.cif
#   From: 2010.05.17/outbox.cif.g08.bks.cpg/sg5_18_cif.got.tgz:34155.got - 2010.06.03 18:56:24.
