data_PCOD9121880
_publ_section_title
;
Structure prediction by ZEFSAII (Michael W. Deem and Ramdas Pophale) SiO2 
 PCOD9121880
Probable space group: C 2
;
_chemical_formula_sum "Si O2"
_cell_formula_units_Z 16
_cell_length_a 8.583680
_cell_length_b 16.295950
_cell_length_c 5.230082
_cell_angle_alpha 90.000000
_cell_angle_beta 85.312285
_cell_angle_gamma 90.000000
_cell_volume 729.132608
_symmetry_space_group_name_H-M "C 2"
_symmetry_group_IT_number 5
_symmetry_cell_setting 'monoclinic'
loop_
_space_group_symop_operation_xyz
x,y,z
-x,y,-z
1/2+x,1/2+y,z
1/2-x,1/2+y,-z
loop_
_atom_site_type_symbol
_atom_site_label
_atom_site_fract_x
_atom_site_fract_y
_atom_site_fract_z
Si Si1 0.818759 0.762960 0.333984
Si Si2 0.325728 0.199807 0.834359
Si Si3 0.673083 0.452696 0.570919
Si Si4 0.324731 0.015575 0.051054
O O1 0.751323 0.704222 0.563378
O O2 0.809479 0.854311 0.443161
O O3 0.998722 0.734389 0.250033
O O4 0.746474 0.755660 0.061851
O O5 0.328417 0.110196 0.958317
O O6 0.500000 0.472849 0.500000
O O7 0.710062 0.474831 0.858894
O O8 0.779781 0.499366 0.350076
O O9 0.500000 0.982538 0.000000
#
# Coordination Sequence:
#
# PCOD9121880 Si02
#       4
#     4   4   4   4
#     4  10  19  36  67  93 117 171 243 256 293 398
#     4  10  19  36  67  93 117 171 243 256 293 398
#     4  12  25  41  67 103 138 171 221 282 338 390
#     4  12  25  41  67 103 138 171 221 282 338 390
#
# _framework density 21.943881000000001
#
# number of rings (size 3 to 8) (size 9 to 14) (size 15 to 20)
#    0.000    1.000    5.000    4.500    7.000    0.000 
#    0.000    0.000    0.000   30.000    0.000    0.000 
#    0.000    0.000    0.000    0.000    0.000    0.000 
#
# Total GULP energy -44603.193490 kJ/mol
# GULP energy per Si atom -5575.399186 kJ/mol
# Density = 2.189394 g / cm^3
# Si number density = 21.943881 Si / 1000 Ang^3
#
#
#
# Elastic Constant Matrix: (Units=GPa)
#
#
# Indices 1 2 3 4 5 6 
#
# 1 29.7426 -10.4962 -12.8028 0.0000 8.6255 0.0000
# 2 -10.4962 98.5306 17.2262 0.0000 -5.3288 0.0000
# 3 -12.8028 17.2262 154.8891 0.0000 14.3457 0.0000
# 4 0.0000 0.0000 0.0000 44.4727 0.0000 5.2986
# 5 8.6255 -5.3288 14.3457 0.0000 29.0249 0.0000
# 6 0.0000 0.0000 0.0000 5.2986 0.0000 14.6574
#
#
#
# Elastic Compliance Matrix: (Units=1/GPa)
#
#
# Indices 1 2 3 4 5 6 
#
# 1 0.040409 0.002819 0.004287 0.000000 -0.013610 0.000000
# 2 0.002819 0.010736 -0.001117 0.000000 0.001685 0.000000
# 3 0.004287 -0.001117 0.007411 0.000000 -0.005142 0.000000
# 4 0.000000 0.000000 0.000000 0.023498 0.000000 -0.008494
# 5 -0.013610 0.001685 -0.005142 0.000000 0.041349 0.000000
# 6 0.000000 0.000000 0.000000 -0.008494 0.000000 0.071296
#
#
# Mechanical properties :
#
#
# Convention : Reuss Voigt Hill
#
# Bulk Modulus (GPa) = 14.17749 30.11297 22.14523
# Shear Modulus (GPa) = 24.24459 36.91332 30.57895
#
# Velocity S-wave (km/s) = 3.32753 4.10588 3.73702
# Velocity P-wave (km/s) = 4.60848 6.01915 5.36042
#
# Compressibility (1/GPa) = 0.07053435
#
# Stress axis : x y z
#
# Youngs Moduli (GPa) = 24.74691 93.14548 134.93288
#
# Poissons Ratio (x) = -0.26259 -0.57848
# Poissons Ratio (y) = -0.06976 0.15073
# Poissons Ratio (z) = -0.10609 0.10405
#
# Static dielectric constant tensor:
#      x y z
#    x 1.957100 0.000000 0.135570 
#    y 0.000000 1.855290 0.000000 
#    z 0.135570 0.000000 1.925200 
# 
# From -- ./inp_files/1862.got.cif
#   From: 2010.05.17/outbox.cif.g08.bks.cpg/sg5_1_cif.got.tgz:1862.got - 2010.06.03 18:56:24.
