data_PCOD9121300
_publ_section_title
;
Structure prediction by ZEFSAII (Michael W. Deem and Ramdas Pophale) SiO2 
 PCOD9121300
Probable space group: C 2
;
_chemical_formula_sum "Si O2"
_cell_formula_units_Z 24
_cell_length_a 8.173426
_cell_length_b 28.650761
_cell_length_c 9.242401
_cell_angle_alpha 90.000000
_cell_angle_beta 32.918961
_cell_angle_gamma 90.000000
_cell_volume 1176.214468
_symmetry_space_group_name_H-M "C 2"
_symmetry_group_IT_number 5
_symmetry_cell_setting 'monoclinic'
loop_
_space_group_symop_operation_xyz
x,y,z
-x,y,-z
1/2+x,1/2+y,z
1/2-x,1/2+y,-z
loop_
_atom_site_type_symbol
_atom_site_label
_atom_site_fract_x
_atom_site_fract_y
_atom_site_fract_z
Si Si1 0.354452 0.772480 0.261974
Si Si2 0.836820 0.019708 0.963106
Si Si3 0.672489 0.078692 0.527222
Si Si4 0.223498 0.914747 0.097103
Si Si5 0.852955 0.168668 0.265041
Si Si6 0.590154 0.864426 0.598056
O O1 0.475749 0.720303 0.209867
O O2 0.391703 0.812410 0.352047
O O3 0.000000 0.769768 0.500000
O O4 0.500000 0.785885 0.000000
O O5 0.072523 0.040460 0.675901
O O6 0.761799 0.969083 0.957412
O O7 0.571791 0.058120 0.180782
O O8 0.000000 0.014766 0.000000
O O9 0.500000 0.079274 0.500000
O O10 0.843669 0.128769 0.395536
O O11 0.900435 0.894453 0.388608
O O12 0.500000 0.904909 0.000000
O O13 0.315922 0.888061 0.884663
O O14 0.500000 0.175765 0.500000
O O15 0.000000 0.153505 0.000000
O O16 0.500000 0.863701 0.500000
#
# Coordination Sequence:
#
# PCOD9121300 Si02
#       6
#     4   4   4   4   4   4
#     4  10  20  35  57  84 115 149 189 235 284 338
#     4  10  19  32  52  78 108 142 184 231 277 327
#     4   9  16  28  49  78 109 140 179 227 273 322
#     4  12  25  41  60  83 115 153 195 240 292 349
#     4   9  16  28  49  80 112 143 183 230 276 327
#     4  12  24  40  61  85 115 151 194 241 292 347
#
# _framework density 20.404442
#
# number of rings (size 3 to 8) (size 9 to 14) (size 15 to 20)
#    0.000    1.667    0.000    8.000    0.000    1.333 
#    0.000    0.000    0.000    2.000    0.000    0.000 
#    0.000    0.000    0.000    0.000    0.000    0.000 
#
# Total GULP energy -66866.822254 kJ/mol
# GULP energy per Si atom -5572.235188 kJ/mol
# Density = 2.035800 g / cm^3
# Si number density = 20.404442 Si / 1000 Ang^3
#
#
#
# Elastic Constant Matrix: (Units=GPa)
#
#
# Indices 1 2 3 4 5 6 
#
# 1 35.4794 12.9340 2.0838 0.0000 3.1291 0.0000
# 2 12.9340 117.8608 -7.0918 0.0000 1.7169 0.0000
# 3 2.0838 -7.0918 98.9381 0.0000 -10.1420 0.0000
# 4 0.0000 0.0000 0.0000 36.8949 0.0000 -1.2053
# 5 3.1291 1.7169 -10.1420 0.0000 18.9787 0.0000
# 6 0.0000 0.0000 0.0000 -1.2053 0.0000 29.2488
#
#
#
# Elastic Compliance Matrix: (Units=1/GPa)
#
#
# Indices 1 2 3 4 5 6 
#
# 1 0.029945 -0.003293 -0.001420 0.000000 -0.005398 0.000000
# 2 -0.003293 0.008887 0.000719 0.000000 0.000123 0.000000
# 3 -0.001420 0.000719 0.010798 0.000000 0.005939 0.000000
# 4 0.000000 0.000000 0.000000 0.027141 0.000000 0.001118
# 5 -0.005398 0.000123 0.005939 0.000000 0.056743 0.000000
# 6 0.000000 0.000000 0.000000 0.001118 0.000000 0.034236
#
#
# Mechanical properties :
#
#
# Convention : Reuss Voigt Hill
#
# Bulk Modulus (GPa) = 24.01411 29.79228 26.90319
# Shear Modulus (GPa) = 26.36870 33.31463 29.84166
#
# Velocity S-wave (km/s) = 3.59876 4.04507 3.82842
# Velocity P-wave (km/s) = 5.39098 6.03733 5.72329
#
# Compressibility (1/GPa) = 0.04164218
#
# Stress axis : x y z
#
# Youngs Moduli (GPa) = 33.39417 112.51844 92.61322
#
# Poissons Ratio (x) = 0.37052 0.13152
# Poissons Ratio (y) = 0.10997 -0.06659
# Poissons Ratio (z) = 0.04742 -0.08090
#
# Static dielectric constant tensor:
#      x y z
#    x 1.726130 0.000000 0.001140 
#    y 0.000000 1.838530 0.000000 
#    z 0.001140 0.000000 1.748770 
# 
# From -- ./inp_files/17601.got.cif
#   From: 2010.05.17/outbox.cif.g08.bks.cpg/sg5_9_cif.got.tgz:17601.got - 2010.06.03 18:56:24.
