data_PCOD9121855
_publ_section_title
;
Structure prediction by ZEFSAII (Michael W. Deem and Ramdas Pophale) SiO2 
 PCOD9121855
Probable space group: C 2
;
_chemical_formula_sum "Si O2"
_cell_formula_units_Z 24
_cell_length_a 27.491372
_cell_length_b 9.185725
_cell_length_c 7.902659
_cell_angle_alpha 90.000000
_cell_angle_beta 143.632725
_cell_angle_gamma 90.000000
_cell_volume 1183.335276
_symmetry_space_group_name_H-M "C 2"
_symmetry_group_IT_number 5
_symmetry_cell_setting 'monoclinic'
loop_
_space_group_symop_operation_xyz
x,y,z
-x,y,-z
1/2+x,1/2+y,z
1/2-x,1/2+y,-z
loop_
_atom_site_type_symbol
_atom_site_label
_atom_site_fract_x
_atom_site_fract_y
_atom_site_fract_z
Si Si1 0.500000 0.846900 0.500000
Si Si2 0.848429 0.421248 0.292687
Si Si3 0.092695 0.181246 0.303156
Si Si4 0.000000 0.880461 0.500000
Si Si5 0.620100 0.611604 0.005121
Si Si6 0.226796 0.702342 0.765701
Si Si7 0.568197 0.372686 0.337696
O O1 0.435584 0.930541 0.439011
O O2 0.560257 0.744765 0.780725
O O3 0.864228 0.323425 0.504136
O O4 0.807139 0.574845 0.210510
O O5 0.784234 0.322324 0.012374
O O6 0.089483 0.045107 0.425061
O O7 0.126020 0.113998 0.223391
O O8 0.000000 0.222920 0.000000
O O9 0.961034 0.810845 0.561640
O O10 0.926764 0.975709 0.210023
O O11 0.711812 0.628990 0.194549
O O12 0.145680 0.786876 0.482543
O O13 0.500000 0.370311 0.000000
#
# Coordination Sequence:
#
# PCOD9121855 Si02
#       7
#     2   4   4   2   4   4   4
#     4   9  18  35  62  88 118 162 206 244 306 372
#     4  11  22  40  63  90 125 166 207 259 314 372
#     4  11  19  37  66  95 120 167 215 249 304 382
#     4  11  18  39  72  90 122 170 214 246 314 380
#     4  10  19  36  64  92 123 167 205 251 309 376
#     4  11  25  41  60  92 129 161 209 265 318 365
#     4  11  23  42  66  94 126 167 213 260 310 377
#
# _framework density 20.281656000000002
#
# number of rings (size 3 to 8) (size 9 to 14) (size 15 to 20)
#    0.000    1.333    5.000    4.000    0.000    2.667 
#    3.000    0.000    0.000    0.000    0.000    0.000 
#    0.000    0.000    0.000    0.000    0.000    0.000 
#
# Total GULP energy -66924.000419 kJ/mol
# GULP energy per Si atom -5577.000035 kJ/mol
# Density = 2.023549 g / cm^3
# Si number density = 20.281656 Si / 1000 Ang^3
#
#
#
# Elastic Constant Matrix: (Units=GPa)
#
#
# Indices 1 2 3 4 5 6 
#
# 1 128.8885 16.3039 45.2434 0.0000 19.2694 0.0000
# 2 16.3039 49.0945 19.8401 0.0000 16.0439 0.0000
# 3 45.2434 19.8401 62.6143 0.0000 26.3985 0.0000
# 4 0.0000 0.0000 0.0000 17.9144 0.0000 3.8941
# 5 19.2694 16.0439 26.3985 0.0000 39.8919 0.0000
# 6 0.0000 0.0000 0.0000 3.8941 0.0000 14.3941
#
#
#
# Elastic Compliance Matrix: (Units=1/GPa)
#
#
# Indices 1 2 3 4 5 6 
#
# 1 0.010405 -0.000489 -0.007389 0.000000 0.000060 0.000000
# 2 -0.000489 0.024558 -0.004665 0.000000 -0.006554 0.000000
# 3 -0.007389 -0.004665 0.028422 0.000000 -0.013363 0.000000
# 4 0.000000 0.000000 0.000000 0.059309 0.000000 -0.016045
# 5 0.000060 -0.006554 -0.013363 0.000000 0.036517 0.000000
# 6 0.000000 0.000000 0.000000 -0.016045 0.000000 0.073814
#
#
# Mechanical properties :
#
#
# Convention : Reuss Voigt Hill
#
# Bulk Modulus (GPa) = 26.11042 44.81915 35.46478
# Shear Modulus (GPa) = 18.45851 25.05407 21.75629
#
# Velocity S-wave (km/s) = 3.02007 3.51851 3.27877
# Velocity P-wave (km/s) = 5.00629 6.21714 5.64428
#
# Compressibility (1/GPa) = 0.03829889
#
# Stress axis : x y z
#
# Youngs Moduli (GPa) = 96.10545 40.71951 35.18420
#
# Poissons Ratio (x) = 0.01992 0.25997
# Poissons Ratio (y) = 0.04701 0.16414
# Poissons Ratio (z) = 0.71012 0.18996
#
# Static dielectric constant tensor:
#      x y z
#    x 1.786360 0.000000 0.001530 
#    y 0.000000 1.732320 0.000000 
#    z 0.001530 0.000000 1.683140 
# 
# From -- ./inp_files/28894.got.cif
#   From: 2010.05.17/outbox.cif.g08.bks.cpg/sg5_15_cif.got.tgz:28894.got - 2010.06.03 18:56:24.
