data_PCOD9121915
_publ_section_title
;
Structure prediction by ZEFSAII (Michael W. Deem and Ramdas Pophale) SiO2 
 PCOD9121915
Probable space group: C 2
;
_chemical_formula_sum "Si O2"
_cell_formula_units_Z 26
_cell_length_a 9.386014
_cell_length_b 25.893955
_cell_length_c 9.817236
_cell_angle_alpha 90.000000
_cell_angle_beta 148.675731
_cell_angle_gamma 90.000000
_cell_volume 1240.431415
_symmetry_space_group_name_H-M "C 2"
_symmetry_group_IT_number 5
_symmetry_cell_setting 'monoclinic'
loop_
_space_group_symop_operation_xyz
x,y,z
-x,y,-z
1/2+x,1/2+y,z
1/2-x,1/2+y,-z
loop_
_atom_site_type_symbol
_atom_site_label
_atom_site_fract_x
_atom_site_fract_y
_atom_site_fract_z
Si Si1 0.579773 0.238540 0.828751
Si Si2 0.500000 0.310126 0.000000
Si Si3 0.550346 0.677014 0.375816
Si Si4 0.094934 0.497355 0.919363
Si Si5 0.703673 0.403819 0.055802
Si Si6 0.309827 0.344210 0.217829
Si Si7 0.402629 0.557873 0.577656
O O1 0.429134 0.273570 0.818858
O O2 0.346778 0.200897 0.583587
O O3 0.688065 0.283237 0.817777
O O4 0.817828 0.207503 0.101938
O O5 0.247529 0.348629 0.829850
O O6 0.500000 0.680081 0.500000
O O7 0.552739 0.616526 0.340411
O O8 0.081407 0.444983 0.821091
O O9 0.404455 0.518477 0.183146
O O10 0.000000 0.490281 0.000000
O O11 0.907663 0.539041 0.689696
O O12 0.582300 0.380248 0.816785
O O13 0.500000 0.429056 0.000000
O O14 0.500000 0.352892 0.500000
O O15 0.000000 0.358871 0.000000
O O16 0.500000 0.556227 0.500000
#
# Coordination Sequence:
#
# PCOD9121915 Si02
#       7
#     4   2   4   4   4   4   4
#     4  11  20  36  59  90 125 161 199 256 314 369
#     4   8  18  36  54  94 122 150 196 248 296 376
#     4  11  19  33  60  91 124 161 204 262 323 353
#     4  10  19  37  59  85 124 163 205 256 313 366
#     4   9  21  40  65  92 126 161 212 255 311 368
#     4  11  24  43  61  89 127 168 206 249 306 388
#     4   9  20  34  56  89 120 156 211 261 303 372
#
# _framework density 20.960449000000001
#
# number of rings (size 3 to 8) (size 9 to 14) (size 15 to 20)
#    0.462    1.538    1.538    2.308    0.000    5.538 
#    0.000    6.154    0.000    9.231    0.000    0.000 
#    0.000    0.000    0.000    0.000    0.000    0.000 
#
# Total GULP energy -72409.182707 kJ/mol
# GULP energy per Si atom -5569.937131 kJ/mol
# Density = 2.091274 g / cm^3
# Si number density = 20.960449 Si / 1000 Ang^3
#
#
#
# Elastic Constant Matrix: (Units=GPa)
#
#
# Indices 1 2 3 4 5 6 
#
# 1 62.9795 23.4129 35.5085 0.0000 -7.4908 0.0000
# 2 23.4129 97.2605 32.9199 0.0000 1.8596 0.0000
# 3 35.5085 32.9199 117.6107 0.0000 8.2366 0.0000
# 4 0.0000 0.0000 0.0000 8.8354 0.0000 7.9142
# 5 -7.4908 1.8596 8.2366 0.0000 15.5972 0.0000
# 6 0.0000 0.0000 0.0000 7.9142 0.0000 30.2539
#
#
#
# Elastic Compliance Matrix: (Units=1/GPa)
#
#
# Indices 1 2 3 4 5 6 
#
# 1 0.022905 -0.003429 -0.007014 0.000000 0.015113 0.000000
# 2 -0.003429 0.011873 -0.002153 0.000000 -0.001925 0.000000
# 3 -0.007014 -0.002153 0.011880 0.000000 -0.009386 0.000000
# 4 0.000000 0.000000 0.000000 0.147818 0.000000 -0.038668
# 5 0.015113 -0.001925 -0.009386 0.000000 0.076558 0.000000
# 6 0.000000 0.000000 0.000000 -0.038668 0.000000 0.043169
#
#
# Mechanical properties :
#
#
# Convention : Reuss Voigt Hill
#
# Bulk Modulus (GPa) = 46.58539 51.28148 48.93344
# Shear Modulus (GPa) = 14.42791 23.33792 18.88291
#
# Velocity S-wave (km/s) = 2.62647 3.34042 3.00473
# Velocity P-wave (km/s) = 5.60994 6.27669 5.95266
#
# Compressibility (1/GPa) = 0.02146596
#
# Stress axis : x y z
#
# Youngs Moduli (GPa) = 43.65857 84.22722 84.17299
#
# Poissons Ratio (x) = 0.28879 0.59040
# Poissons Ratio (y) = 0.14969 0.18124
# Poissons Ratio (z) = 0.30623 0.18136
#
# Static dielectric constant tensor:
#      x y z
#    x 1.791930 0.000000 -0.001010 
#    y 0.000000 1.753930 0.000000 
#    z -0.001010 0.000000 1.723270 
# 
# From -- ./inp_files/17465.got.cif
#   From: 2010.05.17/outbox.cif.g08.bks.cpg/sg5_9_cif.got.tgz:17465.got - 2010.06.03 18:56:24.
