data_PCOD9121362
_publ_section_title
;
Structure prediction by ZEFSAII (Michael W. Deem and Ramdas Pophale) SiO2 
 PCOD9121362
Probable space group: C 2
;
_chemical_formula_sum "Si O2"
_cell_formula_units_Z 30
_cell_length_a 16.881438
_cell_length_b 10.211119
_cell_length_c 17.799398
_cell_angle_alpha 90.000000
_cell_angle_beta 24.395242
_cell_angle_gamma 90.000000
_cell_volume 1267.267882
_symmetry_space_group_name_H-M "C 2"
_symmetry_group_IT_number 5
_symmetry_cell_setting 'monoclinic'
loop_
_space_group_symop_operation_xyz
x,y,z
-x,y,-z
1/2+x,1/2+y,z
1/2-x,1/2+y,-z
loop_
_atom_site_type_symbol
_atom_site_label
_atom_site_fract_x
_atom_site_fract_y
_atom_site_fract_z
Si Si1 0.007312 0.790070 0.730690
Si Si2 0.814593 0.904955 0.765522
Si Si3 0.517779 0.947692 0.839508
Si Si4 0.799398 0.116192 0.940950
Si Si5 0.286751 0.676779 0.375011
Si Si6 0.713490 0.231976 0.691953
Si Si7 0.146169 0.194044 0.278139
Si Si8 0.000000 0.691635 0.500000
O O1 0.160416 0.693424 0.558911
O O2 0.084668 0.816698 0.746753
O O3 0.963462 0.900278 0.707291
O O4 0.806101 0.716004 0.912638
O O5 0.870515 0.785372 0.664738
O O6 0.850614 0.043462 0.696663
O O7 0.601519 0.908184 0.983276
O O8 0.342963 0.991661 0.935507
O O9 0.633194 0.083235 0.750262
O O10 0.645009 0.825746 0.704572
O O11 0.795853 0.179147 0.859268
O O12 0.016724 0.102699 0.778840
O O13 0.148259 0.623134 0.428841
O O14 0.720889 0.263629 0.774420
O O15 0.930609 0.243226 0.474207
#
# Coordination Sequence:
#
# PCOD9121362 Si02
#       8
#     4   4   4   4   4   4   4   2
#     4  10  20  34  54  80 121 157 191 228 299 363
#     4  10  19  34  50  84 114 150 191 230 298 358
#     4  10  21  33  59  82 122 155 187 243 299 358
#     4  10  21  36  54  87 119 156 201 234 295 362
#     4  11  20  39  53  85 125 154 197 248 294 366
#     4  10  19  33  54  88 116 151 186 237 300 359
#     4  10  19  33  55  82 122 146 187 241 296 346
#     4  10  22  32  58  84 120 162 186 242 314 354
#
# _framework density 23.672974
#
# number of rings (size 3 to 8) (size 9 to 14) (size 15 to 20)
#    0.000    1.867    2.667    3.200    0.000    7.467 
#    0.000    0.000    0.000    0.000    0.000   33.600 
#    0.000    0.000    0.000    0.000    0.000    0.000 
#
# Total GULP energy -83748.206097 kJ/mol
# GULP energy per Si atom -5583.213740 kJ/mol
# Density = 2.361909 g / cm^3
# Si number density = 23.672974 Si / 1000 Ang^3
#
#
#
# Elastic Constant Matrix: (Units=GPa)
#
#
# Indices 1 2 3 4 5 6 
#
# 1 187.5637 25.7672 28.3100 -0.0006 -18.8045 0.0000
# 2 25.7672 38.5992 12.9231 -0.0015 -3.4661 0.0005
# 3 28.3100 12.9231 127.6591 -0.0014 -3.2315 0.0007
# 4 -0.0006 -0.0015 -0.0014 23.4342 0.0000 -5.1674
# 5 -18.8045 -3.4661 -3.2315 0.0000 24.7691 -0.0001
# 6 0.0000 0.0005 0.0007 -5.1674 -0.0001 23.6987
#
#
#
# Elastic Compliance Matrix: (Units=1/GPa)
#
#
# Indices 1 2 3 4 5 6 
#
# 1 0.006389 -0.003568 -0.000949 0.000000 0.004227 0.000000
# 2 -0.003568 0.029099 -0.002127 0.000002 0.001086 0.000000
# 3 -0.000949 -0.002127 0.008261 0.000000 0.000060 0.000000
# 4 0.000000 0.000002 0.000000 0.044828 0.000000 0.009775
# 5 0.004227 0.001086 0.000060 0.000000 0.043742 0.000000
# 6 0.000000 0.000000 0.000000 0.009775 0.000000 0.044328
#
#
# Mechanical properties :
#
#
# Convention : Reuss Voigt Hill
#
# Bulk Modulus (GPa) = 32.82860 54.20250 43.51555
# Shear Modulus (GPa) = 24.98931 33.50184 29.24558
#
# Velocity S-wave (km/s) = 3.25253 3.76599 3.51864
# Velocity P-wave (km/s) = 5.29178 6.46964 5.91013
#
# Compressibility (1/GPa) = 0.03046124
#
# Stress axis : x y z
#
# Youngs Moduli (GPa) = 156.52853 34.36600 121.05709
#
# Poissons Ratio (x) = 0.12260 0.11483
# Poissons Ratio (y) = 0.55843 0.25749
# Poissons Ratio (z) = 0.14848 0.07310
#
# Static dielectric constant tensor:
#      x y z
#    x 1.980830 0.000000 -0.027940 
#    y 0.000000 1.910140 0.000000 
#    z -0.027940 0.000000 1.894470 
# 
# From -- ./inp_files/54771.got.cif
#   From: 2010.05.17/outbox.cif.g08.bks.cpg/sg5_28_cif.got.tgz:54771.got - 2010.06.03 18:56:24.
