data_PCOD9121104
_publ_section_title
;
Structure prediction by ZEFSAII (Michael W. Deem and Ramdas Pophale) SiO2 
 PCOD9121104
Probable space group: C 2
;
_chemical_formula_sum "Si O2"
_cell_formula_units_Z 24
_cell_length_a 8.666603
_cell_length_b 18.347901
_cell_length_c 14.373411
_cell_angle_alpha 90.000000
_cell_angle_beta 27.070434
_cell_angle_gamma 90.000000
_cell_volume 1040.131167
_symmetry_space_group_name_H-M "C 2"
_symmetry_group_IT_number 5
_symmetry_cell_setting 'monoclinic'
loop_
_space_group_symop_operation_xyz
x,y,z
-x,y,-z
1/2+x,1/2+y,z
1/2-x,1/2+y,-z
loop_
_atom_site_type_symbol
_atom_site_label
_atom_site_fract_x
_atom_site_fract_y
_atom_site_fract_z
Si Si1 0.860330 0.801100 0.708627
Si Si2 0.539472 0.851814 0.249684
Si Si3 0.712533 0.134845 0.238059
Si Si4 0.106283 0.511907 0.700399
Si Si5 0.865973 0.779663 0.250873
Si Si6 0.138222 0.627599 0.026981
O O1 0.549967 0.814318 0.802602
O O2 0.939184 0.714390 0.666543
O O3 0.176977 0.843564 0.496257
O O4 0.880431 0.816230 0.808921
O O5 0.796830 0.819016 0.188806
O O6 0.594696 0.937254 0.204451
O O7 0.466794 0.069691 0.343000
O O8 0.000000 0.136507 0.000000
O O9 0.955692 0.122758 0.194515
O O10 0.500000 0.495732 0.500000
O O11 0.991479 0.555409 0.853098
O O12 0.500000 0.775833 0.500000
O O13 0.000218 0.698613 0.156268
O O14 0.000000 0.635036 0.000000
#
# Coordination Sequence:
#
# PCOD9121104 Si02
#       6
#     4   4   4   4   4   4
#     4  10  18  39  63  92 126 165 217 276 320 381
#     4  10  22  38  65  97 130 163 224 276 327 388
#     4  10  21  39  66  92 130 171 219 271 335 387
#     4  11  22  44  66  92 136 182 215 278 332 390
#     4  10  20  38  71  98 124 175 225 276 324 392
#     4  11  23  42  65 100 133 175 227 271 335 403
#
# _framework density 23.074013999999998
#
# number of rings (size 3 to 8) (size 9 to 14) (size 15 to 20)
#    0.000    1.667    5.000    1.500    2.333    0.000 
#    3.000    8.333    0.000    0.000    0.000    0.000 
#    0.000    0.000    0.000    0.000    0.000    0.000 
#
# Total GULP energy -66996.177907 kJ/mol
# GULP energy per Si atom -5583.014826 kJ/mol
# Density = 2.302150 g / cm^3
# Si number density = 23.074014 Si / 1000 Ang^3
#
#
#
# Elastic Constant Matrix: (Units=GPa)
#
#
# Indices 1 2 3 4 5 6 
#
# 1 240.0238 57.0686 41.7720 0.7897 -8.8140 -0.1931
# 2 57.0686 142.1964 19.6137 0.6067 4.1099 -0.1573
# 3 41.7720 19.6137 50.9286 2.5561 3.7509 -0.6534
# 4 0.7897 0.6067 2.5561 -186.7629 -0.8490 54.9499
# 5 -8.8140 4.1099 3.7509 -0.8490 49.5006 0.2118
# 6 -0.1931 -0.1573 -0.6534 54.9499 0.2118 31.4496
#
#
#
# Elastic Compliance Matrix: (Units=1/GPa)
#
#
# Indices 1 2 3 4 5 6 
#
# 1 0.005263 -0.001629 -0.003787 -0.000039 0.001359 0.000005
# 2 -0.001629 0.007939 -0.001661 0.000000 -0.000823 0.000001
# 3 -0.003787 -0.001661 0.023536 0.000297 -0.002315 -0.000047
# 4 -0.000039 0.000000 0.000297 -0.003532 -0.000117 0.006178
# 5 0.001359 -0.000823 -0.002315 -0.000117 0.020685 0.000021
# 6 0.000005 0.000001 -0.000047 0.006178 0.000021 0.021001
#
#
# Mechanical properties :
#
#
# Convention : Reuss Voigt Hill
#
# Bulk Modulus (GPa) = 44.27888 74.45081 59.36484
# Shear Modulus (GPa) = 51.77382 -0.18290 25.79546
#
# Velocity S-wave (km/s) = 4.74203 -0.28185 3.34719
# Velocity P-wave (km/s) = 7.01527 5.67717 6.38139
#
# Compressibility (1/GPa) = 0.02258413
#
# Stress axis : x y z
#
# Youngs Moduli (GPa) = 190.01896 125.95854 42.48779
#
# Poissons Ratio (x) = 0.20516 0.16091
# Poissons Ratio (y) = 0.30950 0.07057
# Poissons Ratio (z) = 0.71963 0.20921
#
# Static dielectric constant tensor:
#      x y z
#    x 2.100630 0.000690 0.225420 
#    y 0.000690 1.807810 0.001560 
#    z 0.225420 0.001560 2.487120 
# 
# From -- ./inp_files/51315.got.cif
#   From: 2010.05.17/outbox.cif.g08.bks.cpg/sg5_26_cif.got.tgz:51315.got - 2010.06.03 18:56:24.
