data_PCOD9121679
_publ_section_title
;
Structure prediction by ZEFSAII (Michael W. Deem and Ramdas Pophale) SiO2 
 PCOD9121679
Probable space group: C 2
;
_chemical_formula_sum "Si O2"
_cell_formula_units_Z 20
_cell_length_a 16.516358
_cell_length_b 9.959752
_cell_length_c 8.701022
_cell_angle_alpha 90.000000
_cell_angle_beta 148.561393
_cell_angle_gamma 90.000000
_cell_volume 746.548252
_symmetry_space_group_name_H-M "C 2"
_symmetry_group_IT_number 5
_symmetry_cell_setting 'monoclinic'
loop_
_space_group_symop_operation_xyz
x,y,z
-x,y,-z
1/2+x,1/2+y,z
1/2-x,1/2+y,-z
loop_
_atom_site_type_symbol
_atom_site_label
_atom_site_fract_x
_atom_site_fract_y
_atom_site_fract_z
Si Si1 0.673131 0.914800 0.285586
Si Si2 0.518620 0.235393 0.195935
Si Si3 0.000000 0.745455 0.500000
Si Si4 0.204881 0.411967 0.670704
Si Si5 0.000000 0.219638 0.500000
Si Si6 0.741381 0.489892 0.909635
O O1 0.813670 0.807591 0.523542
O O2 0.690661 0.984071 0.483155
O O3 0.694851 0.995022 0.161147
O O4 0.500000 0.855020 0.000000
O O5 0.496374 0.173339 0.329243
O O6 0.500000 0.165773 0.000000
O O7 0.377547 0.346158 0.957675
O O8 0.856417 0.850517 0.261009
O O9 0.067280 0.301467 0.463698
O O10 0.181502 0.479281 0.798442
O O11 0.863543 0.119936 0.235687
#
# Coordination Sequence:
#
# PCOD9121679 Si02
#       6
#     4   4   2   4   2   4
#     4  10  19  35  62  92 131 179 220 273 340 399
#     4   8  15  28  50  80 114 158 206 254 315 379
#     4   7  12  26  50  73 104 153 194 240 310 365
#     4  10  20  38  64  94 131 176 223 278 342 403
#     4  11  22  40  72 103 132 181 234 278 344 419
#     4   9  19  37  58  90 133 170 217 280 332 395
#
# _framework density 26.789964000000001
#
# number of rings (size 3 to 8) (size 9 to 14) (size 15 to 20)
#    0.000    2.800    0.000    2.400    0.000    0.000 
#    0.000    9.000    0.000   27.600    0.000    0.000 
#    0.000    0.000    0.000    0.000    0.000    0.000 
#
# Total GULP energy -55836.689265 kJ/mol
# GULP energy per Si atom -5583.668926 kJ/mol
# Density = 2.672899 g / cm^3
# Si number density = 26.789964 Si / 1000 Ang^3
#
#
#
# Elastic Constant Matrix: (Units=GPa)
#
#
# Indices 1 2 3 4 5 6 
#
# 1 243.0424 74.5515 132.7344 0.0000 -45.7159 0.0000
# 2 74.5515 58.5698 43.9983 0.0000 -19.7979 0.0000
# 3 132.7344 43.9983 189.9515 0.0000 -40.1336 0.0000
# 4 0.0000 0.0000 0.0000 33.7293 0.0000 35.1303
# 5 -45.7159 -19.7979 -40.1336 0.0000 99.5897 0.0000
# 6 0.0000 0.0000 0.0000 35.1303 0.0000 -23.5972
#
#
#
# Elastic Compliance Matrix: (Units=1/GPa)
#
#
# Indices 1 2 3 4 5 6 
#
# 1 0.009101 -0.008060 -0.004316 0.000000 0.000836 0.000000
# 2 -0.008060 0.028338 -0.000572 0.000000 0.001703 0.000000
# 3 -0.004316 -0.000572 0.008712 0.000000 0.001416 0.000000
# 4 0.000000 0.000000 0.000000 0.011624 0.000000 0.017305
# 5 0.000836 0.001703 0.001416 0.000000 0.011334 0.000000
# 6 0.000000 0.000000 0.000000 0.017305 0.000000 -0.016615
#
#
# Mechanical properties :
#
#
# Convention : Reuss Voigt Hill
#
# Bulk Modulus (GPa) = 49.36932 110.45911 79.91422
# Shear Modulus (GPa) = 58.72483 37.96298 48.34391
#
# Velocity S-wave (km/s) = 4.68701 3.76847 4.25261
# Velocity P-wave (km/s) = 6.91079 7.76249 7.34899
#
# Compressibility (1/GPa) = 0.02025550
#
# Stress axis : x y z
#
# Youngs Moduli (GPa) = 109.87393 35.28832 114.78000
#
# Poissons Ratio (x) = 0.28441 0.49542
# Poissons Ratio (y) = 0.88555 0.06567
# Poissons Ratio (z) = 0.47425 0.02019
#
# Static dielectric constant tensor:
#      x y z
#    x 2.436910 0.000000 -0.095670 
#    y 0.000000 2.148580 0.000000 
#    z -0.095670 0.000000 2.162940 
# 
# From -- ./inp_files/27647.got.cif
#   From: 2010.05.17/outbox.cif.g08.bks.cpg/sg5_14_cif.got.tgz:27647.got - 2010.06.03 18:56:24.
