data_PCOD9121677
_publ_section_title
;
Structure prediction by ZEFSAII (Michael W. Deem and Ramdas Pophale) SiO2 
 PCOD9121677
Probable space group: C 2
;
_chemical_formula_sum "Si O2"
_cell_formula_units_Z 30
_cell_length_a 14.449893
_cell_length_b 12.093237
_cell_length_c 7.289877
_cell_angle_alpha 90.000000
_cell_angle_beta 88.544146
_cell_angle_gamma 90.000000
_cell_volume 1273.465495
_symmetry_space_group_name_H-M "C 2"
_symmetry_group_IT_number 5
_symmetry_cell_setting 'monoclinic'
loop_
_space_group_symop_operation_xyz
x,y,z
-x,y,-z
1/2+x,1/2+y,z
1/2-x,1/2+y,-z
loop_
_atom_site_type_symbol
_atom_site_label
_atom_site_fract_x
_atom_site_fract_y
_atom_site_fract_z
Si Si1 0.303675 0.653170 0.867749
Si Si2 0.793193 0.865872 0.314557
Si Si3 0.511468 0.132381 0.777833
Si Si4 0.671483 0.048732 0.183371
Si Si5 0.815825 0.913959 0.722829
Si Si6 0.612170 0.918052 0.846861
Si Si7 0.516390 0.375155 0.704458
Si Si8 0.000000 0.235179 0.000000
O O1 0.254520 0.760365 0.778833
O O2 0.307939 0.547644 0.731204
O O3 0.409369 0.674604 0.926057
O O4 0.238854 0.615593 0.043015
O O5 0.814557 0.853744 0.527607
O O6 0.887223 0.917697 0.219349
O O7 0.724115 0.968748 0.313694
O O8 0.406962 0.118114 0.714662
O O9 0.545612 0.246451 0.695947
O O10 0.575336 0.025539 0.739609
O O11 0.500000 0.149793 0.000000
O O12 0.613658 0.965890 0.053396
O O13 0.717874 0.880539 0.815478
O O14 0.916524 0.885998 0.803222
O O15 0.543948 0.815203 0.841873
O O16 0.500000 0.421902 0.500000
#
# Coordination Sequence:
#
# PCOD9121677 Si02
#       8
#     4   4   4   4   4   4   4   2
#     4  11  25  42  66  98 129 178 219 273 337 388
#     4  11  22  45  64  91 134 173 214 278 321 395
#     4  10  19  35  62  91 118 157 214 264 319 374
#     4  10  21  37  64  93 122 166 218 267 320 387
#     4  10  25  42  62  95 134 170 223 268 336 398
#     4  10  19  41  62  92 127 166 214 275 322 394
#     4  10  23  39  58  88 129 169 211 264 317 390
#     4  12  22  42  68  92 134 166 224 280 326 396
#
# _framework density 23.557765
#
# number of rings (size 3 to 8) (size 9 to 14) (size 15 to 20)
#    0.000    1.600    3.333    2.400    3.733    5.333 
#    0.000    2.000    0.000    0.000    0.000    0.000 
#    0.000    0.000    0.000    0.000    0.000    0.000 
#
# Total GULP energy -83634.916049 kJ/mol
# GULP energy per Si atom -5575.661070 kJ/mol
# Density = 2.350415 g / cm^3
# Si number density = 23.557765 Si / 1000 Ang^3
#
#
#
# Elastic Constant Matrix: (Units=GPa)
#
#
# Indices 1 2 3 4 5 6 
#
# 1 165.6078 34.4780 -3.3377 0.0000 8.6597 0.0000
# 2 34.4780 74.1746 6.1359 0.0000 6.9827 0.0000
# 3 -3.3377 6.1359 36.0532 0.0000 1.5534 0.0000
# 4 0.0000 0.0000 0.0000 28.1918 0.0000 3.3509
# 5 8.6597 6.9827 1.5534 0.0000 24.1746 0.0000
# 6 0.0000 0.0000 0.0000 3.3509 0.0000 45.6235
#
#
#
# Elastic Compliance Matrix: (Units=1/GPa)
#
#
# Indices 1 2 3 4 5 6 
#
# 1 0.006795 -0.003108 0.001228 0.000000 -0.001615 0.000000
# 2 -0.003108 0.015455 -0.002781 0.000000 -0.003172 0.000000
# 3 0.001228 -0.002781 0.028387 0.000000 -0.001460 0.000000
# 4 0.000000 0.000000 0.000000 0.035784 0.000000 -0.002628
# 5 -0.001615 -0.003172 -0.001460 0.000000 0.042954 0.000000
# 6 0.000000 0.000000 0.000000 -0.002628 0.000000 0.022112
#
#
# Mechanical properties :
#
#
# Convention : Reuss Voigt Hill
#
# Bulk Modulus (GPa) = 24.20536 38.93199 31.56867
# Shear Modulus (GPa) = 28.64016 35.50196 32.07106
#
# Velocity S-wave (km/s) = 3.49053 3.88624 3.69369
# Velocity P-wave (km/s) = 5.15192 6.05799 5.62323
#
# Compressibility (1/GPa) = 0.04131316
#
# Stress axis : x y z
#
# Youngs Moduli (GPa) = 147.17648 64.70419 35.22772
#
# Poissons Ratio (x) = 0.20108 -0.04324
# Poissons Ratio (y) = 0.45739 0.09798
# Poissons Ratio (z) = -0.18066 0.17996
#
# Static dielectric constant tensor:
#      x y z
#    x 2.008470 0.000000 -0.009730 
#    y 0.000000 1.920540 0.000000 
#    z -0.009730 0.000000 1.955150 
# 
# From -- ./inp_files/23641.got.cif
#   From: 2010.05.17/outbox.cif.g08.bks.cpg/sg5_12_cif.got.tgz:23641.got - 2010.06.03 18:56:24.
