data_PCOD9121820
_publ_section_title
;
Structure prediction by ZEFSAII (Michael W. Deem and Ramdas Pophale) SiO2 
 PCOD9121820
Probable space group: C 2
;
_chemical_formula_sum "Si O2"
_cell_formula_units_Z 22
_cell_length_a 10.542076
_cell_length_b 7.888294
_cell_length_c 12.527880
_cell_angle_alpha 90.000000
_cell_angle_beta 117.593250
_cell_angle_gamma 90.000000
_cell_volume 923.308981
_symmetry_space_group_name_H-M "C 2"
_symmetry_group_IT_number 5
_symmetry_cell_setting 'monoclinic'
loop_
_space_group_symop_operation_xyz
x,y,z
-x,y,-z
1/2+x,1/2+y,z
1/2-x,1/2+y,-z
loop_
_atom_site_type_symbol
_atom_site_label
_atom_site_fract_x
_atom_site_fract_y
_atom_site_fract_z
Si Si1 0.500000 0.986570 0.500000
Si Si2 0.979418 0.517918 0.719706
Si Si3 0.628903 0.117021 0.974463
Si Si4 0.933619 0.121672 0.655182
Si Si5 0.307150 0.665008 0.392547
Si Si6 0.058128 0.008540 0.909843
O O1 0.367289 0.854919 0.431236
O O2 0.505035 0.088957 0.611008
O O3 0.935182 0.321903 0.686300
O O4 0.847780 0.627120 0.712669
O O5 0.108958 0.529450 0.851310
O O6 0.597841 0.314332 0.945519
O O7 0.500000 0.050198 0.000000
O O8 0.793365 0.093616 0.070924
O O9 0.816505 0.092002 0.517241
O O10 0.077750 0.085580 0.643185
O O11 0.942731 0.026305 0.770248
O O12 0.000000 0.079942 0.000000
#
# Coordination Sequence:
#
# PCOD9121820 Si02
#       6
#     2   4   4   4   4   4
#     4   8  20  36  54  88 122 148 188 238 292 350
#     4  10  19  36  62  86 116 154 191 240 294 346
#     4  11  25  42  62  87 120 159 200 247 298 350
#     4   9  20  37  59  87 117 152 197 238 287 352
#     4   8  17  35  59  84 117 153 183 236 295 341
#     4  11  25  42  61  88 120 158 201 247 296 351
#
# _framework density 23.827344
#
# number of rings (size 3 to 8) (size 9 to 14) (size 15 to 20)
#    0.000    2.909    0.000    2.182    0.000   13.091 
#    0.000    7.273    0.000    0.000    0.000    0.000 
#    0.000    0.000    0.000    0.000    0.000    0.000 
#
# Total GULP energy -61386.399872 kJ/mol
# GULP energy per Si atom -5580.581807 kJ/mol
# Density = 2.377311 g / cm^3
# Si number density = 23.827344 Si / 1000 Ang^3
#
#
#
# Elastic Constant Matrix: (Units=GPa)
#
#
# Indices 1 2 3 4 5 6 
#
# 1 65.9382 12.8547 22.6865 0.0000 -3.0842 0.0000
# 2 12.8547 44.5671 -0.9334 0.0000 -0.5375 0.0000
# 3 22.6865 -0.9334 120.8277 0.0000 -6.0403 0.0000
# 4 0.0000 0.0000 0.0000 24.0401 0.0000 0.0460
# 5 -3.0842 -0.5375 -6.0403 0.0000 42.8121 0.0000
# 6 0.0000 0.0000 0.0000 0.0460 0.0000 23.7146
#
#
#
# Elastic Compliance Matrix: (Units=1/GPa)
#
#
# Indices 1 2 3 4 5 6 
#
# 1 0.017303 -0.005050 -0.003252 0.000000 0.000724 0.000000
# 2 -0.005050 0.023920 0.001138 0.000000 0.000097 0.000000
# 3 -0.003252 0.001138 0.008948 0.000000 0.001042 0.000000
# 4 0.000000 0.000000 0.000000 0.041597 0.000000 -0.000081
# 5 0.000724 0.000097 0.001042 0.000000 0.023558 0.000000
# 6 0.000000 0.000000 0.000000 -0.000081 0.000000 0.042168
#
#
# Mechanical properties :
#
#
# Convention : Reuss Voigt Hill
#
# Bulk Modulus (GPa) = 27.89980 33.39428 30.64704
# Shear Modulus (GPa) = 27.20805 31.22840 29.21822
#
# Velocity S-wave (km/s) = 3.38284 3.62416 3.50558
# Velocity P-wave (km/s) = 5.19545 5.61768 5.41069
#
# Compressibility (1/GPa) = 0.03584255
#
# Stress axis : x y z
#
# Youngs Moduli (GPa) = 57.79404 41.80653 111.76106
#
# Poissons Ratio (x) = 0.21113 0.36340
# Poissons Ratio (y) = 0.29186 -0.12716
# Poissons Ratio (z) = 0.18792 -0.04757
#
# Static dielectric constant tensor:
#      x y z
#    x 1.949830 0.000000 -0.071410 
#    y 0.000000 1.900090 0.000000 
#    z -0.071410 0.000000 1.907620 
# 
# From -- ./inp_files/38435.got.cif
#   From: 2010.05.17/outbox.cif.g08.bks.cpg/sg5_20_cif.got.tgz:38435.got - 2010.06.03 18:56:24.
