data_PCOD9121557
_publ_section_title
;
Structure prediction by ZEFSAII (Michael W. Deem and Ramdas Pophale) SiO2 
 PCOD9121557
Probable space group: C 2
;
_chemical_formula_sum "Si O2"
_cell_formula_units_Z 28
_cell_length_a 13.778838
_cell_length_b 15.831101
_cell_length_c 6.493009
_cell_angle_alpha 90.000000
_cell_angle_beta 122.042870
_cell_angle_gamma 90.000000
_cell_volume 1200.568605
_symmetry_space_group_name_H-M "C 2"
_symmetry_group_IT_number 5
_symmetry_cell_setting 'monoclinic'
loop_
_space_group_symop_operation_xyz
x,y,z
-x,y,-z
1/2+x,1/2+y,z
1/2-x,1/2+y,-z
loop_
_atom_site_type_symbol
_atom_site_label
_atom_site_fract_x
_atom_site_fract_y
_atom_site_fract_z
Si Si1 0.844355 0.379330 0.115939
Si Si2 0.314834 0.429953 0.406140
Si Si3 0.389761 0.298813 0.973744
Si Si4 0.500000 0.746340 0.500000
Si Si5 0.620112 0.128481 0.228408
Si Si6 0.000000 0.793634 0.500000
Si Si7 0.277407 0.028692 0.305010
Si Si8 0.334827 0.592307 0.205209
O O1 0.726298 0.342869 0.086821
O O2 0.853760 0.467460 0.248826
O O3 0.948976 0.314552 0.274418
O O4 0.803492 0.399018 0.837430
O O5 0.401960 0.352921 0.488366
O O6 0.286678 0.470813 0.595052
O O7 0.375530 0.501989 0.334871
O O8 0.363064 0.228212 0.776411
O O9 0.500000 0.347426 0.000000
O O10 0.436152 0.251931 0.234511
O O11 0.399351 0.674794 0.363676
O O12 0.646269 0.093705 0.481439
O O13 0.712869 0.093355 0.176582
O O14 0.500000 0.103585 0.000000
O O15 0.186857 0.080277 0.061758
#
# Coordination Sequence:
#
# PCOD9121557 Si02
#       8
#     4   4   4   2   4   2   4   4
#     4  10  22  40  64  93 135 173 215 276 337 401
#     4   9  20  41  63  96 127 174 222 270 334 413
#     4  10  20  37  61  93 122 158 215 277 325 382
#     4  12  23  44  66 101 140 176 226 274 347 400
#     4  10  22  40  63  92 128 163 228 275 322 395
#     4  10  19  34  64  91 126 164 214 280 339 380
#     4  10  22  42  66  92 132 180 222 269 337 410
#     4  10  22  42  66  92 133 175 221 277 333 398
#
# _framework density 23.322285000000001
#
# number of rings (size 3 to 8) (size 9 to 14) (size 15 to 20)
#    0.000    2.000    1.429    1.286    0.000    6.286 
#    2.571   14.286    0.000    0.000    0.000    0.000 
#    0.000    0.000    0.000    0.000    0.000    0.000 
#
# Total GULP energy -77939.737614 kJ/mol
# GULP energy per Si atom -5567.124115 kJ/mol
# Density = 2.326920 g / cm^3
# Si number density = 23.322285 Si / 1000 Ang^3
#
#
#
# Elastic Constant Matrix: (Units=GPa)
#
#
# Indices 1 2 3 4 5 6 
#
# 1 47.4959 8.8873 43.2086 0.0000 14.3328 0.0000
# 2 8.8873 82.5097 41.0519 0.0000 6.4933 0.0000
# 3 43.2086 41.0519 128.6097 0.0000 1.5194 0.0000
# 4 0.0000 0.0000 0.0000 48.0863 0.0000 11.8550
# 5 14.3328 6.4933 1.5194 0.0000 24.4559 0.0000
# 6 0.0000 0.0000 0.0000 11.8550 0.0000 14.4059
#
#
#
# Elastic Compliance Matrix: (Units=1/GPa)
#
#
# Indices 1 2 3 4 5 6 
#
# 1 0.041414 0.005062 -0.015238 0.000000 -0.024669 0.000000
# 2 0.005062 0.015340 -0.006519 0.000000 -0.006635 0.000000
# 3 -0.015238 -0.006519 0.014861 0.000000 0.009738 0.000000
# 4 0.000000 0.000000 0.000000 0.026089 0.000000 -0.021469
# 5 -0.024669 -0.006635 0.009738 0.000000 0.056504 0.000000
# 6 0.000000 0.000000 0.000000 -0.021469 0.000000 0.087084
#
#
# Mechanical properties :
#
#
# Convention : Reuss Voigt Hill
#
# Bulk Modulus (GPa) = 26.16070 49.43452 37.79761
# Shear Modulus (GPa) = 17.39594 28.42079 22.90837
#
# Velocity S-wave (km/s) = 2.73407 3.49465 3.13749
# Velocity P-wave (km/s) = 4.60524 6.12582 5.41913
#
# Compressibility (1/GPa) = 0.03822528
#
# Stress axis : x y z
#
# Youngs Moduli (GPa) = 24.14630 65.18883 67.29146
#
# Poissons Ratio (x) = -0.33000 1.02540
# Poissons Ratio (y) = -0.12223 0.43866
# Poissons Ratio (z) = 0.36795 0.42496
#
# Static dielectric constant tensor:
#      x y z
#    x 1.923800 0.000000 0.013140 
#    y 0.000000 1.982400 0.000000 
#    z 0.013140 0.000000 1.960080 
# 
# From -- ./inp_files/7361.got.cif
#   From: 2010.05.17/outbox.cif.g08.bks.cpg/sg5_4_cif.got.tgz:7361.got - 2010.06.03 18:56:24.
