data_PCOD9121927
_publ_section_title
;
Structure prediction by ZEFSAII (Michael W. Deem and Ramdas Pophale) SiO2 
 PCOD9121927
Probable space group: C 2
;
_chemical_formula_sum "Si O2"
_cell_formula_units_Z 28
_cell_length_a 9.905990
_cell_length_b 15.217896
_cell_length_c 10.726594
_cell_angle_alpha 90.000000
_cell_angle_beta 120.712994
_cell_angle_gamma 90.000000
_cell_volume 1390.207692
_symmetry_space_group_name_H-M "C 2"
_symmetry_group_IT_number 5
_symmetry_cell_setting 'monoclinic'
loop_
_space_group_symop_operation_xyz
x,y,z
-x,y,-z
1/2+x,1/2+y,z
1/2-x,1/2+y,-z
loop_
_atom_site_type_symbol
_atom_site_label
_atom_site_fract_x
_atom_site_fract_y
_atom_site_fract_z
Si Si1 0.055578 0.487980 0.379425
Si Si2 0.500000 0.649686 0.000000
Si Si3 0.503950 0.503998 0.820555
Si Si4 0.179903 0.284321 0.938449
Si Si5 0.143167 0.097771 0.471488
Si Si6 0.369664 0.985541 0.038587
Si Si7 0.000000 0.845627 0.000000
Si Si8 0.429295 0.787231 0.604567
O O1 0.191593 0.557086 0.411242
O O2 0.123279 0.387912 0.394899
O O3 0.000000 0.497566 0.500000
O O4 0.922813 0.499575 0.208269
O O5 0.564934 0.584290 0.133322
O O6 0.361778 0.710800 0.982973
O O7 0.429393 0.523136 0.653656
O O8 0.693108 0.515923 0.920771
O O9 0.461328 0.412741 0.867950
O O10 0.144238 0.379808 0.977855
O O11 0.066315 0.269990 0.768360
O O12 0.355209 0.287633 0.972189
O O13 0.172661 0.198027 0.436963
O O14 0.000000 0.109098 0.500000
O O15 0.500000 0.016439 0.000000
O O16 0.500000 0.793353 0.500000
#
# Coordination Sequence:
#
# PCOD9121927 Si02
#       8
#     4   2   4   4   4   4   2   4
#     4  10  23  38  64  87 118 162 206 252 309 365
#     4  11  20  36  58  89 114 154 194 253 308 352
#     4  10  22  36  63  87 122 155 206 248 307 360
#     4  10  19  37  60  87 113 155 198 250 300 364
#     4  11  22  40  62  87 122 163 204 250 307 366
#     4  10  20  38  61  89 121 158 205 251 302 368
#     4   9  22  36  60  87 120 152 204 251 298 360
#     4   9  20  37  61  80 116 159 203 231 306 372
#
# _framework density 20.140875000000001
#
# number of rings (size 3 to 8) (size 9 to 14) (size 15 to 20)
#    0.000    2.000    2.143    0.857   10.000    0.000 
#    1.286    0.714    0.000    0.000    0.000    0.000 
#    0.000    0.000    0.000    0.000    0.000    0.000 
#
# Total GULP energy -77982.725129 kJ/mol
# GULP energy per Si atom -5570.194652 kJ/mol
# Density = 2.009503 g / cm^3
# Si number density = 20.140875 Si / 1000 Ang^3
#
#
#
# Elastic Constant Matrix: (Units=GPa)
#
#
# Indices 1 2 3 4 5 6 
#
# 1 98.4090 29.0065 2.6053 0.0000 9.8460 0.0000
# 2 29.0065 83.4342 5.8287 0.0000 19.7328 0.0000
# 3 2.6053 5.8287 38.4036 0.0000 3.9098 0.0000
# 4 0.0000 0.0000 0.0000 9.8115 0.0000 16.0547
# 5 9.8460 19.7328 3.9098 0.0000 25.3085 0.0000
# 6 0.0000 0.0000 0.0000 16.0547 0.0000 8.3527
#
#
#
# Elastic Compliance Matrix: (Units=1/GPa)
#
#
# Indices 1 2 3 4 5 6 
#
# 1 0.011378 -0.003564 -0.000064 0.000000 -0.001638 0.000000
# 2 -0.003564 0.015856 -0.001064 0.000000 -0.010812 0.000000
# 3 -0.000064 -0.001064 0.026535 0.000000 -0.003245 0.000000
# 4 0.000000 0.000000 0.000000 -0.047512 0.000000 0.091323
# 5 -0.001638 -0.010812 -0.003245 0.000000 0.049081 0.000000
# 6 0.000000 0.000000 0.000000 0.091323 0.000000 -0.055810
#
#
# Mechanical properties :
#
#
# Convention : Reuss Voigt Hill
#
# Bulk Modulus (GPa) = 22.53008 32.79198 27.66103
# Shear Modulus (GPa) = 210.91275 20.88162 115.89718
#
# Velocity S-wave (km/s) = 10.24432 3.22340 7.59396
# Velocity P-wave (km/s) = 12.29385 5.49276 9.52127
#
# Compressibility (1/GPa) = 0.04438510
#
# Stress axis : x y z
#
# Youngs Moduli (GPa) = 87.89158 63.06819 37.68547
#
# Poissons Ratio (x) = 0.22475 0.00242
# Poissons Ratio (y) = 0.31322 0.04010
# Poissons Ratio (z) = 0.00564 0.06711
#
# Static dielectric constant tensor:
#      x y z
#    x 1.788910 0.000000 -0.063490 
#    y 0.000000 1.746390 0.000000 
#    z -0.063490 0.000000 1.781960 
# 
# From -- ./inp_files/36528.got.cif
#   From: 2010.05.17/outbox.cif.g08.bks.cpg/sg5_19_cif.got.tgz:36528.got - 2010.06.03 18:56:24.
