data_PCOD9121336
_publ_section_title
;
Structure prediction by ZEFSAII (Michael W. Deem and Ramdas Pophale) SiO2 
 PCOD9121336
Probable space group: C 2
;
_chemical_formula_sum "Si O2"
_cell_formula_units_Z 30
_cell_length_a 20.999440
_cell_length_b 5.628308
_cell_length_c 10.921076
_cell_angle_alpha 90.000000
_cell_angle_beta 117.934159
_cell_angle_gamma 90.000000
_cell_volume 1140.383476
_symmetry_space_group_name_H-M "C 2"
_symmetry_group_IT_number 5
_symmetry_cell_setting 'monoclinic'
loop_
_space_group_symop_operation_xyz
x,y,z
-x,y,-z
1/2+x,1/2+y,z
1/2-x,1/2+y,-z
loop_
_atom_site_type_symbol
_atom_site_label
_atom_site_fract_x
_atom_site_fract_y
_atom_site_fract_z
Si Si1 0.424706 0.666480 0.027730
Si Si2 0.077778 0.665275 0.944998
Si Si3 0.429508 0.463047 0.570689
Si Si4 0.784986 0.152767 0.070222
Si Si5 0.923937 0.719182 0.320185
Si Si6 0.500000 0.837781 0.500000
Si Si7 0.672176 0.621369 0.302574
Si Si8 0.285707 0.126365 0.747641
O O1 0.463397 0.414469 0.078646
O O2 0.362191 0.670763 0.074345
O O3 0.463931 0.916818 0.082589
O O4 0.384284 0.648443 0.861149
O O5 0.113178 0.689361 0.841979
O O6 0.140102 0.644777 0.103871
O O7 0.404451 0.403099 0.409097
O O8 0.491207 0.261045 0.643192
O O9 0.479898 0.689975 0.600478
O O10 0.370216 0.532270 0.614972
O O11 0.774888 0.098723 0.204101
O O12 0.750868 0.416268 0.022074
O O13 0.928498 0.476679 0.397719
O O14 0.721224 0.388607 0.317843
O O15 0.708132 0.887069 0.330679
#
# Coordination Sequence:
#
# PCOD9121336 Si02
#       8
#     4   4   4   4   4   2   4   4
#     4  10  20  32  52  81 111 137 165 216 259 328
#     4  10  19  33  51  76 109 133 172 214 262 308
#     4   9  20  35  54  75  99 138 183 229 259 309
#     4  12  16  32  50  80 112 136 176 204 258 322
#     4   9  20  35  54  75  99 138 183 229 259 309
#     4   8  18  36  52  76  88 136 182 224 264 284
#     4  10  19  33  51  76 109 133 172 214 262 308
#     4  10  20  32  52  81 111 137 165 216 259 328
#
# _framework density 26.306943
#
# number of rings (size 3 to 8) (size 9 to 14) (size 15 to 20)
#    0.000    2.400    5.333    0.000    7.467    0.000 
#    0.000    2.667    0.000    0.000    0.000    5.600 
#    0.000    0.000    0.000    0.000    0.000    0.000 
#
# Total GULP energy -83620.618636 kJ/mol
# GULP energy per Si atom -5574.707909 kJ/mol
# Density = 2.624707 g / cm^3
# Si number density = 26.306943 Si / 1000 Ang^3
#
#
#
# Elastic Constant Matrix: (Units=GPa)
#
#
# Indices 1 2 3 4 5 6 
#
# 1 104.1235 25.1087 29.6025 0.0000 -46.3071 0.0000
# 2 25.1087 218.0578 38.1010 0.0000 -6.8317 0.0000
# 3 29.6025 38.1010 78.0862 0.0000 -29.7168 0.0000
# 4 0.0000 0.0000 0.0000 -1.3916 0.0000 12.7935
# 5 -46.3071 -6.8317 -29.7168 0.0000 54.6376 0.0000
# 6 0.0000 0.0000 0.0000 12.7935 0.0000 -29.7955
#
#
#
# Elastic Compliance Matrix: (Units=1/GPa)
#
#
# Indices 1 2 3 4 5 6 
#
# 1 0.015841 -0.001349 -0.000381 0.000000 0.013050 0.000000
# 2 -0.001349 0.005163 -0.002770 0.000000 -0.002004 0.000000
# 3 -0.000381 -0.002770 0.017715 0.000000 0.008965 0.000000
# 4 0.000000 0.000000 0.000000 0.243804 0.000000 0.104684
# 5 0.013050 -0.002004 0.008965 0.000000 0.033988 0.000000
# 6 0.000000 0.000000 0.000000 0.104684 0.000000 0.011387
#
#
# Mechanical properties :
#
#
# Convention : Reuss Voigt Hill
#
# Bulk Modulus (GPa) = 33.64941 65.09909 49.37425
# Shear Modulus (GPa) = 14.41738 25.18712 19.80225
#
# Velocity S-wave (km/s) = 2.34358 3.09760 2.74658
# Velocity P-wave (km/s) = 4.48798 6.13133 5.37286
#
# Compressibility (1/GPa) = 0.02971820
#
# Stress axis : x y z
#
# Youngs Moduli (GPa) = 63.12586 193.70373 56.45085
#
# Poissons Ratio (x) = 0.26124 0.02151
# Poissons Ratio (y) = 0.08514 0.15640
# Poissons Ratio (z) = 0.02405 0.53665
#
# Static dielectric constant tensor:
#      x y z
#    x 2.063820 0.000000 0.036560 
#    y 0.000000 2.184510 0.000000 
#    z 0.036560 0.000000 2.117030 
# 
# From -- ./inp_files/47719.got.cif
#   From: 2010.05.17/outbox.cif.g08.bks.cpg/sg5_24_cif.got.tgz:47719.got - 2010.06.03 18:56:24.
