data_PCOD9121607
_publ_section_title
;
Structure prediction by ZEFSAII (Michael W. Deem and Ramdas Pophale) SiO2 
 PCOD9121607
Probable space group: C 2
;
_chemical_formula_sum "Si O2"
_cell_formula_units_Z 22
_cell_length_a 13.076839
_cell_length_b 7.555508
_cell_length_c 11.377744
_cell_angle_alpha 90.000000
_cell_angle_beta 51.324087
_cell_angle_gamma 90.000000
_cell_volume 877.612893
_symmetry_space_group_name_H-M "C 2"
_symmetry_group_IT_number 5
_symmetry_cell_setting 'monoclinic'
loop_
_space_group_symop_operation_xyz
x,y,z
-x,y,-z
1/2+x,1/2+y,z
1/2-x,1/2+y,-z
loop_
_atom_site_type_symbol
_atom_site_label
_atom_site_fract_x
_atom_site_fract_y
_atom_site_fract_z
Si Si1 0.849247 0.610490 0.076887
Si Si2 0.608556 0.475349 0.029240
Si Si3 0.284843 0.813853 0.610908
Si Si4 0.500000 0.116316 0.500000
Si Si5 0.609292 0.619734 0.686676
Si Si6 0.227258 0.751591 0.209655
O O1 0.764723 0.703334 0.241889
O O2 0.776174 0.426544 0.108600
O O3 0.866387 0.768289 0.970475
O O4 0.000000 0.564760 0.000000
O O5 0.542908 0.602804 0.172604
O O6 0.500000 0.477577 0.000000
O O7 0.732642 0.572958 0.885848
O O8 0.350779 0.690564 0.467550
O O9 0.385751 0.978016 0.549177
O O10 0.156604 0.916948 0.660099
O O11 0.575335 0.240859 0.353677
O O12 0.684770 0.737289 0.731897
#
# Coordination Sequence:
#
# PCOD9121607 Si02
#       6
#     4   4   4   2   4   4
#     4  11  18  34  63  93 117 164 210 258 312 366
#     4   9  16  35  56  88 123 158 206 261 300 366
#     4  11  21  36  63  93 133 164 205 265 318 369
#     4  10  22  40  56  90 140 168 202 252 320 400
#     4  10  19  35  57  95 130 154 214 275 300 355
#     4  10  20  35  60  90 124 170 206 248 320 381
#
# _framework density 25.067996999999998
#
# number of rings (size 3 to 8) (size 9 to 14) (size 15 to 20)
#    0.000    1.818    7.273    2.727    0.000    0.727 
#    0.000    0.000    0.000   15.273    0.000    0.000 
#    0.000    0.000    0.000    0.000    0.000    0.000 
#
# Total GULP energy -61481.619073 kJ/mol
# GULP energy per Si atom -5589.238098 kJ/mol
# Density = 2.501094 g / cm^3
# Si number density = 25.067997 Si / 1000 Ang^3
#
#
#
# Elastic Constant Matrix: (Units=GPa)
#
#
# Indices 1 2 3 4 5 6 
#
# 1 62.2055 19.0936 18.4211 0.0000 -9.7382 0.0000
# 2 19.0936 116.1350 29.0533 0.0000 -4.8400 0.0000
# 3 18.4211 29.0533 152.5877 0.0000 -20.8287 0.0000
# 4 0.0000 0.0000 0.0000 63.8418 0.0000 -3.7848
# 5 -9.7382 -4.8400 -20.8287 0.0000 30.5682 0.0000
# 6 0.0000 0.0000 0.0000 -3.7848 0.0000 40.3893
#
#
#
# Elastic Compliance Matrix: (Units=1/GPa)
#
#
# Indices 1 2 3 4 5 6 
#
# 1 0.017868 -0.002482 -0.001060 0.000000 0.004577 0.000000
# 2 -0.002482 0.009388 -0.001536 0.000000 -0.000351 0.000000
# 3 -0.001060 -0.001536 0.007602 0.000000 0.004599 0.000000
# 4 0.000000 0.000000 0.000000 0.015751 0.000000 0.001476
# 5 0.004577 -0.000351 0.004599 0.000000 0.037250 0.000000
# 6 0.000000 0.000000 0.000000 0.001476 0.000000 0.024897
#
#
# Mechanical properties :
#
#
# Convention : Reuss Voigt Hill
#
# Bulk Modulus (GPa) = 40.48052 51.56269 46.02161
# Shear Modulus (GPa) = 38.12555 44.58387 41.35471
#
# Velocity S-wave (km/s) = 3.90408 4.22182 4.06606
# Velocity P-wave (km/s) = 6.04201 6.66174 6.35943
#
# Compressibility (1/GPa) = 0.02470324
#
# Stress axis : x y z
#
# Youngs Moduli (GPa) = 55.96633 106.51556 131.54876
#
# Poissons Ratio (x) = 0.26435 0.13941
# Poissons Ratio (y) = 0.13890 0.20204
# Poissons Ratio (z) = 0.05931 0.16359
#
# Static dielectric constant tensor:
#      x y z
#    x 2.155590 0.000000 0.018520 
#    y 0.000000 1.933810 0.000000 
#    z 0.018520 0.000000 2.138960 
# 
# From -- ./inp_files/55555.got.cif
#   From: 2010.05.17/outbox.cif.g08.bks.cpg/sg5_28_cif.got.tgz:55555.got - 2010.06.03 18:56:24.
