data_PCOD9121127
_publ_section_title
;
Structure prediction by ZEFSAII (Michael W. Deem and Ramdas Pophale) SiO2 
 PCOD9121127
Probable space group: C 2
;
_chemical_formula_sum "Si O2"
_cell_formula_units_Z 26
_cell_length_a 5.049736
_cell_length_b 19.622884
_cell_length_c 13.687720
_cell_angle_alpha 90.000000
_cell_angle_beta 113.707476
_cell_angle_gamma 90.000000
_cell_volume 1241.861651
_symmetry_space_group_name_H-M "C 2"
_symmetry_group_IT_number 5
_symmetry_cell_setting 'monoclinic'
loop_
_space_group_symop_operation_xyz
x,y,z
-x,y,-z
1/2+x,1/2+y,z
1/2-x,1/2+y,-z
loop_
_atom_site_type_symbol
_atom_site_label
_atom_site_fract_x
_atom_site_fract_y
_atom_site_fract_z
Si Si1 0.514391 0.461060 0.604051
Si Si2 0.500000 0.852941 0.500000
Si Si3 0.645856 0.446343 0.115246
Si Si4 0.744830 0.027423 0.182268
Si Si5 0.339583 0.766944 0.873150
Si Si6 0.160107 0.677993 0.125380
Si Si7 0.006675 0.354478 0.711577
O O1 0.500000 0.500565 0.500000
O O2 0.527739 0.508450 0.698919
O O3 0.809984 0.419096 0.655084
O O4 0.270298 0.403269 0.560124
O O5 0.492907 0.814826 0.604945
O O6 0.420722 0.504849 0.112770
O O7 0.696576 0.388889 0.205671
O O8 0.954073 0.481858 0.141284
O O9 0.500000 0.411764 0.000000
O O10 0.667797 0.106157 0.179794
O O11 0.525042 0.703695 0.858437
O O12 0.371981 0.819497 0.788170
O O13 0.020750 0.738242 0.849117
O O14 0.500000 0.787657 0.000000
O O15 0.000000 0.664802 0.000000
#
# Coordination Sequence:
#
# PCOD9121127 Si02
#       7
#     4   2   4   4   4   4   4
#     4   9  20  36  60  88 117 154 197 252 313 370
#     4  10  18  40  60  88 120 158 206 248 318 378
#     4  11  22  34  57  94 128 153 191 250 314 375
#     4  11  21  38  60  89 122 161 199 246 307 373
#     4  10  23  39  59  87 122 164 207 249 297 363
#     4  10  21  38  59  84 120 166 206 242 295 363
#     4  10  22  36  61  89 122 163 202 250 310 371
#
# _framework density 20.936309000000001
#
# number of rings (size 3 to 8) (size 9 to 14) (size 15 to 20)
#    0.000    1.846    1.538    2.308    2.154    5.538 
#    0.000    0.000    1.692    0.000    0.000    0.000 
#    0.000    0.000    0.000    0.000    0.000    0.000 
#
# Total GULP energy -72440.792323 kJ/mol
# GULP energy per Si atom -5572.368640 kJ/mol
# Density = 2.088866 g / cm^3
# Si number density = 20.936309 Si / 1000 Ang^3
#
#
#
# Elastic Constant Matrix: (Units=GPa)
#
#
# Indices 1 2 3 4 5 6 
#
# 1 76.1408 0.4513 17.1905 0.0000 -1.0532 0.0000
# 2 0.4513 56.3201 36.6241 0.0000 -4.7247 0.0000
# 3 17.1905 36.6241 154.5310 0.0000 -21.5219 0.0000
# 4 0.0000 0.0000 0.0000 16.8526 0.0000 -2.8806
# 5 -1.0532 -4.7247 -21.5219 0.0000 28.5719 0.0000
# 6 0.0000 0.0000 0.0000 -2.8806 0.0000 25.9498
#
#
#
# Elastic Compliance Matrix: (Units=1/GPa)
#
#
# Indices 1 2 3 4 5 6 
#
# 1 0.013536 0.001035 -0.001852 0.000000 -0.000725 0.000000
# 2 0.001035 0.021072 -0.005160 0.000000 -0.000364 0.000000
# 3 -0.001852 -0.005160 0.008683 0.000000 0.005619 0.000000
# 4 0.000000 0.000000 0.000000 0.060486 0.000000 0.006714
# 5 -0.000725 -0.000364 0.005619 0.000000 0.039145 0.000000
# 6 0.000000 0.000000 0.000000 0.006714 0.000000 0.039281
#
#
# Mechanical properties :
#
#
# Convention : Reuss Voigt Hill
#
# Bulk Modulus (GPa) = 31.91159 43.94705 37.92932
# Shear Modulus (GPa) = 24.43773 29.78995 27.11384
#
# Velocity S-wave (km/s) = 3.42020 3.77621 3.60260
# Velocity P-wave (km/s) = 5.55629 6.32846 5.95490
#
# Compressibility (1/GPa) = 0.03133658
#
# Stress axis : x y z
#
# Youngs Moduli (GPa) = 73.87961 47.45566 115.17179
#
# Poissons Ratio (x) = -0.04912 0.21330
# Poissons Ratio (y) = -0.07647 0.59429
# Poissons Ratio (z) = 0.13683 0.24487
#
# Static dielectric constant tensor:
#      x y z
#    x 1.824190 0.000000 -0.075220 
#    y 0.000000 1.749980 0.000000 
#    z -0.075220 0.000000 1.765180 
# 
# From -- ./inp_files/33740.got.cif
#   From: 2010.05.17/outbox.cif.g08.bks.cpg/sg5_17_cif.got.tgz:33740.got - 2010.06.03 18:56:24.
