data_PCOD9121811
_publ_section_title
;
Structure prediction by ZEFSAII (Michael W. Deem and Ramdas Pophale) SiO2 
 PCOD9121811
Probable space group: C 2
;
_chemical_formula_sum "Si O2"
_cell_formula_units_Z 24
_cell_length_a 11.900684
_cell_length_b 8.266725
_cell_length_c 11.574022
_cell_angle_alpha 90.000000
_cell_angle_beta 118.660680
_cell_angle_gamma 90.000000
_cell_volume 999.136272
_symmetry_space_group_name_H-M "C 2"
_symmetry_group_IT_number 5
_symmetry_cell_setting 'monoclinic'
loop_
_space_group_symop_operation_xyz
x,y,z
-x,y,-z
1/2+x,1/2+y,z
1/2-x,1/2+y,-z
loop_
_atom_site_type_symbol
_atom_site_label
_atom_site_fract_x
_atom_site_fract_y
_atom_site_fract_z
Si Si1 0.754929 0.856260 0.141461
Si Si2 0.918299 0.627336 0.060899
Si Si3 0.109512 0.122443 0.650712
Si Si4 0.772069 0.633172 0.345539
Si Si5 0.508781 0.942684 0.686000
Si Si6 0.760329 0.833535 0.555010
O O1 0.824829 0.751441 0.078388
O O2 0.700248 0.734438 0.211486
O O3 0.855289 0.962429 0.264612
O O4 0.659011 0.982237 0.037627
O O5 0.001607 0.540286 0.201149
O O6 0.000000 0.708041 0.000000
O O7 0.071071 0.264349 0.720956
O O8 0.226439 0.199689 0.634044
O O9 0.000000 0.100322 0.500000
O O10 0.891520 0.546571 0.341819
O O11 0.818986 0.749637 0.472224
O O12 0.682939 0.492853 0.357333
O O13 0.374496 0.905696 0.559347
#
# Coordination Sequence:
#
# PCOD9121811 Si02
#       6
#     4   4   4   4   4   4
#     4  11  23  41  62  91 126 165 214 265 309 367
#     4  11  24  43  66  88 122 169 215 262 312 366
#     4   9  19  37  61  90 128 161 197 257 317 372
#     4  10  20  34  58  88 120 157 197 244 303 366
#     4   9  20  39  60  87 124 160 199 254 308 362
#     4  10  19  36  61  92 124 160 197 242 313 379
#
# _framework density 24.020748999999999
#
# number of rings (size 3 to 8) (size 9 to 14) (size 15 to 20)
#    0.000    2.000    0.000    4.500    0.000    2.667 
#    0.000   16.667    0.000    0.000    0.000    0.000 
#    0.000    0.000    0.000    0.000    0.000    0.000 
#
# Total GULP energy -67162.661786 kJ/mol
# GULP energy per Si atom -5596.888482 kJ/mol
# Density = 2.396608 g / cm^3
# Si number density = 24.020749 Si / 1000 Ang^3
#
#
#
# Elastic Constant Matrix: (Units=GPa)
#
#
# Indices 1 2 3 4 5 6 
#
# 1 47.3612 35.4563 27.5927 0.0000 -18.5466 0.0000
# 2 35.4563 115.6671 40.7548 0.0000 -16.5133 0.0000
# 3 27.5927 40.7548 82.7335 0.0000 -23.1849 0.0000
# 4 0.0000 0.0000 0.0000 45.8151 0.0000 -8.7032
# 5 -18.5466 -16.5133 -23.1849 0.0000 44.2717 0.0000
# 6 0.0000 0.0000 0.0000 -8.7032 0.0000 32.0146
#
#
#
# Elastic Compliance Matrix: (Units=1/GPa)
#
#
# Indices 1 2 3 4 5 6 
#
# 1 0.032600 -0.007010 -0.005069 0.000000 0.008388 0.000000
# 2 -0.007010 0.012044 -0.003703 0.000000 -0.000383 0.000000
# 3 -0.005069 -0.003703 0.017134 0.000000 0.005468 0.000000
# 4 0.000000 0.000000 0.000000 0.023015 0.000000 0.006257
# 5 0.008388 -0.000383 0.005468 0.000000 0.028823 0.000000
# 6 0.000000 0.000000 0.000000 0.006257 0.000000 0.032937
#
#
# Mechanical properties :
#
#
# Convention : Reuss Voigt Hill
#
# Bulk Modulus (GPa) = 33.09541 50.37437 41.73489
# Shear Modulus (GPa) = 26.56941 33.88414 30.22677
#
# Velocity S-wave (km/s) = 3.32942 3.75990 3.55119
# Velocity P-wave (km/s) = 5.34676 6.31394 5.85037
#
# Compressibility (1/GPa) = 0.03021567
#
# Stress axis : x y z
#
# Youngs Moduli (GPa) = 30.67506 83.02837 58.36393
#
# Poissons Ratio (x) = 0.58199 0.29584
# Poissons Ratio (y) = 0.21502 0.21609
# Poissons Ratio (z) = 0.15549 0.30741
#
# Static dielectric constant tensor:
#      x y z
#    x 1.946080 0.000000 -0.016330 
#    y 0.000000 1.979610 0.000000 
#    z -0.016330 0.000000 1.923340 
# 
# From -- ./inp_files/41329.got.cif
#   From: 2010.05.17/outbox.cif.g08.bks.cpg/sg5_21_cif.got.tgz:41329.got - 2010.06.03 18:56:24.
