data_PCOD9121799
_publ_section_title
;
Structure prediction by ZEFSAII (Michael W. Deem and Ramdas Pophale) SiO2 
 PCOD9121799
Probable space group: C 2
;
_chemical_formula_sum "Si O2"
_cell_formula_units_Z 28
_cell_length_a 13.845432
_cell_length_b 12.473313
_cell_length_c 14.424903
_cell_angle_alpha 90.000000
_cell_angle_beta 139.404609
_cell_angle_gamma 90.000000
_cell_volume 1621.029088
_symmetry_space_group_name_H-M "C 2"
_symmetry_group_IT_number 5
_symmetry_cell_setting 'monoclinic'
loop_
_space_group_symop_operation_xyz
x,y,z
-x,y,-z
1/2+x,1/2+y,z
1/2-x,1/2+y,-z
loop_
_atom_site_type_symbol
_atom_site_label
_atom_site_fract_x
_atom_site_fract_y
_atom_site_fract_z
Si Si1 0.241792 0.916730 0.647411
Si Si2 0.590909 0.826705 0.471672
Si Si3 0.605200 0.278399 0.385125
Si Si4 0.496869 0.649330 0.255653
Si Si5 0.808899 0.554491 0.529911
Si Si6 0.659367 0.434648 0.799746
Si Si7 0.453551 0.813847 0.069150
O O1 0.168032 0.826858 0.527927
O O2 0.168141 0.930471 0.693721
O O3 0.409880 0.880968 0.789291
O O4 0.244345 0.020526 0.583544
O O5 0.500000 0.823462 0.500000
O O6 0.763339 0.789459 0.594540
O O7 0.514014 0.743920 0.344330
O O8 0.610612 0.949354 0.451033
O O9 0.579412 0.153275 0.380385
O O10 0.466559 0.351169 0.260450
O O11 0.662742 0.596524 0.368082
O O12 0.389000 0.553369 0.206706
O O13 0.438688 0.709836 0.122378
O O14 0.811949 0.390554 0.953649
O O15 0.500000 0.779516 0.000000
#
# Coordination Sequence:
#
# PCOD9121799 Si02
#       7
#     4   4   4   4   4   4   4
#     4  10  19  38  60  91 116 154 204 244 295 348
#     4  10  21  35  58  90 121 154 190 248 310 342
#     4  10  20  35  57  92 118 150 202 249 284 351
#     4  11  21  40  60  89 123 155 196 250 300 352
#     4  10  19  36  61  86 126 146 199 255 288 352
#     4  11  23  35  65  88 117 159 202 243 296 355
#     4  10  22  42  59  84 125 163 198 240 296 361
#
# _framework density 17.272977000000001
#
# number of rings (size 3 to 8) (size 9 to 14) (size 15 to 20)
#    0.000    1.714    7.143    0.429    4.000    2.286 
#    0.000    0.000    0.000    0.000    0.000    0.000 
#    0.000    0.000    0.000    0.000    0.000    0.000 
#
# Total GULP energy -78002.936221 kJ/mol
# GULP energy per Si atom -5571.638302 kJ/mol
# Density = 1.723366 g / cm^3
# Si number density = 17.272977 Si / 1000 Ang^3
#
#
#
# Elastic Constant Matrix: (Units=GPa)
#
#
# Indices 1 2 3 4 5 6 
#
# 1 92.9664 49.4302 34.8521 0.0000 3.3570 0.0000
# 2 49.4302 152.6878 32.5927 0.0000 -0.0983 0.0000
# 3 34.8521 32.5927 50.4749 0.0000 1.7412 0.0000
# 4 0.0000 0.0000 0.0000 27.1695 0.0000 -1.0161
# 5 3.3570 -0.0983 1.7412 0.0000 17.0177 0.0000
# 6 0.0000 0.0000 0.0000 -1.0161 0.0000 14.2526
#
#
#
# Elastic Compliance Matrix: (Units=1/GPa)
#
#
# Indices 1 2 3 4 5 6 
#
# 1 0.015860 -0.003265 -0.008765 0.000000 -0.002251 0.000000
# 2 -0.003265 0.008274 -0.003123 0.000000 0.001011 0.000000
# 3 -0.008765 -0.003123 0.027920 0.000000 -0.001146 0.000000
# 4 0.000000 0.000000 0.000000 0.036904 0.000000 0.002631
# 5 -0.002251 0.001011 -0.001146 0.000000 0.059329 0.000000
# 6 0.000000 0.000000 0.000000 0.002631 0.000000 0.070350
#
#
# Mechanical properties :
#
#
# Convention : Reuss Voigt Hill
#
# Bulk Modulus (GPa) = 45.98215 58.87547 52.42881
# Shear Modulus (GPa) = 19.51661 23.63824 21.57742
#
# Velocity S-wave (km/s) = 3.36503 3.70335 3.53824
# Velocity P-wave (km/s) = 6.46348 7.24194 6.86376
#
# Compressibility (1/GPa) = 0.02174757
#
# Stress axis : x y z
#
# Youngs Moduli (GPa) = 63.05316 120.86769 35.81650
#
# Poissons Ratio (x) = 0.39460 0.31393
# Poissons Ratio (y) = 0.20585 0.11186
# Poissons Ratio (z) = 0.55267 0.37747
#
# Static dielectric constant tensor:
#      x y z
#    x 1.604610 0.000000 0.002370 
#    y 0.000000 1.597560 0.000000 
#    z 0.002370 0.000000 1.593630 
# 
# From -- ./inp_files/54453.got.cif
#   From: 2010.05.17/outbox.cif.g08.bks.cpg/sg5_28_cif.got.tgz:54453.got - 2010.06.03 18:56:24.
