data_PCOD9121063
_publ_section_title
;
Structure prediction by ZEFSAII (Michael W. Deem and Ramdas Pophale) SiO2 
 PCOD9121063
Probable space group: C 2
;
_chemical_formula_sum "Si O2"
_cell_formula_units_Z 32
_cell_length_a 21.110588
_cell_length_b 9.005985
_cell_length_c 27.437175
_cell_angle_alpha 90.000000
_cell_angle_beta 17.437545
_cell_angle_gamma 90.000000
_cell_volume 1563.178062
_symmetry_space_group_name_H-M "C 2"
_symmetry_group_IT_number 5
_symmetry_cell_setting 'monoclinic'
loop_
_space_group_symop_operation_xyz
x,y,z
-x,y,-z
1/2+x,1/2+y,z
1/2-x,1/2+y,-z
loop_
_atom_site_type_symbol
_atom_site_label
_atom_site_fract_x
_atom_site_fract_y
_atom_site_fract_z
Si Si1 0.927980 0.709730 0.103898
Si Si2 0.261834 0.516417 0.673716
Si Si3 0.654501 0.097043 0.161957
Si Si4 0.728960 0.533928 0.817077
Si Si5 0.468708 0.715028 0.174177
Si Si6 0.576165 0.019556 0.493686
Si Si7 0.141592 0.771011 0.687112
Si Si8 0.730940 0.304253 0.966612
O O1 0.782052 0.607758 0.244456
O O2 0.822618 0.867102 0.165167
O O3 0.000000 0.639183 0.000000
O O4 0.127444 0.744478 0.992864
O O5 0.500000 0.457919 0.500000
O O6 0.093800 0.384481 0.791114
O O7 0.232900 0.631805 0.650343
O O8 0.645869 0.050957 0.224276
O O9 0.483263 0.214155 0.268498
O O10 0.634167 0.947684 0.145542
O O11 0.889741 0.152839 0.973970
O O12 0.880385 0.597446 0.664200
O O13 0.500000 0.597495 0.000000
O O14 0.255048 0.631077 0.344357
O O15 0.621633 0.700716 0.109081
O O16 0.500000 0.940210 0.500000
O O17 0.681933 0.895243 0.450130
O O18 0.967053 0.839079 0.852623
#
# Coordination Sequence:
#
# PCOD9121063 Si02
#       8
#     4   4   4   4   4   4   4   4
#     4  10  20  38  67  88 119 167 218 252 313 385
#     4  11  22  38  56  92 125 159 203 264 317 368
#     4  11  20  40  64  93 130 163 213 267 318 379
#     4  11  22  39  65  96 121 169 217 264 317 381
#     4  11  24  39  66  93 129 165 212 268 321 376
#     4  12  23  42  66  94 125 172 223 259 314 394
#     4  10  21  36  66  92 121 164 215 263 304 380
#     4  10  18  38  65  92 121 163 215 255 311 377
#
# _framework density 20.471115999999999
#
# number of rings (size 3 to 8) (size 9 to 14) (size 15 to 20)
#    0.000    1.250    5.000    3.750    0.000    0.000 
#    2.250    3.125    0.000    0.000    0.000    0.000 
#    0.000    0.000    0.000    0.000    0.000    0.000 
#
# Total GULP energy -89283.134033 kJ/mol
# GULP energy per Si atom -5580.195877 kJ/mol
# Density = 2.042452 g / cm^3
# Si number density = 20.471116 Si / 1000 Ang^3
#
#
#
# Elastic Constant Matrix: (Units=GPa)
#
#
# Indices 1 2 3 4 5 6 
#
# 1 140.0163 24.3835 43.8267 -0.0052 6.6631 0.0022
# 2 24.3835 43.5366 13.0570 -0.0335 4.2357 -0.0043
# 3 43.8267 13.0570 96.8629 0.0345 1.1707 -0.0043
# 4 -0.0052 -0.0335 0.0345 28.0917 0.0217 -7.5119
# 5 6.6631 4.2357 1.1707 0.0217 17.8229 -0.0010
# 6 0.0022 -0.0043 -0.0043 -7.5119 -0.0010 26.1612
#
#
#
# Elastic Compliance Matrix: (Units=1/GPa)
#
#
# Indices 1 2 3 4 5 6 
#
# 1 0.009014 -0.003768 -0.003544 0.000003 -0.002242 -0.000001
# 2 -0.003768 0.026059 -0.001752 0.000040 -0.004669 0.000016
# 3 -0.003544 -0.001752 0.012152 -0.000019 0.000943 -0.000004
# 4 0.000003 0.000040 -0.000019 0.038558 -0.000056 0.011072
# 5 -0.002242 -0.004669 0.000943 -0.000056 0.057994 -0.000014
# 6 -0.000001 0.000016 -0.000004 0.011072 -0.000014 0.041404
#
#
# Mechanical properties :
#
#
# Convention : Reuss Voigt Hill
#
# Bulk Modulus (GPa) = 34.36501 49.21671 41.79086
# Shear Modulus (GPa) = 23.47356 27.69174 25.58265
#
# Velocity S-wave (km/s) = 3.38992 3.68193 3.53894
# Velocity P-wave (km/s) = 5.66971 6.49382 6.09571
#
# Compressibility (1/GPa) = 0.02909936
#
# Stress axis : x y z
#
# Youngs Moduli (GPa) = 110.93865 38.37451 82.29166
#
# Poissons Ratio (x) = 0.14458 0.29160
# Poissons Ratio (y) = 0.41798 0.14414
# Poissons Ratio (z) = 0.39311 0.06722
#
# Static dielectric constant tensor:
#      x y z
#    x 1.729540 0.000020 -0.031880 
#    y 0.000020 1.737750 0.000040 
#    z -0.031880 0.000040 1.756440 
# 
# From -- ./inp_files/71084.got.cif
#   From: 2010.05.17/outbox.cif.g08.bks.cpg/sg5_36_cif.got.tgz:71084.got - 2010.06.03 18:56:24.
