data_PCOD9121751
_publ_section_title
;
Structure prediction by ZEFSAII (Michael W. Deem and Ramdas Pophale) SiO2 
 PCOD9121751
Probable space group: C 2
;
_chemical_formula_sum "Si O2"
_cell_formula_units_Z 24
_cell_length_a 17.490446
_cell_length_b 8.935555
_cell_length_c 8.550534
_cell_angle_alpha 90.000000
_cell_angle_beta 56.528276
_cell_angle_gamma 90.000000
_cell_volume 1114.715472
_symmetry_space_group_name_H-M "C 2"
_symmetry_group_IT_number 5
_symmetry_cell_setting 'monoclinic'
loop_
_space_group_symop_operation_xyz
x,y,z
-x,y,-z
1/2+x,1/2+y,z
1/2-x,1/2+y,-z
loop_
_atom_site_type_symbol
_atom_site_label
_atom_site_fract_x
_atom_site_fract_y
_atom_site_fract_z
Si Si1 0.646359 0.362500 0.940630
Si Si2 0.114813 0.212175 0.463941
Si Si3 0.261521 0.795619 0.122577
Si Si4 0.190063 0.581258 0.723183
Si Si5 0.313656 0.019164 0.619269
Si Si6 0.562186 0.617800 0.191819
O O1 0.629904 0.199265 0.888865
O O2 0.709124 0.454988 0.747111
O O3 0.713562 0.345292 0.015564
O O4 0.563279 0.461316 0.098810
O O5 0.213353 0.165949 0.415053
O O6 0.123036 0.382528 0.392509
O O7 0.093581 0.107846 0.338274
O O8 0.036941 0.191630 0.680879
O O9 0.194147 0.673467 0.278012
O O10 0.285013 0.935121 0.205703
O O11 0.357736 0.715196 0.976028
O O12 0.153975 0.543494 0.593676
#
# Coordination Sequence:
#
# PCOD9121751 Si02
#       6
#     4   4   4   4   4   4
#     4  10  19  36  58  90 113 158 209 236 296 364
#     4  10  20  38  59  89 118 152 202 253 308 341
#     4  11  18  35  61  88 116 156 203 246 289 368
#     4  11  20  36  60  87 125 156 196 245 301 371
#     4  10  21  35  58  90 120 160 197 240 303 369
#     4  10  20  36  62  88 114 149 204 262 293 346
#
# _framework density 21.530159999999999
#
# number of rings (size 3 to 8) (size 9 to 14) (size 15 to 20)
#    0.000    1.667    5.000    3.000    0.000    0.000 
#    0.000    9.167    0.000    4.000    0.000    0.000 
#    0.000    0.000    0.000    0.000    0.000    0.000 
#
# Total GULP energy -66953.104724 kJ/mol
# GULP energy per Si atom -5579.425394 kJ/mol
# Density = 2.148116 g / cm^3
# Si number density = 21.530160 Si / 1000 Ang^3
#
#
#
# Elastic Constant Matrix: (Units=GPa)
#
#
# Indices 1 2 3 4 5 6 
#
# 1 13.5266 2.5843 14.2962 0.0000 0.8770 0.0000
# 2 2.5843 117.7678 66.7904 0.0000 -1.0833 0.0000
# 3 14.2962 66.7904 117.5932 0.0000 0.4631 0.0000
# 4 0.0000 0.0000 0.0000 48.3001 0.0000 3.4796
# 5 0.8770 -1.0833 0.4631 0.0000 33.9172 0.0000
# 6 0.0000 0.0000 0.0000 3.4796 0.0000 14.8003
#
#
#
# Elastic Compliance Matrix: (Units=1/GPa)
#
#
# Indices 1 2 3 4 5 6 
#
# 1 0.087803 0.006056 -0.014107 0.000000 -0.001884 0.000000
# 2 0.006056 0.012952 -0.008094 0.000000 0.000368 0.000000
# 3 -0.014107 -0.008094 0.014817 0.000000 -0.000096 0.000000
# 4 0.000000 0.000000 0.000000 0.021061 0.000000 -0.004951
# 5 -0.001884 0.000368 -0.000096 0.000000 0.029545 0.000000
# 6 0.000000 0.000000 0.000000 -0.004951 0.000000 0.068731
#
#
# Mechanical properties :
#
#
# Convention : Reuss Voigt Hill
#
# Bulk Modulus (GPa) = 12.00737 46.24771 29.12754
# Shear Modulus (GPa) = 16.95150 30.41796 23.68473
#
# Velocity S-wave (km/s) = 2.80900 3.76281 3.32033
# Velocity P-wave (km/s) = 4.01369 6.35652 5.31578
#
# Compressibility (1/GPa) = 0.08328220
#
# Stress axis : x y z
#
# Youngs Moduli (GPa) = 11.38914 77.20572 67.49108
#
# Poissons Ratio (x) = -0.46760 0.95210
# Poissons Ratio (y) = -0.06898 0.54630
# Poissons Ratio (z) = 0.16067 0.62494
#
# Static dielectric constant tensor:
#      x y z
#    x 1.783630 0.000000 -0.003820 
#    y 0.000000 1.839240 0.000000 
#    z -0.003820 0.000000 1.780540 
# 
# From -- ./inp_files/26445.got.cif
#   From: 2010.05.17/outbox.cif.g08.bks.cpg/sg5_14_cif.got.tgz:26445.got - 2010.06.03 18:56:24.
