data_PCOD9121529
_publ_section_title
;
Structure prediction by ZEFSAII (Michael W. Deem and Ramdas Pophale) SiO2 
 PCOD9121529
Probable space group: C 2
;
_chemical_formula_sum "Si O2"
_cell_formula_units_Z 32
_cell_length_a 29.901716
_cell_length_b 5.675980
_cell_length_c 9.165078
_cell_angle_alpha 90.000000
_cell_angle_beta 91.854535
_cell_angle_gamma 90.000000
_cell_volume 1554.696410
_symmetry_space_group_name_H-M "C 2"
_symmetry_group_IT_number 5
_symmetry_cell_setting 'monoclinic'
loop_
_space_group_symop_operation_xyz
x,y,z
-x,y,-z
1/2+x,1/2+y,z
1/2-x,1/2+y,-z
loop_
_atom_site_type_symbol
_atom_site_label
_atom_site_fract_x
_atom_site_fract_y
_atom_site_fract_z
Si Si1 0.594614 0.884930 0.856654
Si Si2 0.257488 0.721499 0.588004
Si Si3 0.508225 0.190035 0.848945
Si Si4 0.465274 0.486956 0.601775
Si Si5 0.668152 0.164575 0.699365
Si Si6 0.353452 0.906277 0.590809
Si Si7 0.101842 0.036632 0.625065
Si Si8 0.925027 0.345651 0.822999
O O1 0.576603 0.684332 0.746108
O O2 0.558565 0.095931 0.847242
O O3 0.641829 0.978397 0.797314
O O4 0.595835 0.793997 0.021683
O O5 0.256659 0.467559 0.500211
O O6 0.221287 0.687302 0.713147
O O7 0.308103 0.780834 0.640769
O O8 0.494435 0.309013 0.697550
O O9 0.470927 0.984734 0.857072
O O10 0.500000 0.331967 0.000000
O O11 0.500000 0.627311 0.500000
O O12 0.429666 0.382058 0.482941
O O13 0.439467 0.630686 0.722644
O O14 0.641249 0.404956 0.712291
O O15 0.660820 0.105014 0.526122
O O16 0.377945 0.722402 0.486507
O O17 0.387410 0.978687 0.721886
#
# Coordination Sequence:
#
# PCOD9121529 Si02
#       8
#     4   4   4   4   4   4   4   4
#     4  10  22  37  58  82 120 161 201 244 307 376
#     4  10  19  35  64  97 128 162 212 268 326 376
#     4  10  22  38  55  80 113 158 201 245 304 375
#     4  11  22  33  55  83 112 147 199 247 297 353
#     4  10  19  34  60  85 117 153 201 252 305 368
#     4   9  19  35  57  88 116 153 200 258 306 364
#     4  10  19  35  56  84 112 149 196 249 302 356
#     4  10  22  39  57  81 121 157 200 246 308 370
#
# _framework density 20.582795000000001
#
# number of rings (size 3 to 8) (size 9 to 14) (size 15 to 20)
#    0.000    2.000    1.250    2.250    0.000    7.000 
#    0.000    0.000    2.750    0.000    0.000    0.000 
#    0.000    0.000    0.000    0.000    0.000    0.000 
#
# Total GULP energy -89091.360204 kJ/mol
# GULP energy per Si atom -5568.210013 kJ/mol
# Density = 2.053595 g / cm^3
# Si number density = 20.582795 Si / 1000 Ang^3
#
#
#
# Elastic Constant Matrix: (Units=GPa)
#
#
# Indices 1 2 3 4 5 6 
#
# 1 75.7635 -3.2451 43.7189 0.0000 -22.0665 0.0000
# 2 -3.2451 38.2901 13.3743 0.0000 -10.1276 0.0000
# 3 43.7189 13.3743 103.2400 0.0000 -24.6340 0.0000
# 4 0.0000 0.0000 0.0000 24.6016 0.0000 0.5402
# 5 -22.0665 -10.1276 -24.6340 0.0000 27.4857 0.0000
# 6 0.0000 0.0000 0.0000 0.5402 0.0000 22.7971
#
#
#
# Elastic Compliance Matrix: (Units=1/GPa)
#
#
# Indices 1 2 3 4 5 6 
#
# 1 0.021585 0.007950 -0.006788 0.000000 0.014174 0.000000
# 2 0.007950 0.032056 -0.004042 0.000000 0.014571 0.000000
# 3 -0.006788 -0.004042 0.014538 0.000000 0.006090 0.000000
# 4 0.000000 0.000000 0.000000 0.040669 0.000000 -0.000964
# 5 0.014174 0.014571 0.006090 0.000000 0.058589 0.000000
# 6 0.000000 0.000000 0.000000 -0.000964 0.000000 0.043888
#
#
# Mechanical properties :
#
#
# Convention : Reuss Voigt Hill
#
# Bulk Modulus (GPa) = 16.02142 36.10996 26.06569
# Shear Modulus (GPa) = 21.01790 25.87325 23.44557
#
# Velocity S-wave (km/s) = 3.19899 3.54931 3.37870
# Velocity P-wave (km/s) = 4.63093 5.86333 5.28319
#
# Compressibility (1/GPa) = 0.06241644
#
# Stress axis : x y z
#
# Youngs Moduli (GPa) = 46.32858 31.19533 68.78737
#
# Poissons Ratio (x) = -0.24799 0.46694
# Poissons Ratio (y) = -0.36829 0.27806
# Poissons Ratio (z) = 0.31449 0.12610
#
# Static dielectric constant tensor:
#      x y z
#    x 1.827540 0.000000 0.011040 
#    y 0.000000 1.791580 0.000000 
#    z 0.011040 0.000000 1.775550 
# 
# From -- ./inp_files/32288.got.cif
#   From: 2010.05.17/outbox.cif.g08.bks.cpg/sg5_17_cif.got.tgz:32288.got - 2010.06.03 18:56:24.
