data_PCOD9121815
_publ_section_title
;
Structure prediction by ZEFSAII (Michael W. Deem and Ramdas Pophale) SiO2 
 PCOD9121815
Probable space group: C 2
;
_chemical_formula_sum "Si O2"
_cell_formula_units_Z 26
_cell_length_a 8.522141
_cell_length_b 11.399183
_cell_length_c 16.517852
_cell_angle_alpha 90.000000
_cell_angle_beta 131.779949
_cell_angle_gamma 90.000000
_cell_volume 1196.590414
_symmetry_space_group_name_H-M "C 2"
_symmetry_group_IT_number 5
_symmetry_cell_setting 'monoclinic'
loop_
_space_group_symop_operation_xyz
x,y,z
-x,y,-z
1/2+x,1/2+y,z
1/2-x,1/2+y,-z
loop_
_atom_site_type_symbol
_atom_site_label
_atom_site_fract_x
_atom_site_fract_y
_atom_site_fract_z
Si Si1 0.462808 0.399980 0.860961
Si Si2 0.559639 0.568637 0.677831
Si Si3 0.965005 0.653245 0.898050
Si Si4 0.540457 0.318213 0.328318
Si Si5 0.858214 0.293123 0.026717
Si Si6 0.171633 0.147041 0.238076
Si Si7 0.000000 0.224493 0.500000
O O1 0.693805 0.399673 0.981936
O O2 0.490191 0.356458 0.776611
O O3 0.353159 0.525015 0.820397
O O4 0.359984 0.285131 0.866747
O O5 0.525679 0.433303 0.646181
O O6 0.407759 0.611187 0.699370
O O7 0.515747 0.646908 0.585606
O O8 0.801561 0.580914 0.790528
O O9 0.000000 0.607306 0.000000
O O10 0.197052 0.686974 0.947555
O O11 0.398864 0.206856 0.304652
O O12 0.785437 0.296984 0.426873
O O13 0.008920 0.242890 0.146892
O O14 0.000000 0.323548 0.000000
#
# Coordination Sequence:
#
# PCOD9121815 Si02
#       7
#     4   4   4   4   4   4   2
#     4   9  21  39  64  95 137 178 217 274 332 395
#     4  11  25  45  71 103 132 182 224 285 339 403
#     4  10  19  41  64 101 140 178 221 271 334 403
#     4  11  25  46  71  99 130 176 230 284 340 403
#     4  10  19  36  61  96 135 181 219 260 327 402
#     4  11  22  42  65 101 138 177 229 275 334 407
#     4  12  26  50  72  96 136 176 230 292 344 392
#
# _framework density 21.728401999999999
#
# number of rings (size 3 to 8) (size 9 to 14) (size 15 to 20)
#    0.923    0.615    4.615    0.000    0.000    6.154 
#    2.769    0.000    0.000    0.000    0.000    0.000 
#    0.000    0.000    0.000    0.000    0.000    0.000 
#
# Total GULP energy -72511.620347 kJ/mol
# GULP energy per Si atom -5577.816950 kJ/mol
# Density = 2.167895 g / cm^3
# Si number density = 21.728402 Si / 1000 Ang^3
#
#
#
# Elastic Constant Matrix: (Units=GPa)
#
#
# Indices 1 2 3 4 5 6 
#
# 1 46.3825 25.0328 23.0150 0.0000 22.9552 0.0000
# 2 25.0328 103.8240 33.2848 0.0000 20.2042 0.0000
# 3 23.0150 33.2848 98.9549 0.0000 16.9592 0.0000
# 4 0.0000 0.0000 0.0000 -46.3312 0.0000 9.0898
# 5 22.9552 20.2042 16.9592 0.0000 45.2199 0.0000
# 6 0.0000 0.0000 0.0000 9.0898 0.0000 25.5393
#
#
#
# Elastic Compliance Matrix: (Units=1/GPa)
#
#
# Indices 1 2 3 4 5 6 
#
# 1 0.032089 -0.003945 -0.003897 0.000000 -0.013065 0.000000
# 2 -0.003945 0.011893 -0.002688 0.000000 -0.002303 0.000000
# 3 -0.003897 -0.002688 0.012152 0.000000 -0.001378 0.000000
# 4 0.000000 0.000000 0.000000 -0.020175 0.000000 0.007181
# 5 -0.013065 -0.002303 -0.001378 0.000000 0.030292 0.000000
# 6 0.000000 0.000000 0.000000 0.007181 0.000000 0.036600
#
#
# Mechanical properties :
#
#
# Convention : Reuss Voigt Hill
#
# Bulk Modulus (GPa) = 28.51150 45.75852 37.13501
# Shear Modulus (GPa) = 36.87243 16.07421 26.47332
#
# Velocity S-wave (km/s) = 4.12390 2.72284 3.49431
# Velocity P-wave (km/s) = 5.98545 5.56688 5.77996
#
# Compressibility (1/GPa) = 0.03507357
#
# Stress axis : x y z
#
# Youngs Moduli (GPa) = 31.16345 84.08472 82.28826
#
# Poissons Ratio (x) = 0.33171 0.32069
# Poissons Ratio (y) = 0.12294 0.22120
# Poissons Ratio (z) = 0.12145 0.22603
#
# Static dielectric constant tensor:
#      x y z
#    x 1.880060 0.000000 -0.012010 
#    y 0.000000 1.841660 0.000000 
#    z -0.012010 0.000000 1.795380 
# 
# From -- ./inp_files/64340.got.cif
#   From: 2010.05.17/outbox.cif.g08.bks.cpg/sg5_33_cif.got.tgz:64340.got - 2010.06.03 18:56:24.
