data_PCOD9121342
_publ_section_title
;
Structure prediction by ZEFSAII (Michael W. Deem and Ramdas Pophale) SiO2 
 PCOD9121342
Probable space group: C 2
;
_chemical_formula_sum "Si O2"
_cell_formula_units_Z 26
_cell_length_a 13.561642
_cell_length_b 12.310476
_cell_length_c 11.355764
_cell_angle_alpha 90.000000
_cell_angle_beta 49.112549
_cell_angle_gamma 90.000000
_cell_volume 1433.255007
_symmetry_space_group_name_H-M "C 2"
_symmetry_group_IT_number 5
_symmetry_cell_setting 'monoclinic'
loop_
_space_group_symop_operation_xyz
x,y,z
-x,y,-z
1/2+x,1/2+y,z
1/2-x,1/2+y,-z
loop_
_atom_site_type_symbol
_atom_site_label
_atom_site_fract_x
_atom_site_fract_y
_atom_site_fract_z
Si Si1 0.668694 0.192840 0.122093
Si Si2 0.933966 0.921233 0.729644
Si Si3 0.367589 0.515738 0.037988
Si Si4 0.569702 0.097933 0.827748
Si Si5 0.835270 0.013810 0.561460
Si Si6 0.000000 0.209038 0.500000
Si Si7 0.257164 0.285365 0.186707
O O1 0.616374 0.298589 0.229487
O O2 0.765359 0.113638 0.114537
O O3 0.543794 0.127301 0.173025
O O4 0.737219 0.238171 0.949979
O O5 0.865829 0.980445 0.672691
O O6 0.088618 0.931518 0.582657
O O7 0.898325 0.979113 0.879561
O O8 0.310643 0.407248 0.143433
O O9 0.500000 0.546814 0.000000
O O10 0.681254 0.027189 0.678447
O O11 0.645967 0.206474 0.814439
O O12 0.500000 0.050775 0.000000
O O13 0.912613 0.128257 0.486449
O O14 0.890122 0.276190 0.652947
#
# Coordination Sequence:
#
# PCOD9121342 Si02
#       7
#     4   4   4   4   4   2   4
#     4  10  19  33  52  77 107 136 171 213 260 314
#     4   9  18  35  55  76 102 138 175 210 260 306
#     4  11  21  35  53  76 107 142 171 207 263 315
#     4   9  16  31  55  81 101 131 179 220 249 294
#     4   9  17  33  59  79 101 134 175 221 256 296
#     4   8  14  28  52  82 100 124 174 216 244 286
#     4   9  17  32  56  78 103 136 175 218 252 296
#
# _framework density 18.140526999999999
#
# number of rings (size 3 to 8) (size 9 to 14) (size 15 to 20)
#    0.000    2.769    0.000    6.000    0.000    0.000 
#    0.000   13.077    0.000    1.846    0.000    0.000 
#    0.000    0.000    0.000    0.000    0.000    0.000 
#
# Total GULP energy -72450.484095 kJ/mol
# GULP energy per Si atom -5573.114161 kJ/mol
# Density = 1.809924 g / cm^3
# Si number density = 18.140527 Si / 1000 Ang^3
#
#
#
# Elastic Constant Matrix: (Units=GPa)
#
#
# Indices 1 2 3 4 5 6 
#
# 1 71.4333 36.9311 38.5657 0.0000 -25.3768 0.0000
# 2 36.9311 76.5770 41.0354 0.0000 -15.3316 0.0000
# 3 38.5657 41.0354 108.6830 0.0000 -38.5345 0.0000
# 4 0.0000 0.0000 0.0000 24.8907 0.0000 -9.7975
# 5 -25.3768 -15.3316 -38.5345 0.0000 32.9551 0.0000
# 6 0.0000 0.0000 0.0000 -9.7975 0.0000 9.5447
#
#
#
# Elastic Compliance Matrix: (Units=1/GPa)
#
#
# Indices 1 2 3 4 5 6 
#
# 1 0.023366 -0.008380 -0.000222 0.000000 0.013835 0.000000
# 2 -0.008380 0.019385 -0.005869 0.000000 -0.004298 0.000000
# 3 -0.000222 -0.005869 0.017880 0.000000 0.018005 0.000000
# 4 0.000000 0.000000 0.000000 0.067414 0.000000 0.069199
# 5 0.013835 -0.004298 0.018005 0.000000 0.060052 0.000000
# 6 0.000000 0.000000 0.000000 0.069199 0.000000 0.175801
#
#
# Mechanical properties :
#
#
# Convention : Reuss Voigt Hill
#
# Bulk Modulus (GPa) = 31.55755 54.41751 42.98753
# Shear Modulus (GPa) = 12.39454 22.82216 17.60835
#
# Velocity S-wave (km/s) = 2.61674 3.55078 3.11893
# Velocity P-wave (km/s) = 5.15400 6.84643 6.05959
#
# Compressibility (1/GPa) = 0.03168814
#
# Stress axis : x y z
#
# Youngs Moduli (GPa) = 42.79667 51.58627 55.92856
#
# Poissons Ratio (x) = 0.43230 0.01243
# Poissons Ratio (y) = 0.35864 0.32826
# Poissons Ratio (z) = 0.00951 0.30277
#
# Static dielectric constant tensor:
#      x y z
#    x 1.616250 0.000000 -0.007890 
#    y 0.000000 1.644580 0.000000 
#    z -0.007890 0.000000 1.652630 
# 
# From -- ./inp_files/42189.got.cif
#   From: 2010.05.17/outbox.cif.g08.bks.cpg/sg5_22_cif.got.tgz:42189.got - 2010.06.03 18:56:24.
