data_PCOD9121991
_publ_section_title
;
Structure prediction by ZEFSAII (Michael W. Deem and Ramdas Pophale) SiO2 
 PCOD9121991
Probable space group: C 2
;
_chemical_formula_sum "Si O2"
_cell_formula_units_Z 26
_cell_length_a 12.433467
_cell_length_b 18.354563
_cell_length_c 10.464404
_cell_angle_alpha 90.000000
_cell_angle_beta 34.715524
_cell_angle_gamma 90.000000
_cell_volume 1360.022971
_symmetry_space_group_name_H-M "C 2"
_symmetry_group_IT_number 5
_symmetry_cell_setting 'monoclinic'
loop_
_space_group_symop_operation_xyz
x,y,z
-x,y,-z
1/2+x,1/2+y,z
1/2-x,1/2+y,-z
loop_
_atom_site_type_symbol
_atom_site_label
_atom_site_fract_x
_atom_site_fract_y
_atom_site_fract_z
Si Si1 0.783421 0.426790 0.880193
Si Si2 0.000000 0.571137 0.000000
Si Si3 0.221521 0.055532 0.492201
Si Si4 0.200257 0.079829 0.087162
Si Si5 0.503561 0.292702 0.145882
Si Si6 0.774536 0.419464 0.593447
Si Si7 0.518868 0.162995 0.333500
O O1 0.742961 0.443937 0.770611
O O2 0.008095 0.416829 0.658412
O O3 0.736888 0.494267 0.018940
O O4 0.671307 0.351195 0.009586
O O5 0.852764 0.535574 0.242972
O O6 0.845055 0.606294 0.056380
O O7 0.354588 0.105899 0.451425
O O8 0.018046 0.091449 0.664729
O O9 0.176233 0.980680 0.606243
O O10 0.279740 0.123417 0.887686
O O11 0.316369 0.341437 0.338009
O O12 0.505189 0.230329 0.249597
O O13 0.500000 0.267290 0.000000
O O14 0.500000 0.182521 0.500000
#
# Coordination Sequence:
#
# PCOD9121991 Si02
#       7
#     4   2   4   4   4   4   4
#     4  10  19  37  64  93 119 162 218 267 309 373
#     4  10  22  38  56 100 132 154 214 268 338 374
#     4  11  22  39  66  93 125 169 219 271 322 386
#     4  11  22  39  66  93 125 169 219 271 322 386
#     4  10  23  41  63  88 132 176 216 261 326 386
#     4  10  19  37  64  93 119 162 218 267 309 373
#     4  11  25  42  62  99 136 167 209 278 329 386
#
# _framework density 19.117325000000001
#
# number of rings (size 3 to 8) (size 9 to 14) (size 15 to 20)
#    0.000    1.538    4.615    1.385    4.308    3.077 
#    2.769    0.000    0.000    0.000    0.000    0.000 
#    0.000    0.000    0.000    0.000    0.000    0.000 
#
# Total GULP energy -72400.092986 kJ/mol
# GULP energy per Si atom -5569.237922 kJ/mol
# Density = 1.907381 g / cm^3
# Si number density = 19.117325 Si / 1000 Ang^3
#
#
#
# Elastic Constant Matrix: (Units=GPa)
#
#
# Indices 1 2 3 4 5 6 
#
# 1 75.0820 32.9401 54.9717 -0.0063 0.8326 0.0046
# 2 32.9401 77.4619 37.3335 -0.0068 22.1281 0.0048
# 3 54.9717 37.3335 96.2674 -0.0075 -7.3090 0.0064
# 4 -0.0063 -0.0068 -0.0075 13.4144 0.0064 0.1957
# 5 0.8326 22.1281 -7.3090 0.0064 43.1234 -0.0048
# 6 0.0046 0.0048 0.0064 0.1957 -0.0048 22.9123
#
#
#
# Elastic Compliance Matrix: (Units=1/GPa)
#
#
# Indices 1 2 3 4 5 6 
#
# 1 0.024072 -0.004325 -0.012091 0.000003 -0.000295 -0.000001
# 2 -0.004325 0.021462 -0.006770 0.000011 -0.012077 -0.000004
# 3 -0.012091 -0.006770 0.020463 -0.000001 0.007176 0.000000
# 4 0.000003 0.000011 -0.000001 0.074556 -0.000017 -0.000637
# 5 -0.000295 -0.012077 0.007176 -0.000017 0.030608 0.000007
# 6 -0.000001 -0.000004 0.000000 -0.000637 0.000007 0.043650
#
#
# Mechanical properties :
#
#
# Convention : Reuss Voigt Hill
#
# Bulk Modulus (GPa) = 50.95875 55.47799 53.21837
# Shear Modulus (GPa) = 18.67596 24.12775 21.40186
#
# Velocity S-wave (km/s) = 3.12895 3.55644 3.34952
# Velocity P-wave (km/s) = 6.30614 6.77843 6.54655
#
# Compressibility (1/GPa) = 0.01962371
#
# Stress axis : x y z
#
# Youngs Moduli (GPa) = 41.54215 46.59492 48.86985
#
# Poissons Ratio (x) = 0.20151 0.59089
# Poissons Ratio (y) = 0.17966 0.33087
# Poissons Ratio (z) = 0.50229 0.31546
#
# Static dielectric constant tensor:
#      x y z
#    x 1.699210 0.000000 -0.000930 
#    y 0.000000 1.668660 0.000000 
#    z -0.000930 0.000000 1.697130 
# 
# From -- ./inp_files/21877.got.cif
#   From: 2010.05.17/outbox.cif.g08.bks.cpg/sg5_11_cif.got.tgz:21877.got - 2010.06.03 18:56:24.
