data_PCOD9121136
_publ_section_title
;
Structure prediction by ZEFSAII (Michael W. Deem and Ramdas Pophale) SiO2 
 PCOD9121136
Probable space group: C 2
;
_chemical_formula_sum "Si O2"
_cell_formula_units_Z 28
_cell_length_a 18.582212
_cell_length_b 9.345870
_cell_length_c 18.034248
_cell_angle_alpha 90.000000
_cell_angle_beta 23.640253
_cell_angle_gamma 90.000000
_cell_volume 1255.890207
_symmetry_space_group_name_H-M "C 2"
_symmetry_group_IT_number 5
_symmetry_cell_setting 'monoclinic'
loop_
_space_group_symop_operation_xyz
x,y,z
-x,y,-z
1/2+x,1/2+y,z
1/2-x,1/2+y,-z
loop_
_atom_site_type_symbol
_atom_site_label
_atom_site_fract_x
_atom_site_fract_y
_atom_site_fract_z
Si Si1 0.905076 0.802700 0.959834
Si Si2 0.000000 0.689518 0.500000
Si Si3 0.837917 0.878513 0.419444
Si Si4 0.171103 0.110377 0.969620
Si Si5 0.500000 0.110560 0.000000
Si Si6 0.607344 0.588943 0.200798
Si Si7 0.274394 0.877531 0.150193
Si Si8 0.101685 0.594303 0.553905
O O1 0.011010 0.822368 0.782379
O O2 0.012547 0.704452 0.915038
O O3 0.708190 0.728770 0.137093
O O4 0.884541 0.960344 0.011929
O O5 0.115982 0.794480 0.339781
O O6 0.112073 0.597160 0.454202
O O7 0.806135 0.738973 0.499999
O O8 0.683387 0.953877 0.516289
O O9 0.915679 0.011811 0.395415
O O10 0.099914 0.246363 0.992117
O O11 0.388219 0.106383 0.771320
O O12 0.105250 0.114050 0.115573
O O13 0.662861 0.001524 0.855400
O O14 0.731656 0.459438 0.113849
#
# Coordination Sequence:
#
# PCOD9121136 Si02
#       8
#     4   2   4   4   2   4   4   4
#     4  10  22  38  61  93 127 165 215 276 326 381
#     4  10  22  44  60  92 134 178 204 260 340 412
#     4  11  23  41  63  99 126 170 227 274 318 388
#     4  10  19  38  64  86 124 167 214 266 321 389
#     4  10  24  40  60  92 126 162 226 276 322 386
#     4  10  18  40  63  89 124 161 218 270 316 374
#     4  10  21  40  63  89 125 175 211 261 331 395
#     4  11  24  41  64  98 134 171 224 268 334 391
#
# _framework density 22.294941999999999
#
# number of rings (size 3 to 8) (size 9 to 14) (size 15 to 20)
#    0.000    1.714    4.286    0.857    2.000    6.286 
#    0.000    0.000    0.000    0.857    0.000    0.000 
#    0.000    0.000    0.000    0.000    0.000    0.000 
#
# Total GULP energy -77951.427748 kJ/mol
# GULP energy per Si atom -5567.959125 kJ/mol
# Density = 2.224420 g / cm^3
# Si number density = 22.294942 Si / 1000 Ang^3
#
#
#
# Elastic Constant Matrix: (Units=GPa)
#
#
# Indices 1 2 3 4 5 6 
#
# 1 105.0411 61.9833 3.9244 0.0001 -3.3152 0.0000
# 2 61.9833 99.5160 -6.9564 0.0003 -2.6426 -0.0001
# 3 3.9244 -6.9564 18.2891 0.0001 -1.0581 0.0000
# 4 0.0001 0.0003 0.0001 25.9878 0.0000 -10.8052
# 5 -3.3152 -2.6426 -1.0581 0.0000 22.8235 0.0000
# 6 0.0000 -0.0001 0.0000 -10.8052 0.0000 45.2042
#
#
#
# Elastic Compliance Matrix: (Units=1/GPa)
#
#
# Indices 1 2 3 4 5 6 
#
# 1 0.015987 -0.010451 -0.007361 0.000000 0.000771 0.000000
# 2 -0.010451 0.017199 0.008836 0.000000 0.000883 0.000000
# 3 -0.007361 0.008836 0.059775 0.000000 0.002725 0.000000
# 4 0.000000 0.000000 0.000000 0.042726 0.000000 0.010213
# 5 0.000771 0.000883 0.002725 0.000000 0.044155 0.000000
# 6 0.000000 0.000000 0.000000 0.010213 0.000000 0.024563
#
#
# Mechanical properties :
#
#
# Convention : Reuss Voigt Hill
#
# Bulk Modulus (GPa) = 13.33196 37.86098 25.59647
# Shear Modulus (GPa) = 20.21338 29.72944 24.97141
#
# Velocity S-wave (km/s) = 3.01430 3.65562 3.35034
# Velocity P-wave (km/s) = 4.25529 5.90227 5.14511
#
# Compressibility (1/GPa) = 0.07500774
#
# Stress axis : x y z
#
# Youngs Moduli (GPa) = 62.55249 58.14200 16.72932
#
# Poissons Ratio (x) = 0.60766 0.12314
# Poissons Ratio (y) = 0.65375 -0.14781
# Poissons Ratio (z) = 0.46045 -0.51372
#
# Static dielectric constant tensor:
#      x y z
#    x 1.903280 0.000000 -0.047790 
#    y 0.000000 1.829510 0.000000 
#    z -0.047790 0.000000 1.887660 
# 
# From -- ./inp_files/32541.got.cif
#   From: 2010.05.17/outbox.cif.g08.bks.cpg/sg5_17_cif.got.tgz:32541.got - 2010.06.03 18:56:24.
