data_PCOD9121753
_publ_section_title
;
Structure prediction by ZEFSAII (Michael W. Deem and Ramdas Pophale) SiO2 
 PCOD9121753
Probable space group: C 2
;
_chemical_formula_sum "Si O2"
_cell_formula_units_Z 28
_cell_length_a 30.266110
_cell_length_b 8.196723
_cell_length_c 9.779300
_cell_angle_alpha 90.000000
_cell_angle_beta 144.918603
_cell_angle_gamma 90.000000
_cell_volume 1394.362653
_symmetry_space_group_name_H-M "C 2"
_symmetry_group_IT_number 5
_symmetry_cell_setting 'monoclinic'
loop_
_space_group_symop_operation_xyz
x,y,z
-x,y,-z
1/2+x,1/2+y,z
1/2-x,1/2+y,-z
loop_
_atom_site_type_symbol
_atom_site_label
_atom_site_fract_x
_atom_site_fract_y
_atom_site_fract_z
Si Si1 0.897345 0.768620 0.974517
Si Si2 0.275254 0.827903 0.947466
Si Si3 0.674909 0.203668 0.932614
Si Si4 0.979005 0.013405 0.804715
Si Si5 0.363750 0.217063 0.586040
Si Si6 0.951789 0.569516 0.580285
Si Si7 0.565454 0.706455 0.566522
O O1 0.841360 0.778396 0.961171
O O2 0.964440 0.641183 0.183638
O O3 0.859976 0.704894 0.739215
O O4 0.943058 0.935913 0.059625
O O5 0.232980 0.805483 0.986244
O O6 0.216882 0.762559 0.686008
O O7 0.352731 0.721971 0.153018
O O8 0.295045 0.017679 0.976202
O O9 0.596277 0.184427 0.645416
O O10 0.935033 0.109591 0.576210
O O11 0.924463 0.863170 0.710241
O O12 0.000000 0.103039 0.000000
O O13 0.402620 0.071658 0.596891
O O14 0.956098 0.391384 0.528441
O O15 0.500000 0.637964 0.500000
#
# Coordination Sequence:
#
# PCOD9121753 Si02
#       7
#     4   4   4   4   4   4   4
#     4  10  19  36  59  84 106 144 189 220 264 327
#     4  10  21  38  55  81 113 145 180 223 278 323
#     4  10  20  35  58  80 111 146 182 227 269 325
#     4   9  20  36  56  82 112 143 180 225 274 320
#     4   9  19  37  59  80 111 147 180 221 270 329
#     4   9  18  34  56  83 112 143 181 223 269 318
#     4  11  22  36  56  82 110 142 184 231 270 320
#
# _framework density 20.080859
#
# number of rings (size 3 to 8) (size 9 to 14) (size 15 to 20)
#    0.000    2.286    0.000    4.286    0.000    5.714 
#    0.000    8.571    0.000    0.000    0.000    0.000 
#    0.000    0.000    0.000    0.000    0.000    0.000 
#
# Total GULP energy -78186.904434 kJ/mol
# GULP energy per Si atom -5584.778888 kJ/mol
# Density = 2.003515 g / cm^3
# Si number density = 20.080859 Si / 1000 Ang^3
#
#
#
# Elastic Constant Matrix: (Units=GPa)
#
#
# Indices 1 2 3 4 5 6 
#
# 1 117.4821 8.3820 46.9597 0.0000 -12.6719 0.0000
# 2 8.3820 16.2324 -0.6644 0.0000 1.4834 0.0000
# 3 46.9597 -0.6644 97.8539 0.0000 1.4513 0.0000
# 4 0.0000 0.0000 0.0000 19.0355 0.0000 -0.2714
# 5 -12.6719 1.4834 1.4513 0.0000 24.6409 0.0000
# 6 0.0000 0.0000 0.0000 -0.2714 0.0000 18.6381
#
#
#
# Elastic Compliance Matrix: (Units=1/GPa)
#
#
# Indices 1 2 3 4 5 6 
#
# 1 0.012183 -0.007181 -0.006000 0.000000 0.007051 0.000000
# 2 -0.007181 0.066201 0.004013 0.000000 -0.007914 0.000000
# 3 -0.006000 0.004013 0.013187 0.000000 -0.004104 0.000000
# 4 0.000000 0.000000 0.000000 0.052544 0.000000 0.000765
# 5 0.007051 -0.007914 -0.004104 0.000000 0.044927 0.000000
# 6 0.000000 0.000000 0.000000 0.000765 0.000000 0.053665
#
#
# Mechanical properties :
#
#
# Convention : Reuss Voigt Hill
#
# Bulk Modulus (GPa) = 13.65470 37.88033 25.76751
# Shear Modulus (GPa) = 17.51593 24.25563 20.88578
#
# Velocity S-wave (km/s) = 2.95663 3.47925 3.22853
# Velocity P-wave (km/s) = 4.29769 5.91989 5.17278
#
# Compressibility (1/GPa) = 0.07323486
#
# Stress axis : x y z
#
# Youngs Moduli (GPa) = 82.08085 15.10554 75.83347
#
# Poissons Ratio (x) = 0.10847 0.45500
# Poissons Ratio (y) = 0.58942 -0.30432
# Poissons Ratio (z) = 0.49248 -0.06062
#
# Static dielectric constant tensor:
#      x y z
#    x 1.742800 0.000000 -0.008860 
#    y 0.000000 1.710920 0.000000 
#    z -0.008860 0.000000 1.708910 
# 
# From -- ./inp_files/31616.got.cif
#   From: 2010.05.17/outbox.cif.g08.bks.cpg/sg5_16_cif.got.tgz:31616.got - 2010.06.03 18:56:24.
