data_PCOD9121402
_publ_section_title
;
Structure prediction by ZEFSAII (Michael W. Deem and Ramdas Pophale) SiO2 
 PCOD9121402
Probable space group: C 2
;
_chemical_formula_sum "Si O2"
_cell_formula_units_Z 26
_cell_length_a 9.234803
_cell_length_b 24.942101
_cell_length_c 10.323263
_cell_angle_alpha 90.000000
_cell_angle_beta 39.237416
_cell_angle_gamma 90.000000
_cell_volume 1504.050371
_symmetry_space_group_name_H-M "C 2"
_symmetry_group_IT_number 5
_symmetry_cell_setting 'monoclinic'
loop_
_space_group_symop_operation_xyz
x,y,z
-x,y,-z
1/2+x,1/2+y,z
1/2-x,1/2+y,-z
loop_
_atom_site_type_symbol
_atom_site_label
_atom_site_fract_x
_atom_site_fract_y
_atom_site_fract_z
Si Si1 0.491012 0.298570 0.163175
Si Si2 0.233915 0.898573 0.914666
Si Si3 0.280849 0.589514 0.555115
Si Si4 0.565024 0.179520 0.106983
Si Si5 0.068280 0.505721 0.101374
Si Si6 0.944439 0.096300 0.887393
Si Si7 0.500000 0.842137 0.500000
O O1 0.564979 0.240199 0.159378
O O2 0.226781 0.309121 0.383011
O O3 0.500000 0.295017 0.000000
O O4 0.651610 0.351004 0.070329
O O5 0.408152 0.875792 0.685831
O O6 0.348393 0.949452 0.900743
O O7 0.000000 0.914162 0.000000
O O8 0.500000 0.591460 0.500000
O O9 0.352120 0.592415 0.356230
O O10 0.119367 0.640118 0.699638
O O11 0.140900 0.535108 0.680638
O O12 0.500000 0.180022 0.000000
O O13 0.808314 0.151242 0.955577
O O14 0.274416 0.548002 0.969286
O O15 0.000000 0.499962 0.000000
O O16 0.000000 0.092512 0.000000
#
# Coordination Sequence:
#
# PCOD9121402 Si02
#       7
#     4   4   4   4   4   4   2
#     4   8  17  31  53  82 110 139 185 227 277 321
#     4   9  19  35  54  79 111 142 184 231 278 322
#     4  11  20  36  58  83 110 144 188 227 277 331
#     4  10  19  33  58  85 110 143 188 231 273 334
#     4  11  22  37  56  80 109 145 192 229 274 336
#     4  11  23  38  55  82 116 146 181 231 283 330
#     4   8  16  32  52  82 106 140 186 230 266 338
#
# _framework density 17.286656000000001
#
# number of rings (size 3 to 8) (size 9 to 14) (size 15 to 20)
#    0.000    2.462    3.077    1.385    1.077    7.385 
#    0.000    0.769    0.000    1.846    0.000    0.000 
#    0.000    0.000    0.000    0.000    0.000    0.000 
#
# Total GULP energy -72420.061646 kJ/mol
# GULP energy per Si atom -5570.773973 kJ/mol
# Density = 1.724731 g / cm^3
# Si number density = 17.286656 Si / 1000 Ang^3
#
#
#
# Elastic Constant Matrix: (Units=GPa)
#
#
# Indices 1 2 3 4 5 6 
#
# 1 67.3326 51.6294 39.5070 0.0000 10.0943 0.0000
# 2 51.6294 164.1246 56.5595 0.0000 -9.9796 0.0000
# 3 39.5070 56.5595 135.7636 0.0000 -4.3168 0.0000
# 4 0.0000 0.0000 0.0000 6.7663 0.0000 -1.7568
# 5 10.0943 -9.9796 -4.3168 0.0000 23.8726 0.0000
# 6 0.0000 0.0000 0.0000 -1.7568 0.0000 27.1983
#
#
#
# Elastic Compliance Matrix: (Units=1/GPa)
#
#
# Indices 1 2 3 4 5 6 
#
# 1 0.025433 -0.007216 -0.004860 0.000000 -0.014650 0.000000
# 2 -0.007216 0.009308 -0.001566 0.000000 0.006659 0.000000
# 3 -0.004860 -0.001566 0.009532 0.000000 0.003124 0.000000
# 4 0.000000 0.000000 0.000000 0.150311 0.000000 0.009709
# 5 -0.014650 0.006659 0.003124 0.000000 0.051432 0.000000
# 6 0.000000 0.000000 0.000000 0.009709 0.000000 0.037394
#
#
# Mechanical properties :
#
#
# Convention : Reuss Voigt Hill
#
# Bulk Modulus (GPa) = 58.86823 73.62364 66.24594
# Shear Modulus (GPa) = 15.80489 26.20244 21.00366
#
# Velocity S-wave (km/s) = 3.02699 3.89750 3.48950
# Velocity P-wave (km/s) = 6.80771 7.93324 7.39193
#
# Compressibility (1/GPa) = 0.01698709
#
# Stress axis : x y z
#
# Youngs Moduli (GPa) = 39.31870 107.43952 104.91197
#
# Poissons Ratio (x) = 0.77533 0.50992
# Poissons Ratio (y) = 0.28374 0.16428
# Poissons Ratio (z) = 0.19111 0.16823
#
# Static dielectric constant tensor:
#      x y z
#    x 1.577820 0.000000 -0.014520 
#    y 0.000000 1.616540 0.000000 
#    z -0.014520 0.000000 1.578100 
# 
# From -- ./inp_files/3615.got.cif
#   From: 2010.05.17/outbox.cif.g08.bks.cpg/sg5_2_cif.got.tgz:3615.got - 2010.06.03 18:56:24.
