data_PCOD9121384
_publ_section_title
;
Structure prediction by ZEFSAII (Michael W. Deem and Ramdas Pophale) SiO2 
 PCOD9121384
Probable space group: C 2
;
_chemical_formula_sum "Si O2"
_cell_formula_units_Z 20
_cell_length_a 20.280828
_cell_length_b 7.537313
_cell_length_c 5.213135
_cell_angle_alpha 90.000000
_cell_angle_beta 99.346093
_cell_angle_gamma 90.000000
_cell_volume 786.316715
_symmetry_space_group_name_H-M "C 2"
_symmetry_group_IT_number 5
_symmetry_cell_setting 'monoclinic'
loop_
_space_group_symop_operation_xyz
x,y,z
-x,y,-z
1/2+x,1/2+y,z
1/2-x,1/2+y,-z
loop_
_atom_site_type_symbol
_atom_site_label
_atom_site_fract_x
_atom_site_fract_y
_atom_site_fract_z
Si Si1 0.457940 0.179460 0.727257
Si Si2 0.458411 0.609313 0.727974
Si Si3 0.682645 0.049428 0.222673
Si Si4 0.184392 0.073973 0.402107
Si Si5 0.703891 0.355352 0.890306
O O1 0.500000 0.144861 0.500000
O O2 0.450379 0.394080 0.750111
O O3 0.386919 0.081460 0.686470
O O4 0.500000 0.120049 0.000000
O O5 0.500000 0.646401 0.500000
O O6 0.383517 0.684945 0.664145
O O7 0.500000 0.670718 0.000000
O O8 0.718305 0.867914 0.149884
O O9 0.743446 0.131221 0.435901
O O10 0.679331 0.165738 0.961951
O O11 0.165145 0.942676 0.631253
O O12 0.195180 0.972568 0.141717
#
# Coordination Sequence:
#
# PCOD9121384 Si02
#       5
#     4   4   4   4   4
#     4  10  22  33  57  88 124 157 198 261 308 353
#     4  10  19  33  55  86 123 153 194 256 311 349
#     4  10  24  38  63  94 128 159 214 246 319 366
#     4  10  22  35  59  87 127 162 198 256 301 371
#     4  10  23  35  62  88 128 159 208 253 303 365
#
# _framework density 25.435044999999999
#
# number of rings (size 3 to 8) (size 9 to 14) (size 15 to 20)
#    1.200    0.800    2.000    1.200   11.200    0.000 
#    0.000    0.000    0.000    0.000   10.400    1.400 
#    0.000    0.000    0.000    0.000    0.000    0.000 
#
# Total GULP energy -55880.087353 kJ/mol
# GULP energy per Si atom -5588.008735 kJ/mol
# Density = 2.537715 g / cm^3
# Si number density = 25.435045 Si / 1000 Ang^3
#
#
#
# Elastic Constant Matrix: (Units=GPa)
#
#
# Indices 1 2 3 4 5 6 
#
# 1 211.3146 3.8868 84.4815 0.0000 -10.1894 0.0000
# 2 3.8868 50.5425 5.4629 0.0000 -6.3891 0.0000
# 3 84.4815 5.4629 176.4045 0.0000 7.8942 0.0000
# 4 0.0000 0.0000 0.0000 -3.0509 0.0000 -13.9810
# 5 -10.1894 -6.3891 7.8942 0.0000 57.3160 0.0000
# 6 0.0000 0.0000 0.0000 -13.9810 0.0000 20.2299
#
#
#
# Elastic Compliance Matrix: (Units=1/GPa)
#
#
# Indices 1 2 3 4 5 6 
#
# 1 0.005973 0.000043 -0.002927 0.000000 0.001470 0.000000
# 2 0.000043 0.020161 -0.000750 0.000000 0.002358 0.000000
# 3 -0.002927 -0.000750 0.007165 0.000000 -0.001591 0.000000
# 4 0.000000 0.000000 0.000000 -0.078658 0.000000 -0.054361
# 5 0.001470 0.002358 -0.001591 0.000000 0.018190 0.000000
# 6 0.000000 0.000000 0.000000 -0.054361 0.000000 0.011863
#
#
# Mechanical properties :
#
#
# Convention : Reuss Voigt Hill
#
# Bulk Modulus (GPa) = 38.41842 69.54709 53.98276
# Shear Modulus (GPa) = 7803.76501 37.86104 3920.81302
#
# Velocity S-wave (km/s) = 55.45066 3.86234 39.30454
# Velocity P-wave (km/s) = 64.14701 6.87696 45.61870
#
# Compressibility (1/GPa) = 0.02602918
#
# Stress axis : x y z
#
# Youngs Moduli (GPa) = 167.42714 49.60007 139.56293
#
# Poissons Ratio (x) = -0.00213 0.40857
# Poissons Ratio (y) = -0.00718 0.10473
# Poissons Ratio (z) = 0.49014 0.03722
#
# Static dielectric constant tensor:
#      x y z
#    x 2.367300 0.000000 0.193670 
#    y 0.000000 2.141100 0.000000 
#    z 0.193670 0.000000 2.061450 
# 
# From -- ./inp_files/6534.got.cif
#   From: 2010.05.17/outbox.cif.g08.bks.cpg/sg5_4_cif.got.tgz:6534.got - 2010.06.03 18:56:24.
