data_PCOD9121674
_publ_section_title
;
Structure prediction by ZEFSAII (Michael W. Deem and Ramdas Pophale) SiO2 
 PCOD9121674
Probable space group: C 2
;
_chemical_formula_sum "Si O2"
_cell_formula_units_Z 24
_cell_length_a 8.065668
_cell_length_b 17.652462
_cell_length_c 8.593683
_cell_angle_alpha 90.000000
_cell_angle_beta 123.309297
_cell_angle_gamma 90.000000
_cell_volume 1022.550699
_symmetry_space_group_name_H-M "C 2"
_symmetry_group_IT_number 5
_symmetry_cell_setting 'monoclinic'
loop_
_space_group_symop_operation_xyz
x,y,z
-x,y,-z
1/2+x,1/2+y,z
1/2-x,1/2+y,-z
loop_
_atom_site_type_symbol
_atom_site_label
_atom_site_fract_x
_atom_site_fract_y
_atom_site_fract_z
Si Si1 0.225606 0.872860 0.128218
Si Si2 0.757811 0.439111 0.470575
Si Si3 0.176131 0.211444 0.701866
Si Si4 0.707879 0.092700 0.040436
Si Si5 0.557524 0.102738 0.369450
Si Si6 0.719156 0.425742 0.792624
O O1 0.322955 0.913855 0.329201
O O2 0.225144 0.785262 0.175474
O O3 0.294643 0.882523 0.985300
O O4 0.000000 0.903157 0.000000
O O5 0.820202 0.526449 0.528142
O O6 0.805673 0.403819 0.667274
O O7 0.520091 0.423941 0.341105
O O8 0.306286 0.160763 0.652714
O O9 0.000000 0.237979 0.500000
O O10 0.129820 0.152874 0.819812
O O11 0.645043 0.082713 0.829842
O O12 0.500000 0.124808 0.000000
O O13 0.735983 0.013457 0.141705
O O14 0.500000 0.140580 0.500000
#
# Coordination Sequence:
#
# PCOD9121674 Si02
#       6
#     4   4   4   4   4   4
#     4  10  22  39  61  90 126 165 206 256 315 374
#     4  10  20  37  63  93 123 159 206 258 308 376
#     4  11  23  43  62  85 127 170 206 262 314 369
#     4  10  19  35  62  88 120 162 201 255 308 366
#     4  11  22  38  64  95 124 162 209 259 315 376
#     4  10  19  37  63  92 122 165 204 253 313 371
#
# _framework density 23.470718000000002
#
# number of rings (size 3 to 8) (size 9 to 14) (size 15 to 20)
#    0.000    1.667    3.333    3.500    0.000    2.000 
#    9.000    2.500    0.000    0.000    0.000    0.000 
#    0.000    0.000    0.000    0.000    0.000    0.000 
#
# Total GULP energy -66873.365906 kJ/mol
# GULP energy per Si atom -5572.780492 kJ/mol
# Density = 2.341730 g / cm^3
# Si number density = 23.470718 Si / 1000 Ang^3
#
#
#
# Elastic Constant Matrix: (Units=GPa)
#
#
# Indices 1 2 3 4 5 6 
#
# 1 50.1526 -0.4015 47.9651 0.0000 -31.3979 0.0000
# 2 -0.4015 99.1501 51.3306 0.0000 -27.6030 0.0000
# 3 47.9651 51.3306 230.8008 0.0000 -30.1658 0.0000
# 4 0.0000 0.0000 0.0000 49.5343 0.0000 -2.8938
# 5 -31.3979 -27.6030 -30.1658 0.0000 47.8005 0.0000
# 6 0.0000 0.0000 0.0000 -2.8938 0.0000 12.0559
#
#
#
# Elastic Compliance Matrix: (Units=1/GPa)
#
#
# Indices 1 2 3 4 5 6 
#
# 1 0.052739 0.015623 -0.009513 0.000000 0.037660 0.000000
# 2 0.015623 0.017485 -0.004877 0.000000 0.017281 0.000000
# 3 -0.009513 -0.004877 0.006768 0.000000 -0.004794 0.000000
# 4 0.000000 0.000000 0.000000 0.020475 0.000000 0.004915
# 5 0.037660 0.017281 -0.004794 0.000000 0.052612 0.000000
# 6 0.000000 0.000000 0.000000 0.004915 0.000000 0.084126
#
#
# Mechanical properties :
#
#
# Convention : Reuss Voigt Hill
#
# Bulk Modulus (GPa) = 12.58522 64.21020 38.39771
# Shear Modulus (GPa) = 19.36306 40.62543 29.99424
#
# Velocity S-wave (km/s) = 2.87538 4.16492 3.57871
# Velocity P-wave (km/s) = 4.04938 7.10955 5.78546
#
# Compressibility (1/GPa) = 0.07945832
#
# Stress axis : x y z
#
# Youngs Moduli (GPa) = 18.96130 57.19297 147.76029
#
# Poissons Ratio (x) = -0.89351 1.40558
# Poissons Ratio (y) = -0.29623 0.72058
# Poissons Ratio (z) = 0.18037 0.27891
#
# Static dielectric constant tensor:
#      x y z
#    x 1.989970 0.000000 -0.001120 
#    y 0.000000 1.831470 0.000000 
#    z -0.001120 0.000000 2.112910 
# 
# From -- ./inp_files/21347.got.cif
#   From: 2010.05.17/outbox.cif.g08.bks.cpg/sg5_11_cif.got.tgz:21347.got - 2010.06.03 18:56:24.
