data_PCOD9121279
_publ_section_title
;
Structure prediction by ZEFSAII (Michael W. Deem and Ramdas Pophale) SiO2 
 PCOD9121279
Probable space group: C 2
;
_chemical_formula_sum "Si O2"
_cell_formula_units_Z 32
_cell_length_a 21.221023
_cell_length_b 5.559726
_cell_length_c 24.027324
_cell_angle_alpha 90.000000
_cell_angle_beta 142.396740
_cell_angle_gamma 90.000000
_cell_volume 1729.777995
_symmetry_space_group_name_H-M "C 2"
_symmetry_group_IT_number 5
_symmetry_cell_setting 'monoclinic'
loop_
_space_group_symop_operation_xyz
x,y,z
-x,y,-z
1/2+x,1/2+y,z
1/2-x,1/2+y,-z
loop_
_atom_site_type_symbol
_atom_site_label
_atom_site_fract_x
_atom_site_fract_y
_atom_site_fract_z
Si Si1 0.405418 0.908530 0.391481
Si Si2 0.189765 0.710035 0.949477
Si Si3 0.328304 0.388078 0.737841
Si Si4 0.634269 0.891876 0.225595
Si Si5 0.731836 0.208928 0.862128
Si Si6 0.577692 0.009086 0.972430
Si Si7 0.389375 0.395306 0.910877
Si Si8 0.345867 0.408991 0.300140
O O1 0.500000 0.904170 0.500000
O O2 0.295220 0.903743 0.346064
O O3 0.401605 0.658834 0.354080
O O4 0.404956 0.161846 0.357729
O O5 0.159021 0.660516 0.863749
O O6 0.105108 0.674927 0.938358
O O7 0.268717 0.484794 0.016248
O O8 0.368569 0.641250 0.744012
O O9 0.370814 0.373470 0.831965
O O10 0.361118 0.134832 0.735426
O O11 0.737819 0.897247 0.259682
O O12 0.534528 0.904799 0.116726
O O13 0.682439 0.393615 0.784448
O O14 0.782134 0.003007 0.859134
O O15 0.835680 0.306817 0.963788
O O16 0.593830 0.159825 0.039715
O O17 0.500000 0.527427 0.000000
#
# Coordination Sequence:
#
# PCOD9121279 Si02
#       8
#     4   4   4   4   4   4   4   4
#     4  10  19  34  51  73 103 134 161 199 261 326
#     4  10  22  37  47  65  94 143 183 217 243 276
#     4  10  20  32  45  74  99 128 162 202 250 295
#     4  10  19  32  45  70 100 125 164 206 244 287
#     4  11  22  33  48  67 106 136 179 213 247 292
#     4  11  22  31  49  68 101 140 182 208 241 298
#     4  12  20  29  50  73 100 140 170 206 250 292
#     4  10  21  32  51  74 102 130 164 211 258 302
#
# _framework density 18.499483999999999
#
# number of rings (size 3 to 8) (size 9 to 14) (size 15 to 20)
#    0.000    1.500    5.000    2.625    0.000    0.000 
#    0.000    0.000    0.000    0.000    0.000    0.000 
#    0.000   16.000    0.000    0.750    0.000    0.000 
#
# Total GULP energy -89104.094324 kJ/mol
# GULP energy per Si atom -5569.005895 kJ/mol
# Density = 1.845738 g / cm^3
# Si number density = 18.499484 Si / 1000 Ang^3
#
#
#
# Elastic Constant Matrix: (Units=GPa)
#
#
# Indices 1 2 3 4 5 6 
#
# 1 38.5667 6.8678 11.6304 0.0003 -8.5445 0.0029
# 2 6.8678 137.5184 28.7872 0.0012 3.9613 0.0082
# 3 11.6304 28.7872 99.0843 -0.0001 13.5489 0.0006
# 4 0.0003 0.0012 -0.0001 25.0669 -0.0002 -0.2878
# 5 -8.5445 3.9613 13.5489 -0.0002 12.8562 0.0001
# 6 0.0029 0.0082 0.0006 -0.2878 0.0001 12.1439
#
#
#
# Elastic Compliance Matrix: (Units=1/GPa)
#
#
# Indices 1 2 3 4 5 6 
#
# 1 0.036008 -0.000979 -0.008478 0.000000 0.033168 -0.000008
# 2 -0.000979 0.007769 -0.002017 0.000000 -0.000919 -0.000005
# 3 -0.008478 -0.002017 0.014440 0.000000 -0.020231 0.000003
# 4 0.000000 0.000000 0.000000 0.039904 0.000000 0.000946
# 5 0.033168 -0.000919 -0.020231 0.000000 0.121432 -0.000007
# 6 -0.000008 -0.000005 0.000003 0.000946 -0.000007 0.082368
#
#
# Mechanical properties :
#
#
# Convention : Reuss Voigt Hill
#
# Bulk Modulus (GPa) = 28.35196 41.08226 34.71711
# Shear Modulus (GPa) = 14.85333 25.20567 20.02950
#
# Velocity S-wave (km/s) = 2.83663 3.69522 3.29402
# Velocity P-wave (km/s) = 5.10761 6.36095 5.76842
#
# Compressibility (1/GPa) = 0.03527092
#
# Stress axis : x y z
#
# Youngs Moduli (GPa) = 27.77126 128.71213 69.25320
#
# Poissons Ratio (x) = 0.12602 0.58710
# Poissons Ratio (y) = 0.02719 0.13965
# Poissons Ratio (z) = 0.23543 0.25956
#
# Static dielectric constant tensor:
#      x y z
#    x 1.708560 0.000000 0.018540 
#    y 0.000000 1.789260 0.000000 
#    z 0.018540 0.000000 1.622120 
# 
# From -- ./inp_files/69580.got.cif
#   From: 2010.05.17/outbox.cif.g08.bks.cpg/sg5_35_cif.got.tgz:69580.got - 2010.06.03 18:56:24.
