data_PCOD9121867
_publ_section_title
;
Structure prediction by ZEFSAII (Michael W. Deem and Ramdas Pophale) SiO2 
 PCOD9121867
Probable space group: C 2
;
_chemical_formula_sum "Si O2"
_cell_formula_units_Z 32
_cell_length_a 14.110087
_cell_length_b 11.905555
_cell_length_c 11.229452
_cell_angle_alpha 90.000000
_cell_angle_beta 44.278719
_cell_angle_gamma 90.000000
_cell_volume 1317.001522
_symmetry_space_group_name_H-M "C 2"
_symmetry_group_IT_number 5
_symmetry_cell_setting 'monoclinic'
loop_
_space_group_symop_operation_xyz
x,y,z
-x,y,-z
1/2+x,1/2+y,z
1/2-x,1/2+y,-z
loop_
_atom_site_type_symbol
_atom_site_label
_atom_site_fract_x
_atom_site_fract_y
_atom_site_fract_z
Si Si1 0.296034 0.078780 0.646437
Si Si2 0.676491 0.325653 0.413832
Si Si3 0.659198 0.257776 0.878378
Si Si4 0.944271 0.022518 0.329373
Si Si5 0.276069 0.462764 0.039435
Si Si6 0.854829 0.500076 0.160711
Si Si7 0.641914 0.757548 0.520594
Si Si8 0.017559 0.474321 0.707173
O O1 0.334023 0.207480 0.642605
O O2 0.168984 0.043572 0.672749
O O3 0.255064 0.016888 0.803814
O O4 0.427957 0.042739 0.453082
O O5 0.575504 0.407622 0.577373
O O6 0.737957 0.409824 0.260233
O O7 0.771174 0.279908 0.437672
O O8 0.699421 0.330862 0.956258
O O9 0.664694 0.122700 0.874989
O O10 0.759890 0.285299 0.677855
O O11 0.500000 0.286382 0.000000
O O12 0.919293 0.133288 0.432095
O O13 0.092512 0.016834 0.137938
O O14 0.132646 0.485780 0.105975
O O15 0.876623 0.510762 0.285254
O O16 0.000000 0.447392 0.000000
O O17 0.525615 0.848479 0.647627
#
# Coordination Sequence:
#
# PCOD9121867 Si02
#       8
#     4   4   4   4   4   4   4   4
#     4  11  21  37  68  93 131 175 223 265 333 408
#     4  10  19  36  65  93 122 169 224 269 317 389
#     4  11  20  37  69 103 122 171 236 280 312 405
#     4  11  21  41  64  99 129 176 222 278 320 407
#     4  12  25  39  66 101 139 166 226 276 340 393
#     4  10  21  40  70  95 125 174 234 271 324 401
#     4  10  19  37  65  91 131 173 214 272 339 384
#     4  11  23  43  64  97 136 175 214 289 344 388
#
# _framework density 24.297616000000001
#
# number of rings (size 3 to 8) (size 9 to 14) (size 15 to 20)
#    0.000    1.250    5.000    3.000    0.000    4.000 
#    6.750    0.000    2.750    0.000    0.000    0.000 
#    0.000    0.000    0.000    0.000    0.000    0.000 
#
# Total GULP energy -89293.173377 kJ/mol
# GULP energy per Si atom -5580.823336 kJ/mol
# Density = 2.424231 g / cm^3
# Si number density = 24.297616 Si / 1000 Ang^3
#
#
#
# Elastic Constant Matrix: (Units=GPa)
#
#
# Indices 1 2 3 4 5 6 
#
# 1 45.0918 24.5305 2.9644 0.0000 -12.9732 0.0000
# 2 24.5305 146.7883 49.9559 0.0000 -9.9857 0.0000
# 3 2.9644 49.9559 144.7115 0.0000 -20.0852 0.0000
# 4 0.0000 0.0000 0.0000 24.0245 0.0000 4.6677
# 5 -12.9732 -9.9857 -20.0852 0.0000 32.3240 0.0000
# 6 0.0000 0.0000 0.0000 4.6677 0.0000 -3.1456
#
#
#
# Elastic Compliance Matrix: (Units=1/GPa)
#
#
# Indices 1 2 3 4 5 6 
#
# 1 0.027877 -0.004791 0.002660 0.000000 0.011361 0.000000
# 2 -0.004791 0.008562 -0.003017 0.000000 -0.001153 0.000000
# 3 0.002660 -0.003017 0.008663 0.000000 0.005518 0.000000
# 4 0.000000 0.000000 0.000000 0.032309 0.000000 0.047943
# 5 0.011361 -0.001153 0.005518 0.000000 0.038569 0.000000
# 6 0.000000 0.000000 0.000000 0.047943 0.000000 -0.246761
#
#
# Mechanical properties :
#
#
# Convention : Reuss Voigt Hill
#
# Bulk Modulus (GPa) = 28.73173 54.61035 41.67104
# Shear Modulus (GPa) = -45.92149 27.91664 -9.00243
#
# Velocity S-wave (km/s) = -4.35208 3.39329 -1.92694
# Velocity P-wave (km/s) = 3.66109 6.15442 3.49810
#
# Compressibility (1/GPa) = 0.03480473
#
# Stress axis : x y z
#
# Youngs Moduli (GPa) = 35.87173 116.79978 115.42803
#
# Poissons Ratio (x) = 0.55958 -0.30700
# Poissons Ratio (y) = 0.17186 0.34830
# Poissons Ratio (z) = -0.09541 0.35244
#
# Static dielectric constant tensor:
#      x y z
#    x 2.104380 0.000000 -0.033020 
#    y 0.000000 1.971410 0.000000 
#    z -0.033020 0.000000 1.911890 
# 
# From -- ./inp_files/56019.got.cif
#   From: 2010.05.17/outbox.cif.g08.bks.cpg/sg5_29_cif.got.tgz:56019.got - 2010.06.03 18:56:24.
