data_PCOD9121686
_publ_section_title
;
Structure prediction by ZEFSAII (Michael W. Deem and Ramdas Pophale) SiO2 
 PCOD9121686
Probable space group: C 2
;
_chemical_formula_sum "Si O2"
_cell_formula_units_Z 28
_cell_length_a 14.657449
_cell_length_b 6.989530
_cell_length_c 11.779711
_cell_angle_alpha 90.000000
_cell_angle_beta 99.449573
_cell_angle_gamma 90.000000
_cell_volume 1190.439926
_symmetry_space_group_name_H-M "C 2"
_symmetry_group_IT_number 5
_symmetry_cell_setting 'monoclinic'
loop_
_space_group_symop_operation_xyz
x,y,z
-x,y,-z
1/2+x,1/2+y,z
1/2-x,1/2+y,-z
loop_
_atom_site_type_symbol
_atom_site_label
_atom_site_fract_x
_atom_site_fract_y
_atom_site_fract_z
Si Si1 0.164773 0.623540 0.389609
Si Si2 0.519794 0.000026 0.193225
Si Si3 0.869865 0.463249 0.005544
Si Si4 0.035224 0.937383 0.779740
Si Si5 0.661479 0.409953 0.001850
Si Si6 0.683320 0.318306 0.620832
Si Si7 0.836365 0.021264 0.740447
O O1 0.084041 0.493650 0.317280
O O2 0.256960 0.496317 0.413560
O O3 0.138092 0.705756 0.506604
O O4 0.185583 0.811421 0.317068
O O5 0.575984 0.913196 0.098262
O O6 0.505004 0.230940 0.189870
O O7 0.417486 0.926205 0.138217
O O8 0.869183 0.692458 0.994085
O O9 0.765369 0.398793 0.977900
O O10 0.107417 0.892450 0.694324
O O11 0.944371 0.057774 0.728547
O O12 0.093231 0.010402 0.899371
O O13 0.662737 0.504247 0.124035
O O14 0.758774 0.173198 0.689809
#
# Coordination Sequence:
#
# PCOD9121686 Si02
#       7
#     4   4   4   4   4   4   4
#     4  11  23  44  71  93 141 175 235 297 343 424
#     4   9  19  38  60  90 127 177 218 278 343 410
#     4  10  19  35  63  89 131 172 220 270 349 408
#     4  10  22  40  71  97 140 181 225 288 359 415
#     4  11  20  38  64  99 132 177 221 278 351 422
#     4  12  25  46  72 102 132 188 236 288 362 416
#     4  11  23  44  70  99 139 183 232 286 350 424
#
# _framework density 23.520716
#
# number of rings (size 3 to 8) (size 9 to 14) (size 15 to 20)
#    0.000    1.429    4.286    3.000    0.000    2.286 
#    2.571    2.857    6.286    0.000    0.000    0.000 
#    0.000    0.000    0.000    0.000    0.000    0.000 
#
# Total GULP energy -78202.101197 kJ/mol
# GULP energy per Si atom -5585.864371 kJ/mol
# Density = 2.346718 g / cm^3
# Si number density = 23.520716 Si / 1000 Ang^3
#
#
#
# Elastic Constant Matrix: (Units=GPa)
#
#
# Indices 1 2 3 4 5 6 
#
# 1 87.2905 9.4134 29.1205 0.0000 6.1312 0.0000
# 2 9.4134 78.0438 22.3341 0.0000 -3.2440 0.0000
# 3 29.1205 22.3341 138.6028 0.0000 0.9698 0.0000
# 4 0.0000 0.0000 0.0000 6.3303 0.0000 15.4354
# 5 6.1312 -3.2440 0.9698 0.0000 33.5091 0.0000
# 6 0.0000 0.0000 0.0000 15.4354 0.0000 2.7311
#
#
#
# Elastic Compliance Matrix: (Units=1/GPa)
#
#
# Indices 1 2 3 4 5 6 
#
# 1 0.012541 -0.000901 -0.002473 0.000000 -0.002310 0.000000
# 2 -0.000901 0.013560 -0.002007 0.000000 0.001536 0.000000
# 3 -0.002473 -0.002007 0.008058 0.000000 0.000025 0.000000
# 4 0.000000 0.000000 0.000000 -0.012360 0.000000 0.069855
# 5 -0.002310 0.001536 0.000025 0.000000 0.030413 0.000000
# 6 0.000000 0.000000 0.000000 0.069855 0.000000 -0.028649
#
#
# Mechanical properties :
#
#
# Convention : Reuss Voigt Hill
#
# Bulk Modulus (GPa) = 42.74100 47.29700 45.01900
# Shear Modulus (GPa) = 118.70069 24.71872 71.70971
#
# Velocity S-wave (km/s) = 7.11168 3.24533 5.52757
# Velocity P-wave (km/s) = 9.25450 5.84766 7.74083
#
# Compressibility (1/GPa) = 0.02339674
#
# Stress axis : x y z
#
# Youngs Moduli (GPa) = 79.74122 73.74630 124.10516
#
# Poissons Ratio (x) = 0.06643 0.30697
# Poissons Ratio (y) = 0.07183 0.24902
# Poissons Ratio (z) = 0.19724 0.14797
#
# Static dielectric constant tensor:
#      x y z
#    x 1.922500 0.000000 0.041680 
#    y 0.000000 1.942110 0.000000 
#    z 0.041680 0.000000 1.914470 
# 
# From -- ./inp_files/41771.got.cif
#   From: 2010.05.17/outbox.cif.g08.bks.cpg/sg5_21_cif.got.tgz:41771.got - 2010.06.03 18:56:24.
