data_PCOD9121214
_publ_section_title
;
Structure prediction by ZEFSAII (Michael W. Deem and Ramdas Pophale) SiO2 
 PCOD9121214
Probable space group: C 2
;
_chemical_formula_sum "Si O2"
_cell_formula_units_Z 28
_cell_length_a 20.795294
_cell_length_b 10.331755
_cell_length_c 9.455100
_cell_angle_alpha 90.000000
_cell_angle_beta 137.045229
_cell_angle_gamma 90.000000
_cell_volume 1384.269626
_symmetry_space_group_name_H-M "C 2"
_symmetry_group_IT_number 5
_symmetry_cell_setting 'monoclinic'
loop_
_space_group_symop_operation_xyz
x,y,z
-x,y,-z
1/2+x,1/2+y,z
1/2-x,1/2+y,-z
loop_
_atom_site_type_symbol
_atom_site_label
_atom_site_fract_x
_atom_site_fract_y
_atom_site_fract_z
Si Si1 0.059525 0.495360 0.462318
Si Si2 0.500000 0.684535 0.000000
Si Si3 0.780907 0.608633 0.759817
Si Si4 0.581012 0.488093 0.359109
Si Si5 0.415617 0.198613 0.750374
Si Si6 0.893387 0.364826 0.035657
Si Si7 0.822076 0.283259 0.199955
Si Si8 0.500000 0.590470 0.500000
O O1 0.081207 0.599594 0.376574
O O2 0.146855 0.414288 0.667885
O O3 0.000000 0.549988 0.500000
O O4 0.989683 0.389981 0.278141
O O5 0.451708 0.592791 0.807921
O O6 0.577548 0.772931 0.045780
O O7 0.685511 0.530081 0.574799
O O8 0.819311 0.678435 0.682352
O O9 0.761906 0.712072 0.853673
O O10 0.857550 0.502821 0.926744
O O11 0.577864 0.344437 0.294193
O O12 0.511391 0.504300 0.379786
O O13 0.500000 0.176224 0.000000
O O14 0.816354 0.312579 0.023897
O O15 0.909182 0.182750 0.348558
#
# Coordination Sequence:
#
# PCOD9121214 Si02
#       8
#     4   2   4   4   4   4   4   2
#     4  10  21  42  72  91 121 175 223 257 325 399
#     4  12  22  42  76  90 126 174 228 252 334 402
#     4  11  26  42  63  98 134 164 219 277 321 381
#     4  11  26  43  66  97 129 178 211 273 324 390
#     4  12  25  45  64  96 136 169 215 276 331 380
#     4  11  20  41  68  99 120 173 215 267 324 385
#     4  10  20  43  68  93 129 170 220 264 320 395
#     4  10  18  44  68  90 130 168 222 252 318 398
#
# _framework density 20.227273
#
# number of rings (size 3 to 8) (size 9 to 14) (size 15 to 20)
#    0.000    1.143    5.714    1.714    5.000    0.000 
#   12.857    0.000    0.000    0.000    0.000    0.000 
#    0.000    0.000    0.000    0.000    0.000    0.000 
#
# Total GULP energy -78207.933093 kJ/mol
# GULP energy per Si atom -5586.280935 kJ/mol
# Density = 2.018123 g / cm^3
# Si number density = 20.227273 Si / 1000 Ang^3
#
#
#
# Elastic Constant Matrix: (Units=GPa)
#
#
# Indices 1 2 3 4 5 6 
#
# 1 137.5258 91.2860 28.2730 0.0000 -48.1326 0.0000
# 2 91.2860 135.8788 26.6845 0.0000 -32.5750 0.0000
# 3 28.2730 26.6845 45.9165 0.0000 -20.9573 0.0000
# 4 0.0000 0.0000 0.0000 34.1968 0.0000 -16.7143
# 5 -48.1326 -32.5750 -20.9573 0.0000 36.8352 0.0000
# 6 0.0000 0.0000 0.0000 -16.7143 0.0000 -45.6799
#
#
#
# Elastic Compliance Matrix: (Units=1/GPa)
#
#
# Indices 1 2 3 4 5 6 
#
# 1 0.019148 -0.008836 0.001619 0.000000 0.018128 0.000000
# 2 -0.008836 0.013591 -0.003028 0.000000 -0.001250 0.000000
# 3 0.001619 -0.003028 0.030102 0.000000 0.016563 0.000000
# 4 0.000000 0.000000 0.000000 0.024806 0.000000 -0.009077
# 5 0.018128 -0.001250 0.016563 0.000000 0.059154 0.000000
# 6 0.000000 0.000000 0.000000 -0.009077 0.000000 -0.018570
#
#
# Mechanical properties :
#
#
# Convention : Reuss Voigt Hill
#
# Bulk Modulus (GPa) = 23.61304 67.97870 45.79587
# Shear Modulus (GPa) = 30.70523 16.60892 23.65708
#
# Velocity S-wave (km/s) = 3.90039 2.86862 3.42360
# Velocity P-wave (km/s) = 5.65538 6.68224 6.19014
#
# Compressibility (1/GPa) = 0.04234948
#
# Stress axis : x y z
#
# Youngs Moduli (GPa) = 52.22346 73.57907 33.22072
#
# Poissons Ratio (x) = 0.65017 -0.05377
# Poissons Ratio (y) = 0.46146 0.10059
# Poissons Ratio (z) = -0.08453 0.22280
#
# Static dielectric constant tensor:
#      x y z
#    x 1.761280 0.000000 0.011820 
#    y 0.000000 1.686980 0.000000 
#    z 0.011820 0.000000 1.786370 
# 
# From -- ./inp_files/29165.got.cif
#   From: 2010.05.17/outbox.cif.g08.bks.cpg/sg5_15_cif.got.tgz:29165.got - 2010.06.03 18:56:24.
