data_PCOD9121926
_publ_section_title
;
Structure prediction by ZEFSAII (Michael W. Deem and Ramdas Pophale) SiO2 
 PCOD9121926
Probable space group: C 2
;
_chemical_formula_sum "Si O2"
_cell_formula_units_Z 30
_cell_length_a 8.478247
_cell_length_b 16.059314
_cell_length_c 12.193593
_cell_angle_alpha 90.000000
_cell_angle_beta 104.788362
_cell_angle_gamma 90.000000
_cell_volume 1605.222340
_symmetry_space_group_name_H-M "C 2"
_symmetry_group_IT_number 5
_symmetry_cell_setting 'monoclinic'
loop_
_space_group_symop_operation_xyz
x,y,z
-x,y,-z
1/2+x,1/2+y,z
1/2-x,1/2+y,-z
loop_
_atom_site_type_symbol
_atom_site_label
_atom_site_fract_x
_atom_site_fract_y
_atom_site_fract_z
Si Si1 0.458439 0.858610 0.622355
Si Si2 0.910663 0.535357 0.367410
Si Si3 0.000000 0.070649 0.000000
Si Si4 0.510166 0.207891 0.730038
Si Si5 0.083331 0.961573 0.228505
Si Si6 0.591584 0.370675 0.621421
Si Si7 0.819734 0.687703 0.019706
Si Si8 0.261523 0.787255 0.199797
O O1 0.500000 0.848880 0.500000
O O2 0.271154 0.851207 0.613946
O O3 0.562237 0.797845 0.716727
O O4 0.506721 0.952305 0.664938
O O5 0.945895 0.618473 0.307859
O O6 0.718918 0.511751 0.324576
O O7 0.000000 0.545753 0.500000
O O8 0.831662 0.123353 0.991972
O O9 0.032286 0.014768 0.113988
O O10 0.519038 0.281495 0.643905
O O11 0.331154 0.215265 0.749416
O O12 0.632217 0.223766 0.853208
O O13 0.167513 0.874561 0.204397
O O14 0.936947 0.932320 0.281709
O O15 0.500000 0.406372 0.500000
O O16 0.753858 0.759435 0.927670
O O17 0.000000 0.659200 0.000000
#
# Coordination Sequence:
#
# PCOD9121926 Si02
#       8
#     4   4   2   4   4   4   4   4
#     4  10  21  38  61  90 123 159 205 260 308 376
#     4  10  19  37  60  86 121 157 197 250 313 363
#     4  12  24  42  66  90 134 160 216 258 312 382
#     4  10  20  37  60  88 119 163 198 252 314 366
#     4  10  23  40  62  92 123 170 202 262 310 369
#     4  11  22  38  62  90 121 161 212 253 312 370
#     4  10  23  41  63  89 128 165 206 261 313 372
#     4   9  21  39  61  84 125 161 206 251 309 363
#
# _framework density 18.689001000000001
#
# number of rings (size 3 to 8) (size 9 to 14) (size 15 to 20)
#    0.000    1.867    1.333    3.600    6.533    2.133 
#    0.000    0.000    0.000    3.200    0.000    0.000 
#    0.000    0.000    0.000    0.000    0.000    0.000 
#
# Total GULP energy -83555.995688 kJ/mol
# GULP energy per Si atom -5570.399713 kJ/mol
# Density = 1.864646 g / cm^3
# Si number density = 18.689001 Si / 1000 Ang^3
#
#
#
# Elastic Constant Matrix: (Units=GPa)
#
#
# Indices 1 2 3 4 5 6 
#
# 1 73.4603 15.4837 58.2157 0.0000 16.0799 0.0000
# 2 15.4837 57.5460 40.6236 0.0000 -3.2939 0.0000
# 3 58.2157 40.6236 119.2689 0.0000 0.6795 0.0000
# 4 0.0000 0.0000 0.0000 34.2642 0.0000 5.0683
# 5 16.0799 -3.2939 0.6795 0.0000 24.2445 0.0000
# 6 0.0000 0.0000 0.0000 5.0683 0.0000 19.5564
#
#
#
# Elastic Compliance Matrix: (Units=1/GPa)
#
#
# Indices 1 2 3 4 5 6 
#
# 1 0.028805 0.001370 -0.014421 0.000000 -0.018514 0.000000
# 2 0.001370 0.023215 -0.008590 0.000000 0.002486 0.000000
# 3 -0.014421 -0.008590 0.018304 0.000000 0.007885 0.000000
# 4 0.000000 0.000000 0.000000 0.030348 0.000000 -0.007865
# 5 -0.018514 0.002486 0.007885 0.000000 0.053643 0.000000
# 6 0.000000 0.000000 0.000000 -0.007865 0.000000 0.053172
#
#
# Mechanical properties :
#
#
# Convention : Reuss Voigt Hill
#
# Bulk Modulus (GPa) = 36.97908 53.21345 45.09627
# Shear Modulus (GPa) = 19.24674 24.67651 21.96162
#
# Velocity S-wave (km/s) = 3.21260 3.63764 3.43171
# Velocity P-wave (km/s) = 5.79574 6.79545 6.31541
#
# Compressibility (1/GPa) = 0.02704232
#
# Stress axis : x y z
#
# Youngs Moduli (GPa) = 34.71614 43.07543 54.63204
#
# Poissons Ratio (x) = -0.05902 0.78785
# Poissons Ratio (y) = -0.04756 0.46929
# Poissons Ratio (z) = 0.50064 0.37002
#
# Static dielectric constant tensor:
#      x y z
#    x 1.682780 0.000000 -0.004060 
#    y 0.000000 1.629030 0.000000 
#    z -0.004060 0.000000 1.701390 
# 
# From -- ./inp_files/36365.got.cif
#   From: 2010.05.17/outbox.cif.g08.bks.cpg/sg5_19_cif.got.tgz:36365.got - 2010.06.03 18:56:24.
