data_PCOD9121940
_publ_section_title
;
Structure prediction by ZEFSAII (Michael W. Deem and Ramdas Pophale) SiO2 
 PCOD9121940
Probable space group: C 2
;
_chemical_formula_sum "Si O2"
_cell_formula_units_Z 32
_cell_length_a 21.863930
_cell_length_b 15.002310
_cell_length_c 16.259701
_cell_angle_alpha 90.000000
_cell_angle_beta 163.319061
_cell_angle_gamma 90.000000
_cell_volume 1530.890583
_symmetry_space_group_name_H-M "C 2"
_symmetry_group_IT_number 5
_symmetry_cell_setting 'monoclinic'
loop_
_space_group_symop_operation_xyz
x,y,z
-x,y,-z
1/2+x,1/2+y,z
1/2-x,1/2+y,-z
loop_
_atom_site_type_symbol
_atom_site_label
_atom_site_fract_x
_atom_site_fract_y
_atom_site_fract_z
Si Si1 0.552705 0.678430 0.164516
Si Si2 0.989615 0.007277 0.189386
Si Si3 0.029908 0.410770 0.783488
Si Si4 0.001057 0.679381 0.176464
Si Si5 0.464953 0.359465 0.861264
Si Si6 0.820091 0.764510 0.205983
Si Si7 0.849434 0.596546 0.134927
Si Si8 0.440058 0.992565 0.830816
O O1 0.542031 0.577005 0.184174
O O2 0.792249 0.703959 0.500676
O O3 0.500000 0.685475 0.000000
O O4 0.378669 0.731296 0.994035
O O5 0.196009 0.969307 0.500200
O O6 0.856822 0.058423 0.086050
O O7 0.901342 0.923936 0.026360
O O8 0.025843 0.503236 0.724977
O O9 0.792902 0.369429 0.478976
O O10 0.074086 0.442568 0.934019
O O11 0.214684 0.336990 0.007748
O O12 0.958406 0.762052 0.064175
O O13 0.049162 0.596543 0.178963
O O14 0.829025 0.645067 0.020864
O O15 0.500000 0.382613 0.000000
O O16 0.917070 0.676792 0.284126
O O17 0.000000 0.799536 0.500000
O O18 0.500000 0.972811 0.000000
#
# Coordination Sequence:
#
# PCOD9121940 Si02
#       8
#     4   4   4   4   4   4   4   4
#     4  10  19  37  61  88 122 160 207 259 315 380
#     4   9  21  37  60  92 121 164 209 263 320 384
#     4  10  23  42  61  95 130 166 219 270 321 394
#     4  10  20  38  60  90 119 168 213 258 314 388
#     4  11  22  40  67  91 120 168 226 268 311 388
#     4  11  23  39  64  97 130 170 215 271 332 385
#     4  10  23  41  63  87 139 168 202 271 339 384
#     4   9  19  38  62  85 124 168 211 260 317 383
#
# _framework density 20.902864999999998
#
# number of rings (size 3 to 8) (size 9 to 14) (size 15 to 20)
#    0.000    2.000    1.250    2.250    1.750    3.500 
#    2.250    1.875    0.000    0.000    0.000    0.000 
#    0.000    0.000    0.000    0.000    0.000    0.000 
#
# Total GULP energy -89103.089644 kJ/mol
# GULP energy per Si atom -5568.943103 kJ/mol
# Density = 2.085529 g / cm^3
# Si number density = 20.902865 Si / 1000 Ang^3
#
#
#
# Elastic Constant Matrix: (Units=GPa)
#
#
# Indices 1 2 3 4 5 6 
#
# 1 89.9107 5.0796 14.2860 0.0016 -5.2514 0.0017
# 2 5.0796 70.2492 16.3670 0.0021 2.6347 0.0026
# 3 14.2860 16.3670 38.5984 0.0011 -7.8340 0.0016
# 4 0.0016 0.0021 0.0011 12.5068 0.0024 4.8885
# 5 -5.2514 2.6347 -7.8340 0.0024 25.7211 0.0030
# 6 0.0017 0.0026 0.0016 4.8885 0.0030 30.0976
#
#
#
# Elastic Compliance Matrix: (Units=1/GPa)
#
#
# Indices 1 2 3 4 5 6 
#
# 1 0.011850 0.000076 -0.004187 -0.000001 0.001136 0.000000
# 2 0.000076 0.016172 -0.007694 -0.000001 -0.003984 0.000000
# 3 -0.004187 -0.007694 0.032730 -0.000002 0.009902 -0.000001
# 4 -0.000001 -0.000001 -0.000002 0.085377 -0.000007 -0.013867
# 5 0.001136 -0.003984 0.009902 -0.000007 0.042535 -0.000003
# 6 0.000000 0.000000 -0.000001 -0.013867 -0.000003 0.035478
#
#
# Mechanical properties :
#
#
# Convention : Reuss Voigt Hill
#
# Bulk Modulus (GPa) = 26.92498 30.02483 28.47490
# Shear Modulus (GPa) = 19.22109 24.53348 21.87728
#
# Velocity S-wave (km/s) = 3.03569 3.42963 3.23865
# Velocity P-wave (km/s) = 5.01958 5.48437 5.25711
#
# Compressibility (1/GPa) = 0.03714023
#
# Stress axis : x y z
#
# Youngs Moduli (GPa) = 84.39134 61.83689 30.55300
#
# Poissons Ratio (x) = -0.00471 0.12794
# Poissons Ratio (y) = -0.00643 0.23508
# Poissons Ratio (z) = 0.35339 0.47578
#
# Static dielectric constant tensor:
#      x y z
#    x 1.758780 0.000000 0.018740 
#    y 0.000000 1.820200 0.000000 
#    z 0.018740 0.000000 1.759760 
# 
# From -- ./inp_files/29848.got.cif
#   From: 2010.05.17/outbox.cif.g08.bks.cpg/sg5_15_cif.got.tgz:29848.got - 2010.06.03 18:56:24.
