data_PCOD9121658
_publ_section_title
;
Structure prediction by ZEFSAII (Michael W. Deem and Ramdas Pophale) SiO2 
 PCOD9121658
Probable space group: C 2
;
_chemical_formula_sum "Si O2"
_cell_formula_units_Z 28
_cell_length_a 27.499772
_cell_length_b 8.199370
_cell_length_c 8.069228
_cell_angle_alpha 90.000000
_cell_angle_beta 141.966659
_cell_angle_gamma 90.000000
_cell_volume 1121.003108
_symmetry_space_group_name_H-M "C 2"
_symmetry_group_IT_number 5
_symmetry_cell_setting 'monoclinic'
loop_
_space_group_symop_operation_xyz
x,y,z
-x,y,-z
1/2+x,1/2+y,z
1/2-x,1/2+y,-z
loop_
_atom_site_type_symbol
_atom_site_label
_atom_site_fract_x
_atom_site_fract_y
_atom_site_fract_z
Si Si1 0.492378 0.190210 0.180813
Si Si2 0.650485 0.276677 0.514038
Si Si3 0.224577 0.333837 0.610066
Si Si4 0.402655 0.633492 0.589788
Si Si5 0.336937 0.070627 0.792433
Si Si6 0.546884 0.549880 0.800208
Si Si7 0.804610 0.130503 0.987436
O O1 0.586392 0.198148 0.470780
O O2 0.456066 0.361515 0.149081
O O3 0.500000 0.182564 0.000000
O O4 0.430244 0.057633 0.085042
O O5 0.617175 0.456406 0.388559
O O6 0.656072 0.172796 0.361005
O O7 0.739450 0.271196 0.818842
O O8 0.214826 0.417721 0.404152
O O9 0.256036 0.465131 0.824681
O O10 0.136840 0.276279 0.415736
O O11 0.284485 0.182728 0.769857
O O12 0.494178 0.644825 0.791851
O O13 0.354607 0.629978 0.287847
O O14 0.500000 0.553507 0.500000
O O15 0.632257 0.623739 0.993519
#
# Coordination Sequence:
#
# PCOD9121658 Si02
#       7
#     4   4   4   4   4   4   4
#     4   9  17  34  59  82 118 157 195 241 291 362
#     4   9  19  34  58  82 117 156 195 242 289 357
#     4  11  21  35  62  87 121 155 199 248 293 358
#     4  10  20  35  58  89 116 156 203 240 294 355
#     4  10  20  35  59  85 118 155 195 247 302 347
#     4   9  18  34  59  89 119 155 198 243 299 356
#     4  10  19  35  61  86 118 154 196 251 296 351
#
# _framework density 24.977629
#
# number of rings (size 3 to 8) (size 9 to 14) (size 15 to 20)
#    0.000    2.286    1.429    1.714    0.000    0.000 
#    0.000    0.000   44.000    0.000    0.000    0.000 
#    0.000    0.000    0.000    0.000    0.000    0.000 
#
# Total GULP energy -78202.504438 kJ/mol
# GULP energy per Si atom -5585.893174 kJ/mol
# Density = 2.492078 g / cm^3
# Si number density = 24.977629 Si / 1000 Ang^3
#
#
#
# Elastic Constant Matrix: (Units=GPa)
#
#
# Indices 1 2 3 4 5 6 
#
# 1 86.2334 20.5624 27.6017 0.0000 28.8889 0.0000
# 2 20.5624 44.4630 14.3564 0.0000 8.8617 0.0000
# 3 27.6017 14.3564 70.4128 0.0000 28.7746 0.0000
# 4 0.0000 0.0000 0.0000 31.3040 0.0000 12.1260
# 5 28.8889 8.8617 28.7746 0.0000 46.9356 0.0000
# 6 0.0000 0.0000 0.0000 12.1260 0.0000 30.5059
#
#
#
# Elastic Compliance Matrix: (Units=1/GPa)
#
#
# Indices 1 2 3 4 5 6 
#
# 1 0.016071 -0.005230 -0.002128 0.000000 -0.007600 0.000000
# 2 -0.005230 0.025927 -0.003404 0.000000 0.000411 0.000000
# 3 -0.002128 -0.003404 0.019924 0.000000 -0.010262 0.000000
# 4 0.000000 0.000000 0.000000 0.037759 0.000000 -0.015009
# 5 -0.007600 0.000411 -0.010262 0.000000 0.032197 0.000000
# 6 0.000000 0.000000 0.000000 -0.015009 0.000000 0.038746
#
#
# Mechanical properties :
#
#
# Convention : Reuss Voigt Hill
#
# Bulk Modulus (GPa) = 24.75409 36.23888 30.49649
# Shear Modulus (GPa) = 24.31758 30.98835 27.65297
#
# Velocity S-wave (km/s) = 3.12360 3.52610 3.33094
# Velocity P-wave (km/s) = 4.78970 5.57834 5.19899
#
# Compressibility (1/GPa) = 0.04039736
#
# Stress axis : x y z
#
# Youngs Moduli (GPa) = 62.22568 38.57048 50.19127
#
# Poissons Ratio (x) = 0.20174 0.10679
# Poissons Ratio (y) = 0.32546 0.17084
# Poissons Ratio (z) = 0.13239 0.13129
#
# Static dielectric constant tensor:
#      x y z
#    x 1.976300 0.000000 0.028630 
#    y 0.000000 1.993900 0.000000 
#    z 0.028630 0.000000 2.165470 
# 
# From -- ./inp_files/31766.got.cif
#   From: 2010.05.17/outbox.cif.g08.bks.cpg/sg5_16_cif.got.tgz:31766.got - 2010.06.03 18:56:24.
