data_PCOD9121716
_publ_section_title
;
Structure prediction by ZEFSAII (Michael W. Deem and Ramdas Pophale) SiO2 
 PCOD9121716
Probable space group: C 2
;
_chemical_formula_sum "Si O2"
_cell_formula_units_Z 30
_cell_length_a 5.240599
_cell_length_b 26.552165
_cell_length_c 12.491858
_cell_angle_alpha 90.000000
_cell_angle_beta 115.584789
_cell_angle_gamma 90.000000
_cell_volume 1567.794094
_symmetry_space_group_name_H-M "C 2"
_symmetry_group_IT_number 5
_symmetry_cell_setting 'monoclinic'
loop_
_space_group_symop_operation_xyz
x,y,z
-x,y,-z
1/2+x,1/2+y,z
1/2-x,1/2+y,-z
loop_
_atom_site_type_symbol
_atom_site_label
_atom_site_fract_x
_atom_site_fract_y
_atom_site_fract_z
Si Si1 0.584120 0.685770 0.628480
Si Si2 0.586470 0.121172 0.631874
Si Si3 0.598468 0.931504 0.855117
Si Si4 0.500000 0.172114 0.000000
Si Si5 0.871209 0.975517 0.124019
Si Si6 0.493145 0.254455 0.837054
Si Si7 0.486020 0.815681 0.126572
Si Si8 0.050127 0.092036 0.883803
O O1 0.500000 0.709051 0.500000
O O2 0.301005 0.666254 0.635237
O O3 0.765643 0.724992 0.726371
O O4 0.798539 0.640241 0.635213
O O5 0.500000 0.097425 0.500000
O O6 0.779065 0.094082 0.756657
O O7 0.307051 0.960884 0.805887
O O8 0.533040 0.872804 0.835974
O O9 0.813663 0.954880 0.810444
O O10 0.743703 0.946074 0.996796
O O11 0.367804 0.210627 0.063164
O O12 0.719461 0.135246 0.100184
O O13 0.843814 0.034718 0.100737
O O14 0.726343 0.283189 0.807700
O O15 0.293563 0.289760 0.875227
O O16 0.500000 0.819476 0.000000
O O17 0.000000 0.102271 0.000000
#
# Coordination Sequence:
#
# PCOD9121716 Si02
#       8
#     4   4   4   2   4   4   4   4
#     4  10  21  41  59  75 109 158 204 236 270 334
#     4  10  22  39  60  81 114 163 204 233 275 339
#     4  10  19  36  52  75 111 143 187 239 281 349
#     4  12  24  32  52  80 132 148 178 230 292 352
#     4  10  20  33  54  76 109 145 193 225 289 343
#     4  12  24  35  52  87 113 154 185 227 295 350
#     4  12  22  34  54  78 117 148 185 228 292 348
#     4  12  24  35  57  88 121 159 190 246 294 352
#
# _framework density 19.135166000000002
#
# number of rings (size 3 to 8) (size 9 to 14) (size 15 to 20)
#    0.000    1.067    5.333    3.200    3.733    0.000 
#    0.000    0.000    0.000    0.000    0.000    5.600 
#    0.000    0.000    0.000    0.000    0.000    0.000 
#
# Total GULP energy -83564.821545 kJ/mol
# GULP energy per Si atom -5570.988103 kJ/mol
# Density = 1.909161 g / cm^3
# Si number density = 19.135166 Si / 1000 Ang^3
#
#
#
# Elastic Constant Matrix: (Units=GPa)
#
#
# Indices 1 2 3 4 5 6 
#
# 1 118.8298 35.8728 -1.8432 0.0000 17.3638 0.0000
# 2 35.8728 108.6898 12.7921 0.0000 5.5933 0.0000
# 3 -1.8432 12.7921 80.5224 0.0000 3.9829 0.0000
# 4 0.0000 0.0000 0.0000 19.8660 0.0000 10.1585
# 5 17.3638 5.5933 3.9829 0.0000 21.0663 0.0000
# 6 0.0000 0.0000 0.0000 10.1585 0.0000 27.1413
#
#
#
# Elastic Compliance Matrix: (Units=1/GPa)
#
#
# Indices 1 2 3 4 5 6 
#
# 1 0.010585 -0.003213 0.001153 0.000000 -0.008090 0.000000
# 2 -0.003213 0.010456 -0.001745 0.000000 0.000202 0.000000
# 3 0.001153 -0.001745 0.012867 0.000000 -0.002920 0.000000
# 4 0.000000 0.000000 0.000000 0.062252 0.000000 -0.023300
# 5 -0.008090 0.000202 -0.002920 0.000000 0.054635 0.000000
# 6 0.000000 0.000000 0.000000 -0.023300 0.000000 0.045565
#
#
# Mechanical properties :
#
#
# Convention : Reuss Voigt Hill
#
# Bulk Modulus (GPa) = 38.02487 44.63172 41.32829
# Shear Modulus (GPa) = 23.50334 31.02941 27.26637
#
# Velocity S-wave (km/s) = 3.50848 4.03127 3.77893
# Velocity P-wave (km/s) = 6.02723 6.71143 6.37851
#
# Compressibility (1/GPa) = 0.02629858
#
# Stress axis : x y z
#
# Youngs Moduli (GPa) = 94.47022 95.63991 77.71898
#
# Poissons Ratio (x) = 0.30730 -0.08960
# Poissons Ratio (y) = 0.30354 0.13559
# Poissons Ratio (z) = -0.10891 0.16685
#
# Static dielectric constant tensor:
#      x y z
#    x 1.733350 0.000000 -0.007130 
#    y 0.000000 1.684460 0.000000 
#    z -0.007130 0.000000 1.705010 
# 
# From -- ./inp_files/49642.got.cif
#   From: 2010.05.17/outbox.cif.g08.bks.cpg/sg5_25_cif.got.tgz:49642.got - 2010.06.03 18:56:24.
