data_PCOD9121520
_publ_section_title
;
Structure prediction by ZEFSAII (Michael W. Deem and Ramdas Pophale) SiO2 
 PCOD9121520
Probable space group: C 2
;
_chemical_formula_sum "Si O2"
_cell_formula_units_Z 26
_cell_length_a 17.881578
_cell_length_b 7.559084
_cell_length_c 23.539474
_cell_angle_alpha 90.000000
_cell_angle_beta 161.462455
_cell_angle_gamma 90.000000
_cell_volume 1011.574390
_symmetry_space_group_name_H-M "C 2"
_symmetry_group_IT_number 5
_symmetry_cell_setting 'monoclinic'
loop_
_space_group_symop_operation_xyz
x,y,z
-x,y,-z
1/2+x,1/2+y,z
1/2-x,1/2+y,-z
loop_
_atom_site_type_symbol
_atom_site_label
_atom_site_fract_x
_atom_site_fract_y
_atom_site_fract_z
Si Si1 0.399299 0.914950 0.600005
Si Si2 0.344117 0.629778 0.727845
Si Si3 0.500000 0.613785 0.500000
Si Si4 0.498809 0.576485 0.375237
Si Si5 0.482719 0.981414 0.154219
Si Si6 0.460382 0.339248 0.199541
Si Si7 0.371137 0.194179 0.313135
O O1 0.528108 0.725843 0.692012
O O2 0.165892 0.873943 0.392830
O O3 0.257519 0.991335 0.551171
O O4 0.571917 0.061563 0.697503
O O5 0.435203 0.434833 0.781303
O O6 0.099873 0.661563 0.518282
O O7 0.329099 0.653726 0.784947
O O8 0.502024 0.780887 0.812466
O O9 0.485177 0.686742 0.425147
O O10 0.751623 0.514286 0.676781
O O11 0.352352 0.396246 0.277859
O O12 0.417074 0.138143 0.149636
O O13 0.277535 0.948839 0.959910
#
# Coordination Sequence:
#
# PCOD9121520 Si02
#       7
#     4   4   2   4   4   4   4
#     4  11  24  37  61  95 132 174 214 266 329 387
#     4  10  19  34  59  90 123 163 210 261 316 376
#     4  12  24  40  72  96 126 170 224 274 310 388
#     4  12  21  39  61  95 131 169 217 272 317 381
#     4  12  21  39  61  95 131 169 217 272 317 381
#     4  11  24  37  61  95 132 174 214 266 329 387
#     4  10  19  34  59  90 123 163 210 261 316 376
#
# _framework density 25.702507000000001
#
# number of rings (size 3 to 8) (size 9 to 14) (size 15 to 20)
#    0.000    0.923    7.692    0.000    2.154    0.000 
#    0.000    0.769    0.000    0.000    0.000    0.000 
#    0.000    0.000    0.000    0.000    0.000    0.000 
#
# Total GULP energy -72411.797861 kJ/mol
# GULP energy per Si atom -5570.138297 kJ/mol
# Density = 2.564401 g / cm^3
# Si number density = 25.702507 Si / 1000 Ang^3
#
#
#
# Elastic Constant Matrix: (Units=GPa)
#
#
# Indices 1 2 3 4 5 6 
#
# 1 102.1653 19.4103 -7.2022 0.0046 23.7187 0.0022
# 2 19.4103 103.7378 2.2950 -0.0599 0.4577 0.0202
# 3 -7.2022 2.2950 90.7277 0.0057 -5.4889 0.0110
# 4 0.0046 -0.0599 0.0057 29.8763 0.0092 2.6389
# 5 23.7187 0.4577 -5.4889 0.0092 21.8290 -0.0002
# 6 0.0022 0.0202 0.0110 2.6389 -0.0002 35.9260
#
#
#
# Elastic Compliance Matrix: (Units=1/GPa)
#
#
# Indices 1 2 3 4 5 6 
#
# 1 0.013715 -0.002507 0.000258 -0.000003 -0.014785 0.000001
# 2 -0.002507 0.010105 -0.000307 0.000021 0.002434 -0.000007
# 3 0.000258 -0.000307 0.011204 -0.000003 0.002544 -0.000003
# 4 -0.000003 0.000021 -0.000003 0.033690 -0.000013 -0.002475
# 5 -0.014785 0.002434 0.002544 -0.000013 0.062464 0.000000
# 6 0.000001 -0.000007 -0.000003 -0.002475 0.000000 0.028017
#
#
# Mechanical properties :
#
#
# Convention : Reuss Voigt Hill
#
# Bulk Modulus (GPa) = 33.43224 36.18188 34.80706
# Shear Modulus (GPa) = 28.68985 36.33476 32.51231
#
# Velocity S-wave (km/s) = 3.34462 3.76395 3.56047
# Velocity P-wave (km/s) = 5.28687 5.74435 5.52035
#
# Compressibility (1/GPa) = 0.02991124
#
# Stress axis : x y z
#
# Youngs Moduli (GPa) = 72.91332 98.96308 89.25296
#
# Poissons Ratio (x) = 0.24807 -0.02300
# Poissons Ratio (y) = 0.18277 0.02743
# Poissons Ratio (z) = -0.01879 0.03041
#
# Static dielectric constant tensor:
#      x y z
#    x 2.107170 0.000010 -0.004250 
#    y 0.000010 2.066710 -0.000010 
#    z -0.004250 -0.000010 2.108820 
# 
# From -- ./inp_files/70873.got.cif
#   From: 2010.05.17/outbox.cif.g08.bks.cpg/sg5_36_cif.got.tgz:70873.got - 2010.06.03 18:56:24.
