data_PCOD9121803
_publ_section_title
;
Structure prediction by ZEFSAII (Michael W. Deem and Ramdas Pophale) SiO2 
 PCOD9121803
Probable space group: C 2
;
_chemical_formula_sum "Si O2"
_cell_formula_units_Z 28
_cell_length_a 28.354876
_cell_length_b 4.999435
_cell_length_c 15.305709
_cell_angle_alpha 90.000000
_cell_angle_beta 144.660510
_cell_angle_gamma 90.000000
_cell_volume 1255.004917
_symmetry_space_group_name_H-M "C 2"
_symmetry_group_IT_number 5
_symmetry_cell_setting 'monoclinic'
loop_
_space_group_symop_operation_xyz
x,y,z
-x,y,-z
1/2+x,1/2+y,z
1/2-x,1/2+y,-z
loop_
_atom_site_type_symbol
_atom_site_label
_atom_site_fract_x
_atom_site_fract_y
_atom_site_fract_z
Si Si1 0.533885 0.606980 0.182621
Si Si2 0.049222 0.702750 0.803783
Si Si3 0.716674 0.362813 0.996081
Si Si4 0.885906 0.505002 0.555234
Si Si5 0.125011 0.349715 0.062464
Si Si6 0.805644 0.875069 0.568314
Si Si7 0.235282 0.824716 0.223198
O O1 0.485702 0.394239 0.171681
O O2 0.580208 0.821436 0.314558
O O3 0.610631 0.455884 0.254800
O O4 0.460045 0.758564 0.023194
O O5 0.118545 0.846621 0.853281
O O6 0.968177 0.604422 0.632880
O O7 0.093894 0.456228 0.920505
O O8 0.748697 0.654632 0.021406
O O9 0.746524 0.272827 0.137233
O O10 0.838702 0.754556 0.527362
O O11 0.821294 0.351868 0.399608
O O12 0.176676 0.598887 0.175068
O O13 0.185828 0.102065 0.152171
O O14 0.751610 0.633897 0.524493
#
# Coordination Sequence:
#
# PCOD9121803 Si02
#       7
#     4   4   4   4   4   4   4
#     4  10  19  39  63  95 113 168 210 251 293 381
#     4   9  20  38  62  88 119 163 219 245 295 388
#     4  11  22  39  63  87 123 166 211 259 312 361
#     4  10  23  38  67  94 126 162 210 255 312 360
#     4  10  19  36  61  89 118 157 212 252 288 364
#     4  11  22  38  61  99 126 157 204 261 311 365
#     4  11  23  38  62  95 124 157 214 259 302 371
#
# _framework density 22.310669000000001
#
# number of rings (size 3 to 8) (size 9 to 14) (size 15 to 20)
#    0.000    1.714    4.286    1.714    6.000    0.000 
#    0.000    0.714    0.000    0.857   18.571    0.000 
#    0.000    0.000    0.000    0.000    0.000    0.000 
#
# Total GULP energy -78185.624914 kJ/mol
# GULP energy per Si atom -5584.687494 kJ/mol
# Density = 2.225989 g / cm^3
# Si number density = 22.310669 Si / 1000 Ang^3
#
#
#
# Elastic Constant Matrix: (Units=GPa)
#
#
# Indices 1 2 3 4 5 6 
#
# 1 70.1265 20.8967 41.1332 0.0000 25.4935 0.0000
# 2 20.8967 124.4642 36.1617 -0.0001 24.4898 0.0002
# 3 41.1332 36.1617 162.4129 0.0000 34.8939 0.0000
# 4 0.0000 -0.0001 0.0000 47.1714 0.0000 18.4553
# 5 25.4935 24.4898 34.8939 0.0000 33.7340 0.0000
# 6 0.0000 0.0002 0.0000 18.4553 0.0000 24.5899
#
#
#
# Elastic Compliance Matrix: (Units=1/GPa)
#
#
# Indices 1 2 3 4 5 6 
#
# 1 0.020357 -0.000216 -0.002361 0.000000 -0.012785 0.000000
# 2 -0.000216 0.009458 -0.000786 0.000000 -0.005890 0.000000
# 3 -0.002361 -0.000786 0.008260 0.000000 -0.006189 0.000000
# 4 0.000000 0.000000 0.000000 0.030012 0.000000 -0.022525
# 5 -0.012785 -0.005890 -0.006189 0.000000 0.049984 0.000000
# 6 0.000000 0.000000 0.000000 -0.022525 0.000000 0.057572
#
#
# Mechanical properties :
#
#
# Convention : Reuss Voigt Hill
#
# Bulk Modulus (GPa) = 31.89824 61.48743 46.69284
# Shear Modulus (GPa) = 25.93123 38.35320 32.14221
#
# Velocity S-wave (km/s) = 3.41292 4.15064 3.79973
# Velocity P-wave (km/s) = 5.46434 7.11266 6.34228
#
# Compressibility (1/GPa) = 0.03134969
#
# Stress axis : x y z
#
# Youngs Moduli (GPa) = 49.12319 105.73127 121.06983
#
# Poissons Ratio (x) = 0.02287 0.28580
# Poissons Ratio (y) = 0.01062 0.09511
# Poissons Ratio (z) = 0.11596 0.08306
#
# Static dielectric constant tensor:
#      x y z
#    x 1.852890 0.000000 -0.000270 
#    y 0.000000 1.890460 0.000000 
#    z -0.000270 0.000000 1.859270 
# 
# From -- ./inp_files/63673.got.cif
#   From: 2010.05.17/outbox.cif.g08.bks.cpg/sg5_32_cif.got.tgz:63673.got - 2010.06.03 18:56:24.
