data_PCOD9121864
_publ_section_title
;
Structure prediction by ZEFSAII (Michael W. Deem and Ramdas Pophale) SiO2 
 PCOD9121864
Probable space group: C 2
;
_chemical_formula_sum "Si O2"
_cell_formula_units_Z 26
_cell_length_a 19.536839
_cell_length_b 13.312094
_cell_length_c 6.649332
_cell_angle_alpha 90.000000
_cell_angle_beta 128.530171
_cell_angle_gamma 90.000000
_cell_volume 1352.823232
_symmetry_space_group_name_H-M "C 2"
_symmetry_group_IT_number 5
_symmetry_cell_setting 'monoclinic'
loop_
_space_group_symop_operation_xyz
x,y,z
-x,y,-z
1/2+x,1/2+y,z
1/2-x,1/2+y,-z
loop_
_atom_site_type_symbol
_atom_site_label
_atom_site_fract_x
_atom_site_fract_y
_atom_site_fract_z
Si Si1 0.911421 0.220570 0.436496
Si Si2 0.576938 0.535105 0.286558
Si Si3 0.689878 0.853999 0.436653
Si Si4 0.500000 0.340696 0.000000
Si Si5 0.751469 0.733758 0.164126
Si Si6 0.341855 0.253543 0.938871
Si Si7 0.222323 0.574292 0.455451
O O1 0.927280 0.105337 0.528426
O O2 0.881505 0.284998 0.578360
O O3 0.000000 0.261386 0.500000
O O4 0.831762 0.220134 0.133845
O O5 0.675484 0.548280 0.389776
O O6 0.500000 0.576691 0.000000
O O7 0.553652 0.417377 0.243374
O O8 0.719254 0.811815 0.274071
O O9 0.775715 0.838010 0.731758
O O10 0.669578 0.970995 0.377164
O O11 0.435431 0.276441 0.017191
O O12 0.780045 0.637504 0.344413
O O13 0.830057 0.758634 0.155782
O O14 0.308178 0.148230 0.780402
#
# Coordination Sequence:
#
# PCOD9121864 Si02
#       7
#     4   4   4   2   4   4   4
#     4  11  22  37  58  93 122 153 204 258 309 356
#     4  10  19  36  65  89 122 157 196 265 307 353
#     4  10  21  39  57  84 121 165 204 248 303 368
#     4  10  22  40  62  92 128 158 202 264 310 358
#     4  10  21  38  63  86 122 162 203 254 304 371
#     4  10  21  39  60  87 124 164 206 250 310 369
#     4  11  20  41  62  87 125 165 205 249 313 369
#
# _framework density 19.219069000000001
#
# number of rings (size 3 to 8) (size 9 to 14) (size 15 to 20)
#    0.462    1.231    6.154    0.923    0.000    2.462 
#    2.769    6.154    0.000    0.000    0.000    0.000 
#    0.000    0.000    0.000    0.000    0.000    0.000 
#
# Total GULP energy -72432.533032 kJ/mol
# GULP energy per Si atom -5571.733310 kJ/mol
# Density = 1.917533 g / cm^3
# Si number density = 19.219069 Si / 1000 Ang^3
#
#
#
# Elastic Constant Matrix: (Units=GPa)
#
#
# Indices 1 2 3 4 5 6 
#
# 1 163.1265 40.3220 31.0603 0.0000 -17.4700 0.0000
# 2 40.3220 110.1613 26.8981 0.0000 -19.0624 0.0000
# 3 31.0603 26.8981 53.2139 0.0000 -23.5420 0.0000
# 4 0.0000 0.0000 0.0000 4.5962 0.0000 8.1383
# 5 -17.4700 -19.0624 -23.5420 0.0000 27.6205 0.0000
# 6 0.0000 0.0000 0.0000 8.1383 0.0000 20.4582
#
#
#
# Elastic Compliance Matrix: (Units=1/GPa)
#
#
# Indices 1 2 3 4 5 6 
#
# 1 0.007220 -0.001780 -0.002950 0.000000 0.000824 0.000000
# 2 -0.001780 0.011124 -0.002706 0.000000 0.004245 0.000000
# 3 -0.002950 -0.002706 0.032476 0.000000 0.023947 0.000000
# 4 0.000000 0.000000 0.000000 0.735917 0.000000 -0.292747
# 5 0.000824 0.004245 0.023947 0.000000 0.060067 0.000000
# 6 0.000000 0.000000 0.000000 -0.292747 0.000000 0.165334
#
#
# Mechanical properties :
#
#
# Convention : Reuss Voigt Hill
#
# Bulk Modulus (GPa) = 27.81753 58.11807 42.96780
# Shear Modulus (GPa) = 4.81235 25.74974 15.28104
#
# Velocity S-wave (km/s) = 1.58410 3.66430 2.82281
# Velocity P-wave (km/s) = 4.22507 6.94322 5.74715
#
# Compressibility (1/GPa) = 0.03594855
#
# Stress axis : x y z
#
# Youngs Moduli (GPa) = 138.50187 89.89225 30.79186
#
# Poissons Ratio (x) = 0.16000 0.09084
# Poissons Ratio (y) = 0.24651 0.08332
# Poissons Ratio (z) = 0.40860 0.24325
#
# Static dielectric constant tensor:
#      x y z
#    x 1.696930 0.000000 0.005320 
#    y 0.000000 1.694430 0.000000 
#    z 0.005320 0.000000 1.681320 
# 
# From -- ./inp_files/8584.got.cif
#   From: 2010.05.17/outbox.cif.g08.bks.cpg/sg5_5_cif.got.tgz:8584.got - 2010.06.03 18:56:24.
