data_PCOD9121207
_publ_section_title
;
Structure prediction by ZEFSAII (Michael W. Deem and Ramdas Pophale) SiO2 
 PCOD9121207
Probable space group: C 2
;
_chemical_formula_sum "Si O2"
_cell_formula_units_Z 22
_cell_length_a 19.927116
_cell_length_b 5.043270
_cell_length_c 8.589895
_cell_angle_alpha 90.000000
_cell_angle_beta 106.977133
_cell_angle_gamma 90.000000
_cell_volume 825.645833
_symmetry_space_group_name_H-M "C 2"
_symmetry_group_IT_number 5
_symmetry_cell_setting 'monoclinic'
loop_
_space_group_symop_operation_xyz
x,y,z
-x,y,-z
1/2+x,1/2+y,z
1/2-x,1/2+y,-z
loop_
_atom_site_type_symbol
_atom_site_label
_atom_site_fract_x
_atom_site_fract_y
_atom_site_fract_z
Si Si1 0.358499 0.299640 0.752909
Si Si2 0.886949 0.151134 0.488757
Si Si3 0.211010 0.313282 0.143250
Si Si4 0.026797 0.270524 0.731206
Si Si5 0.658977 0.030657 0.777988
Si Si6 0.000000 0.927926 0.000000
O O1 0.361291 0.415546 0.580192
O O2 0.320817 0.530819 0.828394
O O3 0.437741 0.271846 0.873441
O O4 0.318410 0.029779 0.758241
O O5 0.934951 0.085126 0.371558
O O6 0.833095 0.355284 0.373694
O O7 0.945730 0.304610 0.633296
O O8 0.075594 0.529124 0.753185
O O9 0.189570 0.391875 0.953938
O O10 0.033254 0.125198 0.897017
O O11 0.795107 0.791013 0.208003
#
# Coordination Sequence:
#
# PCOD9121207 Si02
#       6
#     4   4   4   4   4   2
#     4  11  24  45  73 120 157 212 272 339 413 491
#     4   8  18  42  78 114 160 205 268 337 418 472
#     4  12  25  44  76 114 163 218 276 328 409 496
#     4   8  16  38  82 120 155 214 266 345 415 478
#     4  10  21  45  73 116 163 221 271 333 406 498
#     4  10  18  42  80 122 162 198 282 348 412 486
#
# _framework density 26.645806
#
# number of rings (size 3 to 8) (size 9 to 14) (size 15 to 20)
#    1.091    1.091    1.818    1.091    0.000    0.727 
#    0.000   10.909    0.000    6.545    0.000    0.000 
#    0.000    0.000    0.000    0.000    0.000    0.000 
#
# Total GULP energy -61597.899649 kJ/mol
# GULP energy per Si atom -5599.809059 kJ/mol
# Density = 2.658516 g / cm^3
# Si number density = 26.645806 Si / 1000 Ang^3
#
#
#
# Elastic Constant Matrix: (Units=GPa)
#
#
# Indices 1 2 3 4 5 6 
#
# 1 127.3500 61.9840 41.3970 0.0000 1.8645 0.0000
# 2 61.9840 108.0085 34.3169 0.0000 4.4245 0.0000
# 3 41.3970 34.3169 158.4287 0.0000 -12.5374 0.0000
# 4 0.0000 0.0000 0.0000 35.6363 0.0000 -10.5341
# 5 1.8645 4.4245 -12.5374 0.0000 43.5442 0.0000
# 6 0.0000 0.0000 0.0000 -10.5341 0.0000 55.2602
#
#
#
# Elastic Compliance Matrix: (Units=1/GPa)
#
#
# Indices 1 2 3 4 5 6 
#
# 1 0.011294 -0.005927 -0.001697 0.000000 -0.000370 0.000000
# 2 -0.005927 0.013173 -0.001423 0.000000 -0.001494 0.000000
# 3 -0.001697 -0.001423 0.007246 0.000000 0.002303 0.000000
# 4 0.000000 0.000000 0.000000 0.029737 0.000000 0.005669
# 5 -0.000370 -0.001494 0.002303 0.000000 0.023796 0.000000
# 6 0.000000 0.000000 0.000000 0.005669 0.000000 0.019177
#
#
# Mechanical properties :
#
#
# Convention : Reuss Voigt Hill
#
# Bulk Modulus (GPa) = 73.42217 74.35364 73.88790
# Shear Modulus (GPa) = 39.35246 43.96076 41.65661
#
# Velocity S-wave (km/s) = 3.84718 4.06620 3.95821
# Velocity P-wave (km/s) = 6.88107 7.07180 6.97709
#
# Compressibility (1/GPa) = 0.01361986
#
# Stress axis : x y z
#
# Youngs Moduli (GPa) = 88.54065 75.91022 138.01132
#
# Poissons Ratio (x) = 0.44995 0.23414
# Poissons Ratio (y) = 0.52481 0.19638
# Poissons Ratio (z) = 0.15021 0.10801
#
# Static dielectric constant tensor:
#      x y z
#    x 2.103550 0.000000 0.031060 
#    y 0.000000 2.068120 0.000000 
#    z 0.031060 0.000000 2.058000 
# 
# From -- ./inp_files/31225.got.cif
#   From: 2010.05.17/outbox.cif.g08.bks.cpg/sg5_16_cif.got.tgz:31225.got - 2010.06.03 18:56:24.
