data_PCOD9121920
_publ_section_title
;
Structure prediction by ZEFSAII (Michael W. Deem and Ramdas Pophale) SiO2 
 PCOD9121920
Probable space group: C 2
;
_chemical_formula_sum "Si O2"
_cell_formula_units_Z 32
_cell_length_a 24.105041
_cell_length_b 10.010417
_cell_length_c 6.540691
_cell_angle_alpha 90.000000
_cell_angle_beta 85.999960
_cell_angle_gamma 90.000000
_cell_volume 1574.433945
_symmetry_space_group_name_H-M "C 2"
_symmetry_group_IT_number 5
_symmetry_cell_setting 'monoclinic'
loop_
_space_group_symop_operation_xyz
x,y,z
-x,y,-z
1/2+x,1/2+y,z
1/2-x,1/2+y,-z
loop_
_atom_site_type_symbol
_atom_site_label
_atom_site_fract_x
_atom_site_fract_y
_atom_site_fract_z
Si Si1 0.192442 0.126900 0.414880
Si Si2 0.226440 0.388363 0.153400
Si Si3 0.582980 0.482037 0.491643
Si Si4 0.806939 0.542169 0.470948
Si Si5 0.838891 0.307772 0.221409
Si Si6 0.554370 0.643065 0.876664
Si Si7 0.652216 0.301040 0.787206
Si Si8 0.057995 0.858265 0.087591
O O1 0.207187 0.252564 0.272154
O O2 0.243509 0.024272 0.403324
O O3 0.189035 0.187363 0.644880
O O4 0.133276 0.065231 0.375246
O O5 0.201881 0.514553 0.285509
O O6 0.293336 0.379260 0.145337
O O7 0.199659 0.371509 0.940373
O O8 0.549030 0.586041 0.644698
O O9 0.616023 0.390188 0.643297
O O10 0.554905 0.386214 0.330883
O O11 0.847022 0.425833 0.381855
O O12 0.827471 0.677627 0.359172
O O13 0.895814 0.246878 0.126394
O O14 0.500000 0.699976 0.000000
O O15 0.566376 0.508723 0.000593
O O16 0.610344 0.274299 0.988383
O O17 0.000000 0.811367 0.000000
#
# Coordination Sequence:
#
# PCOD9121920 Si02
#       8
#     4   4   4   4   4   4   4   4
#     4   9  19  34  53  81 113 149 185 234 289 344
#     4  10  20  34  55  83 113 150 193 234 289 341
#     4  10  19  37  60  80 117 148 186 244 293 346
#     4  10  21  36  52  82 120 152 191 232 284 347
#     4  10  21  35  56  83 115 148 195 241 282 346
#     4   9  20  38  59  87 112 146 193 242 296 345
#     4  10  22  35  54  83 114 156 194 229 290 348
#     4  10  22  37  59  88 111 145 198 242 290 343
#
# _framework density 20.324763999999998
#
# number of rings (size 3 to 8) (size 9 to 14) (size 15 to 20)
#    0.000    2.250    1.250    0.750    1.750    7.500 
#    0.000    0.625    0.000    1.500    0.000    0.000 
#    0.000    0.000    0.000    0.000    0.000    0.000 
#
# Total GULP energy -89137.531405 kJ/mol
# GULP energy per Si atom -5571.095713 kJ/mol
# Density = 2.027850 g / cm^3
# Si number density = 20.324764 Si / 1000 Ang^3
#
#
#
# Elastic Constant Matrix: (Units=GPa)
#
#
# Indices 1 2 3 4 5 6 
#
# 1 97.5469 20.2286 62.4831 0.0000 -16.6587 0.0000
# 2 20.2286 31.6750 1.9019 0.0000 -8.7483 0.0000
# 3 62.4831 1.9019 98.1502 0.0000 2.6773 0.0000
# 4 0.0000 0.0000 0.0000 27.6705 0.0000 -8.6149
# 5 -16.6587 -8.7483 2.6773 0.0000 33.7648 0.0000
# 6 0.0000 0.0000 0.0000 -8.6149 0.0000 24.3440
#
#
#
# Elastic Compliance Matrix: (Units=1/GPa)
#
#
# Indices 1 2 3 4 5 6 
#
# 1 0.024469 -0.011861 -0.015627 0.000000 0.010238 0.000000
# 2 -0.011861 0.039833 0.006671 0.000000 0.003940 0.000000
# 3 -0.015627 0.006671 0.020214 0.000000 -0.007584 0.000000
# 4 0.000000 0.000000 0.000000 0.040614 0.000000 0.014373
# 5 0.010238 0.003940 -0.007584 0.000000 0.036290 0.000000
# 6 0.000000 0.000000 0.000000 0.014373 0.000000 0.046164
#
#
# Mechanical properties :
#
#
# Convention : Reuss Voigt Hill
#
# Bulk Modulus (GPa) = 23.31880 44.06660 33.69270
# Shear Modulus (GPa) = 18.97451 26.67308 22.82380
#
# Velocity S-wave (km/s) = 3.05875 3.62656 3.35469
# Velocity P-wave (km/s) = 4.89618 6.26612 5.62302
#
# Compressibility (1/GPa) = 0.04288385
#
# Stress axis : x y z
#
# Youngs Moduli (GPa) = 40.86782 25.10498 49.47034
#
# Poissons Ratio (x) = 0.29776 0.77306
# Poissons Ratio (y) = 0.48472 -0.33003
# Poissons Ratio (z) = 0.63863 -0.16748
#
# Static dielectric constant tensor:
#      x y z
#    x 1.777920 0.000000 -0.042880 
#    y 0.000000 1.721130 0.000000 
#    z -0.042880 0.000000 1.846790 
# 
# From -- ./inp_files/10341.got.cif
#   From: 2010.05.17/outbox.cif.g08.bks.cpg/sg5_6_cif.got.tgz:10341.got - 2010.06.03 18:56:24.
