data_PCOD9121510
_publ_section_title
;
Structure prediction by ZEFSAII (Michael W. Deem and Ramdas Pophale) SiO2 
 PCOD9121510
Probable space group: C 2
;
_chemical_formula_sum "Si O2"
_cell_formula_units_Z 24
_cell_length_a 14.699734
_cell_length_b 11.246594
_cell_length_c 15.334259
_cell_angle_alpha 90.000000
_cell_angle_beta 30.051352
_cell_angle_gamma 90.000000
_cell_volume 1269.511914
_symmetry_space_group_name_H-M "C 2"
_symmetry_group_IT_number 5
_symmetry_cell_setting 'monoclinic'
loop_
_space_group_symop_operation_xyz
x,y,z
-x,y,-z
1/2+x,1/2+y,z
1/2-x,1/2+y,-z
loop_
_atom_site_type_symbol
_atom_site_label
_atom_site_fract_x
_atom_site_fract_y
_atom_site_fract_z
Si Si1 0.438062 0.422660 0.960923
Si Si2 0.567605 0.015776 0.762076
Si Si3 0.248725 0.236543 0.340833
Si Si4 0.151232 0.067193 0.132619
Si Si5 0.467931 0.823801 0.706074
Si Si6 0.178454 0.010782 0.301036
O O1 0.232051 0.377495 0.144446
O O2 0.500000 0.481959 0.000000
O O3 0.577782 0.314418 0.828155
O O4 0.440023 0.504339 0.873913
O O5 0.697354 0.128999 0.637432
O O6 0.644091 0.969658 0.792545
O O7 0.565136 0.913037 0.693356
O O8 0.366943 0.070104 0.935382
O O9 0.192507 0.154889 0.304591
O O10 0.094888 0.311921 0.515898
O O11 0.067187 0.195626 0.220960
O O12 0.147899 0.991093 0.225008
O O13 0.000000 0.969525 0.500000
#
# Coordination Sequence:
#
# PCOD9121510 Si02
#       6
#     4   4   4   4   4   4
#     4  11  25  38  60  89 120 156 197 247 295 347
#     4   9  22  35  59  92 116 154 199 238 292 346
#     4  10  22  35  64  87 117 152 201 248 283 348
#     4  11  20  39  60  86 120 155 194 245 293 351
#     4  11  21  40  62  88 121 155 194 245 296 348
#     4  10  19  34  58  90 112 152 199 242 285 345
#
# _framework density 18.904902
#
# number of rings (size 3 to 8) (size 9 to 14) (size 15 to 20)
#    1.000    0.667    3.333    1.500    4.667    0.000 
#    0.000    3.333    0.000    0.000    0.000    0.000 
#    0.000    0.000    0.000    0.000    0.000    0.000 
#
# Total GULP energy -66841.966495 kJ/mol
# GULP energy per Si atom -5570.163875 kJ/mol
# Density = 1.886187 g / cm^3
# Si number density = 18.904902 Si / 1000 Ang^3
#
#
#
# Elastic Constant Matrix: (Units=GPa)
#
#
# Indices 1 2 3 4 5 6 
#
# 1 147.9207 36.2289 27.2301 0.0000 16.8537 0.0000
# 2 36.2289 28.9465 11.3007 -0.0001 5.1259 0.0002
# 3 27.2301 11.3007 69.0336 0.0000 6.1562 0.0001
# 4 0.0000 -0.0001 0.0000 22.5926 0.0000 2.1035
# 5 16.8537 5.1259 6.1562 0.0000 25.5657 -0.0001
# 6 0.0000 0.0002 0.0001 2.1035 -0.0001 32.0648
#
#
#
# Elastic Compliance Matrix: (Units=1/GPa)
#
#
# Indices 1 2 3 4 5 6 
#
# 1 0.010400 -0.011573 -0.001843 0.000000 -0.004092 0.000000
# 2 -0.011573 0.050729 -0.003590 0.000000 -0.001678 0.000000
# 3 -0.001843 -0.003590 0.015971 0.000000 -0.001911 0.000000
# 4 0.000000 0.000000 0.000000 0.044534 0.000000 -0.002922
# 5 -0.004092 -0.001678 -0.001911 0.000000 0.042609 0.000000
# 6 0.000000 0.000000 0.000000 -0.002922 0.000000 0.031378
#
#
# Mechanical properties :
#
#
# Convention : Reuss Voigt Hill
#
# Bulk Modulus (GPa) = 23.20773 43.93559 33.57166
# Shear Modulus (GPa) = 20.49212 27.45404 23.97308
#
# Velocity S-wave (km/s) = 3.29592 3.81493 3.56489
# Velocity P-wave (km/s) = 5.17560 6.53420 5.89417
#
# Compressibility (1/GPa) = 0.04308909
#
# Stress axis : x y z
#
# Youngs Moduli (GPa) = 96.15127 19.71250 62.61447
#
# Poissons Ratio (x) = 0.22813 0.11540
# Poissons Ratio (y) = 1.11273 0.22478
# Poissons Ratio (z) = 0.17721 0.07077
#
# Static dielectric constant tensor:
#      x y z
#    x 1.717420 0.000000 -0.007400 
#    y 0.000000 1.645270 0.000000 
#    z -0.007400 0.000000 1.680460 
# 
# From -- ./inp_files/30970.got.cif
#   From: 2010.05.17/outbox.cif.g08.bks.cpg/sg5_16_cif.got.tgz:30970.got - 2010.06.03 18:56:24.
