data_PCOD9121536
_publ_section_title
;
Structure prediction by ZEFSAII (Michael W. Deem and Ramdas Pophale) SiO2 
 PCOD9121536
Probable space group: C 2
;
_chemical_formula_sum "Si O2"
_cell_formula_units_Z 30
_cell_length_a 5.755074
_cell_length_b 17.414242
_cell_length_c 13.821045
_cell_angle_alpha 90.000000
_cell_angle_beta 74.298580
_cell_angle_gamma 90.000000
_cell_volume 1333.461839
_symmetry_space_group_name_H-M "C 2"
_symmetry_group_IT_number 5
_symmetry_cell_setting 'monoclinic'
loop_
_space_group_symop_operation_xyz
x,y,z
-x,y,-z
1/2+x,1/2+y,z
1/2-x,1/2+y,-z
loop_
_atom_site_type_symbol
_atom_site_label
_atom_site_fract_x
_atom_site_fract_y
_atom_site_fract_z
Si Si1 0.000475 0.751580 0.887578
Si Si2 0.000000 0.529476 0.000000
Si Si3 0.609355 0.489872 0.741073
Si Si4 0.240103 0.045494 0.514950
Si Si5 0.083391 0.340184 0.230916
Si Si6 0.715759 0.872278 0.553960
Si Si7 0.743042 0.904276 0.879898
Si Si8 0.297902 0.615885 0.107943
O O1 0.909774 0.838383 0.899719
O O2 0.803501 0.699620 0.854833
O O3 0.252850 0.763935 0.802935
O O4 0.000000 0.725574 0.000000
O O5 0.939457 0.577480 0.913523
O O6 0.215754 0.470348 0.961033
O O7 0.669559 0.517875 0.629185
O O8 0.775284 0.416975 0.750353
O O9 0.347851 0.451144 0.777518
O O10 0.626590 0.560336 0.814173
O O11 0.500000 0.085730 0.500000
O O12 0.000000 0.085702 0.500000
O O13 0.282231 0.966400 0.448716
O O14 0.873847 0.334485 0.335290
O O15 0.990241 0.362049 0.134548
O O16 0.500000 0.852563 0.500000
O O17 0.000000 0.851863 0.500000
O O18 0.500000 0.621486 0.000000
#
# Coordination Sequence:
#
# PCOD9121536 Si02
#       8
#     4   2   4   4   4   4   4   4
#     4  11  27  42  62  93 138 190 239 280 356 426
#     4  12  22  38  64  90 128 176 228 290 342 402
#     4  11  22  38  64 102 135 176 234 287 355 423
#     4  10  19  34  61 100 141 168 214 294 365 421
#     4  11  22  39  64 100 135 175 231 294 350 426
#     4  10  19  34  61  99 141 169 214 292 367 420
#     4  11  23  37  64  94 129 170 225 300 335 408
#     4  12  26  44  61  94 141 191 236 286 351 433
#
# _framework density 22.497831999999999
#
# number of rings (size 3 to 8) (size 9 to 14) (size 15 to 20)
#    0.000    1.067    6.000    2.400    6.533    0.000 
#    0.000    0.000    0.000    0.000    3.467    0.933 
#    0.000    0.000    0.000    0.000    0.000    0.000 
#
# Total GULP energy -83601.066441 kJ/mol
# GULP energy per Si atom -5573.404429 kJ/mol
# Density = 2.244663 g / cm^3
# Si number density = 22.497832 Si / 1000 Ang^3
#
#
#
# Elastic Constant Matrix: (Units=GPa)
#
#
# Indices 1 2 3 4 5 6 
#
# 1 113.5048 19.7394 21.0403 0.0000 -9.9846 0.0000
# 2 19.7394 63.0011 24.3078 0.0000 -12.1186 0.0000
# 3 21.0403 24.3078 81.2609 0.0000 -15.1333 0.0000
# 4 0.0000 0.0000 0.0000 5.9906 0.0000 -2.5390
# 5 -9.9846 -12.1186 -15.1333 0.0000 40.0247 0.0000
# 6 0.0000 0.0000 0.0000 -2.5390 0.0000 18.7487
#
#
#
# Elastic Compliance Matrix: (Units=1/GPa)
#
#
# Indices 1 2 3 4 5 6 
#
# 1 0.009586 -0.002160 -0.001627 0.000000 0.001122 0.000000
# 2 -0.002160 0.018943 -0.004453 0.000000 0.003513 0.000000
# 3 -0.001627 -0.004453 0.014773 0.000000 0.003831 0.000000
# 4 0.000000 0.000000 0.000000 0.177092 0.000000 0.023982
# 5 0.001122 0.003513 0.003831 0.000000 0.027777 0.000000
# 6 0.000000 0.000000 0.000000 0.023982 0.000000 0.056585
#
#
# Mechanical properties :
#
#
# Convention : Reuss Voigt Hill
#
# Bulk Modulus (GPa) = 37.28215 43.10465 40.19340
# Shear Modulus (GPa) = 15.14341 25.79809 20.47075
#
# Velocity S-wave (km/s) = 2.59724 3.38996 3.01973
# Velocity P-wave (km/s) = 5.05981 5.87567 5.48293
#
# Compressibility (1/GPa) = 0.02682248
#
# Stress axis : x y z
#
# Youngs Moduli (GPa) = 104.31734 52.78891 67.69158
#
# Poissons Ratio (x) = 0.11402 0.11013
# Poissons Ratio (y) = 0.22532 0.30144
# Poissons Ratio (z) = 0.16972 0.23507
#
# Static dielectric constant tensor:
#      x y z
#    x 1.942980 0.000000 -0.076810 
#    y 0.000000 1.790860 0.000000 
#    z -0.076810 0.000000 1.882140 
# 
# From -- ./inp_files/49309.got.cif
#   From: 2010.05.17/outbox.cif.g08.bks.cpg/sg5_25_cif.got.tgz:49309.got - 2010.06.03 18:56:24.
