data_PCOD9121694
_publ_section_title
;
Structure prediction by ZEFSAII (Michael W. Deem and Ramdas Pophale) SiO2 
 PCOD9121694
Probable space group: C 2
;
_chemical_formula_sum "Si O2"
_cell_formula_units_Z 26
_cell_length_a 12.230546
_cell_length_b 14.201659
_cell_length_c 6.745972
_cell_angle_alpha 90.000000
_cell_angle_beta 84.293901
_cell_angle_gamma 90.000000
_cell_volume 1165.929198
_symmetry_space_group_name_H-M "C 2"
_symmetry_group_IT_number 5
_symmetry_cell_setting 'monoclinic'
loop_
_space_group_symop_operation_xyz
x,y,z
-x,y,-z
1/2+x,1/2+y,z
1/2-x,1/2+y,-z
loop_
_atom_site_type_symbol
_atom_site_label
_atom_site_fract_x
_atom_site_fract_y
_atom_site_fract_z
Si Si1 0.070982 0.581170 0.305302
Si Si2 0.414432 0.275191 0.803483
Si Si3 0.213013 0.374554 0.833520
Si Si4 0.214345 0.018863 0.513305
Si Si5 0.000000 0.449688 0.000000
Si Si6 0.851879 0.824123 0.352007
Si Si7 0.632168 0.733993 0.507388
O O1 0.108027 0.665788 0.158661
O O2 0.176207 0.533757 0.379616
O O3 0.000000 0.619633 0.500000
O O4 0.995075 0.511718 0.197246
O O5 0.323080 0.340009 0.919987
O O6 0.382837 0.295350 0.575936
O O7 0.544250 0.290189 0.794320
O O8 0.249039 0.465853 0.696497
O O9 0.161981 0.292194 0.702200
O O10 0.113678 0.396501 0.995763
O O11 0.157465 0.121305 0.505471
O O12 0.147152 0.937573 0.638898
O O13 0.729495 0.779060 0.348916
O O14 0.500000 0.748228 0.500000
#
# Coordination Sequence:
#
# PCOD9121694 Si02
#       7
#     4   4   4   4   2   4   4
#     4  12  20  41  66  89 124 165 214 260 311 374
#     4   9  17  38  63  84 127 162 209 260 312 362
#     4  10  23  39  58  95 128 166 209 265 313 373
#     4  10  19  35  64  89 124 167 207 250 318 374
#     4  12  28  36  64  98 122 166 220 264 314 376
#     4   9  18  30  58  99 115 163 209 256 305 373
#     4  10  20  33  60 100 125 163 211 253 317 380
#
# _framework density 22.299809
#
# number of rings (size 3 to 8) (size 9 to 14) (size 15 to 20)
#    0.000    2.154    6.154    0.000    8.615    0.000 
#    0.000    3.077    0.000    0.000    0.000    0.000 
#    0.000    0.000    0.000    0.000    0.000    0.000 
#
# Total GULP energy -72444.452047 kJ/mol
# GULP energy per Si atom -5572.650157 kJ/mol
# Density = 2.224905 g / cm^3
# Si number density = 22.299809 Si / 1000 Ang^3
#
#
#
# Elastic Constant Matrix: (Units=GPa)
#
#
# Indices 1 2 3 4 5 6 
#
# 1 167.7456 39.5372 34.9160 0.0000 8.7159 0.0000
# 2 39.5372 119.5791 21.6662 0.0000 -3.1891 0.0000
# 3 34.9160 21.6662 29.8033 0.0000 1.4239 0.0000
# 4 0.0000 0.0000 0.0000 12.1558 0.0000 1.6888
# 5 8.7159 -3.1891 1.4239 0.0000 43.1027 0.0000
# 6 0.0000 0.0000 0.0000 1.6888 0.0000 38.6786
#
#
#
# Elastic Compliance Matrix: (Units=1/GPa)
#
#
# Indices 1 2 3 4 5 6 
#
# 1 0.008094 -0.001162 -0.008569 0.000000 -0.001440 0.000000
# 2 -0.001162 0.009837 -0.005845 0.000000 0.001156 0.000000
# 3 -0.008569 -0.005845 0.047855 0.000000 -0.000281 0.000000
# 4 0.000000 0.000000 0.000000 0.082767 0.000000 -0.003614
# 5 -0.001440 0.001156 -0.000281 0.000000 0.023586 0.000000
# 6 0.000000 0.000000 0.000000 -0.003614 0.000000 0.026012
#
#
# Mechanical properties :
#
#
# Convention : Reuss Voigt Hill
#
# Bulk Modulus (GPa) = 28.87357 56.59629 42.73493
# Shear Modulus (GPa) = 20.76016 33.52132 27.14074
#
# Velocity S-wave (km/s) = 3.05447 3.88133 3.49246
# Velocity P-wave (km/s) = 5.04140 6.74694 5.95554
#
# Compressibility (1/GPa) = 0.03463375
#
# Stress axis : x y z
#
# Youngs Moduli (GPa) = 123.55433 101.66004 20.89667
#
# Poissons Ratio (x) = 0.11812 0.17906
# Poissons Ratio (y) = 0.14356 0.12214
# Poissons Ratio (z) = 1.05869 0.59421
#
# Static dielectric constant tensor:
#      x y z
#    x 1.936880 0.000000 -0.072630 
#    y 0.000000 1.807370 0.000000 
#    z -0.072630 0.000000 1.984910 
# 
# From -- ./inp_files/20091.got.cif
#   From: 2010.05.17/outbox.cif.g08.bks.cpg/sg5_11_cif.got.tgz:20091.got - 2010.06.03 18:56:24.
