data_PCOD9121987
_publ_section_title
;
Structure prediction by ZEFSAII (Michael W. Deem and Ramdas Pophale) SiO2 
 PCOD9121987
Probable space group: C 2
;
_chemical_formula_sum "Si O2"
_cell_formula_units_Z 24
_cell_length_a 27.184900
_cell_length_b 9.004039
_cell_length_c 4.977386
_cell_angle_alpha 90.000000
_cell_angle_beta 80.726791
_cell_angle_gamma 90.000000
_cell_volume 1202.411983
_symmetry_space_group_name_H-M "C 2"
_symmetry_group_IT_number 5
_symmetry_cell_setting 'monoclinic'
loop_
_space_group_symop_operation_xyz
x,y,z
-x,y,-z
1/2+x,1/2+y,z
1/2-x,1/2+y,-z
loop_
_atom_site_type_symbol
_atom_site_label
_atom_site_fract_x
_atom_site_fract_y
_atom_site_fract_z
Si Si1 0.154396 0.783890 0.710516
Si Si2 0.200481 0.105849 0.700366
Si Si3 0.813104 0.605372 0.813598
Si Si4 0.444473 0.425113 0.999441
Si Si5 0.156521 0.268645 0.244882
Si Si6 0.944580 0.130649 0.498987
O O1 0.154532 0.693439 0.435048
O O2 0.099764 0.817128 0.876914
O O3 0.180876 0.942543 0.642622
O O4 0.184177 0.691986 0.908954
O O5 0.257152 0.101917 0.748050
O O6 0.191853 0.212573 0.455107
O O7 0.168233 0.168063 0.976541
O O8 0.832412 0.438560 0.830250
O O9 0.440940 0.567391 0.202040
O O10 0.500000 0.363161 0.000000
O O11 0.439613 0.488440 0.703214
O O12 0.100311 0.239458 0.392375
O O13 0.000000 0.192047 0.500000
#
# Coordination Sequence:
#
# PCOD9121987 Si02
#       6
#     4   4   4   4   4   4
#     4  12  23  42  62  91 121 160 204 251 304 357
#     4  12  23  41  64  84 120 169 213 238 290 366
#     4  12  26  38  59  92 129 158 196 256 308 356
#     4  10  20  38  64  91 115 153 205 254 297 355
#     4  12  23  42  61  91 122 161 204 250 305 355
#     4  10  19  37  64  91 115 153 206 253 294 355
#
# _framework density 19.959880999999999
#
# number of rings (size 3 to 8) (size 9 to 14) (size 15 to 20)
#    0.000    0.667    3.333    6.000    0.000    0.000 
#    0.000    1.667    0.000    0.000    0.000    0.000 
#    0.000    0.000    0.000    0.000    0.000    0.000 
#
# Total GULP energy -67161.185517 kJ/mol
# GULP energy per Si atom -5596.765460 kJ/mol
# Density = 1.991445 g / cm^3
# Si number density = 19.959881 Si / 1000 Ang^3
#
#
#
# Elastic Constant Matrix: (Units=GPa)
#
#
# Indices 1 2 3 4 5 6 
#
# 1 89.9110 11.6881 -17.1382 0.0000 -21.0197 0.0000
# 2 11.6881 62.6626 -8.1622 0.0000 -10.4673 0.0000
# 3 -17.1382 -8.1622 55.2558 0.0000 4.2472 0.0000
# 4 0.0000 0.0000 0.0000 7.1980 0.0000 -5.0827
# 5 -21.0197 -10.4673 4.2472 0.0000 33.4621 0.0000
# 6 0.0000 0.0000 0.0000 -5.0827 0.0000 0.5163
#
#
#
# Elastic Compliance Matrix: (Units=1/GPa)
#
#
# Indices 1 2 3 4 5 6 
#
# 1 0.013756 -0.000777 0.003541 0.000000 0.007949 0.000000
# 2 -0.000777 0.017128 0.001934 0.000000 0.004624 0.000000
# 3 0.003541 0.001934 0.019454 0.000000 0.000360 0.000000
# 4 0.000000 0.000000 0.000000 -0.023343 0.000000 -0.229804
# 5 0.007949 0.004624 0.000360 0.000000 0.036279 0.000000
# 6 0.000000 0.000000 0.000000 -0.229804 0.000000 -0.325443
#
#
# Mechanical properties :
#
#
# Convention : Reuss Voigt Hill
#
# Bulk Modulus (GPa) = 16.74106 20.06720 18.40413
# Shear Modulus (GPa) = -19.86854 22.99808 1.56477
#
# Velocity S-wave (km/s) = -3.15846 3.39811 0.88637
# Velocity P-wave (km/s) = 2.21259 5.04696 3.20751
#
# Compressibility (1/GPa) = 0.05973336
#
# Stress axis : x y z
#
# Youngs Moduli (GPa) = 72.69373 58.38497 51.40366
#
# Poissons Ratio (x) = 0.04536 -0.18202
# Poissons Ratio (y) = 0.05647 -0.09940
# Poissons Ratio (z) = -0.25740 -0.11290
#
# Static dielectric constant tensor:
#      x y z
#    x 1.727810 0.000000 -0.013170 
#    y 0.000000 1.651500 0.000000 
#    z -0.013170 0.000000 1.692260 
# 
# From -- ./inp_files/10693.got.cif
#   From: 2010.05.17/outbox.cif.g08.bks.cpg/sg5_6_cif.got.tgz:10693.got - 2010.06.03 18:56:24.
