data_PCOD9121166
_publ_section_title
;
Structure prediction by ZEFSAII (Michael W. Deem and Ramdas Pophale) SiO2 
 PCOD9121166
Probable space group: C 2
;
_chemical_formula_sum "Si O2"
_cell_formula_units_Z 20
_cell_length_a 6.978114
_cell_length_b 13.462393
_cell_length_c 10.425140
_cell_angle_alpha 90.000000
_cell_angle_beta 69.152763
_cell_angle_gamma 90.000000
_cell_volume 915.243543
_symmetry_space_group_name_H-M "C 2"
_symmetry_group_IT_number 5
_symmetry_cell_setting 'monoclinic'
loop_
_space_group_symop_operation_xyz
x,y,z
-x,y,-z
1/2+x,1/2+y,z
1/2-x,1/2+y,-z
loop_
_atom_site_type_symbol
_atom_site_label
_atom_site_fract_x
_atom_site_fract_y
_atom_site_fract_z
Si Si1 0.618191 0.428820 0.242984
Si Si2 0.500000 0.548735 0.500000
Si Si3 0.684235 0.587115 0.710646
Si Si4 0.825589 0.223449 0.890746
Si Si5 0.038792 0.704047 0.202604
Si Si6 0.000000 0.404916 0.000000
O O1 0.637764 0.477532 0.377574
O O2 0.403618 0.476533 0.245064
O O3 0.602507 0.310743 0.245776
O O4 0.809791 0.460846 0.109283
O O5 0.639474 0.605335 0.570379
O O6 0.523440 0.656522 0.823998
O O7 0.903013 0.617483 0.712687
O O8 0.690766 0.214197 0.794691
O O9 0.679897 0.190658 0.042490
O O10 0.902386 0.332555 0.914701
#
# Coordination Sequence:
#
# PCOD9121166 Si02
#       6
#     4   2   4   4   4   2
#     4   9  20  40  62  95 134 171 223 275 324 405
#     4   8  22  40  60  94 130 180 224 256 338 406
#     4  10  19  42  61  90 135 171 214 276 319 407
#     4  10  19  37  63 100 123 168 221 271 342 393
#     4  10  20  39  65  94 133 170 221 277 338 387
#     4  10  18  40  68  98 136 170 224 282 344 388
#
# _framework density 21.852105000000002
#
# number of rings (size 3 to 8) (size 9 to 14) (size 15 to 20)
#    1.200    1.200    4.000    0.000    0.000    1.600 
#   21.600    0.000    4.400    0.000    0.000    0.000 
#    0.000    0.000    0.000    0.000    0.000    0.000 
#
# Total GULP energy -55735.712473 kJ/mol
# GULP energy per Si atom -5573.571247 kJ/mol
# Density = 2.180237 g / cm^3
# Si number density = 21.852105 Si / 1000 Ang^3
#
#
#
# Elastic Constant Matrix: (Units=GPa)
#
#
# Indices 1 2 3 4 5 6 
#
# 1 102.0113 21.4624 33.0327 0.0000 31.1622 0.0000
# 2 21.4624 56.7387 30.7531 0.0000 4.5339 0.0000
# 3 33.0327 30.7531 71.5426 0.0000 20.1314 0.0000
# 4 0.0000 0.0000 0.0000 41.5662 0.0000 -15.7938
# 5 31.1622 4.5339 20.1314 0.0000 38.7657 0.0000
# 6 0.0000 0.0000 0.0000 -15.7938 0.0000 60.4366
#
#
#
# Elastic Compliance Matrix: (Units=1/GPa)
#
#
# Indices 1 2 3 4 5 6 
#
# 1 0.014287 -0.003317 -0.002399 0.000000 -0.009851 0.000000
# 2 -0.003317 0.024022 -0.010253 0.000000 0.005181 0.000000
# 3 -0.002399 -0.010253 0.021798 0.000000 -0.008192 0.000000
# 4 0.000000 0.000000 0.000000 0.026710 0.000000 0.006980
# 5 -0.009851 0.005181 -0.008192 0.000000 0.037363 0.000000
# 6 0.000000 0.000000 0.000000 0.006980 0.000000 0.018370
#
#
# Mechanical properties :
#
#
# Convention : Reuss Voigt Hill
#
# Bulk Modulus (GPa) = 35.49842 44.53209 40.01526
# Shear Modulus (GPa) = 27.19214 37.82333 32.50774
#
# Velocity S-wave (km/s) = 3.53139 4.16490 3.86116
# Velocity P-wave (km/s) = 5.73653 6.59936 6.18301
#
# Compressibility (1/GPa) = 0.02817027
#
# Stress axis : x y z
#
# Youngs Moduli (GPa) = 69.99555 41.62796 45.87653
#
# Poissons Ratio (x) = 0.13807 0.11005
# Poissons Ratio (y) = 0.23216 0.47035
# Poissons Ratio (z) = 0.16790 0.42679
#
# Static dielectric constant tensor:
#      x y z
#    x 1.872660 0.000000 0.030320 
#    y 0.000000 1.803630 0.000000 
#    z 0.030320 0.000000 1.801680 
# 
# From -- ./inp_files/14631.got.cif
#   From: 2010.05.17/outbox.cif.g08.bks.cpg/sg5_8_cif.got.tgz:14631.got - 2010.06.03 18:56:24.
