data_PCOD9121053
_publ_section_title
;
Structure prediction by ZEFSAII (Michael W. Deem and Ramdas Pophale) SiO2 
 PCOD9121053
Probable space group: C 2
;
_chemical_formula_sum "Si O2"
_cell_formula_units_Z 26
_cell_length_a 19.158163
_cell_length_b 7.192092
_cell_length_c 9.368419
_cell_angle_alpha 90.000000
_cell_angle_beta 126.114931
_cell_angle_gamma 90.000000
_cell_volume 1042.794607
_symmetry_space_group_name_H-M "C 2"
_symmetry_group_IT_number 5
_symmetry_cell_setting 'monoclinic'
loop_
_space_group_symop_operation_xyz
x,y,z
-x,y,-z
1/2+x,1/2+y,z
1/2-x,1/2+y,-z
loop_
_atom_site_type_symbol
_atom_site_label
_atom_site_fract_x
_atom_site_fract_y
_atom_site_fract_z
Si Si1 0.557789 0.018940 0.256275
Si Si2 0.874411 0.498024 0.980328
Si Si3 0.611318 0.422060 0.346486
Si Si4 0.784942 0.392828 0.368966
Si Si5 0.654175 0.437259 0.998255
Si Si6 0.684790 0.486077 0.720155
Si Si7 0.500000 0.592652 0.000000
O O1 0.460953 0.948907 0.171268
O O2 0.555466 0.243285 0.231566
O O3 0.629699 0.973865 0.458807
O O4 0.591557 0.960934 0.139718
O O5 0.856530 0.714172 0.996497
O O6 0.780447 0.405747 0.870605
O O7 0.706248 0.407328 0.387958
O O8 0.625605 0.390082 0.531546
O O9 0.560786 0.600918 0.225303
O O10 0.800009 0.179609 0.344814
O O11 0.748190 0.482008 0.179169
O O12 0.642971 0.500466 0.823741
O O13 0.583847 0.529760 0.013289
#
# Coordination Sequence:
#
# PCOD9121053 Si02
#       7
#     4   4   4   4   4   4   2
#     4  11  18  37  74  92 126 169 222 270 311 399
#     4  10  19  39  64  97 123 170 225 261 319 386
#     4  11  18  37  67 100 123 171 224 263 318 398
#     4  10  21  39  62  98 135 167 210 270 336 386
#     4  10  20  39  64  91 134 170 220 275 315 394
#     4  11  23  37  63  99 138 167 215 275 333 382
#     4  10  18  38  64  94 120 164 230 268 308 386
#
# _framework density 24.933
#
# number of rings (size 3 to 8) (size 9 to 14) (size 15 to 20)
#    0.000    1.538    7.692    0.000    0.000    3.077 
#    0.000    3.846   16.923    0.000    0.000    0.000 
#    0.000    0.000    0.000    0.000    0.000    0.000 
#
# Total GULP energy -72447.512915 kJ/mol
# GULP energy per Si atom -5572.885609 kJ/mol
# Density = 2.487625 g / cm^3
# Si number density = 24.933000 Si / 1000 Ang^3
#
#
#
# Elastic Constant Matrix: (Units=GPa)
#
#
# Indices 1 2 3 4 5 6 
#
# 1 58.6258 3.6469 48.9431 0.0000 14.0690 0.0000
# 2 3.6469 69.6329 11.3972 0.0000 18.8490 0.0000
# 3 48.9431 11.3972 196.7304 0.0000 14.6881 0.0000
# 4 0.0000 0.0000 0.0000 15.4075 0.0000 2.8534
# 5 14.0690 18.8490 14.6881 0.0000 48.8506 0.0000
# 6 0.0000 0.0000 0.0000 2.8534 0.0000 -4.2134
#
#
#
# Elastic Compliance Matrix: (Units=1/GPa)
#
#
# Indices 1 2 3 4 5 6 
#
# 1 0.022716 0.001137 -0.005315 0.000000 -0.005383 0.000000
# 2 0.001137 0.016137 -0.000745 0.000000 -0.006330 0.000000
# 3 -0.005315 -0.000745 0.006458 0.000000 -0.000123 0.000000
# 4 0.000000 0.000000 0.000000 0.057670 0.000000 0.039056
# 5 -0.005383 -0.006330 -0.000123 0.000000 0.024500 0.000000
# 6 0.000000 0.000000 0.000000 0.039056 0.000000 -0.210888
#
#
# Mechanical properties :
#
#
# Convention : Reuss Voigt Hill
#
# Bulk Modulus (GPa) = 28.19744 50.32927 39.26336
# Shear Modulus (GPa) = -80.98561 29.40906 -25.78827
#
# Velocity S-wave (km/s) = -5.70542 3.43815 -3.21955
# Velocity P-wave (km/s) = 5.66291 5.99923 1.40039
#
# Compressibility (1/GPa) = 0.03546421
#
# Stress axis : x y z
#
# Youngs Moduli (GPa) = 44.02228 61.96979 154.85082
#
# Poissons Ratio (x) = -0.07048 0.82308
# Poissons Ratio (y) = -0.05007 0.11540
# Poissons Ratio (z) = 0.23399 0.04618
#
# Static dielectric constant tensor:
#      x y z
#    x 1.918750 0.000000 0.020870 
#    y 0.000000 2.172550 0.000000 
#    z 0.020870 0.000000 2.035690 
# 
# From -- ./inp_files/28787.got.cif
#   From: 2010.05.17/outbox.cif.g08.bks.cpg/sg5_15_cif.got.tgz:28787.got - 2010.06.03 18:56:24.
