data_PCOD9121755
_publ_section_title
;
Structure prediction by ZEFSAII (Michael W. Deem and Ramdas Pophale) SiO2 
 PCOD9121755
Probable space group: C 2
;
_chemical_formula_sum "Si O2"
_cell_formula_units_Z 30
_cell_length_a 9.191486
_cell_length_b 10.931878
_cell_length_c 15.748467
_cell_angle_alpha 90.000000
_cell_angle_beta 109.721108
_cell_angle_gamma 90.000000
_cell_volume 1489.595008
_symmetry_space_group_name_H-M "C 2"
_symmetry_group_IT_number 5
_symmetry_cell_setting 'monoclinic'
loop_
_space_group_symop_operation_xyz
x,y,z
-x,y,-z
1/2+x,1/2+y,z
1/2-x,1/2+y,-z
loop_
_atom_site_type_symbol
_atom_site_label
_atom_site_fract_x
_atom_site_fract_y
_atom_site_fract_z
Si Si1 0.500000 0.117471 0.000000
Si Si2 0.997567 0.037823 0.397909
Si Si3 0.832333 0.030985 0.045139
Si Si4 0.514862 0.269686 0.350283
Si Si5 0.135135 0.119931 0.131342
Si Si6 0.414902 0.280685 0.142747
Si Si7 0.136124 0.283273 0.596080
Si Si8 0.790034 0.549040 0.337973
O O1 0.658014 0.044072 0.039916
O O2 0.477652 0.198363 0.079268
O O3 0.000000 0.031282 0.500000
O O4 0.944334 0.903367 0.357331
O O5 0.166223 0.056734 0.389747
O O6 0.898420 0.159297 0.357946
O O7 0.950887 0.140154 0.093397
O O8 0.906989 0.916307 0.106037
O O9 0.833778 0.029687 0.942840
O O10 0.511762 0.263455 0.247300
O O11 0.694139 0.268431 0.412409
O O12 0.417033 0.156583 0.366921
O O13 0.241576 0.235950 0.131439
O O14 0.196274 0.068703 0.232123
O O15 0.140238 0.412454 0.645801
O O16 0.000000 0.292518 0.500000
#
# Coordination Sequence:
#
# PCOD9121755 Si02
#       8
#     2   4   4   4   4   4   4   4
#     4  10  22  34  58  90 116 156 198 234 284 342
#     4  10  23  40  59  88 117 148 196 247 300 357
#     4  10  19  36  59  84 121 157 191 236 285 342
#     4  10  23  41  63  88 122 158 196 247 299 355
#     4   9  20  38  58  86 119 154 196 240 289 342
#     4  10  21  38  58  87 119 154 197 239 288 344
#     4  10  23  40  60  89 117 149 199 248 298 360
#     4  10  22  42  64  87 119 159 199 245 299 354
#
# _framework density 20.139702
#
# number of rings (size 3 to 8) (size 9 to 14) (size 15 to 20)
#    0.000    2.133    0.000    2.400    0.000   14.400 
#    0.000   10.667    0.000    0.000    0.000    0.000 
#    0.000    0.000    0.000    0.000    0.000    0.000 
#
# Total GULP energy -83654.015570 kJ/mol
# GULP energy per Si atom -5576.934371 kJ/mol
# Density = 2.009386 g / cm^3
# Si number density = 20.139702 Si / 1000 Ang^3
#
#
#
# Elastic Constant Matrix: (Units=GPa)
#
#
# Indices 1 2 3 4 5 6 
#
# 1 107.7985 42.8715 32.4555 0.0000 17.3370 0.0000
# 2 42.8715 124.2586 14.4669 0.0000 -2.4772 0.0000
# 3 32.4555 14.4669 85.1541 0.0000 -1.5846 0.0000
# 4 0.0000 0.0000 0.0000 25.8458 0.0000 -6.3393
# 5 17.3370 -2.4772 -1.5846 0.0000 27.1127 0.0000
# 6 0.0000 0.0000 0.0000 -6.3393 0.0000 28.8621
#
#
#
# Elastic Compliance Matrix: (Units=1/GPa)
#
#
# Indices 1 2 3 4 5 6 
#
# 1 0.014054 -0.004486 -0.004775 0.000000 -0.009676 0.000000
# 2 -0.004486 0.009654 0.000140 0.000000 0.003759 0.000000
# 3 -0.004775 0.000140 0.013611 0.000000 0.003861 0.000000
# 4 0.000000 0.000000 0.000000 0.040894 0.000000 0.008982
# 5 -0.009676 0.003759 0.003861 0.000000 0.043639 0.000000
# 6 0.000000 0.000000 0.000000 0.008982 0.000000 0.036620
#
#
# Mechanical properties :
#
#
# Convention : Reuss Voigt Hill
#
# Bulk Modulus (GPa) = 52.41685 55.19987 53.80836
# Shear Modulus (GPa) = 27.31125 31.52530 29.41827
#
# Velocity S-wave (km/s) = 3.68651 3.96072 3.82607
# Velocity P-wave (km/s) = 6.64858 6.95589 6.80397
#
# Compressibility (1/GPa) = 0.01907784
#
# Stress axis : x y z
#
# Youngs Moduli (GPa) = 71.15252 103.58222 73.46818
#
# Poissons Ratio (x) = 0.46467 0.35078
# Poissons Ratio (y) = 0.31919 -0.01026
# Poissons Ratio (z) = 0.33972 -0.01446
#
# Static dielectric constant tensor:
#      x y z
#    x 1.726530 0.000000 0.007800 
#    y 0.000000 1.736720 0.000000 
#    z 0.007800 0.000000 1.705390 
# 
# From -- ./inp_files/50472.got.cif
#   From: 2010.05.17/outbox.cif.g08.bks.cpg/sg5_26_cif.got.tgz:50472.got - 2010.06.03 18:56:24.
