data_PCOD9121639
_publ_section_title
;
Structure prediction by ZEFSAII (Michael W. Deem and Ramdas Pophale) SiO2 
 PCOD9121639
Probable space group: C 2
;
_chemical_formula_sum "Si O2"
_cell_formula_units_Z 30
_cell_length_a 11.995869
_cell_length_b 22.296366
_cell_length_c 5.503862
_cell_angle_alpha 90.000000
_cell_angle_beta 84.254832
_cell_angle_gamma 90.000000
_cell_volume 1464.692175
_symmetry_space_group_name_H-M "C 2"
_symmetry_group_IT_number 5
_symmetry_cell_setting 'monoclinic'
loop_
_space_group_symop_operation_xyz
x,y,z
-x,y,-z
1/2+x,1/2+y,z
1/2-x,1/2+y,-z
loop_
_atom_site_type_symbol
_atom_site_label
_atom_site_fract_x
_atom_site_fract_y
_atom_site_fract_z
Si Si1 0.890855 0.830060 0.867912
Si Si2 0.375836 0.223889 0.543111
Si Si3 0.000000 0.140654 0.500000
Si Si4 0.884639 0.054708 0.907191
Si Si5 0.631656 0.890808 0.434266
Si Si6 0.751231 0.936521 0.905130
Si Si7 0.796240 0.267067 0.784442
Si Si8 0.831753 0.176371 0.156799
O O1 0.891719 0.793275 0.619943
O O2 0.869027 0.900086 0.865477
O O3 0.777715 0.806972 0.017442
O O4 0.000000 0.814367 0.000000
O O5 0.500000 0.197873 0.500000
O O6 0.297704 0.226735 0.326855
O O7 0.295972 0.192033 0.753471
O O8 0.076464 0.094855 0.328931
O O9 0.083826 0.181924 0.636782
O O10 0.790411 0.005303 0.885663
O O11 0.840545 0.106816 0.092733
O O12 0.000000 0.029640 0.000000
O O13 0.500000 0.902601 0.500000
O O14 0.689081 0.914517 0.671499
O O15 0.648658 0.818316 0.395839
O O16 0.684368 0.921352 0.174262
O O17 0.866957 0.221388 0.932992
#
# Coordination Sequence:
#
# PCOD9121639 Si02
#       8
#     4   4   2   4   4   4   4   4
#     4  10  19  35  59  95 130 167 217 278 344 408
#     4  11  20  37  63  92 134 178 220 281 344 417
#     4  10  22  46  68  96 136 182 236 294 346 416
#     4  10  23  44  68 101 133 176 228 289 348 415
#     4  11  25  47  69  99 137 185 233 289 347 423
#     4  11  24  43  73 100 137 177 233 291 348 410
#     4  10  21  40  63  96 133 179 226 280 348 416
#     4  10  23  41  65  98 139 178 231 293 347 412
#
# _framework density 20.482119999999998
#
# number of rings (size 3 to 8) (size 9 to 14) (size 15 to 20)
#    0.000    1.600    2.667    1.600    3.733    0.000 
#   10.800    2.000    5.867    0.000    0.000    0.000 
#    0.000    0.000    0.000    0.000    0.000    0.000 
#
# Total GULP energy -83575.174663 kJ/mol
# GULP energy per Si atom -5571.678311 kJ/mol
# Density = 2.043550 g / cm^3
# Si number density = 20.482120 Si / 1000 Ang^3
#
#
#
# Elastic Constant Matrix: (Units=GPa)
#
#
# Indices 1 2 3 4 5 6 
#
# 1 123.5759 47.8110 56.6886 0.0000 -0.1458 0.0000
# 2 47.8110 85.9952 28.8451 0.0000 9.7957 0.0000
# 3 56.6886 28.8451 115.7016 0.0000 15.8456 0.0000
# 4 0.0000 0.0000 0.0000 18.6686 0.0000 -1.3344
# 5 -0.1458 9.7957 15.8456 0.0000 43.5394 0.0000
# 6 0.0000 0.0000 0.0000 -1.3344 0.0000 23.4919
#
#
#
# Elastic Compliance Matrix: (Units=1/GPa)
#
#
# Indices 1 2 3 4 5 6 
#
# 1 0.012696 -0.005665 -0.005250 0.000000 0.003228 0.000000
# 2 -0.005665 0.015352 -0.000606 0.000000 -0.003252 0.000000
# 3 -0.005250 -0.000606 0.011946 0.000000 -0.004229 0.000000
# 4 0.000000 0.000000 0.000000 0.053784 0.000000 0.003055
# 5 0.003228 -0.003252 -0.004229 0.000000 0.025249 0.000000
# 6 0.000000 0.000000 0.000000 0.003055 0.000000 0.042741
#
#
# Mechanical properties :
#
#
# Convention : Reuss Voigt Hill
#
# Bulk Modulus (GPa) = 58.99587 65.77357 62.38472
# Shear Modulus (GPa) = 26.25178 29.93517 28.09348
#
# Velocity S-wave (km/s) = 3.58396 3.82714 3.70754
# Velocity P-wave (km/s) = 6.78177 7.19109 6.98943
#
# Compressibility (1/GPa) = 0.01695034
#
# Stress axis : x y z
#
# Youngs Moduli (GPa) = 78.76203 65.13719 83.71287
#
# Poissons Ratio (x) = 0.36903 0.43952
# Poissons Ratio (y) = 0.44623 0.05074
# Poissons Ratio (z) = 0.41353 0.03948
#
# Static dielectric constant tensor:
#      x y z
#    x 1.797020 0.000000 -0.028020 
#    y 0.000000 1.735710 0.000000 
#    z -0.028020 0.000000 1.851960 
# 
# From -- ./inp_files/5657.got.cif
#   From: 2010.05.17/outbox.cif.g08.bks.cpg/sg5_3_cif.got.tgz:5657.got - 2010.06.03 18:56:24.
