data_PCOD9121454
_publ_section_title
;
Structure prediction by ZEFSAII (Michael W. Deem and Ramdas Pophale) SiO2 
 PCOD9121454
Probable space group: C 2
;
_chemical_formula_sum "Si O2"
_cell_formula_units_Z 30
_cell_length_a 4.956354
_cell_length_b 12.025572
_cell_length_c 21.362496
_cell_angle_alpha 90.000000
_cell_angle_beta 66.864813
_cell_angle_gamma 90.000000
_cell_volume 1170.872890
_symmetry_space_group_name_H-M "C 2"
_symmetry_group_IT_number 5
_symmetry_cell_setting 'monoclinic'
loop_
_space_group_symop_operation_xyz
x,y,z
-x,y,-z
1/2+x,1/2+y,z
1/2-x,1/2+y,-z
loop_
_atom_site_type_symbol
_atom_site_label
_atom_site_fract_x
_atom_site_fract_y
_atom_site_fract_z
Si Si1 0.163737 0.870530 0.730022
Si Si2 0.155602 0.847155 0.920001
Si Si3 0.741361 0.755335 0.848515
Si Si4 0.730038 0.242832 0.423030
Si Si5 0.578276 0.620541 0.307454
Si Si6 0.487908 0.010955 0.808752
Si Si7 0.406145 0.986463 0.386166
Si Si8 0.500000 0.623213 0.500000
O O1 0.307905 0.747174 0.711780
O O2 0.835068 0.834382 0.781023
O O3 0.334845 0.935520 0.769277
O O4 0.263804 0.939774 0.659159
O O5 0.401417 0.751721 0.896015
O O6 0.919326 0.811021 0.889503
O O7 0.364040 0.951605 0.882395
O O8 0.000000 0.862260 0.000000
O O9 0.841440 0.632592 0.823057
O O10 0.500000 0.232862 0.500000
O O11 0.753485 0.151942 0.364981
O O12 0.736200 0.366944 0.399300
O O13 0.007240 0.205786 0.440180
O O14 0.772321 0.556801 0.341240
O O15 0.673267 0.550151 0.237225
O O16 0.275435 0.041220 0.461678
#
# Coordination Sequence:
#
# PCOD9121454 Si02
#       8
#     4   4   4   4   4   4   4   2
#     4   8  16  34  63  89 117 159 208 262 316 380
#     4  11  24  41  64  97 134 172 217 266 319 388
#     4  10  22  41  64  93 131 169 216 268 320 382
#     4  10  19  34  55  81 117 155 207 260 314 383
#     4   8  16  33  63  87 118 160 207 260 318 374
#     4   9  19  39  66  91 126 168 212 262 322 379
#     4   9  16  33  58  78 118 159 198 265 318 375
#     4  10  20  34  52  78 114 154 202 260 318 382
#
# _framework density 25.621911999999998
#
# number of rings (size 3 to 8) (size 9 to 14) (size 15 to 20)
#    0.000    2.667    0.667    0.400    0.000    3.200 
#    3.600    0.000   88.000    0.000    0.000    0.000 
#    0.000    0.000    0.000    0.000    0.000    0.000 
#
# Total GULP energy -83611.196862 kJ/mol
# GULP energy per Si atom -5574.079791 kJ/mol
# Density = 2.556359 g / cm^3
# Si number density = 25.621912 Si / 1000 Ang^3
#
#
#
# Elastic Constant Matrix: (Units=GPa)
#
#
# Indices 1 2 3 4 5 6 
#
# 1 98.9089 -0.8177 43.5025 0.0000 -10.2275 0.0000
# 2 -0.8177 136.8868 63.5046 0.0000 11.1005 0.0000
# 3 43.5025 63.5046 142.0540 0.0000 -38.9871 0.0000
# 4 0.0000 0.0000 0.0000 34.5306 0.0000 -8.0133
# 5 -10.2275 11.1005 -38.9871 0.0000 50.4191 0.0000
# 6 0.0000 0.0000 0.0000 -8.0133 0.0000 8.2869
#
#
#
# Elastic Compliance Matrix: (Units=1/GPa)
#
#
# Indices 1 2 3 4 5 6 
#
# 1 0.012459 0.003043 -0.005923 0.000000 -0.002723 0.000000
# 2 0.003043 0.012106 -0.008767 0.000000 -0.008827 0.000000
# 3 -0.005923 -0.008767 0.016467 0.000000 0.013462 0.000000
# 4 0.000000 0.000000 0.000000 0.037339 0.000000 0.036106
# 5 -0.002723 -0.008827 0.013462 0.000000 0.031634 0.000000
# 6 0.000000 0.000000 0.000000 0.036106 0.000000 0.155586
#
#
# Mechanical properties :
#
#
# Convention : Reuss Voigt Hill
#
# Bulk Modulus (GPa) = 56.37180 65.58097 60.97638
# Shear Modulus (GPa) = 16.96077 36.75801 26.85939
#
# Velocity S-wave (km/s) = 2.57566 3.79176 3.24125
# Velocity P-wave (km/s) = 5.55828 6.69486 6.15287
#
# Compressibility (1/GPa) = 0.01773937
#
# Stress axis : x y z
#
# Youngs Moduli (GPa) = 80.26294 82.60201 60.72684
#
# Poissons Ratio (x) = -0.25136 0.35969
# Poissons Ratio (y) = -0.24425 0.53236
# Poissons Ratio (z) = 0.47541 0.72413
#
# Static dielectric constant tensor:
#      x y z
#    x 2.213460 0.000000 -0.104690 
#    y 0.000000 2.089330 0.000000 
#    z -0.104690 0.000000 2.118110 
# 
# From -- ./inp_files/67793.got.cif
#   From: 2010.05.17/outbox.cif.g08.bks.cpg/sg5_34_cif.got.tgz:67793.got - 2010.06.03 18:56:24.
