data_PCOD9121182
_publ_section_title
;
Structure prediction by ZEFSAII (Michael W. Deem and Ramdas Pophale) SiO2 
 PCOD9121182
Probable space group: C 2
;
_chemical_formula_sum "Si O2"
_cell_formula_units_Z 28
_cell_length_a 8.645647
_cell_length_b 11.897924
_cell_length_c 16.689082
_cell_angle_alpha 90.000000
_cell_angle_beta 43.719412
_cell_angle_gamma 90.000000
_cell_volume 1186.476651
_symmetry_space_group_name_H-M "C 2"
_symmetry_group_IT_number 5
_symmetry_cell_setting 'monoclinic'
loop_
_space_group_symop_operation_xyz
x,y,z
-x,y,-z
1/2+x,1/2+y,z
1/2-x,1/2+y,-z
loop_
_atom_site_type_symbol
_atom_site_label
_atom_site_fract_x
_atom_site_fract_y
_atom_site_fract_z
Si Si1 0.097025 0.562580 0.247627
Si Si2 0.060276 0.710910 0.109027
Si Si3 0.414786 0.233537 0.449861
Si Si4 0.015908 0.161201 0.147328
Si Si5 0.956851 0.186218 0.676436
Si Si6 0.315606 0.874431 0.122692
Si Si7 0.188003 0.962553 0.331745
O O1 0.108006 0.612007 0.154356
O O2 0.357856 0.557427 0.176507
O O3 0.983119 0.654482 0.349958
O O4 0.911680 0.465369 0.302670
O O5 0.150485 0.821730 0.120170
O O6 0.794488 0.727225 0.211386
O O7 0.221922 0.676591 0.974331
O O8 0.500000 0.175396 0.500000
O O9 0.541367 0.352412 0.399008
O O10 0.151880 0.255536 0.559885
O O11 0.968885 0.166066 0.259221
O O12 0.913924 0.268487 0.136636
O O13 0.937139 0.081137 0.621526
O O14 0.237333 0.958410 0.218368
O O15 0.500000 0.932345 0.000000
#
# Coordination Sequence:
#
# PCOD9121182 Si02
#       7
#     4   4   4   4   4   4   4
#     4  10  21  40  69  98 129 187 241 281 366 427
#     4   9  19  37  68 101 138 193 221 290 375 424
#     4  12  24  46  68  95 145 185 239 315 344 417
#     4  10  18  41  68  96 145 183 230 297 361 423
#     4  11  24  39  67 104 141 189 246 291 363 437
#     4   9  18  39  67  98 143 187 228 290 363 428
#     4  11  24  41  70 103 136 190 243 295 364 422
#
# _framework density 23.599284000000001
#
# number of rings (size 3 to 8) (size 9 to 14) (size 15 to 20)
#    0.000    1.714    4.286    1.714    2.000    4.000 
#    0.000    4.286    0.000   10.286    0.000    0.000 
#    0.000    0.000    0.000    0.000    0.000    0.000 
#
# Total GULP energy -77979.810667 kJ/mol
# GULP energy per Si atom -5569.986476 kJ/mol
# Density = 2.354557 g / cm^3
# Si number density = 23.599284 Si / 1000 Ang^3
#
#
#
# Elastic Constant Matrix: (Units=GPa)
#
#
# Indices 1 2 3 4 5 6 
#
# 1 67.7380 15.7141 37.0651 0.0001 -22.4617 -0.0001
# 2 15.7141 58.3998 26.5399 0.0001 -14.7948 0.0000
# 3 37.0651 26.5399 170.4975 0.0003 -17.2816 -0.0002
# 4 0.0001 0.0001 0.0003 12.0119 -0.0001 -11.0115
# 5 -22.4617 -14.7948 -17.2816 -0.0001 52.2027 0.0001
# 6 -0.0001 0.0000 -0.0002 -11.0115 0.0001 27.6796
#
#
#
# Elastic Compliance Matrix: (Units=1/GPa)
#
#
# Indices 1 2 3 4 5 6 
#
# 1 0.019170 -0.002036 -0.003180 0.000000 0.006619 0.000000
# 2 -0.002036 0.019685 -0.002219 0.000000 0.003968 0.000000
# 3 -0.003180 -0.002219 0.006932 0.000000 0.000298 0.000000
# 4 0.000000 0.000000 0.000000 0.131038 0.000000 0.052130
# 5 0.006619 0.003968 0.000298 0.000000 0.023227 0.000000
# 6 0.000000 0.000000 0.000000 0.052130 0.000000 0.056866
#
#
# Mechanical properties :
#
#
# Convention : Reuss Voigt Hill
#
# Bulk Modulus (GPa) = 32.34544 50.58593 41.46569
# Shear Modulus (GPa) = 17.72459 32.86658 25.29559
#
# Velocity S-wave (km/s) = 2.74353 3.73593 3.27751
# Velocity P-wave (km/s) = 4.87563 6.33178 5.65081
#
# Compressibility (1/GPa) = 0.03091626
#
# Stress axis : x y z
#
# Youngs Moduli (GPa) = 52.16577 50.79980 144.25768
#
# Poissons Ratio (x) = 0.10345 0.45867
# Poissons Ratio (y) = 0.10623 0.32015
# Poissons Ratio (z) = 0.16586 0.11274
#
# Static dielectric constant tensor:
#      x y z
#    x 1.957750 0.000000 -0.087390 
#    y 0.000000 1.945420 0.000000 
#    z -0.087390 0.000000 1.953410 
# 
# From -- ./inp_files/59700.got.cif
#   From: 2010.05.17/outbox.cif.g08.bks.cpg/sg5_30_cif.got.tgz:59700.got - 2010.06.03 18:56:24.
