data_PCOD9121228
_publ_section_title
;
Structure prediction by ZEFSAII (Michael W. Deem and Ramdas Pophale) SiO2 
 PCOD9121228
Probable space group: C 2
;
_chemical_formula_sum "Si O2"
_cell_formula_units_Z 32
_cell_length_a 22.948808
_cell_length_b 5.369070
_cell_length_c 23.267818
_cell_angle_alpha 90.000000
_cell_angle_beta 39.100445
_cell_angle_gamma 90.000000
_cell_volume 1808.111378
_symmetry_space_group_name_H-M "C 2"
_symmetry_group_IT_number 5
_symmetry_cell_setting 'monoclinic'
loop_
_space_group_symop_operation_xyz
x,y,z
-x,y,-z
1/2+x,1/2+y,z
1/2-x,1/2+y,-z
loop_
_atom_site_type_symbol
_atom_site_label
_atom_site_fract_x
_atom_site_fract_y
_atom_site_fract_z
Si Si1 0.153257 0.383440 0.875216
Si Si2 0.570569 0.956422 0.392572
Si Si3 0.998263 0.956680 0.432144
Si Si4 0.452209 0.389515 0.184612
Si Si5 0.778295 0.882563 0.230170
Si Si6 0.797700 0.886886 0.534384
Si Si7 0.186262 0.886752 0.615377
Si Si8 0.479132 0.890392 0.920400
O O1 0.211287 0.625995 0.812961
O O2 0.064674 0.389888 0.900138
O O3 0.202959 0.123409 0.823798
O O4 0.112205 0.395478 0.970611
O O5 0.500000 0.977957 0.500000
O O6 0.536207 0.721384 0.381930
O O7 0.674636 0.906621 0.333123
O O8 0.560797 0.220308 0.368566
O O9 0.000000 0.979978 0.500000
O O10 0.894420 0.905435 0.492511
O O11 0.358317 0.385533 0.217232
O O12 0.413103 0.395635 0.278780
O O13 0.508249 0.636483 0.124774
O O14 0.507423 0.139245 0.127077
O O15 0.816958 0.888286 0.451231
O O16 0.743689 0.632347 0.589561
O O17 0.736798 0.130577 0.594589
#
# Coordination Sequence:
#
# PCOD9121228 Si02
#       8
#     4   4   4   4   4   4   4   4
#     4   9  17  30  46  64  98 133 154 201 241 310
#     4  10  21  33  44  71  97 133 166 208 238 283
#     4  10  21  32  50  68  95 134 165 213 241 289
#     4  10  19  28  48  71  96 127 161 209 233 307
#     4  10  19  29  46  69  97 132 168 191 244 296
#     4  10  21  36  50  70  98 137 176 203 254 282
#     4  10  21  34  52  71  99 133 170 216 238 300
#     4   9  17  30  44  70  96 125 162 193 258 290
#
# _framework density 17.698024
#
# number of rings (size 3 to 8) (size 9 to 14) (size 15 to 20)
#    0.000    2.250    0.000    3.000    7.000    3.000 
#    0.000    0.000    0.000    0.000    0.000    0.000 
#    0.000   20.000    0.000    0.000    0.000    0.000 
#
# Total GULP energy -89226.454389 kJ/mol
# GULP energy per Si atom -5576.653399 kJ/mol
# Density = 1.765774 g / cm^3
# Si number density = 17.698024 Si / 1000 Ang^3
#
#
#
# Elastic Constant Matrix: (Units=GPa)
#
#
# Indices 1 2 3 4 5 6 
#
# 1 23.4112 -2.8682 -6.4317 -0.0001 -5.3975 0.0453
# 2 -2.8682 133.0690 23.0515 -0.0212 16.3701 0.0102
# 3 -6.4317 23.0515 76.9549 -0.0017 9.6009 0.0038
# 4 -0.0001 -0.0212 -0.0017 26.1783 0.0063 -5.3354
# 5 -5.3975 16.3701 9.6009 0.0063 16.4953 0.0023
# 6 0.0453 0.0102 0.0038 -5.3354 0.0023 6.9519
#
#
#
# Elastic Compliance Matrix: (Units=1/GPa)
#
#
# Indices 1 2 3 4 5 6 
#
# 1 0.046711 -0.001272 0.002395 -0.000080 0.015153 -0.000370
# 2 -0.001272 0.008787 -0.001724 0.000010 -0.008133 0.000007
# 3 0.002395 -0.001724 0.014449 -0.000003 -0.005916 -0.000022
# 4 -0.000080 0.000010 -0.000003 0.045283 -0.000057 0.034755
# 5 0.015153 -0.008133 -0.005916 -0.000057 0.077096 -0.000153
# 6 -0.000370 0.000007 -0.000022 0.034755 -0.000153 0.170523
#
#
# Mechanical properties :
#
#
# Convention : Reuss Voigt Hill
#
# Bulk Modulus (GPa) = 14.54670 28.99316 21.76993
# Shear Modulus (GPa) = 12.92104 24.57065 18.74584
#
# Velocity S-wave (km/s) = 2.70494 3.73007 3.25807
# Velocity P-wave (km/s) = 4.24179 5.91345 5.14596
#
# Compressibility (1/GPa) = 0.06874411
#
# Stress axis : x y z
#
# Youngs Moduli (GPa) = 21.40829 113.80997 69.20834
#
# Poissons Ratio (x) = 0.14478 -0.16572
# Poissons Ratio (y) = 0.02723 0.11929
# Poissons Ratio (z) = -0.05126 0.19617
#
# Static dielectric constant tensor:
#      x y z
#    x 1.575830 0.000000 -0.000080 
#    y 0.000000 1.670920 0.000010 
#    z -0.000080 0.000010 1.593220 
# 
# From -- ./inp_files/69572.got.cif
#   From: 2010.05.17/outbox.cif.g08.bks.cpg/sg5_35_cif.got.tgz:69572.got - 2010.06.03 18:56:24.
