data_PCOD9121528
_publ_section_title
;
Structure prediction by ZEFSAII (Michael W. Deem and Ramdas Pophale) SiO2 
 PCOD9121528
Probable space group: C 2
;
_chemical_formula_sum "Si O2"
_cell_formula_units_Z 24
_cell_length_a 12.878987
_cell_length_b 12.282792
_cell_length_c 17.844289
_cell_angle_alpha 90.000000
_cell_angle_beta 20.798840
_cell_angle_gamma 90.000000
_cell_volume 1002.337758
_symmetry_space_group_name_H-M "C 2"
_symmetry_group_IT_number 5
_symmetry_cell_setting 'monoclinic'
loop_
_space_group_symop_operation_xyz
x,y,z
-x,y,-z
1/2+x,1/2+y,z
1/2-x,1/2+y,-z
loop_
_atom_site_type_symbol
_atom_site_label
_atom_site_fract_x
_atom_site_fract_y
_atom_site_fract_z
Si Si1 0.482352 0.778850 0.832275
Si Si2 0.335174 0.561569 0.472084
Si Si3 0.190645 0.011298 0.676782
Si Si4 0.785169 0.977512 0.079581
Si Si5 0.095615 0.761329 0.703766
Si Si6 0.052749 0.825440 0.361162
O O1 0.645682 0.804930 0.800008
O O2 0.779275 0.759679 0.582726
O O3 0.361708 0.882222 0.868187
O O4 0.165818 0.724412 0.064540
O O5 0.428612 0.557691 0.321753
O O6 0.480341 0.455441 0.412255
O O7 0.343353 0.671585 0.516051
O O8 0.985193 0.541210 0.702956
O O9 0.500000 0.047685 0.500000
O O10 0.977298 0.039280 0.888899
O O11 0.208067 0.879761 0.654567
O O12 0.000000 0.938746 0.000000
O O13 0.949365 0.789408 0.722739
#
# Coordination Sequence:
#
# PCOD9121528 Si02
#       6
#     4   4   4   4   4   4
#     4   9  19  36  58  83 117 157 197 244 307 353
#     4  10  21  37  59  91 118 155 202 252 303 365
#     4  10  20  39  59  84 121 163 194 246 308 359
#     4  10  19  34  60  83 116 161 199 241 301 361
#     4  10  21  36  60  91 115 155 206 252 297 366
#     4   9  19  38  58  83 125 158 192 253 313 357
#
# _framework density 23.944026999999998
#
# number of rings (size 3 to 8) (size 9 to 14) (size 15 to 20)
#    0.000    2.333    1.667    0.500    0.000    2.667 
#    9.000    0.000    0.000    0.000   21.667    0.000 
#    0.000    0.000    0.000    0.000    0.000    0.000 
#
# Total GULP energy -66877.196847 kJ/mol
# GULP energy per Si atom -5573.099737 kJ/mol
# Density = 2.388953 g / cm^3
# Si number density = 23.944027 Si / 1000 Ang^3
#
#
#
# Elastic Constant Matrix: (Units=GPa)
#
#
# Indices 1 2 3 4 5 6 
#
# 1 47.8890 -18.6627 12.3074 0.3483 6.6436 -0.1479
# 2 -18.6627 118.1544 -12.1489 0.1246 -10.8546 -0.0732
# 3 12.3074 -12.1489 88.0814 0.1152 21.2684 -0.0643
# 4 0.3483 0.1246 0.1152 95.3681 -0.1553 -15.4769
# 5 6.6436 -10.8546 21.2684 -0.1553 36.9607 0.0891
# 6 -0.1479 -0.0732 -0.0643 -15.4769 0.0891 15.4496
#
#
#
# Elastic Compliance Matrix: (Units=1/GPa)
#
#
# Indices 1 2 3 4 5 6 
#
# 1 0.022992 0.003223 -0.002321 -0.000060 -0.001851 0.000176
# 2 0.003223 0.009185 0.000354 -0.000013 0.001914 0.000052
# 3 -0.002321 0.000354 0.013472 -0.000009 -0.007231 0.000068
# 4 -0.000060 -0.000013 -0.000009 0.012521 0.000035 0.012543
# 5 -0.001851 0.001914 -0.007231 0.000035 0.032113 -0.000189
# 6 0.000176 0.000052 0.000068 0.012543 -0.000189 0.077295
#
#
# Mechanical properties :
#
#
# Convention : Reuss Voigt Hill
#
# Bulk Modulus (GPa) = 20.76295 24.12404 22.44349
# Shear Modulus (GPa) = 27.60618 47.73093 37.66856
#
# Velocity S-wave (km/s) = 3.39919 4.46964 3.97065
# Velocity P-wave (km/s) = 4.90879 6.06085 5.51499
#
# Compressibility (1/GPa) = 0.04816272
#
# Stress axis : x y z
#
# Youngs Moduli (GPa) = 43.49349 108.87419 74.22530
#
# Poissons Ratio (x) = -0.35091 0.17226
# Poissons Ratio (y) = -0.14018 -0.02631
# Poissons Ratio (z) = 0.10094 -0.03859
#
# Static dielectric constant tensor:
#      x y z
#    x 1.821740 0.000120 -0.002230 
#    y 0.000120 2.057000 0.000550 
#    z -0.002230 0.000550 1.764430 
# 
# From -- ./inp_files/66078.got.cif
#   From: 2010.05.17/outbox.cif.g08.bks.cpg/sg5_34_cif.got.tgz:66078.got - 2010.06.03 18:56:24.
