data_PCOD9121615
_publ_section_title
;
Structure prediction by ZEFSAII (Michael W. Deem and Ramdas Pophale) SiO2 
 PCOD9121615
Probable space group: C 2
;
_chemical_formula_sum "Si O2"
_cell_formula_units_Z 32
_cell_length_a 8.940285
_cell_length_b 22.328896
_cell_length_c 14.293086
_cell_angle_alpha 90.000000
_cell_angle_beta 27.330275
_cell_angle_gamma 90.000000
_cell_volume 1309.995849
_symmetry_space_group_name_H-M "C 2"
_symmetry_group_IT_number 5
_symmetry_cell_setting 'monoclinic'
loop_
_space_group_symop_operation_xyz
x,y,z
-x,y,-z
1/2+x,1/2+y,z
1/2-x,1/2+y,-z
loop_
_atom_site_type_symbol
_atom_site_label
_atom_site_fract_x
_atom_site_fract_y
_atom_site_fract_z
Si Si1 0.276593 0.054460 0.266701
Si Si2 0.278958 0.329987 0.028289
Si Si3 0.859095 0.427190 0.182175
Si Si4 0.818241 0.881144 0.374466
Si Si5 0.614269 0.717160 0.716654
Si Si6 0.284650 0.589015 0.395913
Si Si7 0.777752 0.250908 0.534583
Si Si8 0.880904 0.641893 0.795137
O O1 0.474540 0.112445 0.190990
O O2 0.000000 0.045472 0.500000
O O3 0.108630 0.061464 0.258695
O O4 0.469058 0.992095 0.155746
O O5 0.979267 0.377244 0.187908
O O6 0.117036 0.264211 0.103827
O O7 0.500000 0.332261 0.000000
O O8 0.489073 0.352736 0.822758
O O9 0.482437 0.424737 0.359085
O O10 0.000000 0.414175 0.000000
O O11 0.500000 0.905835 0.500000
O O12 0.765623 0.820230 0.461900
O O13 0.623627 0.645619 0.722052
O O14 0.515808 0.723309 0.663625
O O15 0.000000 0.735573 0.500000
O O16 0.000000 0.553490 0.500000
O O17 0.097446 0.612071 0.592930
O O18 0.458171 0.211806 0.732844
O O19 0.000000 0.245376 0.500000
O O20 0.500000 0.630416 0.000000
#
# Coordination Sequence:
#
# PCOD9121615 Si02
#       8
#     4   4   4   4   4   4   4   4
#     4  10  22  41  63  85 117 161 202 242 294 355
#     4  11  23  38  59  88 120 156 201 247 299 357
#     4  10  24  43  61  85 119 158 202 250 296 351
#     4  10  22  40  61  87 119 157 198 247 304 358
#     4  10  20  36  58  86 123 155 191 244 297 356
#     4   9  20  39  59  86 120 155 194 244 300 354
#     4  10  19  35  58  83 119 156 190 237 296 357
#     4  10  21  36  58  88 119 156 200 243 293 352
#
# _framework density 24.427558999999999
#
# number of rings (size 3 to 8) (size 9 to 14) (size 15 to 20)
#    0.000    2.000    0.000    4.125    0.000    9.000 
#    0.000    5.625    0.000    0.000    0.000    0.000 
#    0.000    0.000    0.000    0.000    0.000    0.000 
#
# Total GULP energy -89218.398371 kJ/mol
# GULP energy per Si atom -5576.149898 kJ/mol
# Density = 2.437196 g / cm^3
# Si number density = 24.427559 Si / 1000 Ang^3
#
#
#
# Elastic Constant Matrix: (Units=GPa)
#
#
# Indices 1 2 3 4 5 6 
#
# 1 88.6549 28.8678 15.8670 -0.0006 -14.5012 0.0011
# 2 28.8678 75.8583 12.8220 0.0010 -8.8323 0.0011
# 3 15.8670 12.8220 65.9449 -0.0101 -0.5696 0.0145
# 4 -0.0006 0.0010 -0.0101 10.1443 0.0028 4.2247
# 5 -14.5012 -8.8323 -0.5696 0.0028 33.9085 -0.0025
# 6 0.0011 0.0011 0.0145 4.2247 -0.0025 23.8161
#
#
#
# Elastic Compliance Matrix: (Units=1/GPa)
#
#
# Indices 1 2 3 4 5 6 
#
# 1 0.013910 -0.004320 -0.002466 -0.000003 0.004782 0.000002
# 2 -0.004320 0.015402 -0.001937 -0.000005 0.002132 0.000002
# 3 -0.002466 -0.001937 0.016123 0.000022 -0.001288 -0.000014
# 4 -0.000003 -0.000005 0.000022 0.106441 -0.000013 -0.018882
# 5 0.004782 0.002132 -0.001288 -0.000013 0.032070 0.000006
# 6 0.000002 0.000002 -0.000014 -0.018882 0.000006 0.045338
#
#
# Mechanical properties :
#
#
# Convention : Reuss Voigt Hill
#
# Bulk Modulus (GPa) = 35.72696 38.39683 37.06189
# Shear Modulus (GPa) = 19.52685 25.10055 22.31370
#
# Velocity S-wave (km/s) = 2.83039 3.20902 3.02564
# Velocity P-wave (km/s) = 5.03378 5.42984 5.23556
#
# Compressibility (1/GPa) = 0.02799007
#
# Stress axis : x y z
#
# Youngs Moduli (GPa) = 71.89183 64.92673 62.02360
#
# Poissons Ratio (x) = 0.28047 0.15293
# Poissons Ratio (y) = 0.31056 0.12013
# Poissons Ratio (z) = 0.17726 0.12575
#
# Static dielectric constant tensor:
#      x y z
#    x 2.020990 -0.000010 -0.002030 
#    y -0.000010 2.017520 -0.000020 
#    z -0.002030 -0.000020 2.164860 
# 
# From -- ./inp_files/51695.got.cif
#   From: 2010.05.17/outbox.cif.g08.bks.cpg/sg5_26_cif.got.tgz:51695.got - 2010.06.03 18:56:24.
