data_PCOD9121929
_publ_section_title
;
Structure prediction by ZEFSAII (Michael W. Deem and Ramdas Pophale) SiO2 
 PCOD9121929
Probable space group: C 2
;
_chemical_formula_sum "Si O2"
_cell_formula_units_Z 20
_cell_length_a 16.317589
_cell_length_b 4.940412
_cell_length_c 19.606089
_cell_angle_alpha 90.000000
_cell_angle_beta 28.083812
_cell_angle_gamma 90.000000
_cell_volume 744.067113
_symmetry_space_group_name_H-M "C 2"
_symmetry_group_IT_number 5
_symmetry_cell_setting 'monoclinic'
loop_
_space_group_symop_operation_xyz
x,y,z
-x,y,-z
1/2+x,1/2+y,z
1/2-x,1/2+y,-z
loop_
_atom_site_type_symbol
_atom_site_label
_atom_site_fract_x
_atom_site_fract_y
_atom_site_fract_z
Si Si1 0.831932 0.846480 0.739516
Si Si2 0.978476 0.182441 0.795016
Si Si3 0.463338 0.861892 0.387153
Si Si4 0.500000 0.050432 0.500000
Si Si5 0.000000 0.005676 0.000000
Si Si6 0.440755 0.185003 0.909839
O O1 0.979595 0.669231 0.669604
O O2 0.873292 0.157779 0.718380
O O3 0.097659 0.386073 0.488912
O O4 0.658025 0.714089 0.894076
O O5 0.096904 0.250727 0.642008
O O6 0.998845 0.883211 0.806964
O O7 0.998360 0.390370 0.843036
O O8 0.770482 0.204851 0.930343
O O9 0.634887 0.242503 0.361488
O O10 0.983640 0.809174 0.076793
#
# Coordination Sequence:
#
# PCOD9121929 Si02
#       6
#     4   4   4   2   2   4
#     4  10  22  34  62  91 123 158 202 260 304 359
#     4  10  20  37  56  82 119 168 207 240 294 376
#     4  10  19  37  60  88 116 160 213 250 289 367
#     4   8  20  38  62  88 114 166 216 254 286 372
#     4  12  24  40  60 102 132 154 202 266 326 362
#     4  10  22  34  56  83 126 162 198 246 310 365
#
# _framework density 26.879294000000002
#
# number of rings (size 3 to 8) (size 9 to 14) (size 15 to 20)
#    1.200    0.800    2.000    1.800    5.600    3.200 
#    0.000    0.000    0.000    2.400    0.000    0.000 
#    0.000    0.000    0.000    0.000    0.000    0.000 
#
# Total GULP energy -55837.928728 kJ/mol
# GULP energy per Si atom -5583.792873 kJ/mol
# Density = 2.681812 g / cm^3
# Si number density = 26.879294 Si / 1000 Ang^3
#
#
#
# Elastic Constant Matrix: (Units=GPa)
#
#
# Indices 1 2 3 4 5 6 
#
# 1 81.1857 11.9692 41.3501 -0.0058 23.2995 0.0017
# 2 11.9692 77.7550 17.1062 -0.0187 0.2783 0.0071
# 3 41.3501 17.1062 103.2313 -0.0032 41.7440 0.0050
# 4 -0.0058 -0.0187 -0.0032 31.1392 0.0014 16.6605
# 5 23.2995 0.2783 41.7440 0.0014 61.8322 -0.0031
# 6 0.0017 0.0071 0.0050 16.6605 -0.0031 13.4274
#
#
#
# Elastic Compliance Matrix: (Units=1/GPa)
#
#
# Indices 1 2 3 4 5 6 
#
# 1 0.015833 -0.001304 -0.005111 0.000005 -0.002510 -0.000007
# 2 -0.001304 0.013632 -0.002628 0.000031 0.002204 -0.000045
# 3 -0.005111 -0.002628 0.015662 0.000008 -0.008636 -0.000015
# 4 0.000005 0.000031 0.000008 0.095538 -0.000015 -0.118542
# 5 -0.002510 0.002204 -0.008636 -0.000015 0.022939 0.000027
# 6 -0.000007 -0.000045 -0.000015 -0.118542 0.000027 0.221560
#
#
# Mechanical properties :
#
#
# Convention : Reuss Voigt Hill
#
# Bulk Modulus (GPa) = 36.98083 44.78033 40.88058
# Shear Modulus (GPa) = 12.12817 34.06286 23.09552
#
# Velocity S-wave (km/s) = 2.12647 3.56371 2.93444
# Velocity P-wave (km/s) = 4.45165 5.79908 5.16945
#
# Compressibility (1/GPa) = 0.02704104
#
# Stress axis : x y z
#
# Youngs Moduli (GPa) = 63.15845 73.35740 63.84946
#
# Poissons Ratio (x) = 0.09565 0.32635
# Poissons Ratio (y) = 0.08235 0.16779
# Poissons Ratio (z) = 0.32281 0.19278
#
# Static dielectric constant tensor:
#      x y z
#    x 2.157790 0.000000 -0.014350 
#    y 0.000000 1.983090 0.000000 
#    z -0.014350 0.000000 2.189630 
# 
# From -- ./inp_files/43519.got.cif
#   From: 2010.05.17/outbox.cif.g08.bks.cpg/sg5_22_cif.got.tgz:43519.got - 2010.06.03 18:56:24.
