data_PCOD9121911
_publ_section_title
;
Structure prediction by ZEFSAII (Michael W. Deem and Ramdas Pophale) SiO2 
 PCOD9121911
Probable space group: C 2
;
_chemical_formula_sum "Si O2"
_cell_formula_units_Z 22
_cell_length_a 5.645651
_cell_length_b 23.790566
_cell_length_c 7.068034
_cell_angle_alpha 90.000000
_cell_angle_beta 101.628609
_cell_angle_gamma 90.000000
_cell_volume 929.845226
_symmetry_space_group_name_H-M "C 2"
_symmetry_group_IT_number 5
_symmetry_cell_setting 'monoclinic'
loop_
_space_group_symop_operation_xyz
x,y,z
-x,y,-z
1/2+x,1/2+y,z
1/2-x,1/2+y,-z
loop_
_atom_site_type_symbol
_atom_site_label
_atom_site_fract_x
_atom_site_fract_y
_atom_site_fract_z
Si Si1 0.321910 0.427500 0.242819
Si Si2 0.000000 0.113338 0.500000
Si Si3 0.811174 0.469164 0.199825
Si Si4 0.773860 0.810911 0.109936
Si Si5 0.540756 0.081012 0.279857
Si Si6 0.170045 0.692681 0.697708
O O1 0.587463 0.455250 0.301828
O O2 0.337257 0.360468 0.267380
O O3 0.079164 0.449363 0.304504
O O4 0.256295 0.440081 0.010009
O O5 0.170362 0.076170 0.665124
O O6 0.127038 0.156085 0.374515
O O7 0.863689 0.534945 0.167068
O O8 0.755710 0.747233 0.178847
O O9 0.500000 0.825005 0.000000
O O10 0.000000 0.812805 0.000000
O O11 0.500000 0.077315 0.500000
O O12 0.474810 0.144370 0.212348
O O13 0.000000 0.713301 0.500000
#
# Coordination Sequence:
#
# PCOD9121911 Si02
#       6
#     4   2   4   4   4   4
#     4  10  20  39  59  82 118 164 188 250 305 363
#     4   8  18  40  60  88 122 164 214 246 324 356
#     4  10  19  37  59  83 114 155 199 236 306 359
#     4  12  23  42  65  92 129 164 211 263 312 366
#     4   9  20  37  59  87 117 162 199 259 301 371
#     4   9  22  41  63  89 123 170 208 259 311 376
#
# _framework density 23.659852999999998
#
# number of rings (size 3 to 8) (size 9 to 14) (size 15 to 20)
#    0.000    2.545    3.636    0.000   10.182    0.000 
#    6.545    1.818    0.000    0.000    0.000    0.000 
#    0.000    0.000    0.000    0.000    0.000    0.000 
#
# Total GULP energy -61285.677980 kJ/mol
# GULP energy per Si atom -5571.425271 kJ/mol
# Density = 2.360600 g / cm^3
# Si number density = 23.659853 Si / 1000 Ang^3
#
#
#
# Elastic Constant Matrix: (Units=GPa)
#
#
# Indices 1 2 3 4 5 6 
#
# 1 198.3202 38.3697 29.2047 0.0000 23.4824 0.0000
# 2 38.3697 147.7189 10.4672 0.0000 25.8930 0.0000
# 3 29.2047 10.4672 53.0967 0.0000 9.7853 0.0000
# 4 0.0000 0.0000 0.0000 9.7890 0.0000 -0.5020
# 5 23.4824 25.8930 9.7853 0.0000 30.7904 0.0000
# 6 0.0000 0.0000 0.0000 -0.5020 0.0000 21.8068
#
#
#
# Elastic Compliance Matrix: (Units=1/GPa)
#
#
# Indices 1 2 3 4 5 6 
#
# 1 0.005935 -0.000832 -0.002544 0.000000 -0.003018 0.000000
# 2 -0.000832 0.008063 0.000001 0.000000 -0.006146 0.000000
# 3 -0.002544 0.000001 0.021112 0.000000 -0.004770 0.000000
# 4 0.000000 0.000000 0.000000 0.102277 0.000000 0.002355
# 5 -0.003018 -0.006146 -0.004770 0.000000 0.041464 0.000000
# 6 0.000000 0.000000 0.000000 0.002355 0.000000 0.045911
#
#
# Mechanical properties :
#
#
# Convention : Reuss Voigt Hill
#
# Bulk Modulus (GPa) = 35.26233 61.69099 48.47666
# Shear Modulus (GPa) = 20.74977 33.88353 27.31665
#
# Velocity S-wave (km/s) = 2.96464 3.78843 3.40156
# Velocity P-wave (km/s) = 5.16285 6.72807 5.99675
#
# Compressibility (1/GPa) = 0.02835887
#
# Stress axis : x y z
#
# Youngs Moduli (GPa) = 168.47945 124.02218 47.36669
#
# Poissons Ratio (x) = 0.10324 0.12052
# Poissons Ratio (y) = 0.14024 -0.00005
# Poissons Ratio (z) = 0.42867 -0.00012
#
# Static dielectric constant tensor:
#      x y z
#    x 2.103400 0.000000 0.047940 
#    y 0.000000 1.868200 0.000000 
#    z 0.047940 0.000000 1.950950 
# 
# From -- ./inp_files/12543.got.cif
#   From: 2010.05.17/outbox.cif.g08.bks.cpg/sg5_7_cif.got.tgz:12543.got - 2010.06.03 18:56:24.
