data_PCOD9121526
_publ_section_title
;
Structure prediction by ZEFSAII (Michael W. Deem and Ramdas Pophale) SiO2 
 PCOD9121526
Probable space group: C 2
;
_chemical_formula_sum "Si O2"
_cell_formula_units_Z 28
_cell_length_a 9.244066
_cell_length_b 10.298149
_cell_length_c 13.898327
_cell_angle_alpha 90.000000
_cell_angle_beta 64.302239
_cell_angle_gamma 90.000000
_cell_volume 1192.215644
_symmetry_space_group_name_H-M "C 2"
_symmetry_group_IT_number 5
_symmetry_cell_setting 'monoclinic'
loop_
_space_group_symop_operation_xyz
x,y,z
-x,y,-z
1/2+x,1/2+y,z
1/2-x,1/2+y,-z
loop_
_atom_site_type_symbol
_atom_site_label
_atom_site_fract_x
_atom_site_fract_y
_atom_site_fract_z
Si Si1 0.125345 0.659180 0.885086
Si Si2 0.109253 0.302285 0.112106
Si Si3 0.311069 0.874178 0.126709
Si Si4 0.514572 0.461954 0.690584
Si Si5 0.673513 0.696459 0.352826
Si Si6 0.436013 0.187637 0.412049
Si Si7 0.163559 0.465213 0.284221
O O1 0.297767 0.672529 0.886489
O O2 0.092417 0.508263 0.882982
O O3 0.169705 0.709231 0.765671
O O4 0.000000 0.715216 0.000000
O O5 0.166601 0.407158 0.174853
O O6 0.918266 0.281244 0.162616
O O7 0.169542 0.335337 0.988518
O O8 0.131089 0.898879 0.206789
O O9 0.439906 0.584711 0.655853
O O10 0.555574 0.342004 0.608667
O O11 0.666537 0.494279 0.713723
O O12 0.597633 0.839485 0.364131
O O13 0.753163 0.658330 0.431069
O O14 0.500000 0.161785 0.500000
O O15 0.550529 0.090285 0.319041
#
# Coordination Sequence:
#
# PCOD9121526 Si02
#       7
#     4   4   4   4   4   4   4
#     4  10  19  34  60  81 120 166 204 249 305 358
#     4  10  21  34  59  89 122 169 207 244 310 366
#     4  10  21  38  56  88 128 166 206 253 309 362
#     4  10  23  41  65  92 127 164 210 263 312 375
#     4   9  22  42  60  89 127 163 201 262 314 367
#     4  11  25  43  66  92 122 165 212 263 323 374
#     4  10  22  40  63  93 124 160 216 257 317 376
#
# _framework density 23.485683999999999
#
# number of rings (size 3 to 8) (size 9 to 14) (size 15 to 20)
#    0.000    2.000    1.429    1.714    6.000    6.857 
#    0.000    5.000    0.000    0.000    0.000    0.000 
#    0.000    0.000    0.000    0.000    0.000    0.000 
#
# Total GULP energy -78050.090846 kJ/mol
# GULP energy per Si atom -5575.006489 kJ/mol
# Density = 2.343223 g / cm^3
# Si number density = 23.485684 Si / 1000 Ang^3
#
#
#
# Elastic Constant Matrix: (Units=GPa)
#
#
# Indices 1 2 3 4 5 6 
#
# 1 167.3099 59.2632 22.3704 0.0000 32.2806 0.0000
# 2 59.2632 89.1583 -0.0935 0.0000 4.0898 0.0000
# 3 22.3704 -0.0935 53.6630 0.0000 15.5775 0.0000
# 4 0.0000 0.0000 0.0000 11.4193 0.0000 7.5167
# 5 32.2806 4.0898 15.5775 0.0000 39.7421 0.0000
# 6 0.0000 0.0000 0.0000 7.5167 0.0000 43.4000
#
#
#
# Elastic Compliance Matrix: (Units=1/GPa)
#
#
# Indices 1 2 3 4 5 6 
#
# 1 0.009673 -0.006140 -0.002196 0.000000 -0.006365 0.000000
# 2 -0.006140 0.015174 0.001796 0.000000 0.002722 0.000000
# 3 -0.002196 0.001796 0.021540 0.000000 -0.006844 0.000000
# 4 0.000000 0.000000 0.000000 0.098840 0.000000 -0.017119
# 5 -0.006365 0.002722 -0.006844 0.000000 0.032735 0.000000
# 6 0.000000 0.000000 0.000000 -0.017119 0.000000 0.026006
#
#
# Mechanical properties :
#
#
# Convention : Reuss Voigt Hill
#
# Bulk Modulus (GPa) = 30.02273 52.57904 41.30089
# Shear Modulus (GPa) = 21.91527 34.15167 28.03347
#
# Velocity S-wave (km/s) = 3.05804 3.81747 3.45866
# Velocity P-wave (km/s) = 5.02792 6.47047 5.79426
#
# Compressibility (1/GPa) = 0.03330809
#
# Stress axis : x y z
#
# Youngs Moduli (GPa) = 103.37540 65.90026 46.42515
#
# Poissons Ratio (x) = 0.40465 0.10193
# Poissons Ratio (y) = 0.63475 -0.08338
# Poissons Ratio (z) = 0.22698 -0.11836
#
# Static dielectric constant tensor:
#      x y z
#    x 1.896810 0.000000 -0.018320 
#    y 0.000000 1.870180 0.000000 
#    z -0.018320 0.000000 1.962560 
# 
# From -- ./inp_files/50262.got.cif
#   From: 2010.05.17/outbox.cif.g08.bks.cpg/sg5_26_cif.got.tgz:50262.got - 2010.06.03 18:56:24.
