data_PCOD9121651
_publ_section_title
;
Structure prediction by ZEFSAII (Michael W. Deem and Ramdas Pophale) SiO2 
 PCOD9121651
Probable space group: C 2
;
_chemical_formula_sum "Si O2"
_cell_formula_units_Z 24
_cell_length_a 22.985075
_cell_length_b 7.537964
_cell_length_c 8.597122
_cell_angle_alpha 90.000000
_cell_angle_beta 140.252909
_cell_angle_gamma 90.000000
_cell_volume 952.413807
_symmetry_space_group_name_H-M "C 2"
_symmetry_group_IT_number 5
_symmetry_cell_setting 'monoclinic'
loop_
_space_group_symop_operation_xyz
x,y,z
-x,y,-z
1/2+x,1/2+y,z
1/2-x,1/2+y,-z
loop_
_atom_site_type_symbol
_atom_site_label
_atom_site_fract_x
_atom_site_fract_y
_atom_site_fract_z
Si Si1 0.106205 0.533410 0.070333
Si Si2 0.587249 0.403331 0.232956
Si Si3 0.446199 0.858058 0.546172
Si Si4 0.748631 0.224963 0.155270
Si Si5 0.252074 0.018102 0.406598
Si Si6 0.843761 0.729106 0.355634
O O1 0.084941 0.725649 0.112939
O O2 0.181867 0.574379 0.091017
O O3 0.159097 0.445780 0.323181
O O4 0.023190 0.417871 0.832125
O O5 0.673328 0.521578 0.367946
O O6 0.584684 0.353775 0.409738
O O7 0.500000 0.509481 0.000000
O O8 0.500000 0.808340 0.500000
O O9 0.359440 0.724495 0.388648
O O10 0.394721 0.047183 0.419138
O O11 0.723753 0.389276 0.212685
O O12 0.714429 0.275478 0.912900
O O13 0.278853 0.194486 0.371401
#
# Coordination Sequence:
#
# PCOD9121651 Si02
#       6
#     4   4   4   4   4   4
#     4  10  20  40  61  89 124 156 207 259 302 370
#     4  10  19  35  60  89 112 159 210 243 309 374
#     4  11  21  36  64  96 117 164 211 249 315 375
#     4  10  22  37  60  96 121 158 208 255 312 366
#     4   9  22  36  60  88 121 166 196 258 317 358
#     4  10  20  36  58  87 127 152 203 266 299 370
#
# _framework density 25.19913
#
# number of rings (size 3 to 8) (size 9 to 14) (size 15 to 20)
#    0.000    2.000    3.333    0.000    2.333    0.000 
#    0.000    1.667    0.000    0.000    0.000    0.000 
#    0.000    0.000    0.000    0.000    0.000    0.000 
#
# Total GULP energy -66892.066325 kJ/mol
# GULP energy per Si atom -5574.338860 kJ/mol
# Density = 2.514178 g / cm^3
# Si number density = 25.199130 Si / 1000 Ang^3
#
#
#
# Elastic Constant Matrix: (Units=GPa)
#
#
# Indices 1 2 3 4 5 6 
#
# 1 128.1566 10.1106 67.1854 0.0000 -1.2132 0.0000
# 2 10.1106 38.6744 30.8575 0.0000 -5.7982 0.0000
# 3 67.1854 30.8575 235.1837 0.0000 -27.4834 0.0000
# 4 0.0000 0.0000 0.0000 26.8611 0.0000 1.5280
# 5 -1.2132 -5.7982 -27.4834 0.0000 52.7532 0.0000
# 6 0.0000 0.0000 0.0000 1.5280 0.0000 28.0458
#
#
#
# Elastic Compliance Matrix: (Units=1/GPa)
#
#
# Indices 1 2 3 4 5 6 
#
# 1 0.009259 -0.000426 -0.002736 0.000000 -0.001259 0.000000
# 2 -0.000426 0.028981 -0.003524 0.000000 0.001340 0.000000
# 3 -0.002736 -0.003524 0.005796 0.000000 0.002570 0.000000
# 4 0.000000 0.000000 0.000000 0.037344 0.000000 -0.002035
# 5 -0.001259 0.001340 0.002570 0.000000 0.020413 0.000000
# 6 0.000000 0.000000 0.000000 -0.002035 0.000000 0.035767
#
#
# Mechanical properties :
#
#
# Convention : Reuss Voigt Hill
#
# Bulk Modulus (GPa) = 32.61250 68.70243 50.65747
# Shear Modulus (GPa) = 31.02596 41.12275 36.07435
#
# Velocity S-wave (km/s) = 3.51270 4.04407 3.78772
# Velocity P-wave (km/s) = 5.42421 7.00921 6.26702
#
# Compressibility (1/GPa) = 0.03066309
#
# Stress axis : x y z
#
# Youngs Moduli (GPa) = 108.00104 34.50536 172.52204
#
# Poissons Ratio (x) = 0.01471 0.47208
# Poissons Ratio (y) = 0.04603 0.60800
# Poissons Ratio (z) = 0.29553 0.12160
#
# Static dielectric constant tensor:
#      x y z
#    x 2.028130 0.000000 0.100470 
#    y 0.000000 2.078140 0.000000 
#    z 0.100470 0.000000 2.050050 
# 
# From -- ./inp_files/19442.got.cif
#   From: 2010.05.17/outbox.cif.g08.bks.cpg/sg5_10_cif.got.tgz:19442.got - 2010.06.03 18:56:24.
