data_PCOD9121705
_publ_section_title
;
Structure prediction by ZEFSAII (Michael W. Deem and Ramdas Pophale) SiO2 
 PCOD9121705
Probable space group: C 2
;
_chemical_formula_sum "Si O2"
_cell_formula_units_Z 24
_cell_length_a 18.786441
_cell_length_b 10.171008
_cell_length_c 15.231539
_cell_angle_alpha 90.000000
_cell_angle_beta 24.448769
_cell_angle_gamma 90.000000
_cell_volume 1204.553638
_symmetry_space_group_name_H-M "C 2"
_symmetry_group_IT_number 5
_symmetry_cell_setting 'monoclinic'
loop_
_space_group_symop_operation_xyz
x,y,z
-x,y,-z
1/2+x,1/2+y,z
1/2-x,1/2+y,-z
loop_
_atom_site_type_symbol
_atom_site_label
_atom_site_fract_x
_atom_site_fract_y
_atom_site_fract_z
Si Si1 0.520589 0.070260 0.657060
Si Si2 0.104518 0.180630 0.796943
Si Si3 0.944099 0.833736 0.830155
Si Si4 0.699755 0.938085 0.610357
Si Si5 0.501987 0.607828 0.277890
Si Si6 0.883952 0.327004 0.713758
O O1 0.710744 0.110360 0.410781
O O2 0.428175 0.205702 0.787141
O O3 0.555075 0.988590 0.707651
O O4 0.432238 0.974926 0.687621
O O5 0.136829 0.337091 0.753430
O O6 0.011957 0.144840 0.809084
O O7 0.000000 0.144876 0.000000
O O8 0.149256 0.857980 0.613224
O O9 0.824063 0.820331 0.049940
O O10 0.894291 0.969494 0.835668
O O11 0.809102 0.061738 0.521821
O O12 0.563845 0.724987 0.268259
O O13 0.000000 0.293282 0.500000
#
# Coordination Sequence:
#
# PCOD9121705 Si02
#       6
#     4   4   4   4   4   4
#     4  10  20  39  63  84 117 157 194 241 292 346
#     4  10  19  35  65  94 109 146 203 250 286 337
#     4   9  21  39  59  83 116 161 195 230 300 350
#     4   8  18  38  64  81 113 152 195 239 292 335
#     4   9  20  39  59  80 125 152 187 237 297 345
#     4  12  24  38  58  89 123 156 194 239 294 350
#
# _framework density 19.924392999999998
#
# number of rings (size 3 to 8) (size 9 to 14) (size 15 to 20)
#    1.000    1.333    1.667    1.000    2.333    0.000 
#    3.000    0.833    0.000    0.000    0.000    0.000 
#    0.000    0.000    0.000    0.000    0.000    0.000 
#
# Total GULP energy -66802.405548 kJ/mol
# GULP energy per Si atom -5566.867129 kJ/mol
# Density = 1.987904 g / cm^3
# Si number density = 19.924393 Si / 1000 Ang^3
#
#
#
# Elastic Constant Matrix: (Units=GPa)
#
#
# Indices 1 2 3 4 5 6 
#
# 1 32.5165 21.4203 27.1389 0.0000 3.2526 0.0000
# 2 21.4203 104.7327 31.9909 0.0000 11.1957 0.0000
# 3 27.1389 31.9909 123.4507 0.0000 11.2307 0.0000
# 4 0.0000 0.0000 0.0000 13.4680 0.0000 1.4781
# 5 3.2526 11.1957 11.2307 0.0000 15.8110 0.0000
# 6 0.0000 0.0000 0.0000 1.4781 0.0000 7.3226
#
#
#
# Elastic Compliance Matrix: (Units=1/GPa)
#
#
# Indices 1 2 3 4 5 6 
#
# 1 0.041001 -0.006230 -0.007519 0.000000 0.001317 0.000000
# 2 -0.006230 0.011840 -0.001125 0.000000 -0.006303 0.000000
# 3 -0.007519 -0.001125 0.010511 0.000000 -0.005122 0.000000
# 4 0.000000 0.000000 0.000000 0.075932 0.000000 -0.015327
# 5 0.001317 -0.006303 -0.005122 0.000000 0.071078 0.000000
# 6 0.000000 0.000000 0.000000 -0.015327 0.000000 0.139657
#
#
# Mechanical properties :
#
#
# Convention : Reuss Voigt Hill
#
# Bulk Modulus (GPa) = 29.75850 46.86668 38.31259
# Shear Modulus (GPa) = 12.78875 19.33031 16.05953
#
# Velocity S-wave (km/s) = 2.53625 3.11816 2.84214
# Velocity P-wave (km/s) = 4.85231 6.04460 5.48097
#
# Compressibility (1/GPa) = 0.03360384
#
# Stress axis : x y z
#
# Youngs Moduli (GPa) = 24.38947 84.46143 95.13904
#
# Poissons Ratio (x) = 0.52618 0.71535
# Poissons Ratio (y) = 0.15194 0.10705
# Poissons Ratio (z) = 0.18338 0.09504
#
# Static dielectric constant tensor:
#      x y z
#    x 1.703370 0.000000 -0.061470 
#    y 0.000000 1.755620 0.000000 
#    z -0.061470 0.000000 1.731500 
# 
# From -- ./inp_files/44646.got.cif
#   From: 2010.05.17/outbox.cif.g08.bks.cpg/sg5_23_cif.got.tgz:44646.got - 2010.06.03 18:56:24.
