data_PCOD9121149
_publ_section_title
;
Structure prediction by ZEFSAII (Michael W. Deem and Ramdas Pophale) SiO2 
 PCOD9121149
Probable space group: C 2
;
_chemical_formula_sum "Si O2"
_cell_formula_units_Z 24
_cell_length_a 6.996362
_cell_length_b 11.435104
_cell_length_c 19.156644
_cell_angle_alpha 90.000000
_cell_angle_beta 135.512842
_cell_angle_gamma 90.000000
_cell_volume 1073.975918
_symmetry_space_group_name_H-M "C 2"
_symmetry_group_IT_number 5
_symmetry_cell_setting 'monoclinic'
loop_
_space_group_symop_operation_xyz
x,y,z
-x,y,-z
1/2+x,1/2+y,z
1/2-x,1/2+y,-z
loop_
_atom_site_type_symbol
_atom_site_label
_atom_site_fract_x
_atom_site_fract_y
_atom_site_fract_z
Si Si1 0.558381 0.969570 0.648954
Si Si2 0.210074 0.218951 0.719993
Si Si3 0.000000 0.861369 0.500000
Si Si4 0.934990 0.828668 0.907582
Si Si5 0.761287 0.082599 0.834679
Si Si6 0.217771 0.156840 0.493079
Si Si7 0.500000 0.760139 0.000000
O O1 0.706912 0.844765 0.678137
O O2 0.258240 0.928427 0.600427
O O3 0.744034 0.046058 0.749108
O O4 0.435506 0.054304 0.558910
O O5 0.229127 0.255246 0.805718
O O6 0.469109 0.139887 0.772678
O O7 0.952191 0.151448 0.622721
O O8 0.874819 0.779309 0.527387
O O9 0.222915 0.831976 0.940512
O O10 0.812850 0.957852 0.884430
O O11 0.000000 0.778163 0.000000
O O12 0.961715 0.175980 0.922561
O O13 0.000000 0.157939 0.500000
#
# Coordination Sequence:
#
# PCOD9121149 Si02
#       7
#     4   4   2   4   4   4   2
#     4  10  19  38  62  88 133 165 204 261 308 360
#     4   9  20  36  66  95 121 164 215 246 306 385
#     4  10  22  38  60  94 124 166 218 246 296 390
#     4  10  21  41  66  92 125 167 204 261 320 360
#     4  10  18  40  65  88 127 164 202 269 311 358
#     4  11  20  40  63  89 129 167 199 260 312 357
#     4  10  22  40  64  92 124 158 218 256 304 392
#
# _framework density 22.346869999999999
#
# number of rings (size 3 to 8) (size 9 to 14) (size 15 to 20)
#    0.000    2.000    3.333    0.000    0.000    0.000 
#   16.500    0.000   14.667    0.000    0.000    0.000 
#    0.000    0.000    0.000    0.000    0.000    0.000 
#
# Total GULP energy -66845.121715 kJ/mol
# GULP energy per Si atom -5570.426810 kJ/mol
# Density = 2.229601 g / cm^3
# Si number density = 22.346870 Si / 1000 Ang^3
#
#
#
# Elastic Constant Matrix: (Units=GPa)
#
#
# Indices 1 2 3 4 5 6 
#
# 1 71.4857 32.2592 21.2798 0.0000 5.0719 0.0000
# 2 32.2592 106.4355 52.3891 0.0000 4.7112 0.0000
# 3 21.2798 52.3891 164.3666 -0.0001 -2.1595 0.0000
# 4 0.0000 0.0000 -0.0001 38.7193 0.0000 9.2067
# 5 5.0719 4.7112 -2.1595 0.0000 28.5499 0.0000
# 6 0.0000 0.0000 0.0000 9.2067 0.0000 32.8041
#
#
#
# Elastic Compliance Matrix: (Units=1/GPa)
#
#
# Indices 1 2 3 4 5 6 
#
# 1 0.016399 -0.004522 -0.000711 0.000000 -0.002221 0.000000
# 2 -0.004522 0.012519 -0.003425 0.000000 -0.001522 0.000000
# 3 -0.000711 -0.003425 0.007284 0.000000 0.001242 0.000000
# 4 0.000000 0.000000 0.000000 0.027674 0.000000 -0.007767
# 5 -0.002221 -0.001522 0.001242 0.000000 0.035766 0.000000
# 6 0.000000 0.000000 0.000000 -0.007767 0.000000 0.032664
#
#
# Mechanical properties :
#
#
# Convention : Reuss Voigt Hill
#
# Bulk Modulus (GPa) = 52.94878 61.57154 57.26016
# Shear Modulus (GPa) = 32.06860 35.77198 33.92029
#
# Velocity S-wave (km/s) = 3.79230 4.00529 3.90025
# Velocity P-wave (km/s) = 6.55140 7.00016 6.77950
#
# Compressibility (1/GPa) = 0.01888618
#
# Stress axis : x y z
#
# Youngs Moduli (GPa) = 60.98075 79.87871 137.28893
#
# Poissons Ratio (x) = 0.36121 0.09760
# Poissons Ratio (y) = 0.27575 0.47018
# Poissons Ratio (z) = 0.04335 0.27357
#
# Static dielectric constant tensor:
#      x y z
#    x 1.844810 0.000000 -0.017870 
#    y 0.000000 1.857360 0.000000 
#    z -0.017870 0.000000 1.876400 
# 
# From -- ./inp_files/64510.got.cif
#   From: 2010.05.17/outbox.cif.g08.bks.cpg/sg5_33_cif.got.tgz:64510.got - 2010.06.03 18:56:24.
