data_PCOD9121546
_publ_section_title
;
Structure prediction by ZEFSAII (Michael W. Deem and Ramdas Pophale) SiO2 
 PCOD9121546
Probable space group: C 2
;
_chemical_formula_sum "Si O2"
_cell_formula_units_Z 20
_cell_length_a 27.731549
_cell_length_b 4.849132
_cell_length_c 5.617192
_cell_angle_alpha 90.000000
_cell_angle_beta 86.382170
_cell_angle_gamma 90.000000
_cell_volume 753.860611
_symmetry_space_group_name_H-M "C 2"
_symmetry_group_IT_number 5
_symmetry_cell_setting 'monoclinic'
loop_
_space_group_symop_operation_xyz
x,y,z
-x,y,-z
1/2+x,1/2+y,z
1/2-x,1/2+y,-z
loop_
_atom_site_type_symbol
_atom_site_label
_atom_site_fract_x
_atom_site_fract_y
_atom_site_fract_z
Si Si1 0.053163 0.041210 0.232008
Si Si2 0.940843 0.070418 0.267510
Si Si3 0.375909 0.171578 0.036767
Si Si4 0.298631 0.306951 0.705514
Si Si5 0.689335 0.806807 0.643017
O O1 0.067410 0.192365 0.470376
O O2 0.996572 0.970014 0.257890
O O3 0.060438 0.220711 0.988814
O O4 0.085223 0.767762 0.179800
O O5 0.904169 0.820330 0.243337
O O6 0.351919 0.900152 0.160974
O O7 0.328657 0.324658 0.938702
O O8 0.309674 0.015071 0.581105
O O9 0.241198 0.333235 0.756092
O O10 0.313223 0.519531 0.493452
#
# Coordination Sequence:
#
# PCOD9121546 Si02
#       5
#     4   4   4   4   4
#     4   8  15  29  54  93 129 168 216 274 334 402
#     4   8  15  29  54  93 129 168 216 274 334 402
#     4  10  19  34  62  92 128 178 221 278 334 408
#     4  10  23  41  61  92 134 179 226 280 337 403
#     4  10  23  41  61  92 134 179 226 280 337 403
#
# _framework density 26.530103
#
# number of rings (size 3 to 8) (size 9 to 14) (size 15 to 20)
#    1.200    1.600    0.000    1.200    0.000    6.400 
#    0.000    0.000    0.000    0.000    0.000   84.000 
#    0.000    0.000    0.000    0.000    0.000    0.000 
#
# Total GULP energy -55755.228496 kJ/mol
# GULP energy per Si atom -5575.522850 kJ/mol
# Density = 2.646972 g / cm^3
# Si number density = 26.530103 Si / 1000 Ang^3
#
#
#
# Elastic Constant Matrix: (Units=GPa)
#
#
# Indices 1 2 3 4 5 6 
#
# 1 149.4480 5.6209 45.3464 0.0000 -21.1488 0.0000
# 2 5.6209 24.4763 17.6528 0.0000 -5.5690 0.0000
# 3 45.3464 17.6528 203.4738 0.0000 24.5768 0.0000
# 4 0.0000 0.0000 0.0000 29.8462 0.0000 -9.9075
# 5 -21.1488 -5.5690 24.5768 0.0000 52.2027 0.0000
# 6 0.0000 0.0000 0.0000 -9.9075 0.0000 -3.3335
#
#
#
# Elastic Compliance Matrix: (Units=1/GPa)
#
#
# Indices 1 2 3 4 5 6 
#
# 1 0.008022 0.000914 -0.002408 0.000000 0.004481 0.000000
# 2 0.000914 0.046102 -0.005134 0.000000 0.007706 0.000000
# 3 -0.002408 -0.005134 0.006447 0.000000 -0.004559 0.000000
# 4 0.000000 0.000000 0.000000 0.016865 0.000000 -0.050127
# 5 0.004481 0.007706 -0.004559 0.000000 0.023940 0.000000
# 6 0.000000 0.000000 0.000000 -0.050127 0.000000 -0.151006
#
#
# Mechanical properties :
#
#
# Convention : Reuss Voigt Hill
#
# Bulk Modulus (GPa) = 21.13501 57.18204 39.15852
# Shear Modulus (GPa) = -242.70865 36.32829 -103.19018
#
# Velocity S-wave (km/s) = -9.57512 3.70445 -6.24339
# Velocity P-wave (km/s) = 10.68925 6.31646 6.09764
#
# Compressibility (1/GPa) = 0.04731487
#
# Stress axis : x y z
#
# Youngs Moduli (GPa) = 124.66007 21.69103 155.10027
#
# Poissons Ratio (x) = -0.01983 0.37354
# Poissons Ratio (y) = -0.11399 0.79632
# Poissons Ratio (z) = 0.30023 0.11137
#
# Static dielectric constant tensor:
#      x y z
#    x 2.059100 0.000000 0.005460 
#    y 0.000000 2.086620 0.000000 
#    z 0.005460 0.000000 2.157330 
# 
# From -- ./inp_files/10983.got.cif
#   From: 2010.05.17/outbox.cif.g08.bks.cpg/sg5_6_cif.got.tgz:10983.got - 2010.06.03 18:56:24.
