data_PCOD9121295
_publ_section_title
;
Structure prediction by ZEFSAII (Michael W. Deem and Ramdas Pophale) SiO2 
 PCOD9121295
Probable space group: C 2
;
_chemical_formula_sum "Si O2"
_cell_formula_units_Z 30
_cell_length_a 16.290705
_cell_length_b 5.427448
_cell_length_c 25.478379
_cell_angle_alpha 90.000000
_cell_angle_beta 148.030259
_cell_angle_gamma 90.000000
_cell_volume 1192.750987
_symmetry_space_group_name_H-M "C 2"
_symmetry_group_IT_number 5
_symmetry_cell_setting 'monoclinic'
loop_
_space_group_symop_operation_xyz
x,y,z
-x,y,-z
1/2+x,1/2+y,z
1/2-x,1/2+y,-z
loop_
_atom_site_type_symbol
_atom_site_label
_atom_site_fract_x
_atom_site_fract_y
_atom_site_fract_z
Si Si1 0.663980 0.547340 0.345016
Si Si2 0.641167 0.088581 0.007411
Si Si3 0.000000 0.733379 0.500000
Si Si4 0.595668 0.588847 0.193859
Si Si5 0.734332 0.586904 0.042375
Si Si6 0.492747 0.404399 0.609761
Si Si7 0.850042 0.544730 0.598431
Si Si8 0.199088 0.592865 0.202557
O O1 0.568118 0.553151 0.239688
O O2 0.642421 0.284793 0.360416
O O3 0.845442 0.577978 0.427415
O O4 0.626309 0.796239 0.356529
O O5 0.728296 0.839384 0.071094
O O6 0.456211 0.091413 0.918249
O O7 0.733559 0.333664 0.073867
O O8 0.657124 0.088741 0.950665
O O9 0.971149 0.896276 0.432529
O O10 0.437578 0.581925 0.075812
O O11 0.667206 0.855040 0.221972
O O12 0.694323 0.357613 0.227328
O O13 0.322997 0.527372 0.519464
O O14 0.466823 0.123937 0.615697
O O15 0.624062 0.533796 0.715896
#
# Coordination Sequence:
#
# PCOD9121295 Si02
#       8
#     4   4   2   4   4   4   4   4
#     4  11  23  39  55  81 107 147 183 230 272 337
#     4   8  14  26  42  72 104 139 164 208 275 327
#     4  10  22  34  60  76 104 132 190 228 282 302
#     4  10  19  32  51  82 108 138 180 227 273 324
#     4   8  14  25  44  68 109 138 162 207 273 332
#     4  11  23  42  56  82 105 151 183 237 276 329
#     4  11  26  39  56  73 114 147 187 220 285 332
#     4  10  20  31  54  79 108 136 184 232 271 321
#
# _framework density 25.151941000000001
#
# number of rings (size 3 to 8) (size 9 to 14) (size 15 to 20)
#    0.000    2.133    1.333    2.400    3.733    2.667 
#    0.000    0.000    0.000    0.000    0.000    0.933 
#    0.000    4.267    0.000    0.000    0.000    0.133 
#
# Total GULP energy -83814.264537 kJ/mol
# GULP energy per Si atom -5587.617636 kJ/mol
# Density = 2.509469 g / cm^3
# Si number density = 25.151941 Si / 1000 Ang^3
#
#
#
# Elastic Constant Matrix: (Units=GPa)
#
#
# Indices 1 2 3 4 5 6 
#
# 1 62.6727 33.3235 23.2553 0.0008 7.3607 0.0008
# 2 33.3235 152.7097 11.6605 0.0040 4.5815 0.0041
# 3 23.2553 11.6605 72.5682 0.0011 21.4369 0.0009
# 4 0.0008 0.0040 0.0011 16.6063 0.0001 14.8992
# 5 7.3607 4.5815 21.4369 0.0001 38.9873 0.0003
# 6 0.0008 0.0041 0.0009 14.8992 0.0003 40.3619
#
#
#
# Elastic Compliance Matrix: (Units=1/GPa)
#
#
# Indices 1 2 3 4 5 6 
#
# 1 0.020237 -0.003968 -0.005798 0.000000 -0.000166 0.000000
# 2 -0.003968 0.007410 0.000140 -0.000001 -0.000198 0.000000
# 3 -0.005798 0.000140 0.018264 -0.000001 -0.008964 0.000000
# 4 0.000000 -0.000001 -0.000001 0.090038 0.000001 -0.033237
# 5 -0.000166 -0.000198 -0.008964 0.000001 0.030633 0.000000
# 6 0.000000 0.000000 0.000000 -0.033237 0.000000 0.037045
#
#
# Mechanical properties :
#
#
# Convention : Reuss Voigt Hill
#
# Bulk Modulus (GPa) = 37.51461 47.15880 42.33671
# Shear Modulus (GPa) = 21.57354 33.83853 27.70603
#
# Velocity S-wave (km/s) = 2.93188 3.67190 3.32256
# Velocity P-wave (km/s) = 5.13895 6.06361 5.62033
#
# Compressibility (1/GPa) = 0.02665628
#
# Stress axis : x y z
#
# Youngs Moduli (GPa) = 49.41459 134.96021 54.75292
#
# Poissons Ratio (x) = 0.53556 0.31748
# Poissons Ratio (y) = 0.19609 -0.00765
# Poissons Ratio (z) = 0.28653 -0.01885
#
# Static dielectric constant tensor:
#      x y z
#    x 2.078050 0.000000 0.058220 
#    y 0.000000 2.072600 0.000000 
#    z 0.058220 0.000000 2.010920 
# 
# From -- ./inp_files/62016.got.cif
#   From: 2010.05.17/outbox.cif.g08.bks.cpg/sg5_32_cif.got.tgz:62016.got - 2010.06.03 18:56:24.
