data_PCOD9121938
_publ_section_title
;
Structure prediction by ZEFSAII (Michael W. Deem and Ramdas Pophale) SiO2 
 PCOD9121938
Probable space group: C 2
;
_chemical_formula_sum "Si O2"
_cell_formula_units_Z 32
_cell_length_a 11.004789
_cell_length_b 21.853792
_cell_length_c 8.893749
_cell_angle_alpha 90.000000
_cell_angle_beta 48.421225
_cell_angle_gamma 90.000000
_cell_volume 1600.002019
_symmetry_space_group_name_H-M "C 2"
_symmetry_group_IT_number 5
_symmetry_cell_setting 'monoclinic'
loop_
_space_group_symop_operation_xyz
x,y,z
-x,y,-z
1/2+x,1/2+y,z
1/2-x,1/2+y,-z
loop_
_atom_site_type_symbol
_atom_site_label
_atom_site_fract_x
_atom_site_fract_y
_atom_site_fract_z
Si Si1 0.596502 0.203110 0.083412
Si Si2 0.041824 0.575567 0.789933
Si Si3 0.023377 0.832625 0.800922
Si Si4 0.578046 0.955458 0.598121
Si Si5 0.037149 0.967269 0.790450
Si Si6 0.475381 0.704195 0.842702
Si Si7 0.904188 0.323470 0.421341
Si Si8 0.579533 0.587395 0.591176
O O1 0.533429 0.139517 0.207170
O O2 0.558038 0.269575 0.187020
O O3 0.500000 0.204413 0.000000
O O4 0.791300 0.199111 0.928731
O O5 0.994921 0.511719 0.751509
O O6 0.233257 0.577354 0.602533
O O7 0.000000 0.572291 0.000000
O O8 0.968167 0.900793 0.795583
O O9 0.213352 0.825513 0.612053
O O10 0.000000 0.834840 0.000000
O O11 0.500000 0.952506 0.500000
O O12 0.769816 0.963415 0.404602
O O13 0.552913 0.888535 0.690246
O O14 0.991023 0.027645 0.734299
O O15 0.000000 0.974829 0.000000
O O16 0.551366 0.764738 0.709664
O O17 0.565221 0.643142 0.716180
O O18 0.500000 0.708265 0.000000
O O19 0.000000 0.319141 0.500000
O O20 0.500000 0.605363 0.500000
#
# Coordination Sequence:
#
# PCOD9121938 Si02
#       8
#     4   4   4   4   4   4   4   4
#     4  10  20  38  61  85 112 154 200 237 285 350
#     4  10  21  37  58  85 114 151 197 245 291 344
#     4   9  17  34  60  87 114 152 198 242 287 347
#     4   9  20  35  57  85 116 153 194 237 291 350
#     4   9  19  35  57  86 117 148 192 244 293 342
#     4  12  26  41  59  90 123 154 194 249 303 347
#     4  10  19  37  61  86 116 157 200 240 289 357
#     4  11  22  39  60  84 115 157 199 242 294 357
#
# _framework density 19.999974000000002
#
# number of rings (size 3 to 8) (size 9 to 14) (size 15 to 20)
#    0.000    2.000    0.000    4.500    0.000    5.500 
#    0.000    5.625    0.000    0.000    0.000    0.000 
#    0.000    0.000    0.000    0.000    0.000    0.000 
#
# Total GULP energy -89153.001067 kJ/mol
# GULP energy per Si atom -5572.062567 kJ/mol
# Density = 1.995445 g / cm^3
# Si number density = 19.999974 Si / 1000 Ang^3
#
#
#
# Elastic Constant Matrix: (Units=GPa)
#
#
# Indices 1 2 3 4 5 6 
#
# 1 29.1588 2.7408 17.2254 0.0000 1.0114 0.0000
# 2 2.7408 182.2087 69.8335 0.0000 10.8273 0.0000
# 3 17.2254 69.8335 81.3541 0.0000 3.2104 0.0000
# 4 0.0000 0.0000 0.0000 49.0115 0.0000 2.5878
# 5 1.0114 10.8273 3.2104 0.0000 21.0620 0.0000
# 6 0.0000 0.0000 0.0000 2.5878 0.0000 29.5457
#
#
#
# Elastic Compliance Matrix: (Units=1/GPa)
#
#
# Indices 1 2 3 4 5 6 
#
# 1 0.041216 0.004211 -0.012251 0.000000 -0.002276 0.000000
# 2 0.004211 0.008823 -0.008328 0.000000 -0.003468 0.000000
# 3 -0.012251 -0.008328 0.021975 0.000000 0.001520 0.000000
# 4 0.000000 0.000000 0.000000 0.020498 0.000000 -0.001795
# 5 -0.002276 -0.003468 0.001520 0.000000 0.049139 0.000000
# 6 0.000000 0.000000 0.000000 -0.001795 0.000000 0.034003
#
#
# Mechanical properties :
#
#
# Convention : Reuss Voigt Hill
#
# Bulk Modulus (GPa) = 25.46102 52.48011 38.97057
# Shear Modulus (GPa) = 22.57507 33.45197 28.01352
#
# Velocity S-wave (km/s) = 3.36334 4.09418 3.74662
# Velocity P-wave (km/s) = 5.27645 6.97473 6.18416
#
# Compressibility (1/GPa) = 0.03927572
#
# Stress axis : x y z
#
# Youngs Moduli (GPa) = 24.26264 113.34271 45.50674
#
# Poissons Ratio (x) = -0.47726 0.55752
# Poissons Ratio (y) = -0.10216 0.37898
# Poissons Ratio (z) = 0.29725 0.94393
#
# Static dielectric constant tensor:
#      x y z
#    x 1.741340 0.000000 -0.023300 
#    y 0.000000 1.782560 0.000000 
#    z -0.023300 0.000000 1.678700 
# 
# From -- ./inp_files/21929.got.cif
#   From: 2010.05.17/outbox.cif.g08.bks.cpg/sg5_11_cif.got.tgz:21929.got - 2010.06.03 18:56:24.
