data_PCOD9121192
_publ_section_title
;
Structure prediction by ZEFSAII (Michael W. Deem and Ramdas Pophale) SiO2 
 PCOD9121192
Probable space group: C 2
;
_chemical_formula_sum "Si O2"
_cell_formula_units_Z 18
_cell_length_a 9.081550
_cell_length_b 12.250056
_cell_length_c 9.887676
_cell_angle_alpha 90.000000
_cell_angle_beta 46.508356
_cell_angle_gamma 90.000000
_cell_volume 798.021482
_symmetry_space_group_name_H-M "C 2"
_symmetry_group_IT_number 5
_symmetry_cell_setting 'monoclinic'
loop_
_space_group_symop_operation_xyz
x,y,z
-x,y,-z
1/2+x,1/2+y,z
1/2-x,1/2+y,-z
loop_
_atom_site_type_symbol
_atom_site_label
_atom_site_fract_x
_atom_site_fract_y
_atom_site_fract_z
Si Si1 0.583244 0.479060 0.304089
Si Si2 0.500000 0.600316 0.000000
Si Si3 0.168656 0.434976 0.093559
Si Si4 0.475880 0.714989 0.736499
Si Si5 0.337495 0.910081 0.486873
O O1 0.500000 0.436768 0.500000
O O2 0.603002 0.609654 0.291290
O O3 0.382392 0.452896 0.341067
O O4 0.770251 0.432399 0.101794
O O5 0.686240 0.523637 0.928875
O O6 0.544166 0.675737 0.841722
O O7 0.188127 0.312049 0.139952
O O8 0.937247 0.460531 0.286404
O O9 0.653019 0.780112 0.546326
O O10 0.500000 0.935182 0.500000
#
# Coordination Sequence:
#
# PCOD9121192 Si02
#       5
#     4   2   4   4   4
#     4  11  23  42  64  99 132 171 224 277 328 398
#     4  10  18  42  66  90 132 178 216 264 340 392
#     4   9  22  40  65  92 133 173 217 276 324 401
#     4   9  22  39  64  91 132 170 213 277 323 390
#     4  10  21  40  66  92 133 173 220 272 329 398
#
# _framework density 22.555783000000002
#
# number of rings (size 3 to 8) (size 9 to 14) (size 15 to 20)
#    1.333    0.889    0.000    3.333    3.111    0.889 
#    8.000    1.111    0.000    0.000    0.000    0.000 
#    0.000    0.000    0.000    0.000    0.000    0.000 
#
# Total GULP energy -50119.564614 kJ/mol
# GULP energy per Si atom -5568.840513 kJ/mol
# Density = 2.250444 g / cm^3
# Si number density = 22.555783 Si / 1000 Ang^3
#
#
#
# Elastic Constant Matrix: (Units=GPa)
#
#
# Indices 1 2 3 4 5 6 
#
# 1 45.4765 -13.2732 13.1310 0.0000 5.2702 0.0000
# 2 -13.2732 79.4706 11.7148 -0.0001 -16.2524 0.0000
# 3 13.1310 11.7148 136.5726 -0.0002 3.3309 0.0001
# 4 0.0000 -0.0001 -0.0002 23.1135 0.0001 8.2615
# 5 5.2702 -16.2524 3.3309 0.0001 39.9222 0.0000
# 6 0.0000 0.0000 0.0001 8.2615 0.0000 22.3296
#
#
#
# Elastic Compliance Matrix: (Units=1/GPa)
#
#
# Indices 1 2 3 4 5 6 
#
# 1 0.024113 0.004157 -0.002644 0.000000 -0.001270 0.000000
# 2 0.004157 0.014683 -0.001795 0.000000 0.005578 0.000000
# 3 -0.002644 -0.001795 0.007755 0.000000 -0.001029 0.000000
# 4 0.000000 0.000000 0.000000 0.049858 0.000000 -0.018446
# 5 -0.001270 0.005578 -0.001029 0.000000 0.027573 0.000000
# 6 0.000000 0.000000 0.000000 -0.018446 0.000000 0.051608
#
#
# Mechanical properties :
#
#
# Convention : Reuss Voigt Hill
#
# Bulk Modulus (GPa) = 21.74470 31.62944 26.68707
# Shear Modulus (GPa) = 26.11176 33.73622 29.92399
#
# Velocity S-wave (km/s) = 3.40612 3.87160 3.64629
# Velocity P-wave (km/s) = 5.01300 5.83429 5.43917
#
# Compressibility (1/GPa) = 0.04598821
#
# Stress axis : x y z
#
# Youngs Moduli (GPa) = 41.47064 68.10541 128.94210
#
# Poissons Ratio (x) = -0.28314 0.34093
# Poissons Ratio (y) = -0.17241 0.23148
# Poissons Ratio (z) = 0.10965 0.12227
#
# Static dielectric constant tensor:
#      x y z
#    x 1.952900 0.000000 0.116390 
#    y 0.000000 1.810550 0.000000 
#    z 0.116390 0.000000 1.925840 
# 
# From -- ./inp_files/38657.got.cif
#   From: 2010.05.17/outbox.cif.g08.bks.cpg/sg5_20_cif.got.tgz:38657.got - 2010.06.03 18:56:24.
