data_PCOD9121722
_publ_section_title
;
Structure prediction by ZEFSAII (Michael W. Deem and Ramdas Pophale) SiO2 
 PCOD9121722
Probable space group: C 2
;
_chemical_formula_sum "Si O2"
_cell_formula_units_Z 28
_cell_length_a 17.410787
_cell_length_b 15.608972
_cell_length_c 5.366654
_cell_angle_alpha 90.000000
_cell_angle_beta 71.549291
_cell_angle_gamma 90.000000
_cell_volume 1383.495391
_symmetry_space_group_name_H-M "C 2"
_symmetry_group_IT_number 5
_symmetry_cell_setting 'monoclinic'
loop_
_space_group_symop_operation_xyz
x,y,z
-x,y,-z
1/2+x,1/2+y,z
1/2-x,1/2+y,-z
loop_
_atom_site_type_symbol
_atom_site_label
_atom_site_fract_x
_atom_site_fract_y
_atom_site_fract_z
Si Si1 0.178571 0.969300 0.090860
Si Si2 0.248174 0.226296 0.553279
Si Si3 0.163148 0.170960 0.129300
Si Si4 0.631777 0.972017 0.063186
Si Si5 0.685436 0.416630 0.581478
Si Si6 0.500000 0.840635 0.000000
Si Si7 0.163803 0.551819 0.532399
Si Si8 0.500000 0.740115 0.500000
O O1 0.136621 0.943436 0.389220
O O2 0.179380 0.071192 0.067966
O O3 0.273954 0.941688 0.016148
O O4 0.141991 0.924471 0.888903
O O5 0.212726 0.202356 0.318944
O O6 0.280746 0.322135 0.496281
O O7 0.312085 0.149670 0.541266
O O8 0.186973 0.218968 0.850246
O O9 0.071577 0.185857 0.305700
O O10 0.614413 0.012293 0.351691
O O11 0.572767 0.897145 0.038385
O O12 0.626204 0.040289 0.844065
O O13 0.755810 0.490483 0.533116
O O14 0.529779 0.792521 0.715754
#
# Coordination Sequence:
#
# PCOD9121722 Si02
#       8
#     4   4   4   4   4   2   4   2
#     4  10  19  38  57  81 115 159 215 252 291 354
#     4  12  21  36  63  86 123 158 203 276 302 359
#     4  12  23  41  56  84 128 171 203 253 299 378
#     4  10  20  36  57  79 117 165 197 248 296 358
#     4  10  20  31  56  89 108 153 195 260 312 339
#     4  12  26  42  56  92 138 170 206 240 316 410
#     4  10  19  36  55  88 115 157 210 252 308 357
#     4  12  30  38  56  92 132 180 200 242 320 400
#
# _framework density 20.238593999999999
#
# number of rings (size 3 to 8) (size 9 to 14) (size 15 to 20)
#    0.000    1.143    5.714    2.571   12.000    0.000 
#    0.000    0.000    0.000    0.000    0.000    4.000 
#    0.000    0.000    0.000    0.000    0.000    0.000 
#
# Total GULP energy -78081.978347 kJ/mol
# GULP energy per Si atom -5577.284168 kJ/mol
# Density = 2.019253 g / cm^3
# Si number density = 20.238594 Si / 1000 Ang^3
#
#
#
# Elastic Constant Matrix: (Units=GPa)
#
#
# Indices 1 2 3 4 5 6 
#
# 1 20.1716 6.6094 12.5975 0.0000 13.5667 0.0000
# 2 6.6094 109.1721 30.0165 0.0000 7.2324 0.0000
# 3 12.5975 30.0165 162.3563 0.0000 43.5671 0.0000
# 4 0.0000 0.0000 0.0000 28.4202 0.0000 7.1967
# 5 13.5667 7.2324 43.5671 0.0000 31.3577 0.0000
# 6 0.0000 0.0000 0.0000 7.1967 0.0000 18.2331
#
#
#
# Elastic Compliance Matrix: (Units=1/GPa)
#
#
# Indices 1 2 3 4 5 6 
#
# 1 0.072969 -0.003315 0.005130 0.000000 -0.037932 0.000000
# 2 -0.003315 0.009804 -0.002126 0.000000 0.002127 0.000000
# 3 0.005130 -0.002126 0.010553 0.000000 -0.016390 0.000000
# 4 0.000000 0.000000 0.000000 0.039094 0.000000 -0.015431
# 5 -0.037932 0.002127 -0.016390 0.000000 0.070582 0.000000
# 6 0.000000 0.000000 0.000000 -0.015431 0.000000 0.060936
#
#
# Mechanical properties :
#
#
# Convention : Reuss Voigt Hill
#
# Bulk Modulus (GPa) = 10.78715 43.34963 27.06839
# Shear Modulus (GPa) = 16.92267 31.76731 24.34499
#
# Velocity S-wave (km/s) = 2.89478 3.96617 3.47205
# Velocity P-wave (km/s) = 4.06381 6.51458 5.42929
#
# Compressibility (1/GPa) = 0.09270292
#
# Stress axis : x y z
#
# Youngs Moduli (GPa) = 13.70445 101.99683 94.76387
#
# Poissons Ratio (x) = 0.33814 -0.48613
# Poissons Ratio (y) = 0.04543 0.20148
# Poissons Ratio (z) = -0.07030 0.21686
#
# Static dielectric constant tensor:
#      x y z
#    x 1.740290 0.000000 0.017330 
#    y 0.000000 1.717360 0.000000 
#    z 0.017330 0.000000 1.843860 
# 
# From -- ./inp_files/8528.got.cif
#   From: 2010.05.17/outbox.cif.g08.bks.cpg/sg5_5_cif.got.tgz:8528.got - 2010.06.03 18:56:24.
