data_PCOD9121393
_publ_section_title
;
Structure prediction by ZEFSAII (Michael W. Deem and Ramdas Pophale) SiO2 
 PCOD9121393
Probable space group: C 2
;
_chemical_formula_sum "Si O2"
_cell_formula_units_Z 30
_cell_length_a 13.321121
_cell_length_b 8.702266
_cell_length_c 22.804891
_cell_angle_alpha 90.000000
_cell_angle_beta 152.332324
_cell_angle_gamma 90.000000
_cell_volume 1227.550969
_symmetry_space_group_name_H-M "C 2"
_symmetry_group_IT_number 5
_symmetry_cell_setting 'monoclinic'
loop_
_space_group_symop_operation_xyz
x,y,z
-x,y,-z
1/2+x,1/2+y,z
1/2-x,1/2+y,-z
loop_
_atom_site_type_symbol
_atom_site_label
_atom_site_fract_x
_atom_site_fract_y
_atom_site_fract_z
Si Si1 0.500000 0.551890 0.000000
Si Si2 0.971739 0.579397 0.232842
Si Si3 0.161555 0.887082 0.358231
Si Si4 0.152334 0.667058 0.624916
Si Si5 0.887836 0.290572 0.116608
Si Si6 0.721922 0.057313 0.134477
Si Si7 0.485977 0.948300 0.620762
Si Si8 0.439382 0.308398 0.863670
O O1 0.272694 0.636042 0.881335
O O2 0.491425 0.436288 0.940399
O O3 0.946388 0.463416 0.166033
O O4 0.036510 0.470540 0.321662
O O5 0.127177 0.724382 0.308297
O O6 0.272067 0.021965 0.376858
O O7 0.301446 0.864392 0.489071
O O8 0.926005 0.952767 0.251264
O O9 0.373767 0.723624 0.769613
O O10 0.001442 0.616576 0.600226
O O11 0.000000 0.761004 0.500000
O O12 0.795249 0.184584 0.122910
O O13 0.684908 0.288048 0.966024
O O14 0.646094 0.153256 0.151354
O O15 0.500000 0.977533 0.000000
O O16 0.717913 0.875591 0.724075
#
# Coordination Sequence:
#
# PCOD9121393 Si02
#       8
#     2   4   4   4   4   4   4   4
#     4   8  14  30  50  80 102 130 166 222 264 296
#     4  10  19  33  57  81 101 134 180 228 253 308
#     4  10  22  31  53  80 110 138 174 218 270 312
#     4   9  20  38  54  73 106 145 172 213 272 324
#     4   9  16  34  60  75  97 143 188 205 262 328
#     4   9  15  30  52  78 101 136 180 219 254 311
#     4  10  20  34  54  76 112 139 171 218 268 310
#     4   9  14  30  55  77 100 137 177 217 257 309
#
# _framework density 24.438903
#
# number of rings (size 3 to 8) (size 9 to 14) (size 15 to 20)
#    0.000    2.667    4.667    0.000    2.800    1.067 
#    0.000    6.000    2.933    0.000    0.000    0.000 
#    0.000    0.000    0.000    0.000    0.000    0.000 
#
# Total GULP energy -83608.428221 kJ/mol
# GULP energy per Si atom -5573.895215 kJ/mol
# Density = 2.438328 g / cm^3
# Si number density = 24.438903 Si / 1000 Ang^3
#
#
#
# Elastic Constant Matrix: (Units=GPa)
#
#
# Indices 1 2 3 4 5 6 
#
# 1 34.7422 8.9516 13.5050 0.0000 4.6703 0.0000
# 2 8.9516 71.7061 44.8998 0.0000 5.8204 0.0000
# 3 13.5050 44.8998 175.1422 0.0004 7.1846 -0.0001
# 4 0.0000 0.0000 0.0004 31.6671 -0.0001 19.9683
# 5 4.6703 5.8204 7.1846 -0.0001 19.8704 0.0000
# 6 0.0000 0.0000 -0.0001 19.9683 0.0000 8.3625
#
#
#
# Elastic Compliance Matrix: (Units=1/GPa)
#
#
# Indices 1 2 3 4 5 6 
#
# 1 0.030797 -0.002413 -0.001511 0.000000 -0.005985 0.000000
# 2 -0.002413 0.017028 -0.004058 0.000000 -0.002953 0.000000
# 3 -0.001511 -0.004058 0.006906 0.000000 -0.000953 -0.000001
# 4 0.000000 0.000000 0.000000 -0.062447 0.000000 0.149112
# 5 -0.005985 -0.002953 -0.000953 0.000000 0.052943 0.000001
# 6 0.000000 0.000000 -0.000001 0.149112 0.000001 -0.236472
#
#
# Mechanical properties :
#
#
# Convention : Reuss Voigt Hill
#
# Bulk Modulus (GPa) = 25.79504 46.25593 36.02548
# Shear Modulus (GPa) = -30.79578 26.26228 -2.26675
#
# Velocity S-wave (km/s) = -3.55366 3.28168 -0.96412
# Velocity P-wave (km/s) = 2.50203 5.77300 3.67881
#
# Compressibility (1/GPa) = 0.03876715
#
# Stress axis : x y z
#
# Youngs Moduli (GPa) = 32.47077 58.72759 144.81077
#
# Poissons Ratio (x) = 0.14170 0.21875
# Poissons Ratio (y) = 0.07835 0.58765
# Poissons Ratio (z) = 0.04905 0.23832
#
# Static dielectric constant tensor:
#      x y z
#    x 2.064250 0.000000 -0.088280 
#    y 0.000000 1.997360 0.000000 
#    z -0.088280 0.000000 2.072130 
# 
# From -- ./inp_files/55667.got.cif
#   From: 2010.05.17/outbox.cif.g08.bks.cpg/sg5_28_cif.got.tgz:55667.got - 2010.06.03 18:56:24.
