data_PCOD9121628
_publ_section_title
;
Structure prediction by ZEFSAII (Michael W. Deem and Ramdas Pophale) SiO2 
 PCOD9121628
Probable space group: C 2
;
_chemical_formula_sum "Si O2"
_cell_formula_units_Z 14
_cell_length_a 11.778012
_cell_length_b 8.513503
_cell_length_c 9.205134
_cell_angle_alpha 90.000000
_cell_angle_beta 35.374721
_cell_angle_gamma 90.000000
_cell_volume 534.355230
_symmetry_space_group_name_H-M "C 2"
_symmetry_group_IT_number 5
_symmetry_cell_setting 'monoclinic'
loop_
_space_group_symop_operation_xyz
x,y,z
-x,y,-z
1/2+x,1/2+y,z
1/2-x,1/2+y,-z
loop_
_atom_site_type_symbol
_atom_site_label
_atom_site_fract_x
_atom_site_fract_y
_atom_site_fract_z
Si Si1 0.875678 0.073440 0.269932
Si Si2 0.727375 0.502575 0.237569
Si Si3 0.454832 0.892469 0.287809
Si Si4 0.500000 0.283932 0.000000
O O1 0.924761 0.205088 0.338346
O O2 0.644730 0.024251 0.503563
O O3 0.956362 0.895038 0.182873
O O4 0.000000 0.131606 0.000000
O O5 0.500000 0.483451 0.500000
O O6 0.827377 0.424591 0.274826
O O7 0.816269 0.677608 0.150585
O O8 0.824686 0.430880 0.990587
#
# Coordination Sequence:
#
# PCOD9121628 Si02
#       4
#     4   4   4   2
#     4  10  19  38  65  82 112 152 188 235 285 332
#     4  10  19  35  59  87 115 150 190 230 280 340
#     4  10  19  38  61  82 115 151 186 235 285 330
#     4   8  18  36  56  80 116 144 184 234 278 326
#
# _framework density 26.199798999999999
#
# number of rings (size 3 to 8) (size 9 to 14) (size 15 to 20)
#    0.857    1.714    2.857    3.429    0.000    0.000 
#    0.000   17.143    0.000    0.000    0.000    0.000 
#    0.000    0.000    0.000    0.000    0.000    0.000 
#
# Total GULP energy -38967.262081 kJ/mol
# GULP energy per Si atom -5566.751726 kJ/mol
# Density = 2.614017 g / cm^3
# Si number density = 26.199799 Si / 1000 Ang^3
#
#
#
# Elastic Constant Matrix: (Units=GPa)
#
#
# Indices 1 2 3 4 5 6 
#
# 1 51.7491 -2.8139 25.9517 0.0000 -17.4433 0.0000
# 2 -2.8139 155.3615 57.3596 0.0000 -5.7401 0.0000
# 3 25.9517 57.3596 240.4306 0.0000 -18.9546 0.0000
# 4 0.0000 0.0000 0.0000 20.5924 0.0000 9.0260
# 5 -17.4433 -5.7401 -18.9546 0.0000 47.1460 0.0000
# 6 0.0000 0.0000 0.0000 9.0260 0.0000 1.6432
#
#
#
# Elastic Compliance Matrix: (Units=1/GPa)
#
#
# Indices 1 2 3 4 5 6 
#
# 1 0.023186 0.001541 -0.002251 0.000000 0.007861 0.000000
# 2 0.001541 0.007162 -0.001819 0.000000 0.000711 0.000000
# 3 -0.002251 -0.001819 0.004909 0.000000 0.000919 0.000000
# 4 0.000000 0.000000 0.000000 -0.034500 0.000000 0.189502
# 5 0.007861 0.000711 0.000919 0.000000 0.024575 0.000000
# 6 0.000000 0.000000 0.000000 0.189502 0.000000 -0.432341
#
#
# Mechanical properties :
#
#
# Convention : Reuss Voigt Hill
#
# Bulk Modulus (GPa) = 33.11189 67.61512 50.36351
# Shear Modulus (GPa) = -12.75885 38.34591 12.79353
#
# Velocity S-wave (km/s) = -2.20916 3.82985 2.21216
# Velocity P-wave (km/s) = 2.48162 6.73947 5.07833
#
# Compressibility (1/GPa) = 0.03020063
#
# Stress axis : x y z
#
# Youngs Moduli (GPa) = 43.12876 139.61836 203.72495
#
# Poissons Ratio (x) = -0.21520 0.45851
# Poissons Ratio (y) = -0.06648 0.37059
# Poissons Ratio (z) = 0.09707 0.25397
#
# Static dielectric constant tensor:
#      x y z
#    x 2.103650 0.000000 0.096220 
#    y 0.000000 2.133690 0.000000 
#    z 0.096220 0.000000 2.305340 
# 
# From -- ./inp_files/41213.got.cif
#   From: 2010.05.17/outbox.cif.g08.bks.cpg/sg5_21_cif.got.tgz:41213.got - 2010.06.03 18:56:24.
