data_PCOD9121883
_publ_section_title
;
Structure prediction by ZEFSAII (Michael W. Deem and Ramdas Pophale) SiO2 
 PCOD9121883
Probable space group: C 2
;
_chemical_formula_sum "Si O2"
_cell_formula_units_Z 28
_cell_length_a 9.044307
_cell_length_b 11.574857
_cell_length_c 11.941244
_cell_angle_alpha 90.000000
_cell_angle_beta 60.248334
_cell_angle_gamma 90.000000
_cell_volume 1085.306673
_symmetry_space_group_name_H-M "C 2"
_symmetry_group_IT_number 5
_symmetry_cell_setting 'monoclinic'
loop_
_space_group_symop_operation_xyz
x,y,z
-x,y,-z
1/2+x,1/2+y,z
1/2-x,1/2+y,-z
loop_
_atom_site_type_symbol
_atom_site_label
_atom_site_fract_x
_atom_site_fract_y
_atom_site_fract_z
Si Si1 0.278313 0.637080 0.833748
Si Si2 0.500000 0.780541 0.500000
Si Si3 0.200241 0.637821 0.605702
Si Si4 0.857425 0.063364 0.274842
Si Si5 0.674087 0.887151 0.213362
Si Si6 0.477863 0.357915 0.642724
Si Si7 0.500000 0.070919 0.500000
Si Si8 0.107036 0.410722 0.867842
O O1 0.261598 0.610243 0.706275
O O2 0.472898 0.636731 0.802203
O O3 0.229210 0.770848 0.863786
O O4 0.170963 0.526670 0.912794
O O5 0.367147 0.696624 0.489147
O O6 0.598753 0.852868 0.367540
O O7 0.105421 0.538217 0.573057
O O8 0.068726 0.743507 0.654581
O O9 0.676186 0.119824 0.378235
O O10 0.803920 0.990427 0.186043
O O11 0.923101 0.966075 0.339240
O O12 0.524751 0.921586 0.185058
O O13 0.500000 0.362795 0.500000
O O14 0.282942 0.360016 0.755343
O O15 0.000000 0.340254 0.000000
#
# Coordination Sequence:
#
# PCOD9121883 Si02
#       8
#     4   2   4   4   4   4   2   4
#     4  10  24  45  65  96 136 184 238 294 346 420
#     4  10  19  36  68  97 138 180 227 286 360 409
#     4  11  21  37  61  98 138 184 232 287 355 428
#     4  11  24  37  63 101 140 180 240 284 359 418
#     4  11  22  44  70 100 140 187 227 302 350 421
#     4  11  23  41  69 101 139 186 234 292 355 424
#     4  12  23  30  56 103 142 186 223 288 358 429
#     4  11  27  50  70 102 146 187 241 293 352 432
#
# _framework density 25.799160000000001
#
# number of rings (size 3 to 8) (size 9 to 14) (size 15 to 20)
#    0.000    1.143    3.571    3.857    8.000    0.000 
#    3.857    2.857    0.000    0.000    0.000    0.000 
#    0.000    0.000    0.000    0.000    0.000    0.000 
#
# Total GULP energy -78051.369712 kJ/mol
# GULP energy per Si atom -5575.097837 kJ/mol
# Density = 2.574044 g / cm^3
# Si number density = 25.799160 Si / 1000 Ang^3
#
#
#
# Elastic Constant Matrix: (Units=GPa)
#
#
# Indices 1 2 3 4 5 6 
#
# 1 217.6875 20.0608 47.3089 0.0000 -7.4471 0.0000
# 2 20.0608 78.0298 6.3464 0.0000 -7.4272 0.0000
# 3 47.3089 6.3464 95.0870 0.0000 -17.8805 0.0000
# 4 0.0000 0.0000 0.0000 0.2056 0.0000 6.2172
# 5 -7.4471 -7.4272 -17.8805 0.0000 33.2503 0.0000
# 6 0.0000 0.0000 0.0000 6.2172 0.0000 47.3625
#
#
#
# Elastic Compliance Matrix: (Units=1/GPa)
#
#
# Indices 1 2 3 4 5 6 
#
# 1 0.005258 -0.001185 -0.002631 0.000000 -0.000502 0.000000
# 2 -0.001185 0.013372 0.000233 0.000000 0.002847 0.000000
# 3 -0.002631 0.000233 0.013026 0.000000 0.006468 0.000000
# 4 0.000000 0.000000 0.000000 -1.638005 0.000000 0.215018
# 5 -0.000502 0.002847 0.006468 0.000000 0.034076 0.000000
# 6 0.000000 0.000000 0.000000 0.215018 0.000000 -0.007111
#
#
# Mechanical properties :
#
#
# Convention : Reuss Voigt Hill
#
# Bulk Modulus (GPa) = 40.83562 59.80405 50.31983
# Shear Modulus (GPa) = -3.19682 37.30291 17.05304
#
# Velocity S-wave (km/s) = -1.11436 3.80662 2.57377
# Velocity P-wave (km/s) = 3.76920 6.52314 5.32721
#
# Compressibility (1/GPa) = 0.02448843
#
# Stress axis : x y z
#
# Youngs Moduli (GPa) = 190.20006 74.78071 76.76688
#
# Poissons Ratio (x) = 0.08865 0.20198
# Poissons Ratio (y) = 0.22548 -0.01786
# Poissons Ratio (z) = 0.50044 -0.01739
#
# Static dielectric constant tensor:
#      x y z
#    x 1.949120 0.000000 -0.009880 
#    y 0.000000 2.542340 0.000000 
#    z -0.009880 0.000000 2.158100 
# 
# From -- ./inp_files/36337.got.cif
#   From: 2010.05.17/outbox.cif.g08.bks.cpg/sg5_19_cif.got.tgz:36337.got - 2010.06.03 18:56:24.
