data_PCOD9121554
_publ_section_title
;
Structure prediction by ZEFSAII (Michael W. Deem and Ramdas Pophale) SiO2 
 PCOD9121554
Probable space group: C 2
;
_chemical_formula_sum "Si O2"
_cell_formula_units_Z 28
_cell_length_a 28.741656
_cell_length_b 8.098151
_cell_length_c 13.148977
_cell_angle_alpha 90.000000
_cell_angle_beta 155.780620
_cell_angle_gamma 90.000000
_cell_volume 1255.505618
_symmetry_space_group_name_H-M "C 2"
_symmetry_group_IT_number 5
_symmetry_cell_setting 'monoclinic'
loop_
_space_group_symop_operation_xyz
x,y,z
-x,y,-z
1/2+x,1/2+y,z
1/2-x,1/2+y,-z
loop_
_atom_site_type_symbol
_atom_site_label
_atom_site_fract_x
_atom_site_fract_y
_atom_site_fract_z
Si Si1 0.258147 0.601430 0.373724
Si Si2 0.887927 0.252304 0.454055
Si Si3 0.000000 0.092184 0.500000
Si Si4 0.145764 0.606526 0.551973
Si Si5 0.260849 0.236643 0.454137
Si Si6 0.197039 0.960832 0.995476
Si Si7 0.000000 0.868489 0.000000
Si Si8 0.556879 0.344197 0.903264
O O1 0.346737 0.624269 0.457690
O O2 0.227324 0.413749 0.341065
O O3 0.301472 0.677520 0.568064
O O4 0.149530 0.705927 0.120541
O O5 0.911572 0.425866 0.557760
O O6 0.985921 0.200040 0.573230
O O7 0.780468 0.303581 0.167642
O O8 0.115780 0.988526 0.739190
O O9 0.227877 0.611870 0.617281
O O10 0.054885 0.749221 0.357754
O O11 0.219969 0.608975 0.803036
O O12 0.390999 0.260866 0.751649
O O13 0.111547 0.937062 0.919058
O O14 0.968421 0.948805 0.044825
#
# Coordination Sequence:
#
# PCOD9121554 Si02
#       8
#     4   4   2   4   4   4   2   4
#     4  10  20  36  62  95 130 168 212 255 311 379
#     4   9  23  44  58  95 127 156 220 272 298 386
#     4  12  24  44  66  88 126 168 218 268 336 362
#     4   9  20  41  60  91 127 161 205 260 312 374
#     4  10  19  34  63  93 130 174 198 255 315 381
#     4   9  23  42  62  90 125 158 214 271 312 378
#     4   8  18  30  54  90 122 158 202 226 308 372
#     4   9  18  38  62  89 126 169 198 254 310 378
#
# _framework density 22.301770999999999
#
# number of rings (size 3 to 8) (size 9 to 14) (size 15 to 20)
#    0.857    1.714    0.000    0.857    6.000    2.286 
#    5.143    1.429    0.000    0.000    0.000    0.000 
#    0.000    0.000    0.000    0.000    0.000    0.000 
#
# Total GULP energy -77962.831584 kJ/mol
# GULP energy per Si atom -5568.773685 kJ/mol
# Density = 2.225101 g / cm^3
# Si number density = 22.301771 Si / 1000 Ang^3
#
#
#
# Elastic Constant Matrix: (Units=GPa)
#
#
# Indices 1 2 3 4 5 6 
#
# 1 71.1066 32.5131 -8.3809 0.0000 12.2010 0.0000
# 2 32.5131 75.0558 20.3436 0.0000 -8.3276 0.0000
# 3 -8.3809 20.3436 76.2849 0.0000 -8.2578 0.0000
# 4 0.0000 0.0000 0.0000 26.6584 0.0000 1.3481
# 5 12.2010 -8.3276 -8.2578 0.0000 23.7071 0.0000
# 6 0.0000 0.0000 0.0000 1.3481 0.0000 26.1922
#
#
#
# Elastic Compliance Matrix: (Units=1/GPa)
#
#
# Indices 1 2 3 4 5 6 
#
# 1 0.022936 -0.012746 0.004319 0.000000 -0.014777 0.000000
# 2 -0.012746 0.021792 -0.005895 0.000000 0.012161 0.000000
# 3 0.004319 -0.005895 0.015266 0.000000 0.001024 0.000000
# 4 0.000000 0.000000 0.000000 0.037610 0.000000 -0.001936
# 5 -0.014777 0.012161 0.001024 0.000000 0.054415 0.000000
# 6 0.000000 0.000000 0.000000 -0.001936 0.000000 0.038279
#
#
# Mechanical properties :
#
#
# Convention : Reuss Voigt Hill
#
# Bulk Modulus (GPa) = 31.89743 34.59985 33.24864
# Shear Modulus (GPa) = 21.79684 27.17630 24.48657
#
# Velocity S-wave (km/s) = 3.12967 3.49459 3.31715
# Velocity P-wave (km/s) = 5.23387 5.64189 5.44171
#
# Compressibility (1/GPa) = 0.03135049
#
# Stress axis : x y z
#
# Youngs Moduli (GPa) = 43.59977 45.88868 65.50390
#
# Poissons Ratio (x) = 0.58488 -0.28293
# Poissons Ratio (y) = 0.55571 0.38616
# Poissons Ratio (z) = -0.18832 0.27053
#
# Static dielectric constant tensor:
#      x y z
#    x 1.870570 0.000000 0.006490 
#    y 0.000000 1.815420 0.000000 
#    z 0.006490 0.000000 1.880380 
# 
# From -- ./inp_files/47960.got.cif
#   From: 2010.05.17/outbox.cif.g08.bks.cpg/sg5_24_cif.got.tgz:47960.got - 2010.06.03 18:56:24.
