data_PCOD9121144
_publ_section_title
;
Structure prediction by ZEFSAII (Michael W. Deem and Ramdas Pophale) SiO2 
 PCOD9121144
Probable space group: C 2
;
_chemical_formula_sum "Si O2"
_cell_formula_units_Z 20
_cell_length_a 12.780470
_cell_length_b 11.947869
_cell_length_c 16.024557
_cell_angle_alpha 90.000000
_cell_angle_beta 161.759970
_cell_angle_gamma 90.000000
_cell_volume 765.888641
_symmetry_space_group_name_H-M "C 2"
_symmetry_group_IT_number 5
_symmetry_cell_setting 'monoclinic'
loop_
_space_group_symop_operation_xyz
x,y,z
-x,y,-z
1/2+x,1/2+y,z
1/2-x,1/2+y,-z
loop_
_atom_site_type_symbol
_atom_site_label
_atom_site_fract_x
_atom_site_fract_y
_atom_site_fract_z
Si Si1 0.820511 0.718640 0.017642
Si Si2 0.000000 0.639713 0.500000
Si Si3 0.500000 0.631218 0.500000
Si Si4 0.871377 0.771553 0.242998
Si Si5 0.376726 0.521458 0.247716
Si Si6 0.884225 0.922906 0.817387
O O1 0.867978 0.707348 0.152762
O O2 0.171865 0.700887 0.234532
O O3 0.814871 0.854433 0.000827
O O4 0.618417 0.620605 0.816480
O O5 0.937799 0.717561 0.533629
O O6 0.313980 0.556419 0.752241
O O7 0.588358 0.556919 0.487974
O O8 0.987730 0.897187 0.308511
O O9 0.500000 0.777143 0.000000
O O10 0.000000 0.512019 0.000000
O O11 0.500000 0.889055 0.500000
O O12 0.000000 0.910022 0.000000
#
# Coordination Sequence:
#
# PCOD9121144 Si02
#       6
#     4   2   2   4   4   4
#     4  11  23  40  68  98 135 182 239 301 350 426
#     4  10  24  44  70  96 148 184 242 286 358 436
#     4  10  18  40  64  94 122 168 240 292 354 400
#     4  11  25  44  61  97 141 193 231 291 355 437
#     4   9  21  40  66  93 132 181 231 291 349 423
#     4  10  22  43  74 108 138 178 239 301 360 414
#
# _framework density 26.113458000000001
#
# number of rings (size 3 to 8) (size 9 to 14) (size 15 to 20)
#    0.600    1.200    1.000    3.000    0.000    6.400 
#    0.000    0.000    0.000    0.000    0.000    0.000 
#    0.000    0.000    0.000    0.000    0.000    0.000 
#
# Total GULP energy -55677.729466 kJ/mol
# GULP energy per Si atom -5567.772947 kJ/mol
# Density = 2.605402 g / cm^3
# Si number density = 26.113458 Si / 1000 Ang^3
#
#
#
# Elastic Constant Matrix: (Units=GPa)
#
#
# Indices 1 2 3 4 5 6 
#
# 1 155.1892 81.4143 42.9290 0.0340 -58.1743 -0.0032
# 2 81.4143 179.5176 54.4591 0.0717 -37.6273 0.0496
# 3 42.9290 54.4591 82.7860 0.1002 -34.9884 0.0510
# 4 0.0340 0.0717 0.1002 17.4814 0.0389 -15.0176
# 5 -58.1743 -37.6273 -34.9884 0.0389 65.9304 0.0018
# 6 -0.0032 0.0496 0.0510 -15.0176 0.0018 21.8943
#
#
#
# Elastic Compliance Matrix: (Units=1/GPa)
#
#
# Indices 1 2 3 4 5 6 
#
# 1 0.011222 -0.003357 -0.000304 -0.000038 0.007825 -0.000017
# 2 -0.003357 0.008172 -0.003759 -0.000033 -0.000293 -0.000033
# 3 -0.000304 -0.003759 0.017648 -0.000314 0.006953 -0.000249
# 4 -0.000038 -0.000033 -0.000314 0.139272 -0.000304 0.095530
# 5 0.007825 -0.000293 0.006953 -0.000304 0.025595 -0.000225
# 6 -0.000017 -0.000033 -0.000249 0.095530 -0.000225 0.111200
#
#
# Mechanical properties :
#
#
# Convention : Reuss Voigt Hill
#
# Bulk Modulus (GPa) = 45.03799 86.12196 65.57997
# Shear Modulus (GPa) = 14.90981 36.97390 25.94186
#
# Velocity S-wave (km/s) = 2.39208 3.76692 3.15529
# Velocity P-wave (km/s) = 4.99138 7.20910 6.20020
#
# Compressibility (1/GPa) = 0.02220348
#
# Stress axis : x y z
#
# Youngs Moduli (GPa) = 89.10861 122.37133 56.66212
#
# Poissons Ratio (x) = 0.41083 0.01721
# Poissons Ratio (y) = 0.29916 0.21297
# Poissons Ratio (z) = 0.02706 0.45995
#
# Static dielectric constant tensor:
#      x y z
#    x 2.058760 0.000180 0.084010 
#    y 0.000180 2.282360 0.000200 
#    z 0.084010 0.000200 2.212880 
# 
# From -- ./inp_files/61672.got.cif
#   From: 2010.05.17/outbox.cif.g08.bks.cpg/sg5_31_cif.got.tgz:61672.got - 2010.06.03 18:56:24.
