data_PCOD9121108
_publ_section_title
;
Structure prediction by ZEFSAII (Michael W. Deem and Ramdas Pophale) SiO2 
 PCOD9121108
Probable space group: C 2
;
_chemical_formula_sum "Si O2"
_cell_formula_units_Z 30
_cell_length_a 20.999841
_cell_length_b 14.139247
_cell_length_c 8.245887
_cell_angle_alpha 90.000000
_cell_angle_beta 32.244185
_cell_angle_gamma 90.000000
_cell_volume 1306.283486
_symmetry_space_group_name_H-M "C 2"
_symmetry_group_IT_number 5
_symmetry_cell_setting 'monoclinic'
loop_
_space_group_symop_operation_xyz
x,y,z
-x,y,-z
1/2+x,1/2+y,z
1/2-x,1/2+y,-z
loop_
_atom_site_type_symbol
_atom_site_label
_atom_site_fract_x
_atom_site_fract_y
_atom_site_fract_z
Si Si1 0.000000 0.286660 0.000000
Si Si2 0.949912 0.841896 0.377040
Si Si3 0.473117 0.912222 0.738052
Si Si4 0.200814 0.470509 0.356318
Si Si5 0.683227 0.280169 0.011800
Si Si6 0.261623 0.443755 0.591740
Si Si7 0.353851 0.649373 0.465474
Si Si8 0.552125 0.555354 0.218354
O O1 0.006805 0.341893 0.155064
O O2 0.875715 0.229605 0.286764
O O3 0.863710 0.865763 0.410728
O O4 0.998214 0.948678 0.313003
O O5 0.873225 0.795136 0.688161
O O6 0.073297 0.783299 0.118444
O O7 0.500000 0.876628 0.500000
O O8 0.569944 0.994351 0.570911
O O9 0.336075 0.939430 0.055619
O O10 0.240772 0.375342 0.178332
O O11 0.203130 0.441910 0.540544
O O12 0.306263 0.545334 0.098675
O O13 0.767114 0.191489 0.790126
O O14 0.311857 0.549494 0.491051
O O15 0.487884 0.625096 0.234294
O O16 0.500000 0.588132 0.500000
#
# Coordination Sequence:
#
# PCOD9121108 Si02
#       8
#     2   4   4   4   4   4   4   4
#     4  12  24  48  64 104 138 178 226 290 344 416
#     4   9  19  37  67  91 124 178 232 269 332 420
#     4  12  25  43  77  97 134 190 241 277 347 427
#     4  11  20  42  70  92 133 179 233 286 332 430
#     4  10  18  39  65  91 134 168 223 285 336 397
#     4  11  23  41  67 100 130 179 238 277 350 424
#     4  11  24  39  67 100 143 171 221 299 353 392
#     4  10  20  38  65 102 130 182 234 281 340 420
#
# _framework density 22.965919
#
# number of rings (size 3 to 8) (size 9 to 14) (size 15 to 20)
#    0.000    1.333    5.333    1.600    1.867    4.800 
#    2.400    0.000   11.733    0.000    0.000    0.000 
#    0.000    0.000    0.000    0.000    0.000    0.000 
#
# Total GULP energy -83667.354612 kJ/mol
# GULP energy per Si atom -5577.823641 kJ/mol
# Density = 2.291365 g / cm^3
# Si number density = 22.965919 Si / 1000 Ang^3
#
#
#
# Elastic Constant Matrix: (Units=GPa)
#
#
# Indices 1 2 3 4 5 6 
#
# 1 88.3167 16.1418 28.1599 0.0000 -1.7287 0.0000
# 2 16.1418 48.9275 18.0518 0.0000 -3.5822 0.0000
# 3 28.1599 18.0518 109.5933 0.0000 0.3702 0.0000
# 4 0.0000 0.0000 0.0000 30.7522 0.0000 -7.5176
# 5 -1.7287 -3.5822 0.3702 0.0000 42.4915 0.0000
# 6 0.0000 0.0000 0.0000 -7.5176 0.0000 10.3982
#
#
#
# Elastic Compliance Matrix: (Units=1/GPa)
#
#
# Indices 1 2 3 4 5 6 
#
# 1 0.012791 -0.003180 -0.002764 0.000000 0.000276 0.000000
# 2 -0.003180 0.022700 -0.002928 0.000000 0.001810 0.000000
# 3 -0.002764 -0.002928 0.010319 0.000000 -0.000449 0.000000
# 4 0.000000 0.000000 0.000000 0.039499 0.000000 0.028557
# 5 0.000276 0.001810 -0.000449 0.000000 0.023702 0.000000
# 6 0.000000 0.000000 0.000000 0.028557 0.000000 0.116816
#
#
# Mechanical properties :
#
#
# Convention : Reuss Voigt Hill
#
# Bulk Modulus (GPa) = 35.63016 41.28272 38.45644
# Shear Modulus (GPa) = 19.76865 29.02730 24.39798
#
# Velocity S-wave (km/s) = 2.93709 3.55904 3.26292
# Velocity P-wave (km/s) = 5.20097 5.90793 5.56568
#
# Compressibility (1/GPa) = 0.02806611
#
# Stress axis : x y z
#
# Youngs Moduli (GPa) = 78.18176 44.05214 96.91223
#
# Poissons Ratio (x) = 0.14008 0.26784
# Poissons Ratio (y) = 0.24861 0.28378
# Poissons Ratio (z) = 0.21607 0.12899
#
# Static dielectric constant tensor:
#      x y z
#    x 1.949130 0.000000 -0.031540 
#    y 0.000000 1.849310 0.000000 
#    z -0.031540 0.000000 1.906440 
# 
# From -- ./inp_files/31018.got.cif
#   From: 2010.05.17/outbox.cif.g08.bks.cpg/sg5_16_cif.got.tgz:31018.got - 2010.06.03 18:56:24.
