data_PCOD9121822
_publ_section_title
;
Structure prediction by ZEFSAII (Michael W. Deem and Ramdas Pophale) SiO2 
 PCOD9121822
Probable space group: C 2
;
_chemical_formula_sum "Si O2"
_cell_formula_units_Z 30
_cell_length_a 7.886945
_cell_length_b 15.871051
_cell_length_c 12.330466
_cell_angle_alpha 90.000000
_cell_angle_beta 74.123654
_cell_angle_gamma 90.000000
_cell_volume 1484.578933
_symmetry_space_group_name_H-M "C 2"
_symmetry_group_IT_number 5
_symmetry_cell_setting 'monoclinic'
loop_
_space_group_symop_operation_xyz
x,y,z
-x,y,-z
1/2+x,1/2+y,z
1/2-x,1/2+y,-z
loop_
_atom_site_type_symbol
_atom_site_label
_atom_site_fract_x
_atom_site_fract_y
_atom_site_fract_z
Si Si1 0.113001 0.239090 0.871517
Si Si2 0.000000 0.048247 0.500000
Si Si3 0.799946 0.419527 0.523591
Si Si4 0.491316 0.555149 0.131291
Si Si5 0.213994 0.382732 0.707574
Si Si6 0.263292 0.070928 0.263472
Si Si7 0.988167 0.715589 0.126597
Si Si8 0.599885 0.382015 0.757690
O O1 0.096312 0.318040 0.794937
O O2 0.314220 0.231249 0.871139
O O3 0.072366 0.148504 0.826856
O O4 0.000000 0.250067 0.000000
O O5 0.113924 0.089736 0.381994
O O6 0.149329 0.990895 0.532971
O O7 0.780939 0.361877 0.420276
O O8 0.748466 0.371620 0.641638
O O9 0.000000 0.451329 0.500000
O O10 0.675659 0.551446 0.162008
O O11 0.385352 0.473886 0.190713
O O12 0.500000 0.552156 0.000000
O O13 0.153501 0.480503 0.719774
O O14 0.410632 0.380502 0.726396
O O15 0.394564 0.147266 0.219288
O O16 0.895345 0.806304 0.157423
O O17 0.000000 0.687845 0.000000
#
# Coordination Sequence:
#
# PCOD9121822 Si02
#       8
#     4   2   4   4   4   4   4   4
#     4  10  22  39  61  90 130 164 202 267 319 373
#     4  10  20  46  64  90 140 158 212 276 312 374
#     4  11  20  36  67  96 121 166 216 261 317 384
#     4  10  19  36  62  88 120 161 201 256 321 365
#     4   9  20  41  63  84 125 168 201 260 324 370
#     4  10  21  41  66  86 126 172 202 267 320 368
#     4  11  23  39  61  91 125 167 218 254 313 385
#     4  10  20  40  60  86 126 167 204 266 313 366
#
# _framework density 20.207750999999998
#
# number of rings (size 3 to 8) (size 9 to 14) (size 15 to 20)
#    0.000    1.867    4.000    2.000    0.000    4.800 
#    3.600    2.667    0.000    0.000    0.000    0.000 
#    0.000    0.000    0.000    0.000    0.000    0.000 
#
# Total GULP energy -83613.272554 kJ/mol
# GULP energy per Si atom -5574.218170 kJ/mol
# Density = 2.016176 g / cm^3
# Si number density = 20.207751 Si / 1000 Ang^3
#
#
#
# Elastic Constant Matrix: (Units=GPa)
#
#
# Indices 1 2 3 4 5 6 
#
# 1 56.6184 11.2563 29.0817 0.0000 -16.3752 0.0000
# 2 11.2563 116.5800 63.3631 0.0000 -29.9518 0.0000
# 3 29.0817 63.3631 134.8898 0.0000 -19.2232 0.0000
# 4 0.0000 0.0000 0.0000 -3.8276 0.0000 20.7055
# 5 -16.3752 -29.9518 -19.2232 0.0000 31.2922 0.0000
# 6 0.0000 0.0000 0.0000 20.7055 0.0000 -11.8537
#
#
#
# Elastic Compliance Matrix: (Units=1/GPa)
#
#
# Indices 1 2 3 4 5 6 
#
# 1 0.023094 0.003672 -0.004911 0.000000 0.012583 0.000000
# 2 0.003672 0.014573 -0.005891 0.000000 0.012251 0.000000
# 3 -0.004911 -0.005891 0.011036 0.000000 -0.001429 0.000000
# 4 0.000000 0.000000 0.000000 0.030922 0.000000 0.054012
# 5 0.012583 0.012251 -0.001429 0.000000 0.049390 0.000000
# 6 0.000000 0.000000 0.000000 0.054012 0.000000 0.009985
#
#
# Mechanical properties :
#
#
# Convention : Reuss Voigt Hill
#
# Bulk Modulus (GPa) = 29.03374 57.27673 43.15523
# Shear Modulus (GPa) = 30.35110 16.74798 23.54954
#
# Velocity S-wave (km/s) = 3.87971 2.88199 3.41746
# Velocity P-wave (km/s) = 5.87097 6.28331 6.08064
#
# Compressibility (1/GPa) = 0.03444269
#
# Stress axis : x y z
#
# Youngs Moduli (GPa) = 43.30203 68.62119 90.61406
#
# Poissons Ratio (x) = -0.25198 0.44497
# Poissons Ratio (y) = -0.15901 0.53382
# Poissons Ratio (z) = 0.21264 0.40426
#
# Static dielectric constant tensor:
#      x y z
#    x 1.864580 0.000000 0.088080 
#    y 0.000000 1.770040 0.000000 
#    z 0.088080 0.000000 1.798750 
# 
# From -- ./inp_files/36368.got.cif
#   From: 2010.05.17/outbox.cif.g08.bks.cpg/sg5_19_cif.got.tgz:36368.got - 2010.06.03 18:56:24.
