data_PCOD9121994
_publ_section_title
;
Structure prediction by ZEFSAII (Michael W. Deem and Ramdas Pophale) SiO2 
 PCOD9121994
Probable space group: C 2
;
_chemical_formula_sum "Si O2"
_cell_formula_units_Z 18
_cell_length_a 18.713948
_cell_length_b 6.608901
_cell_length_c 8.746533
_cell_angle_alpha 90.000000
_cell_angle_beta 49.709536
_cell_angle_gamma 90.000000
_cell_volume 825.139932
_symmetry_space_group_name_H-M "C 2"
_symmetry_group_IT_number 5
_symmetry_cell_setting 'monoclinic'
loop_
_space_group_symop_operation_xyz
x,y,z
-x,y,-z
1/2+x,1/2+y,z
1/2-x,1/2+y,-z
loop_
_atom_site_type_symbol
_atom_site_label
_atom_site_fract_x
_atom_site_fract_y
_atom_site_fract_z
Si Si1 0.883651 0.279680 0.888699
Si Si2 0.174036 0.043703 0.771077
Si Si3 0.169734 0.866232 0.447919
Si Si4 0.500000 0.504421 0.500000
Si Si5 0.793318 0.660763 0.066297
O O1 0.955326 0.156047 0.686870
O O2 0.780472 0.217035 0.964167
O O3 0.890302 0.208038 0.054744
O O4 0.878375 0.522276 0.889066
O O5 0.274692 0.155660 0.613335
O O6 0.146134 0.957210 0.646318
O O7 0.177303 0.861337 0.887142
O O8 0.238208 0.024396 0.266650
O O9 0.078369 0.867444 0.470116
#
# Coordination Sequence:
#
# PCOD9121994 Si02
#       5
#     4   4   4   2   4
#     4  10  21  37  65  92 133 165 220 264 327 381
#     4  11  20  38  69  95 123 173 226 259 309 403
#     4  10  22  39  66  96 131 165 218 269 323 383
#     4  10  24  44  62 100 140 166 204 286 338 372
#     4  10  19  37  64  96 118 176 221 261 307 396
#
# _framework density 21.814482999999999
#
# number of rings (size 3 to 8) (size 9 to 14) (size 15 to 20)
#    0.000    1.778    4.444    0.000    0.000    0.889 
#    0.000   10.000    0.000    5.333    0.000    0.000 
#    0.000    0.000    0.000    0.000    0.000    0.000 
#
# Total GULP energy -50273.165830 kJ/mol
# GULP energy per Si atom -5585.907314 kJ/mol
# Density = 2.176483 g / cm^3
# Si number density = 21.814483 Si / 1000 Ang^3
#
#
#
# Elastic Constant Matrix: (Units=GPa)
#
#
# Indices 1 2 3 4 5 6 
#
# 1 63.4131 26.8447 18.5308 0.0000 6.4144 0.0000
# 2 26.8447 91.4820 6.9481 0.0000 6.3259 0.0000
# 3 18.5308 6.9481 85.7706 0.0000 20.2046 0.0000
# 4 0.0000 0.0000 0.0000 36.5901 0.0000 6.9259
# 5 6.4144 6.3259 20.2046 0.0000 31.0139 0.0000
# 6 0.0000 0.0000 0.0000 6.9259 0.0000 21.8279
#
#
#
# Elastic Compliance Matrix: (Units=1/GPa)
#
#
# Indices 1 2 3 4 5 6 
#
# 1 0.019112 -0.005299 -0.003571 0.000000 -0.000545 0.000000
# 2 -0.005299 0.012570 0.000558 0.000000 -0.001832 0.000000
# 3 -0.003571 0.000558 0.014457 0.000000 -0.008793 0.000000
# 4 0.000000 0.000000 0.000000 0.029076 0.000000 -0.009226
# 5 -0.000545 -0.001832 -0.008793 0.000000 0.038459 0.000000
# 6 0.000000 0.000000 0.000000 -0.009226 0.000000 0.048740
#
#
# Mechanical properties :
#
#
# Convention : Reuss Voigt Hill
#
# Bulk Modulus (GPa) = 33.88250 38.36812 36.12531
# Shear Modulus (GPa) = 26.47228 30.44253 28.45740
#
# Velocity S-wave (km/s) = 3.48734 3.73972 3.61573
# Velocity P-wave (km/s) = 5.63748 6.02278 5.83331
#
# Compressibility (1/GPa) = 0.02951376
#
# Stress axis : x y z
#
# Youngs Moduli (GPa) = 52.32382 79.55194 69.17156
#
# Poissons Ratio (x) = 0.42157 0.24704
# Poissons Ratio (y) = 0.27728 -0.03860
# Poissons Ratio (z) = 0.18687 -0.04439
#
# Static dielectric constant tensor:
#      x y z
#    x 1.780760 0.000000 -0.005650 
#    y 0.000000 1.817100 0.000000 
#    z -0.005650 0.000000 1.821490 
# 
# From -- ./inp_files/25822.got.cif
#   From: 2010.05.17/outbox.cif.g08.bks.cpg/sg5_13_cif.got.tgz:25822.got - 2010.06.03 18:56:24.
