data_PCOD9121798
_publ_section_title
;
Structure prediction by ZEFSAII (Michael W. Deem and Ramdas Pophale) SiO2 
 PCOD9121798
Probable space group: C 2
;
_chemical_formula_sum "Si O2"
_cell_formula_units_Z 24
_cell_length_a 15.340683
_cell_length_b 9.505391
_cell_length_c 8.792413
_cell_angle_alpha 90.000000
_cell_angle_beta 65.420642
_cell_angle_gamma 90.000000
_cell_volume 1165.926134
_symmetry_space_group_name_H-M "C 2"
_symmetry_group_IT_number 5
_symmetry_cell_setting 'monoclinic'
loop_
_space_group_symop_operation_xyz
x,y,z
-x,y,-z
1/2+x,1/2+y,z
1/2-x,1/2+y,-z
loop_
_atom_site_type_symbol
_atom_site_label
_atom_site_fract_x
_atom_site_fract_y
_atom_site_fract_z
Si Si1 0.896124 0.143540 0.373138
Si Si2 0.827502 0.374526 0.247240
Si Si3 0.008720 0.572325 0.809064
Si Si4 0.846024 0.060477 0.745007
Si Si5 0.093138 0.304339 0.133117
Si Si6 0.992995 0.891555 0.187233
O O1 0.812330 0.243506 0.370618
O O2 0.890584 0.116301 0.555296
O O3 0.993926 0.225946 0.252489
O O4 0.902923 0.989534 0.294707
O O5 0.892536 0.489271 0.286958
O O6 0.740701 0.460284 0.238675
O O7 0.885984 0.309992 0.061228
O O8 0.924957 0.467760 0.810772
O O9 0.010696 0.731436 0.753435
O O10 0.000000 0.578815 0.000000
O O11 0.826110 0.205620 0.850695
O O12 0.917578 0.966949 0.795085
O O13 0.000000 0.893331 0.000000
#
# Coordination Sequence:
#
# PCOD9121798 Si02
#       6
#     4   4   4   4   4   4
#     4  10  20  39  59  82 121 167 201 245 311 376
#     4  10  21  38  60  86 117 158 206 254 304 360
#     4   8  17  34  57  82 110 151 202 245 291 358
#     4  11  23  37  58  92 121 152 204 261 307 354
#     4   9  18  38  62  82 114 164 209 244 298 379
#     4  10  19  36  61  86 115 160 206 245 296 373
#
# _framework density 20.584496000000001
#
# number of rings (size 3 to 8) (size 9 to 14) (size 15 to 20)
#    0.000    2.333    0.000    5.500    0.000    6.000 
#    0.000   11.667    0.000    0.000    0.000    0.000 
#    0.000    0.000    0.000    0.000    0.000    0.000 
#
# Total GULP energy -66814.504712 kJ/mol
# GULP energy per Si atom -5567.875393 kJ/mol
# Density = 2.053764 g / cm^3
# Si number density = 20.584496 Si / 1000 Ang^3
#
#
#
# Elastic Constant Matrix: (Units=GPa)
#
#
# Indices 1 2 3 4 5 6 
#
# 1 80.3838 48.5603 13.2867 0.0000 18.8576 0.0000
# 2 48.5603 194.7664 29.8603 0.0000 22.6505 0.0000
# 3 13.2867 29.8603 78.3468 0.0000 15.5576 0.0000
# 4 0.0000 0.0000 0.0000 -1.3914 0.0000 2.0646
# 5 18.8576 22.6505 15.5576 0.0000 17.4596 0.0000
# 6 0.0000 0.0000 0.0000 2.0646 0.0000 44.3493
#
#
#
# Elastic Compliance Matrix: (Units=1/GPa)
#
#
# Indices 1 2 3 4 5 6 
#
# 1 0.017817 -0.002676 0.001373 0.000000 -0.016995 0.000000
# 2 -0.002676 0.006502 -0.001122 0.000000 -0.004545 0.000000
# 3 0.001373 -0.001122 0.015751 0.000000 -0.014063 0.000000
# 4 0.000000 0.000000 0.000000 -0.672253 0.000000 0.031296
# 5 -0.016995 -0.004545 -0.014063 0.000000 0.094059 0.000000
# 6 0.000000 0.000000 0.000000 0.031296 0.000000 0.021091
#
#
# Mechanical properties :
#
#
# Convention : Reuss Voigt Hill
#
# Bulk Modulus (GPa) = 28.39239 59.65685 44.02462
# Shear Modulus (GPa) = -9.99115 29.53615 9.77250
#
# Velocity S-wave (km/s) = -2.20551 3.79208 2.18124
# Velocity P-wave (km/s) = 2.70875 6.94389 5.27043
#
# Compressibility (1/GPa) = 0.03522071
#
# Stress axis : x y z
#
# Youngs Moduli (GPa) = 56.12572 153.79418 63.48822
#
# Poissons Ratio (x) = 0.41160 -0.08719
# Poissons Ratio (y) = 0.15021 0.07122
# Poissons Ratio (z) = -0.07708 0.17252
#
# Static dielectric constant tensor:
#      x y z
#    x 1.835410 0.000000 -0.014020 
#    y 0.000000 1.787820 0.000000 
#    z -0.014020 0.000000 1.760410 
# 
# From -- ./inp_files/26459.got.cif
#   From: 2010.05.17/outbox.cif.g08.bks.cpg/sg5_14_cif.got.tgz:26459.got - 2010.06.03 18:56:24.
