data_PCOD9121412
_publ_section_title
;
Structure prediction by ZEFSAII (Michael W. Deem and Ramdas Pophale) SiO2 
 PCOD9121412
Probable space group: C 2
;
_chemical_formula_sum "Si O2"
_cell_formula_units_Z 32
_cell_length_a 18.752093
_cell_length_b 11.569222
_cell_length_c 13.983529
_cell_angle_alpha 90.000000
_cell_angle_beta 31.460800
_cell_angle_gamma 90.000000
_cell_volume 1583.326739
_symmetry_space_group_name_H-M "C 2"
_symmetry_group_IT_number 5
_symmetry_cell_setting 'monoclinic'
loop_
_space_group_symop_operation_xyz
x,y,z
-x,y,-z
1/2+x,1/2+y,z
1/2-x,1/2+y,-z
loop_
_atom_site_type_symbol
_atom_site_label
_atom_site_fract_x
_atom_site_fract_y
_atom_site_fract_z
Si Si1 0.610047 0.816470 0.524009
Si Si2 0.044444 0.114006 0.723301
Si Si3 0.200295 0.566231 0.455375
Si Si4 0.164237 0.145814 0.302645
Si Si5 0.804097 0.076758 0.129126
Si Si6 0.689089 0.863242 0.167501
Si Si7 0.448150 0.188520 0.665536
Si Si8 0.866437 0.945709 0.791688
O O1 0.542003 0.743273 0.686730
O O2 0.692430 0.721223 0.366486
O O3 0.473502 0.871912 0.633042
O O4 0.692924 0.927541 0.460127
O O5 0.202122 0.093198 0.567902
O O6 0.971959 0.029809 0.728416
O O7 0.956229 0.097196 0.919699
O O8 0.270290 0.609095 0.276092
O O9 0.050744 0.626595 0.622325
O O10 0.218680 0.229523 0.156443
O O11 0.000000 0.145839 0.500000
O O12 0.190388 0.015813 0.235641
O O13 0.706499 0.142146 0.163838
O O14 0.762740 0.943266 0.161390
O O15 0.746439 0.908310 0.001672
O O16 0.500000 0.157261 0.500000
O O17 0.443414 0.326473 0.680569
#
# Coordination Sequence:
#
# PCOD9121412 Si02
#       8
#     4   4   4   4   4   4   4   4
#     4  11  21  39  64  84 117 157 208 237 294 359
#     4  11  24  36  58  85 124 154 190 241 305 355
#     4  11  23  38  61  85 119 160 197 243 294 359
#     4  10  19  35  59  85 114 153 196 243 291 348
#     4  10  20  40  58  86 112 150 201 246 287 347
#     4  10  19  33  60  86 109 144 197 248 283 338
#     4  10  22  35  59  86 116 147 194 248 295 337
#     4  11  22  35  57  90 124 143 194 251 306 341
#
# _framework density 20.210609999999999
#
# number of rings (size 3 to 8) (size 9 to 14) (size 15 to 20)
#    0.000    1.500    5.000    1.500    3.500    0.000 
#    0.000    0.000    0.000    0.000    0.000    0.000 
#    0.000    0.000    0.000    0.000    0.000    0.000 
#
# Total GULP energy -89085.787051 kJ/mol
# GULP energy per Si atom -5567.861691 kJ/mol
# Density = 2.016461 g / cm^3
# Si number density = 20.210610 Si / 1000 Ang^3
#
#
#
# Elastic Constant Matrix: (Units=GPa)
#
#
# Indices 1 2 3 4 5 6 
#
# 1 50.8786 23.7350 22.7135 0.0000 -11.9943 0.0000
# 2 23.7350 112.2951 15.5040 0.0000 -3.1796 0.0000
# 3 22.7135 15.5040 31.6802 0.0000 -6.0132 0.0000
# 4 0.0000 0.0000 0.0000 31.8450 0.0000 7.7333
# 5 -11.9943 -3.1796 -6.0132 0.0000 24.9897 0.0000
# 6 0.0000 0.0000 0.0000 7.7333 0.0000 12.3216
#
#
#
# Elastic Compliance Matrix: (Units=1/GPa)
#
#
# Indices 1 2 3 4 5 6 
#
# 1 0.032662 -0.003913 -0.019513 0.000000 0.010484 0.000000
# 2 -0.003913 0.010019 -0.002318 0.000000 -0.001161 0.000000
# 3 -0.019513 -0.002318 0.047003 0.000000 0.001650 0.000000
# 4 0.000000 0.000000 0.000000 0.037049 0.000000 -0.023252
# 5 0.010484 -0.001161 0.001650 0.000000 0.045298 0.000000
# 6 0.000000 0.000000 0.000000 -0.023252 0.000000 0.095752
#
#
# Mechanical properties :
#
#
# Convention : Reuss Voigt Hill
#
# Bulk Modulus (GPa) = 26.18024 35.41764 30.79894
# Shear Modulus (GPa) = 15.06009 22.69137 18.87573
#
# Velocity S-wave (km/s) = 2.73272 3.35437 3.05938
# Velocity P-wave (km/s) = 4.78945 5.70655 5.26800
#
# Compressibility (1/GPa) = 0.03819674
#
# Stress axis : x y z
#
# Youngs Moduli (GPa) = 30.61618 99.80695 21.27517
#
# Poissons Ratio (x) = 0.39052 0.41514
# Poissons Ratio (y) = 0.11979 0.04933
# Poissons Ratio (z) = 0.59741 0.23140
#
# Static dielectric constant tensor:
#      x y z
#    x 1.763250 0.000000 0.024270 
#    y 0.000000 1.757020 0.000000 
#    z 0.024270 0.000000 1.743370 
# 
# From -- ./inp_files/29596.got.cif
#   From: 2010.05.17/outbox.cif.g08.bks.cpg/sg5_15_cif.got.tgz:29596.got - 2010.06.03 18:56:24.
