data_PCOD9121099
_publ_section_title
;
Structure prediction by ZEFSAII (Michael W. Deem and Ramdas Pophale) SiO2 
 PCOD9121099
Probable space group: C 2
;
_chemical_formula_sum "Si O2"
_cell_formula_units_Z 24
_cell_length_a 11.388870
_cell_length_b 16.434209
_cell_length_c 8.096426
_cell_angle_alpha 90.000000
_cell_angle_beta 50.738266
_cell_angle_gamma 90.000000
_cell_volume 1173.306096
_symmetry_space_group_name_H-M "C 2"
_symmetry_group_IT_number 5
_symmetry_cell_setting 'monoclinic'
loop_
_space_group_symop_operation_xyz
x,y,z
-x,y,-z
1/2+x,1/2+y,z
1/2-x,1/2+y,-z
loop_
_atom_site_type_symbol
_atom_site_label
_atom_site_fract_x
_atom_site_fract_y
_atom_site_fract_z
Si Si1 0.169384 0.750000 0.797221
Si Si2 0.404655 0.552624 0.324393
Si Si3 0.288759 0.919213 0.626783
Si Si4 0.130723 0.653969 0.511234
Si Si5 0.218606 0.076652 0.193678
Si Si6 0.539060 0.993415 0.220777
O O1 0.272313 0.829462 0.712559
O O2 0.163593 0.723916 0.611665
O O3 0.221647 0.669699 0.850639
O O4 0.000000 0.771294 0.000000
O O5 0.365393 0.463004 0.292735
O O6 0.296433 0.616045 0.320751
O O7 0.581834 0.570364 0.183976
O O8 0.344948 0.558993 0.567058
O O9 0.406415 0.926977 0.367705
O O10 0.355886 0.974264 0.714539
O O11 0.952570 0.578580 0.323405
O O12 0.000000 0.679697 0.500000
O O13 0.349343 0.011914 0.029936
#
# Coordination Sequence:
#
# PCOD9121099 Si02
#       6
#     4   4   4   4   4   4
#     4  11  23  37  61  92 128 159 203 262 315 356
#     4   9  20  36  61  91 120 154 211 258 293 363
#     4  10  22  37  58  93 123 157 200 262 310 352
#     4  10  18  39  61  86 118 171 207 246 298 377
#     4  10  21  38  63  93 119 165 209 249 302 376
#     4  10  19  38  64  87 121 166 212 237 305 385
#
# _framework density 20.455017999999999
#
# number of rings (size 3 to 8) (size 9 to 14) (size 15 to 20)
#    0.000    2.000    5.000    0.000    2.333    5.333 
#    3.000    0.000    0.000    0.000    0.000    0.000 
#    0.000    0.000    0.000    0.000    0.000    0.000 
#
# Total GULP energy -66825.816538 kJ/mol
# GULP energy per Si atom -5568.818045 kJ/mol
# Density = 2.040846 g / cm^3
# Si number density = 20.455018 Si / 1000 Ang^3
#
#
#
# Elastic Constant Matrix: (Units=GPa)
#
#
# Indices 1 2 3 4 5 6 
#
# 1 119.5897 17.1531 1.8471 0.0000 -19.7271 0.0000
# 2 17.1531 58.3607 26.3130 0.0000 -8.2214 0.0000
# 3 1.8471 26.3130 74.4266 0.0000 -15.2246 0.0000
# 4 0.0000 0.0000 0.0000 26.5554 0.0000 0.3589
# 5 -19.7271 -8.2214 -15.2246 0.0000 20.8170 0.0000
# 6 0.0000 0.0000 0.0000 0.3589 0.0000 19.4270
#
#
#
# Elastic Compliance Matrix: (Units=1/GPa)
#
#
# Indices 1 2 3 4 5 6 
#
# 1 0.010559 -0.002911 0.003032 0.000000 0.011075 0.000000
# 2 -0.002911 0.021377 -0.007435 0.000000 0.000247 0.000000
# 3 0.003032 -0.007435 0.018787 0.000000 0.013677 0.000000
# 4 0.000000 0.000000 0.000000 0.037666 0.000000 -0.000696
# 5 0.011075 0.000247 0.013677 0.000000 0.068633 0.000000
# 6 0.000000 0.000000 0.000000 -0.000696 0.000000 0.051488
#
#
# Mechanical properties :
#
#
# Convention : Reuss Voigt Hill
#
# Bulk Modulus (GPa) = 27.70282 38.11150 32.90716
# Shear Modulus (GPa) = 21.26116 27.16414 24.21265
#
# Velocity S-wave (km/s) = 3.22749 3.64812 3.44423
# Velocity P-wave (km/s) = 5.24038 6.03468 5.65150
#
# Compressibility (1/GPa) = 0.03609741
#
# Stress axis : x y z
#
# Youngs Moduli (GPa) = 94.70187 46.77855 53.22746
#
# Poissons Ratio (x) = 0.13616 -0.16141
# Poissons Ratio (y) = 0.27565 0.39575
# Poissons Ratio (z) = -0.28718 0.34780
#
# Static dielectric constant tensor:
#      x y z
#    x 1.804730 0.000000 -0.011120 
#    y 0.000000 1.690070 0.000000 
#    z -0.011120 0.000000 1.812920 
# 
# From -- ./inp_files/21198.got.cif
#   From: 2010.05.17/outbox.cif.g08.bks.cpg/sg5_11_cif.got.tgz:21198.got - 2010.06.03 18:56:24.
