data_PCOD9121951
_publ_section_title
;
Structure prediction by ZEFSAII (Michael W. Deem and Ramdas Pophale) SiO2 
 PCOD9121951
Probable space group: C 2
;
_chemical_formula_sum "Si O2"
_cell_formula_units_Z 20
_cell_length_a 11.257569
_cell_length_b 13.223934
_cell_length_c 7.985426
_cell_angle_alpha 90.000000
_cell_angle_beta 56.773433
_cell_angle_gamma 90.000000
_cell_volume 994.431076
_symmetry_space_group_name_H-M "C 2"
_symmetry_group_IT_number 5
_symmetry_cell_setting 'monoclinic'
loop_
_space_group_symop_operation_xyz
x,y,z
-x,y,-z
1/2+x,1/2+y,z
1/2-x,1/2+y,-z
loop_
_atom_site_type_symbol
_atom_site_label
_atom_site_fract_x
_atom_site_fract_y
_atom_site_fract_z
Si Si1 0.378617 0.437780 0.704583
Si Si2 0.090166 0.045800 0.784771
Si Si3 0.841181 0.540446 0.380121
Si Si4 0.500000 0.886911 0.500000
Si Si5 0.718254 0.346758 0.880945
Si Si6 0.000000 0.671573 0.000000
O O1 0.500000 0.380943 0.500000
O O2 0.476812 0.518473 0.728489
O O3 0.261580 0.487302 0.676071
O O4 0.299149 0.378091 0.912581
O O5 0.229358 0.094611 0.593528
O O6 0.148444 0.939783 0.825014
O O7 0.000000 0.099478 0.000000
O O8 0.924135 0.457792 0.422782
O O9 0.956112 0.606031 0.193651
O O10 0.375937 0.829381 0.692094
O O11 0.631019 0.245375 0.927417
#
# Coordination Sequence:
#
# PCOD9121951 Si02
#       6
#     4   4   4   2   4   2
#     4   9  16  33  62  87 107 157 200 225 270 370
#     4   8  15  34  61  84 108 159 195 224 273 369
#     4  10  21  34  60  89 119 147 200 237 290 331
#     4  10  22  42  60  82 114 168 194 228 272 378
#     4  10  19  37  62  84 119 150 195 234 294 335
#     4  12  22  38  56  96 118 148 182 262 294 320
#
# _framework density 20.112002
#
# number of rings (size 3 to 8) (size 9 to 14) (size 15 to 20)
#    0.000    2.400    3.000    1.200    0.000    0.000 
#    7.200    0.000    0.000    0.000    2.600    0.000 
#    0.000    0.000    0.000    0.000    0.000    0.000 
#
# Total GULP energy -55723.811744 kJ/mol
# GULP energy per Si atom -5572.381174 kJ/mol
# Density = 2.006623 g / cm^3
# Si number density = 20.112002 Si / 1000 Ang^3
#
#
#
# Elastic Constant Matrix: (Units=GPa)
#
#
# Indices 1 2 3 4 5 6 
#
# 1 95.2532 5.7651 46.9768 0.0000 -2.1185 0.0000
# 2 5.7651 21.3728 44.7893 0.0000 -6.4644 0.0000
# 3 46.9768 44.7893 219.4399 0.0000 -32.8272 0.0000
# 4 0.0000 0.0000 0.0000 -89.4260 0.0000 -73.1627
# 5 -2.1185 -6.4644 -32.8272 0.0000 44.2120 0.0000
# 6 0.0000 0.0000 0.0000 -73.1627 0.0000 -38.8936
#
#
#
# Elastic Compliance Matrix: (Units=1/GPa)
#
#
# Indices 1 2 3 4 5 6 
#
# 1 0.011995 0.003779 -0.003567 0.000000 -0.001521 0.000000
# 2 0.003779 0.082960 -0.017887 0.000000 -0.000970 0.000000
# 3 -0.003567 -0.017887 0.009623 0.000000 0.004359 0.000000
# 4 0.000000 0.000000 0.000000 0.020747 0.000000 -0.039027
# 5 -0.001521 -0.000970 0.004359 0.000000 0.025640 0.000000
# 6 0.000000 0.000000 0.000000 -0.039027 0.000000 0.047702
#
#
# Mechanical properties :
#
#
# Convention : Reuss Voigt Hill
#
# Bulk Modulus (GPa) = 14.44487 59.01427 36.72957
# Shear Modulus (GPa) = 19.44827 -0.91919 9.26454
#
# Velocity S-wave (km/s) = 3.11303 -0.67678 2.14860
# Velocity P-wave (km/s) = 4.48543 5.36617 4.94545
#
# Compressibility (1/GPa) = 0.06922873
#
# Stress axis : x y z
#
# Youngs Moduli (GPa) = 83.36972 12.05406 103.91231
#
# Poissons Ratio (x) = -0.04555 0.37061
# Poissons Ratio (y) = -0.31503 1.85865
# Poissons Ratio (z) = 0.29734 0.21561
#
# Static dielectric constant tensor:
#      x y z
#    x 1.739810 0.000000 -0.061850 
#    y 0.000000 1.696600 0.000000 
#    z -0.061850 0.000000 1.899260 
# 
# From -- ./inp_files/19645.got.cif
#   From: 2010.05.17/outbox.cif.g08.bks.cpg/sg5_10_cif.got.tgz:19645.got - 2010.06.03 18:56:24.
