data_PCOD9121602
_publ_section_title
;
Structure prediction by ZEFSAII (Michael W. Deem and Ramdas Pophale) SiO2 
 PCOD9121602
Probable space group: C 2
;
_chemical_formula_sum "Si O2"
_cell_formula_units_Z 30
_cell_length_a 16.839067
_cell_length_b 8.592295
_cell_length_c 9.229706
_cell_angle_alpha 90.000000
_cell_angle_beta 107.768199
_cell_angle_gamma 90.000000
_cell_volume 1271.710807
_symmetry_space_group_name_H-M "C 2"
_symmetry_group_IT_number 5
_symmetry_cell_setting 'monoclinic'
loop_
_space_group_symop_operation_xyz
x,y,z
-x,y,-z
1/2+x,1/2+y,z
1/2-x,1/2+y,-z
loop_
_atom_site_type_symbol
_atom_site_label
_atom_site_fract_x
_atom_site_fract_y
_atom_site_fract_z
Si Si1 0.478634 0.183400 0.251055
Si Si2 0.168818 0.050378 0.080105
Si Si3 0.605754 0.046294 0.513481
Si Si4 0.779176 0.000443 0.319698
Si Si5 0.500000 0.753767 0.500000
Si Si6 0.819193 0.681209 0.975099
Si Si7 0.713542 0.670866 0.393622
Si Si8 0.553541 0.522416 0.768374
O O1 0.564333 0.094821 0.336609
O O2 0.430484 0.150581 0.375438
O O3 0.497915 0.364810 0.241305
O O4 0.411568 0.142196 0.088880
O O5 0.182862 0.864038 0.069657
O O6 0.154854 0.106942 0.234908
O O7 0.249672 0.141016 0.059574
O O8 0.089202 0.088240 0.937019
O O9 0.702211 0.070897 0.575107
O O10 0.576168 0.873617 0.529893
O O11 0.741317 0.846199 0.372162
O O12 0.711301 0.079071 0.177006
O O13 0.809921 0.122355 0.457893
O O14 0.860995 0.968530 0.267770
O O15 0.509684 0.647482 0.644847
#
# Coordination Sequence:
#
# PCOD9121602 Si02
#       8
#     4   4   4   4   2   4   4   4
#     4   9  17  36  57  82 114 145 193 234 286 339
#     4  10  20  33  60  82 119 145 198 241 284 335
#     4  10  21  33  57  86 114 155 185 243 288 338
#     4  11  25  36  60  83 122 156 192 237 297 346
#     4  10  22  32  60  90 118 142 196 250 276 338
#     4  10  19  35  57  88 109 154 193 244 282 338
#     4  12  23  41  55  87 119 159 191 239 292 356
#     4  10  20  37  60  92 108 153 190 243 290 333
#
# _framework density 23.590271000000001
#
# number of rings (size 3 to 8) (size 9 to 14) (size 15 to 20)
#    0.000    1.867    2.667    3.200    5.600    2.133 
#    0.000    0.667    0.000    0.800    0.000    0.000 
#    0.000    0.000    0.000    0.000    0.000    0.000 
#
# Total GULP energy -83873.982529 kJ/mol
# GULP energy per Si atom -5591.598835 kJ/mol
# Density = 2.353658 g / cm^3
# Si number density = 23.590271 Si / 1000 Ang^3
#
#
#
# Elastic Constant Matrix: (Units=GPa)
#
#
# Indices 1 2 3 4 5 6 
#
# 1 24.5918 10.0540 14.2775 0.0000 -2.6973 0.0000
# 2 10.0540 89.2786 56.0982 0.0000 5.3706 0.0000
# 3 14.2775 56.0982 171.6784 0.0000 14.5653 0.0000
# 4 0.0000 0.0000 0.0000 40.5182 0.0000 10.4738
# 5 -2.6973 5.3706 14.5653 0.0000 17.5062 0.0000
# 6 0.0000 0.0000 0.0000 10.4738 0.0000 33.9259
#
#
#
# Elastic Compliance Matrix: (Units=1/GPa)
#
#
# Indices 1 2 3 4 5 6 
#
# 1 0.045386 -0.003542 -0.003553 0.000000 0.011036 0.000000
# 2 -0.003542 0.014376 -0.004285 0.000000 -0.001391 0.000000
# 3 -0.003553 -0.004285 0.008022 0.000000 -0.005907 0.000000
# 4 0.000000 0.000000 0.000000 0.026821 0.000000 -0.008280
# 5 0.011036 -0.001391 -0.005907 0.000000 0.064164 0.000000
# 6 0.000000 0.000000 0.000000 -0.008280 0.000000 0.032032
#
#
# Mechanical properties :
#
#
# Convention : Reuss Voigt Hill
#
# Bulk Modulus (GPa) = 22.21123 49.60090 35.90607
# Shear Modulus (GPa) = 21.87525 32.06467 26.96996
#
# Velocity S-wave (km/s) = 3.04846 3.69078 3.38489
# Velocity P-wave (km/s) = 4.67191 6.26371 5.52543
#
# Compressibility (1/GPa) = 0.04502226
#
# Stress axis : x y z
#
# Youngs Moduli (GPa) = 22.03345 69.56094 124.66256
#
# Poissons Ratio (x) = 0.24640 0.44296
# Poissons Ratio (y) = 0.07805 0.53417
# Poissons Ratio (z) = 0.07829 0.29806
#
# Static dielectric constant tensor:
#      x y z
#    x 2.071870 0.000000 -0.117010 
#    y 0.000000 1.865750 0.000000 
#    z -0.117010 0.000000 1.958010 
# 
# From -- ./inp_files/30676.got.cif
#   From: 2010.05.17/outbox.cif.g08.bks.cpg/sg5_16_cif.got.tgz:30676.got - 2010.06.03 18:56:24.
