data_PCOD9121020
_publ_section_title
;
Structure prediction by ZEFSAII (Michael W. Deem and Ramdas Pophale) SiO2 
 PCOD9121020
Probable space group: C 2
;
_chemical_formula_sum "Si O2"
_cell_formula_units_Z 30
_cell_length_a 13.700469
_cell_length_b 9.996546
_cell_length_c 10.598959
_cell_angle_alpha 90.000000
_cell_angle_beta 91.343253
_cell_angle_gamma 90.000000
_cell_volume 1451.206630
_symmetry_space_group_name_H-M "C 2"
_symmetry_group_IT_number 5
_symmetry_cell_setting 'monoclinic'
loop_
_space_group_symop_operation_xyz
x,y,z
-x,y,-z
1/2+x,1/2+y,z
1/2-x,1/2+y,-z
loop_
_atom_site_type_symbol
_atom_site_label
_atom_site_fract_x
_atom_site_fract_y
_atom_site_fract_z
Si Si1 0.799421 0.501330 0.539648
Si Si2 0.673680 0.447805 0.784321
Si Si3 0.011763 0.737561 0.734462
Si Si4 0.500000 0.143343 0.000000
Si Si5 0.308264 0.291510 0.625308
Si Si6 0.857957 0.416096 0.951091
Si Si7 0.518767 0.930272 0.307177
Si Si8 0.136879 0.239624 0.804368
O O1 0.740537 0.477099 0.666323
O O2 0.741388 0.423057 0.431549
O O3 0.801907 0.662426 0.531640
O O4 0.904673 0.435774 0.575072
O O5 0.608340 0.323448 0.742839
O O6 0.746244 0.425691 0.904044
O O7 0.612988 0.582894 0.806237
O O8 0.978075 0.729363 0.878178
O O9 0.923111 0.802512 0.655207
O O10 0.022968 0.582050 0.695935
O O11 0.405753 0.047832 0.016244
O O12 0.245899 0.255859 0.749213
O O13 0.919992 0.407071 0.822340
O O14 0.869909 0.302152 0.056354
O O15 0.434752 0.820671 0.291673
#
# Coordination Sequence:
#
# PCOD9121020 Si02
#       8
#     4   4   4   2   4   4   4   4
#     4   9  21  43  58  84 113 157 194 244 282 340
#     4  10  24  36  59  87 119 148 193 243 294 327
#     4  10  21  39  58  87 113 161 185 234 286 349
#     4  10  18  38  62  80 122 160 184 226 284 360
#     4  10  23  39  62  82 119 152 199 238 287 340
#     4  10  19  37  60  83 116 156 185 232 280 357
#     4   9  19  39  64  79 115 156 200 221 290 352
#     4  11  20  37  59  89 114 150 193 240 288 342
#
# _framework density 20.672453000000001
#
# number of rings (size 3 to 8) (size 9 to 14) (size 15 to 20)
#    0.000    2.133    2.667    2.400    3.733    3.200 
#    2.400    6.667    0.000    0.000    0.000    0.000 
#    0.000    0.000    0.000    0.000    0.000    0.000 
#
# Total GULP energy -83673.710162 kJ/mol
# GULP energy per Si atom -5578.247344 kJ/mol
# Density = 2.062540 g / cm^3
# Si number density = 20.672453 Si / 1000 Ang^3
#
#
#
# Elastic Constant Matrix: (Units=GPa)
#
#
# Indices 1 2 3 4 5 6 
#
# 1 105.1093 52.2749 6.6450 0.0000 28.7538 0.0000
# 2 52.2749 82.1637 22.4301 0.0000 16.9243 0.0000
# 3 6.6450 22.4301 45.2541 0.0000 11.8649 0.0000
# 4 0.0000 0.0000 0.0000 27.6121 0.0000 -6.1110
# 5 28.7538 16.9243 11.8649 0.0000 34.9327 0.0000
# 6 0.0000 0.0000 0.0000 -6.1110 0.0000 25.1800
#
#
#
# Elastic Compliance Matrix: (Units=1/GPa)
#
#
# Indices 1 2 3 4 5 6 
#
# 1 0.017281 -0.010183 0.005429 0.000000 -0.011135 0.000000
# 2 -0.010183 0.020879 -0.009220 0.000000 0.001398 0.000000
# 3 0.005429 -0.009220 0.028400 0.000000 -0.009648 0.000000
# 4 0.000000 0.000000 0.000000 0.038272 0.000000 0.009288
# 5 -0.011135 0.001398 -0.009648 0.000000 0.040391 0.000000
# 6 0.000000 0.000000 0.000000 0.009288 0.000000 0.041968
#
#
# Mechanical properties :
#
#
# Convention : Reuss Voigt Hill
#
# Bulk Modulus (GPa) = 25.89885 43.91411 34.90648
# Shear Modulus (GPa) = 21.92892 27.62344 24.77618
#
# Velocity S-wave (km/s) = 3.26049 3.65943 3.46571
# Velocity P-wave (km/s) = 5.17009 6.25653 5.73908
#
# Compressibility (1/GPa) = 0.03861176
#
# Stress axis : x y z
#
# Youngs Moduli (GPa) = 57.86570 47.89568 35.21182
#
# Poissons Ratio (x) = 0.48774 -0.19118
# Poissons Ratio (y) = 0.58927 0.32465
# Poissons Ratio (z) = -0.31417 0.44159
#
# Static dielectric constant tensor:
#      x y z
#    x 1.778050 0.000000 -0.035270 
#    y 0.000000 1.748060 0.000000 
#    z -0.035270 0.000000 1.768430 
# 
# From -- ./inp_files/41749.got.cif
#   From: 2010.05.17/outbox.cif.g08.bks.cpg/sg5_21_cif.got.tgz:41749.got - 2010.06.03 18:56:24.
