data_PCOD9121614
_publ_section_title
;
Structure prediction by ZEFSAII (Michael W. Deem and Ramdas Pophale) SiO2 
 PCOD9121614
Probable space group: C 2
;
_chemical_formula_sum "Si O2"
_cell_formula_units_Z 22
_cell_length_a 16.533339
_cell_length_b 8.182860
_cell_length_c 13.170491
_cell_angle_alpha 90.000000
_cell_angle_beta 154.207454
_cell_angle_gamma 90.000000
_cell_volume 775.301603
_symmetry_space_group_name_H-M "C 2"
_symmetry_group_IT_number 5
_symmetry_cell_setting 'monoclinic'
loop_
_space_group_symop_operation_xyz
x,y,z
-x,y,-z
1/2+x,1/2+y,z
1/2-x,1/2+y,-z
loop_
_atom_site_type_symbol
_atom_site_label
_atom_site_fract_x
_atom_site_fract_y
_atom_site_fract_z
Si Si1 0.192650 0.730550 0.674192
Si Si2 0.500000 0.318943 0.000000
Si Si3 0.690154 0.603301 0.679151
Si Si4 0.445281 0.721087 0.774759
Si Si5 0.412139 0.414060 0.122533
Si Si6 0.435385 0.045128 0.158701
O O1 0.299137 0.664768 0.695459
O O2 0.000000 0.658133 0.500000
O O3 0.150320 0.919877 0.599855
O O4 0.353285 0.736971 0.941604
O O5 0.327006 0.209440 0.765868
O O6 0.574733 0.407623 0.985281
O O7 0.500000 0.684805 0.500000
O O8 0.815461 0.577704 0.921517
O O9 0.473418 0.579606 0.723861
O O10 0.414004 0.904285 0.696545
O O11 0.204487 0.454245 0.923036
O O12 0.471588 0.234770 0.229651
#
# Coordination Sequence:
#
# PCOD9121614 Si02
#       6
#     4   2   4   4   4   4
#     4   9  17  32  58  87 115 151 196 239 294 348
#     4  10  20  34  60  88 114 156 202 240 292 352
#     4   9  18  35  61  86 117 153 197 243 292 351
#     4  10  19  35  58  83 118 153 189 246 288 345
#     4  11  20  36  59  92 115 156 202 237 296 355
#     4  10  20  35  61  89 117 158 198 240 299 349
#
# _framework density 28.376055000000001
#
# number of rings (size 3 to 8) (size 9 to 14) (size 15 to 20)
#    0.000    2.182    1.818    4.364    0.000    0.000 
#    0.000    8.182   12.000    3.273    0.000    0.000 
#    0.000    0.000    0.000    0.000    0.000    0.000 
#
# Total GULP energy -61561.113756 kJ/mol
# GULP energy per Si atom -5596.464887 kJ/mol
# Density = 2.831147 g / cm^3
# Si number density = 28.376055 Si / 1000 Ang^3
#
#
#
# Elastic Constant Matrix: (Units=GPa)
#
#
# Indices 1 2 3 4 5 6 
#
# 1 99.9329 39.1621 36.8026 0.0000 36.5257 0.0000
# 2 39.1621 203.8222 40.0711 0.0000 11.8694 0.0000
# 3 36.8026 40.0711 133.5248 0.0000 27.1529 0.0000
# 4 0.0000 0.0000 0.0000 36.9914 0.0000 12.6426
# 5 36.5257 11.8694 27.1529 0.0000 62.2940 0.0000
# 6 0.0000 0.0000 0.0000 12.6426 0.0000 56.6221
#
#
#
# Elastic Compliance Matrix: (Units=1/GPa)
#
#
# Indices 1 2 3 4 5 6 
#
# 1 0.014016 -0.001918 -0.001855 0.000000 -0.007044 0.000000
# 2 -0.001918 0.005483 -0.001243 0.000000 0.000622 0.000000
# 3 -0.001855 -0.001243 0.008893 0.000000 -0.002551 0.000000
# 4 0.000000 0.000000 0.000000 0.029267 0.000000 -0.006535
# 5 -0.007044 0.000622 -0.002551 0.000000 0.021177 0.000000
# 6 0.000000 0.000000 0.000000 -0.006535 0.000000 0.019120
#
#
# Mechanical properties :
#
#
# Convention : Reuss Voigt Hill
#
# Bulk Modulus (GPa) = 54.46967 74.37239 64.42103
# Shear Modulus (GPa) = 43.81814 52.59778 48.20796
#
# Velocity S-wave (km/s) = 3.93389 4.31001 4.12624
# Velocity P-wave (km/s) = 6.31437 7.14386 6.74188
#
# Compressibility (1/GPa) = 0.01835884
#
# Stress axis : x y z
#
# Youngs Moduli (GPa) = 71.34561 182.38225 112.45424
#
# Poissons Ratio (x) = 0.34984 0.20861
# Poissons Ratio (y) = 0.13685 0.13981
# Poissons Ratio (z) = 0.13235 0.22674
#
# Static dielectric constant tensor:
#      x y z
#    x 2.231520 0.000000 -0.036440 
#    y 0.000000 2.338410 0.000000 
#    z -0.036440 0.000000 2.244450 
# 
# From -- ./inp_files/67013.got.cif
#   From: 2010.05.17/outbox.cif.g08.bks.cpg/sg5_34_cif.got.tgz:67013.got - 2010.06.03 18:56:24.
