data_PCOD9121348
_publ_section_title
;
Structure prediction by ZEFSAII (Michael W. Deem and Ramdas Pophale) SiO2 
 PCOD9121348
Probable space group: C 2
;
_chemical_formula_sum "Si O2"
_cell_formula_units_Z 24
_cell_length_a 32.475281
_cell_length_b 7.766955
_cell_length_c 4.933850
_cell_angle_alpha 90.000000
_cell_angle_beta 107.919115
_cell_angle_gamma 90.000000
_cell_volume 1184.117237
_symmetry_space_group_name_H-M "C 2"
_symmetry_group_IT_number 5
_symmetry_cell_setting 'monoclinic'
loop_
_space_group_symop_operation_xyz
x,y,z
-x,y,-z
1/2+x,1/2+y,z
1/2-x,1/2+y,-z
loop_
_atom_site_type_symbol
_atom_site_label
_atom_site_fract_x
_atom_site_fract_y
_atom_site_fract_z
Si Si1 0.862002 0.088820 0.165355
Si Si2 0.274890 0.149895 0.426904
Si Si3 0.954549 0.089699 0.474334
Si Si4 0.638295 0.344993 0.335225
Si Si5 0.045492 0.846656 0.024576
Si Si6 0.723965 0.772627 0.822131
O O1 0.908878 0.175854 0.309898
O O2 0.821942 0.206449 0.163368
O O3 0.861669 0.923850 0.364678
O O4 0.858023 0.008773 0.859102
O O5 0.320933 0.222341 0.615836
O O6 0.242628 0.156097 0.616314
O O7 0.278538 0.960989 0.310169
O O8 0.256138 0.264353 0.142882
O O9 0.000000 0.181266 0.500000
O O10 0.954217 0.015541 0.777170
O O11 0.955050 0.920996 0.279087
O O12 0.591567 0.260540 0.177470
O O13 0.000000 0.755965 0.000000
#
# Coordination Sequence:
#
# PCOD9121348 Si02
#       6
#     4   4   4   4   4   4
#     4  10  19  33  53  77 105 135 171 213 257 304
#     4  12  24  38  55  77 106 139 177 218 263 312
#     4   8  14  25  44  72 101 128 162 205 248 294
#     4  10  19  33  53  77 105 135 171 213 257 304
#     4   8  14  25  44  72 101 128 162 205 248 294
#     4  12  24  38  55  77 106 139 177 218 263 312
#
# _framework density 20.268263999999999
#
# number of rings (size 3 to 8) (size 9 to 14) (size 15 to 20)
#    0.000    2.000    0.000    6.000    0.000    0.000 
#    0.000    0.000    0.000    0.000    0.000   28.000 
#    0.000    0.000    0.000    0.000    0.000    0.000 
#
# Total GULP energy -66969.109410 kJ/mol
# GULP energy per Si atom -5580.759118 kJ/mol
# Density = 2.022213 g / cm^3
# Si number density = 20.268264 Si / 1000 Ang^3
#
#
#
# Elastic Constant Matrix: (Units=GPa)
#
#
# Indices 1 2 3 4 5 6 
#
# 1 185.7870 36.8549 40.2515 0.0000 34.3108 0.0000
# 2 36.8549 43.9212 8.2410 0.0000 12.3639 0.0000
# 3 40.2515 8.2410 88.7990 0.0000 5.8270 0.0000
# 4 0.0000 0.0000 0.0000 17.9257 0.0000 -2.1509
# 5 34.3108 12.3639 5.8270 0.0000 50.3252 0.0000
# 6 0.0000 0.0000 0.0000 -2.1509 0.0000 13.4524
#
#
#
# Elastic Compliance Matrix: (Units=1/GPa)
#
#
# Indices 1 2 3 4 5 6 
#
# 1 0.007622 -0.004839 -0.002764 0.000000 -0.003688 0.000000
# 2 -0.004839 0.027851 -0.000160 0.000000 -0.003525 0.000000
# 3 -0.002764 -0.000160 0.012498 0.000000 0.000477 0.000000
# 4 0.000000 0.000000 0.000000 0.056877 0.000000 0.009094
# 5 -0.003688 -0.003525 0.000477 0.000000 0.023196 0.000000
# 6 0.000000 0.000000 0.000000 0.009094 0.000000 0.075790
#
#
# Mechanical properties :
#
#
# Convention : Reuss Voigt Hill
#
# Bulk Modulus (GPa) = 30.82152 54.35577 42.58864
# Shear Modulus (GPa) = 21.72252 31.88463 26.80358
#
# Velocity S-wave (km/s) = 3.27731 3.97057 3.64048
# Velocity P-wave (km/s) = 5.43699 6.92077 6.22326
#
# Compressibility (1/GPa) = 0.03244486
#
# Stress axis : x y z
#
# Youngs Moduli (GPa) = 131.19239 35.90541 80.01376
#
# Poissons Ratio (x) = 0.17376 0.22116
# Poissons Ratio (y) = 0.63488 0.01279
# Poissons Ratio (z) = 0.36262 0.00574
#
# Static dielectric constant tensor:
#      x y z
#    x 1.805630 0.000000 0.041740 
#    y 0.000000 1.670260 0.000000 
#    z 0.041740 0.000000 1.719270 
# 
# From -- ./inp_files/11112.got.cif
#   From: 2010.05.17/outbox.cif.g08.bks.cpg/sg5_6_cif.got.tgz:11112.got - 2010.06.03 18:56:24.
