data_PCOD9121441
_publ_section_title
;
Structure prediction by ZEFSAII (Michael W. Deem and Ramdas Pophale) SiO2 
 PCOD9121441
Probable space group: C 2
;
_chemical_formula_sum "Si O2"
_cell_formula_units_Z 24
_cell_length_a 14.082875
_cell_length_b 13.803659
_cell_length_c 12.396649
_cell_angle_alpha 90.000000
_cell_angle_beta 27.845174
_cell_angle_gamma 90.000000
_cell_volume 1125.601795
_symmetry_space_group_name_H-M "C 2"
_symmetry_group_IT_number 5
_symmetry_cell_setting 'monoclinic'
loop_
_space_group_symop_operation_xyz
x,y,z
-x,y,-z
1/2+x,1/2+y,z
1/2-x,1/2+y,-z
loop_
_atom_site_type_symbol
_atom_site_label
_atom_site_fract_x
_atom_site_fract_y
_atom_site_fract_z
Si Si1 0.327011 0.111680 0.600508
Si Si2 0.211395 0.896118 0.066815
Si Si3 0.117822 0.782775 0.702301
Si Si4 0.867648 0.602488 0.900293
Si Si5 0.000976 0.228458 0.182654
Si Si6 0.231647 0.402252 0.249238
O O1 0.500000 0.159208 0.500000
O O2 0.450601 0.080518 0.367975
O O3 0.146203 0.183722 0.758285
O O4 0.251178 0.014930 0.734844
O O5 0.369765 0.824850 0.964824
O O6 0.240442 0.893933 0.906927
O O7 0.273378 0.003642 0.041695
O O8 0.985607 0.847887 0.290440
O O9 0.339533 0.748825 0.440624
O O10 0.148206 0.843765 0.779831
O O11 0.970637 0.689277 0.865959
O O12 0.672879 0.650724 0.039363
O O13 0.000000 0.372806 0.500000
#
# Coordination Sequence:
#
# PCOD9121441 Si02
#       6
#     4   4   4   4   4   4
#     4  10  19  34  54  87 117 138 177 231 278 325
#     4  11  20  36  58  85 110 146 183 227 278 326
#     4  10  21  33  51  83 116 145 179 226 275 327
#     4  10  20  34  54  82 114 147 180 221 281 328
#     4  10  21  34  51  82 115 148 178 227 272 330
#     4  11  18  34  59  87 116 137 180 233 275 322
#
# _framework density 21.321926999999999
#
# number of rings (size 3 to 8) (size 9 to 14) (size 15 to 20)
#    0.000    1.667    5.000    1.500    0.000    2.000 
#    0.000    0.000    0.000    1.000   47.667    0.000 
#    0.000    0.000    0.000    0.000    0.000    0.000 
#
# Total GULP energy -66901.110011 kJ/mol
# GULP energy per Si atom -5575.092501 kJ/mol
# Density = 2.127340 g / cm^3
# Si number density = 21.321927 Si / 1000 Ang^3
#
#
#
# Elastic Constant Matrix: (Units=GPa)
#
#
# Indices 1 2 3 4 5 6 
#
# 1 75.0860 32.8910 10.7590 -0.0007 -31.3073 0.0006
# 2 32.8910 135.1944 7.3532 0.0012 -30.0079 -0.0005
# 3 10.7590 7.3532 68.7998 0.0018 -14.3105 -0.0008
# 4 -0.0007 0.0012 0.0018 -4.6054 0.0001 -16.5986
# 5 -31.3073 -30.0079 -14.3105 0.0001 40.4795 -0.0002
# 6 0.0006 -0.0005 -0.0008 -16.5986 -0.0002 37.6369
#
#
#
# Elastic Compliance Matrix: (Units=1/GPa)
#
#
# Indices 1 2 3 4 5 6 
#
# 1 0.019983 -0.001713 0.000009 -0.000001 0.014189 -0.000001
# 2 -0.001713 0.009013 0.000452 0.000001 0.005517 0.000001
# 3 0.000009 0.000452 0.015712 0.000002 0.005897 0.000001
# 4 -0.000001 0.000001 0.000002 -0.083852 0.000001 -0.036980
# 5 0.014189 0.005517 0.005897 0.000001 0.041852 0.000000
# 6 -0.000001 0.000001 0.000001 -0.036980 0.000000 0.010261
#
#
# Mechanical properties :
#
#
# Convention : Reuss Voigt Hill
#
# Bulk Modulus (GPa) = 23.69369 42.34295 33.01832
# Shear Modulus (GPa) = 169.26468 29.90731 99.58600
#
# Velocity S-wave (km/s) = 8.91951 3.74927 6.84159
# Velocity P-wave (km/s) = 10.82651 6.21648 8.82774
#
# Compressibility (1/GPa) = 0.04220532
#
# Stress axis : x y z
#
# Youngs Moduli (GPa) = 50.04254 110.94603 63.64686
#
# Poissons Ratio (x) = 0.19003 -0.00060
# Poissons Ratio (y) = 0.08571 -0.02877
# Poissons Ratio (z) = -0.00047 -0.05015
#
# Static dielectric constant tensor:
#      x y z
#    x 1.775750 0.000000 0.007290 
#    y 0.000000 1.811560 0.000000 
#    z 0.007290 0.000000 1.855260 
# 
# From -- ./inp_files/54671.got.cif
#   From: 2010.05.17/outbox.cif.g08.bks.cpg/sg5_28_cif.got.tgz:54671.got - 2010.06.03 18:56:24.
