data_PCOD9121299
_publ_section_title
;
Structure prediction by ZEFSAII (Michael W. Deem and Ramdas Pophale) SiO2 
 PCOD9121299
Probable space group: C 2
;
_chemical_formula_sum "Si O2"
_cell_formula_units_Z 28
_cell_length_a 23.778251
_cell_length_b 5.298905
_cell_length_c 11.039584
_cell_angle_alpha 90.000000
_cell_angle_beta 127.173885
_cell_angle_gamma 90.000000
_cell_volume 1108.334932
_symmetry_space_group_name_H-M "C 2"
_symmetry_group_IT_number 5
_symmetry_cell_setting 'monoclinic'
loop_
_space_group_symop_operation_xyz
x,y,z
-x,y,-z
1/2+x,1/2+y,z
1/2-x,1/2+y,-z
loop_
_atom_site_type_symbol
_atom_site_label
_atom_site_fract_x
_atom_site_fract_y
_atom_site_fract_z
Si Si1 0.418208 0.970350 0.725375
Si Si2 0.964727 0.543668 0.321126
Si Si3 0.922910 0.052793 0.338452
Si Si4 0.763130 0.560649 0.461132
Si Si5 0.388144 0.463613 0.831975
Si Si6 0.219133 0.934411 0.809918
Si Si7 0.196851 0.934962 0.070737
O O1 0.345825 0.006364 0.552366
O O2 0.415765 0.712633 0.800006
O O3 0.481233 0.971506 0.712405
O O4 0.421657 0.211768 0.819661
O O5 0.907542 0.323066 0.258739
O O6 0.000000 0.567520 0.500000
O O7 0.933904 0.818575 0.264252
O O8 0.858933 0.986219 0.345435
O O9 0.000000 0.084047 0.500000
O O10 0.748809 0.862403 0.440267
O O11 0.695792 0.446227 0.305485
O O12 0.379069 0.481716 0.964120
O O13 0.273574 0.158130 0.857115
O O14 0.250254 0.662534 0.821871
O O15 0.202558 0.945996 0.932444
#
# Coordination Sequence:
#
# PCOD9121299 Si02
#       7
#     4   4   4   4   4   4   4
#     4  10  19  33  50  73 110 142 177 229 269 323
#     4  10  21  36  54  79 108 147 188 223 277 328
#     4  10  21  36  56  84 112 147 187 230 279 328
#     4   8  16  28  44  70 101 134 168 211 268 320
#     4  10  19  32  52  77 104 140 182 223 274 332
#     4  10  21  38  58  84 116 143 182 236 279 330
#     4  10  21  37  60  85 110 147 184 226 287 337
#
# _framework density 25.263117999999999
#
# number of rings (size 3 to 8) (size 9 to 14) (size 15 to 20)
#    0.000    2.286    0.000    2.571    0.000    4.571 
#    0.000    8.571    0.000    5.143    0.000    0.000 
#    0.000    0.000    0.000    0.000    0.000    0.000 
#
# Total GULP energy -78088.788344 kJ/mol
# GULP energy per Si atom -5577.770596 kJ/mol
# Density = 2.520562 g / cm^3
# Si number density = 25.263118 Si / 1000 Ang^3
#
#
#
# Elastic Constant Matrix: (Units=GPa)
#
#
# Indices 1 2 3 4 5 6 
#
# 1 96.5822 15.8833 21.2126 0.0000 -25.3204 0.0000
# 2 15.8833 138.8097 36.2846 0.0000 -11.2465 0.0000
# 3 21.2126 36.2846 35.7099 0.0000 -14.0766 0.0000
# 4 0.0000 0.0000 0.0000 22.4302 0.0000 -5.7886
# 5 -25.3204 -11.2465 -14.0766 0.0000 36.4897 0.0000
# 6 0.0000 0.0000 0.0000 -5.7886 0.0000 50.5214
#
#
#
# Elastic Compliance Matrix: (Units=1/GPa)
#
#
# Indices 1 2 3 4 5 6 
#
# 1 0.013418 0.000527 -0.005628 0.000000 0.007302 0.000000
# 2 0.000527 0.009859 -0.010601 0.000000 -0.000685 0.000000
# 3 -0.005628 -0.010601 0.046338 0.000000 0.010703 0.000000
# 4 0.000000 0.000000 0.000000 0.045941 0.000000 0.005264
# 5 0.007302 -0.000685 0.010703 0.000000 0.036390 0.000000
# 6 0.000000 0.000000 0.000000 0.005264 0.000000 0.020397
#
#
# Mechanical properties :
#
#
# Convention : Reuss Voigt Hill
#
# Bulk Modulus (GPa) = 26.17054 46.42921 36.29988
# Shear Modulus (GPa) = 23.09648 35.06968 29.08308
#
# Velocity S-wave (km/s) = 3.02692 3.72987 3.39663
# Velocity P-wave (km/s) = 4.75373 6.08008 5.45735
#
# Compressibility (1/GPa) = 0.03821091
#
# Stress axis : x y z
#
# Youngs Moduli (GPa) = 74.52937 101.42532 21.58067
#
# Poissons Ratio (x) = -0.05350 0.12145
# Poissons Ratio (y) = -0.03931 0.22879
# Poissons Ratio (z) = 0.41944 1.07526
#
# Static dielectric constant tensor:
#      x y z
#    x 2.004560 0.000000 0.022470 
#    y 0.000000 1.998960 0.000000 
#    z 0.022470 0.000000 2.085510 
# 
# From -- ./inp_files/45427.got.cif
#   From: 2010.05.17/outbox.cif.g08.bks.cpg/sg5_23_cif.got.tgz:45427.got - 2010.06.03 18:56:24.
