data_PCOD9121247
_publ_section_title
;
Structure prediction by ZEFSAII (Michael W. Deem and Ramdas Pophale) SiO2 
 PCOD9121247
Probable space group: C 2
;
_chemical_formula_sum "Si O2"
_cell_formula_units_Z 20
_cell_length_a 16.561254
_cell_length_b 5.018776
_cell_length_c 9.510466
_cell_angle_alpha 90.000000
_cell_angle_beta 96.432031
_cell_angle_gamma 90.000000
_cell_volume 785.507794
_symmetry_space_group_name_H-M "C 2"
_symmetry_group_IT_number 5
_symmetry_cell_setting 'monoclinic'
loop_
_space_group_symop_operation_xyz
x,y,z
-x,y,-z
1/2+x,1/2+y,z
1/2-x,1/2+y,-z
loop_
_atom_site_type_symbol
_atom_site_label
_atom_site_fract_x
_atom_site_fract_y
_atom_site_fract_z
Si Si1 0.140590 0.689860 0.187302
Si Si2 0.067381 0.340155 0.429207
Si Si3 0.020083 0.938374 0.780437
Si Si4 0.769495 0.385097 0.420082
Si Si5 0.917187 0.437246 0.077558
O O1 0.106636 0.493384 0.304131
O O2 0.218074 0.834175 0.270006
O O3 0.064382 0.889188 0.148078
O O4 0.151220 0.528876 0.045337
O O5 0.139137 0.281560 0.551483
O O6 0.000000 0.504797 0.500000
O O7 0.021159 0.082674 0.360263
O O8 0.066393 0.658556 0.799812
O O9 0.083220 0.149899 0.855056
O O10 0.770058 0.693131 0.467144
O O11 0.000000 0.433019 0.000000
#
# Coordination Sequence:
#
# PCOD9121247 Si02
#       5
#     4   4   4   4   4
#     4  10  21  36  62  86 117 148 203 240 290 333
#     4  11  23  38  58  89 126 154 189 233 303 357
#     4  11  19  35  54  88 111 148 188 250 278 336
#     4  10  21  38  57  83 117 157 196 238 281 342
#     4  10  19  30  58  84 109 139 201 248 279 312
#
# _framework density 25.461236
#
# number of rings (size 3 to 8) (size 9 to 14) (size 15 to 20)
#    0.000    1.600    6.000    1.800    0.000    0.800 
#    0.000    0.000    0.000    2.400    0.000    0.000 
#    0.000    0.000    0.000    0.000    0.000    0.000 
#
# Total GULP energy -55832.895007 kJ/mol
# GULP energy per Si atom -5583.289501 kJ/mol
# Density = 2.540329 g / cm^3
# Si number density = 25.461236 Si / 1000 Ang^3
#
#
#
# Elastic Constant Matrix: (Units=GPa)
#
#
# Indices 1 2 3 4 5 6 
#
# 1 39.1088 -3.4382 30.6511 0.0000 22.7321 0.0000
# 2 -3.4382 124.1266 32.7589 0.0000 3.0697 0.0000
# 3 30.6511 32.7589 131.3575 0.0000 34.8616 0.0000
# 4 0.0000 0.0000 0.0000 34.1894 0.0000 9.7936
# 5 22.7321 3.0697 34.8616 0.0000 43.5366 0.0000
# 6 0.0000 0.0000 0.0000 9.7936 0.0000 9.7573
#
#
#
# Elastic Compliance Matrix: (Units=1/GPa)
#
#
# Indices 1 2 3 4 5 6 
#
# 1 0.039864 0.003011 -0.005679 0.000000 -0.016479 0.000000
# 2 0.003011 0.008920 -0.002975 0.000000 0.000182 0.000000
# 3 -0.005679 -0.002975 0.011222 0.000000 -0.005811 0.000000
# 4 0.000000 0.000000 0.000000 0.041052 0.000000 -0.041205
# 5 -0.016479 0.000182 -0.005811 0.000000 0.036214 0.000000
# 6 0.000000 0.000000 0.000000 -0.041205 0.000000 0.143846
#
#
# Mechanical properties :
#
#
# Convention : Reuss Voigt Hill
#
# Bulk Modulus (GPa) = 20.52604 46.05962 33.29283
# Shear Modulus (GPa) = 16.19981 33.13806 24.66893
#
# Velocity S-wave (km/s) = 2.52514 3.61156 3.11606
# Velocity P-wave (km/s) = 4.07198 5.95991 5.10399
#
# Compressibility (1/GPa) = 0.04871859
#
# Stress axis : x y z
#
# Youngs Moduli (GPa) = 25.08533 112.10231 89.10898
#
# Poissons Ratio (x) = -0.33749 0.50607
# Poissons Ratio (y) = -0.07552 0.26513
# Poissons Ratio (z) = 0.14247 0.33354
#
# Static dielectric constant tensor:
#      x y z
#    x 2.023670 0.000000 -0.029270 
#    y 0.000000 2.058970 0.000000 
#    z -0.029270 0.000000 2.097690 
# 
# From -- ./inp_files/43637.got.cif
#   From: 2010.05.17/outbox.cif.g08.bks.cpg/sg5_22_cif.got.tgz:43637.got - 2010.06.03 18:56:24.
