data_PCOD9121237
_publ_section_title
;
Structure prediction by ZEFSAII (Michael W. Deem and Ramdas Pophale) SiO2 
 PCOD9121237
Probable space group: C 2
;
_chemical_formula_sum "Si O2"
_cell_formula_units_Z 28
_cell_length_a 17.804337
_cell_length_b 8.677953
_cell_length_c 15.235800
_cell_angle_alpha 90.000000
_cell_angle_beta 30.030792
_cell_angle_gamma 90.000000
_cell_volume 1178.100596
_symmetry_space_group_name_H-M "C 2"
_symmetry_group_IT_number 5
_symmetry_cell_setting 'monoclinic'
loop_
_space_group_symop_operation_xyz
x,y,z
-x,y,-z
1/2+x,1/2+y,z
1/2-x,1/2+y,-z
loop_
_atom_site_type_symbol
_atom_site_label
_atom_site_fract_x
_atom_site_fract_y
_atom_site_fract_z
Si Si1 0.241210 0.918640 0.739911
Si Si2 0.448822 0.429173 0.909923
Si Si3 0.582386 0.967080 0.596453
Si Si4 0.142933 0.157991 0.622108
Si Si5 0.832913 0.073021 0.698483
Si Si6 0.600258 0.878262 0.824980
Si Si7 0.372682 0.083900 0.943218
O O1 0.293081 0.749919 0.717226
O O2 0.099995 0.902492 0.815720
O O3 0.372068 0.997784 0.550150
O O4 0.174764 0.990652 0.896198
O O5 0.502992 0.547395 0.781736
O O6 0.399051 0.266738 0.919593
O O7 0.705642 0.058074 0.531862
O O8 0.422235 0.014260 0.799163
O O9 0.611613 0.783993 0.579553
O O10 0.154980 0.260774 0.697428
O O11 0.000000 0.043641 0.500000
O O12 0.731837 0.965932 0.739631
O O13 0.783477 0.048224 0.849713
O O14 0.490793 0.002359 0.890179
O O15 0.500000 0.795174 0.000000
#
# Coordination Sequence:
#
# PCOD9121237 Si02
#       7
#     4   4   4   4   4   4   4
#     4   9  17  29  52  76 105 132 176 214 263 304
#     4   9  16  30  51  78 108 134 167 216 265 314
#     4  10  19  30  48  79 114 133 169 219 277 313
#     4  10  20  27  50  80 115 139 167 214 279 318
#     4  10  19  34  58  76 101 148 188 214 254 321
#     4   9  18  31  51  82 105 132 180 222 260 306
#     4   9  17  34  53  79 106 135 170 225 268 316
#
# _framework density 23.76707
#
# number of rings (size 3 to 8) (size 9 to 14) (size 15 to 20)
#    0.000    2.571    1.429    1.714    6.000    0.000 
#    0.000    0.000    3.143    3.429    0.000    0.000 
#    0.000    0.000    0.000    0.000    0.000    0.000 
#
# Total GULP energy -78241.719352 kJ/mol
# GULP energy per Si atom -5588.694239 kJ/mol
# Density = 2.371298 g / cm^3
# Si number density = 23.767070 Si / 1000 Ang^3
#
#
#
# Elastic Constant Matrix: (Units=GPa)
#
#
# Indices 1 2 3 4 5 6 
#
# 1 61.0274 3.5089 38.4017 0.0000 -4.1972 0.0000
# 2 3.5089 80.4472 31.2557 0.0000 0.9486 0.0000
# 3 38.4017 31.2557 201.7171 0.0000 21.7566 0.0000
# 4 0.0000 0.0000 0.0000 35.6262 0.0000 14.3342
# 5 -4.1972 0.9486 21.7566 0.0000 19.0182 0.0000
# 6 0.0000 0.0000 0.0000 14.3342 0.0000 2.5726
#
#
#
# Elastic Compliance Matrix: (Units=1/GPa)
#
#
# Indices 1 2 3 4 5 6 
#
# 1 0.020256 0.000983 -0.005117 0.000000 0.010275 0.000000
# 2 0.000983 0.013336 -0.002516 0.000000 0.002430 0.000000
# 3 -0.005117 -0.002516 0.007335 0.000000 -0.009394 0.000000
# 4 0.000000 0.000000 0.000000 -0.022603 0.000000 0.125940
# 5 0.010275 0.002430 -0.009394 0.000000 0.065475 0.000000
# 6 0.000000 0.000000 0.000000 0.125940 0.000000 -0.313012
#
#
# Mechanical properties :
#
#
# Convention : Reuss Voigt Hill
#
# Bulk Modulus (GPa) = 36.19436 54.39159 45.29297
# Shear Modulus (GPa) = -24.18901 29.44510 2.62804
#
# Velocity S-wave (km/s) = -3.19369 3.52362 1.05269
# Velocity P-wave (km/s) = 1.28932 6.28407 4.53607
#
# Compressibility (1/GPa) = 0.02762862
#
# Stress axis : x y z
#
# Youngs Moduli (GPa) = 49.36814 74.98278 136.33983
#
# Poissons Ratio (x) = -0.07373 0.69762
# Poissons Ratio (y) = -0.04855 0.34299
# Poissons Ratio (z) = 0.25261 0.18864
#
# Static dielectric constant tensor:
#      x y z
#    x 1.919510 0.000000 0.022070 
#    y 0.000000 1.884910 0.000000 
#    z 0.022070 0.000000 1.971450 
# 
# From -- ./inp_files/67507.got.cif
#   From: 2010.05.17/outbox.cif.g08.bks.cpg/sg5_34_cif.got.tgz:67507.got - 2010.06.03 18:56:24.
