data_PCOD9121954
_publ_section_title
;
Structure prediction by ZEFSAII (Michael W. Deem and Ramdas Pophale) SiO2 
 PCOD9121954
Probable space group: C 2
;
_chemical_formula_sum "Si O2"
_cell_formula_units_Z 30
_cell_length_a 10.429992
_cell_length_b 13.103618
_cell_length_c 9.341787
_cell_angle_alpha 90.000000
_cell_angle_beta 61.057658
_cell_angle_gamma 90.000000
_cell_volume 1117.291222
_symmetry_space_group_name_H-M "C 2"
_symmetry_group_IT_number 5
_symmetry_cell_setting 'monoclinic'
loop_
_space_group_symop_operation_xyz
x,y,z
-x,y,-z
1/2+x,1/2+y,z
1/2-x,1/2+y,-z
loop_
_atom_site_type_symbol
_atom_site_label
_atom_site_fract_x
_atom_site_fract_y
_atom_site_fract_z
Si Si1 0.229558 0.961110 0.879062
Si Si2 0.745893 0.017097 0.811197
Si Si3 0.072271 0.714473 0.647443
Si Si4 0.141546 0.275768 0.576998
Si Si5 0.000000 0.909105 0.500000
Si Si6 0.726355 0.690637 0.844090
Si Si7 0.807339 0.247394 0.828984
Si Si8 0.562335 0.992847 0.649097
O O1 0.195272 0.842787 0.862371
O O2 0.393621 0.968443 0.732372
O O3 0.168705 0.072494 0.864498
O O4 0.229606 0.964648 0.050722
O O5 0.740055 0.135848 0.850422
O O6 0.602303 0.996747 0.795700
O O7 0.877659 0.980551 0.636879
O O8 0.245168 0.726377 0.596099
O O9 0.052853 0.825979 0.588088
O O10 0.097501 0.601853 0.563585
O O11 0.902953 0.694124 0.786618
O O12 0.200034 0.245722 0.705728
O O13 0.147448 0.396267 0.546259
O O14 0.970080 0.249351 0.671583
O O15 0.655796 0.747704 0.017481
#
# Coordination Sequence:
#
# PCOD9121954 Si02
#       8
#     4   4   4   4   2   4   4   4
#     4   9  20  38  61  88 115 153 200 241 287 347
#     4  11  22  38  61  87 119 157 191 242 297 349
#     4  11  21  36  60  88 113 151 199 242 281 355
#     4  11  20  37  59  86 117 155 193 242 291 346
#     4  12  22  38  60  82 120 160 192 238 300 356
#     4  10  19  37  62  87 115 159 199 235 291 355
#     4  10  22  36  59  90 120 148 197 247 289 341
#     4  10  21  37  61  84 116 152 203 234 291 347
#
# _framework density 26.850652
#
# number of rings (size 3 to 8) (size 9 to 14) (size 15 to 20)
#    0.000    1.600    2.667    2.400    1.867    2.133 
#    0.000    2.667    2.933    8.000    0.000    0.000 
#    0.000    0.000    0.000    0.000    0.000    0.000 
#
# Total GULP energy -83638.178601 kJ/mol
# GULP energy per Si atom -5575.878573 kJ/mol
# Density = 2.678954 g / cm^3
# Si number density = 26.850652 Si / 1000 Ang^3
#
#
#
# Elastic Constant Matrix: (Units=GPa)
#
#
# Indices 1 2 3 4 5 6 
#
# 1 78.7193 -4.2615 31.3385 0.0000 -20.4669 0.0000
# 2 -4.2615 161.0834 43.9171 0.0000 -14.4032 0.0000
# 3 31.3385 43.9171 104.3849 0.0000 9.0446 0.0000
# 4 0.0000 0.0000 0.0000 26.3783 0.0000 -1.3199
# 5 -20.4669 -14.4032 9.0446 0.0000 45.0835 0.0000
# 6 0.0000 0.0000 0.0000 -1.3199 0.0000 26.2997
#
#
#
# Elastic Compliance Matrix: (Units=1/GPa)
#
#
# Indices 1 2 3 4 5 6 
#
# 1 0.019307 0.003854 -0.008431 0.000000 0.011688 0.000000
# 2 0.003854 0.008170 -0.005060 0.000000 0.005375 0.000000
# 3 -0.008431 -0.005060 0.014972 0.000000 -0.008448 0.000000
# 4 0.000000 0.000000 0.000000 0.038005 0.000000 0.001907
# 5 0.011688 0.005375 -0.008448 0.000000 0.030899 0.000000
# 6 0.000000 0.000000 0.000000 0.001907 0.000000 0.038119
#
#
# Mechanical properties :
#
#
# Convention : Reuss Voigt Hill
#
# Bulk Modulus (GPa) = 43.14819 54.01955 48.58387
# Shear Modulus (GPa) = 28.33325 37.76521 33.04923
#
# Velocity S-wave (km/s) = 3.25193 3.75439 3.51216
# Velocity P-wave (km/s) = 5.49588 6.24148 5.88051
#
# Compressibility (1/GPa) = 0.02317594
#
# Stress axis : x y z
#
# Youngs Moduli (GPa) = 51.79436 122.39676 66.79171
#
# Poissons Ratio (x) = -0.47176 0.56310
# Poissons Ratio (y) = -0.19963 0.33798
# Poissons Ratio (z) = 0.43666 0.61936
#
# Static dielectric constant tensor:
#      x y z
#    x 2.293670 0.000000 0.116990 
#    y 0.000000 2.057800 0.000000 
#    z 0.116990 0.000000 2.146370 
# 
# From -- ./inp_files/42666.got.cif
#   From: 2010.05.17/outbox.cif.g08.bks.cpg/sg5_22_cif.got.tgz:42666.got - 2010.06.03 18:56:24.
