data_PCOD9121425
_publ_section_title
;
Structure prediction by ZEFSAII (Michael W. Deem and Ramdas Pophale) SiO2 
 PCOD9121425
Probable space group: C 2
;
_chemical_formula_sum "Si O2"
_cell_formula_units_Z 22
_cell_length_a 8.045696
_cell_length_b 25.758222
_cell_length_c 6.863348
_cell_angle_alpha 90.000000
_cell_angle_beta 40.733983
_cell_angle_gamma 90.000000
_cell_volume 928.170905
_symmetry_space_group_name_H-M "C 2"
_symmetry_group_IT_number 5
_symmetry_cell_setting 'monoclinic'
loop_
_space_group_symop_operation_xyz
x,y,z
-x,y,-z
1/2+x,1/2+y,z
1/2-x,1/2+y,-z
loop_
_atom_site_type_symbol
_atom_site_label
_atom_site_fract_x
_atom_site_fract_y
_atom_site_fract_z
Si Si1 0.000000 0.270751 0.500000
Si Si2 0.046364 0.929475 0.689118
Si Si3 0.242771 0.207088 0.628356
Si Si4 0.062851 0.048725 0.162051
Si Si5 0.941228 0.366749 0.821692
Si Si6 0.572891 0.091464 0.645932
O O1 0.172375 0.234828 0.486970
O O2 0.089876 0.311828 0.256972
O O3 0.328615 0.904328 0.460458
O O4 0.000000 0.930036 0.500000
O O5 0.953670 0.986808 0.833911
O O6 0.829912 0.892949 0.965528
O O7 0.500000 0.230487 0.500000
O O8 0.336922 0.149690 0.478384
O O9 0.000000 0.205856 0.000000
O O10 0.816528 0.061977 0.505966
O O11 0.000000 0.069450 0.000000
O O12 0.317349 0.079723 0.988363
O O13 0.000000 0.359012 0.000000
O O14 0.500000 0.066607 0.500000
#
# Coordination Sequence:
#
# PCOD9121425 Si02
#       6
#     2   4   4   4   4   4
#     4  12  28  46  78 108 138 196 246 298 368 420
#     4  10  22  41  62  94 139 182 223 287 356 413
#     4  11  25  47  74 103 148 187 239 301 361 427
#     4  10  19  33  64  93 127 174 230 271 343 418
#     4  10  24  43  65  98 141 181 232 293 353 423
#     4   9  18  37  62  93 129 177 219 280 344 416
#
# _framework density 23.702532999999999
#
# number of rings (size 3 to 8) (size 9 to 14) (size 15 to 20)
#    0.000    1.818    0.000    4.364    2.545    5.818 
#    1.636    0.000    8.000    0.000    0.000    0.000 
#    0.000    0.000    0.000    0.000    0.000    0.000 
#
# Total GULP energy -61290.648385 kJ/mol
# GULP energy per Si atom -5571.877126 kJ/mol
# Density = 2.364859 g / cm^3
# Si number density = 23.702533 Si / 1000 Ang^3
#
#
#
# Elastic Constant Matrix: (Units=GPa)
#
#
# Indices 1 2 3 4 5 6 
#
# 1 143.1741 44.5394 62.1992 0.0000 -13.5134 0.0000
# 2 44.5394 123.2148 45.7810 0.0000 -18.9610 0.0000
# 3 62.1992 45.7810 167.1835 0.0000 -26.5548 0.0000
# 4 0.0000 0.0000 0.0000 33.1929 0.0000 19.7783
# 5 -13.5134 -18.9610 -26.5548 0.0000 51.9833 0.0000
# 6 0.0000 0.0000 0.0000 19.7783 0.0000 27.0416
#
#
#
# Elastic Compliance Matrix: (Units=1/GPa)
#
#
# Indices 1 2 3 4 5 6 
#
# 1 0.008835 -0.002181 -0.002668 0.000000 0.000138 0.000000
# 2 -0.002181 0.009813 -0.001521 0.000000 0.002236 0.000000
# 3 -0.002668 -0.001521 0.007827 0.000000 0.002750 0.000000
# 4 0.000000 0.000000 0.000000 0.053399 0.000000 -0.039056
# 5 0.000138 0.002236 0.002750 0.000000 0.021493 0.000000
# 6 0.000000 0.000000 0.000000 -0.039056 0.000000 0.065545
#
#
# Mechanical properties :
#
#
# Convention : Reuss Voigt Hill
#
# Bulk Modulus (GPa) = 72.79888 82.06795 77.43342
# Shear Modulus (GPa) = 27.13983 41.18042 34.16013
#
# Velocity S-wave (km/s) = 3.38748 4.17272 3.80043
# Velocity P-wave (km/s) = 6.78825 7.61017 7.21093
#
# Compressibility (1/GPa) = 0.01373647
#
# Stress axis : x y z
#
# Youngs Moduli (GPa) = 113.18565 101.90153 127.75930
#
# Poissons Ratio (x) = 0.22226 0.34083
# Poissons Ratio (y) = 0.24688 0.19428
# Poissons Ratio (z) = 0.30195 0.15496
#
# Static dielectric constant tensor:
#      x y z
#    x 1.927260 0.000000 0.015500 
#    y 0.000000 1.922510 0.000000 
#    z 0.015500 0.000000 1.997510 
# 
# From -- ./inp_files/17625.got.cif
#   From: 2010.05.17/outbox.cif.g08.bks.cpg/sg5_9_cif.got.tgz:17625.got - 2010.06.03 18:56:24.
