data_PCOD9121930
_publ_section_title
;
Structure prediction by ZEFSAII (Michael W. Deem and Ramdas Pophale) SiO2 
 PCOD9121930
Probable space group: C 2
;
_chemical_formula_sum "Si O2"
_cell_formula_units_Z 30
_cell_length_a 17.246589
_cell_length_b 9.367914
_cell_length_c 19.888315
_cell_angle_alpha 90.000000
_cell_angle_beta 24.369464
_cell_angle_gamma 90.000000
_cell_volume 1325.846789
_symmetry_space_group_name_H-M "C 2"
_symmetry_group_IT_number 5
_symmetry_cell_setting 'monoclinic'
loop_
_space_group_symop_operation_xyz
x,y,z
-x,y,-z
1/2+x,1/2+y,z
1/2-x,1/2+y,-z
loop_
_atom_site_type_symbol
_atom_site_label
_atom_site_fract_x
_atom_site_fract_y
_atom_site_fract_z
Si Si1 0.726677 0.926510 0.387200
Si Si2 0.000000 0.390607 0.000000
Si Si3 0.787704 0.584775 0.846697
Si Si4 0.015932 0.862749 0.270664
Si Si5 0.226477 0.102617 0.147819
Si Si6 0.286995 0.860051 0.741640
Si Si7 0.147756 0.337371 0.102159
Si Si8 0.607957 0.712611 0.795404
O O1 0.510816 0.883329 0.561616
O O2 0.804958 0.847460 0.258763
O O3 0.831010 0.879559 0.372091
O O4 0.753957 0.092431 0.343525
O O5 0.889270 0.489124 0.035028
O O6 0.863626 0.296368 0.156307
O O7 0.934991 0.715755 0.729850
O O8 0.729177 0.504797 0.824818
O O9 0.869019 0.461528 0.830048
O O10 0.593877 0.637929 0.031806
O O11 0.042363 0.002049 0.295862
O O12 0.185048 0.873458 0.081694
O O13 0.248574 0.221175 0.187205
O O14 0.209940 0.193548 0.092505
O O15 0.951575 0.317104 0.218325
#
# Coordination Sequence:
#
# PCOD9121930 Si02
#       8
#     4   2   4   4   4   4   4   4
#     4  11  23  43  64  84 128 171 215 254 315 385
#     4  12  24  34  66 106 138 152 208 276 330 364
#     4  10  20  38  63  94 125 157 213 261 317 377
#     4  11  20  37  64  90 128 159 209 264 318 377
#     4  11  23  39  60  98 132 162 206 267 322 377
#     4  10  26  42  61  87 127 171 215 256 314 379
#     4  10  19  37  60  97 125 160 204 261 321 374
#     4  11  21  37  67  96 125 164 207 268 321 371
#
# _framework density 22.627047999999998
#
# number of rings (size 3 to 8) (size 9 to 14) (size 15 to 20)
#    0.000    1.333    5.333    1.600    1.867    1.067 
#    0.000    0.000    5.867    0.000    0.000    0.000 
#    0.000    0.000    0.000    0.000    0.000    0.000 
#
# Total GULP energy -83728.867520 kJ/mol
# GULP energy per Si atom -5581.924501 kJ/mol
# Density = 2.257555 g / cm^3
# Si number density = 22.627048 Si / 1000 Ang^3
#
#
#
# Elastic Constant Matrix: (Units=GPa)
#
#
# Indices 1 2 3 4 5 6 
#
# 1 92.3610 28.6139 -5.9807 -0.0003 -8.0644 0.0008
# 2 28.6139 121.4765 4.2978 -0.0011 -0.2340 0.0013
# 3 -5.9807 4.2978 15.1178 -0.0011 -4.2892 0.0020
# 4 -0.0003 -0.0011 -0.0011 -14.8926 0.0005 -15.2814
# 5 -8.0644 -0.2340 -4.2892 0.0005 21.6880 -0.0002
# 6 0.0008 0.0013 0.0020 -15.2814 -0.0002 38.5775
#
#
#
# Elastic Compliance Matrix: (Units=1/GPa)
#
#
# Indices 1 2 3 4 5 6 
#
# 1 0.012910 -0.003306 0.007839 0.000000 0.006315 0.000000
# 2 -0.003306 0.009166 -0.004486 0.000000 -0.002018 0.000000
# 3 0.007839 -0.004486 0.075578 -0.000001 0.017813 -0.000004
# 4 0.000000 0.000000 -0.000001 -0.047742 0.000001 -0.018912
# 5 0.006315 -0.002018 0.017813 0.000001 0.051958 0.000000
# 6 0.000000 0.000000 -0.000004 -0.018912 0.000000 0.018431
#
#
# Mechanical properties :
#
#
# Convention : Reuss Voigt Hill
#
# Bulk Modulus (GPa) = 10.23044 31.42414 20.82729
# Shear Modulus (GPa) = 32.72481 22.54286 27.63384
#
# Velocity S-wave (km/s) = 3.80711 3.15981 3.49847
# Velocity P-wave (km/s) = 4.88432 5.21829 5.05407
#
# Compressibility (1/GPa) = 0.09774746
#
# Stress axis : x y z
#
# Youngs Moduli (GPa) = 77.45704 109.10287 13.23138
#
# Poissons Ratio (x) = 0.36072 -0.10372
# Poissons Ratio (y) = 0.25609 0.05936
# Poissons Ratio (z) = -0.60719 0.48945
#
# Static dielectric constant tensor:
#      x y z
#    x 1.946760 0.000000 0.053660 
#    y 0.000000 1.884240 0.000000 
#    z 0.053660 0.000000 1.860720 
# 
# From -- ./inp_files/66565.got.cif
#   From: 2010.05.17/outbox.cif.g08.bks.cpg/sg5_34_cif.got.tgz:66565.got - 2010.06.03 18:56:24.
