data_PCOD9121586
_publ_section_title
;
Structure prediction by ZEFSAII (Michael W. Deem and Ramdas Pophale) SiO2 
 PCOD9121586
Probable space group: C 2
;
_chemical_formula_sum "Si O2"
_cell_formula_units_Z 28
_cell_length_a 5.191198
_cell_length_b 21.568907
_cell_length_c 12.591295
_cell_angle_alpha 90.000000
_cell_angle_beta 100.767369
_cell_angle_gamma 90.000000
_cell_volume 1385.006296
_symmetry_space_group_name_H-M "C 2"
_symmetry_group_IT_number 5
_symmetry_cell_setting 'monoclinic'
loop_
_space_group_symop_operation_xyz
x,y,z
-x,y,-z
1/2+x,1/2+y,z
1/2-x,1/2+y,-z
loop_
_atom_site_type_symbol
_atom_site_label
_atom_site_fract_x
_atom_site_fract_y
_atom_site_fract_z
Si Si1 0.499178 0.264260 0.788886
Si Si2 0.452315 0.518497 0.872404
Si Si3 0.724298 0.896890 0.440450
Si Si4 0.468993 0.822787 0.117766
Si Si5 0.768757 0.757373 0.537806
Si Si6 0.776460 0.647533 0.071740
Si Si7 0.427636 0.953114 0.795669
O O1 0.783856 0.295287 0.799215
O O2 0.346725 0.266999 0.665414
O O3 0.572894 0.197212 0.843068
O O4 0.307206 0.300939 0.854810
O O5 0.341875 0.588601 0.874347
O O6 0.716706 0.500812 0.829224
O O7 0.210871 0.483034 0.800623
O O8 0.500000 0.499848 0.000000
O O9 0.500000 0.920893 0.500000
O O10 0.735746 0.822183 0.466962
O O11 0.672602 0.919426 0.318431
O O12 0.000000 0.921604 0.500000
O O13 0.511215 0.896066 0.122299
O O14 0.500000 0.801818 0.000000
O O15 0.500000 0.723082 0.500000
O O16 0.000000 0.721342 0.500000
O O17 0.500000 0.672209 0.000000
O O18 0.000000 0.629967 0.000000
#
# Coordination Sequence:
#
# PCOD9121586 Si02
#       7
#     4   4   4   4   4   4   4
#     4  12  23  39  62  90 126 166 209 259 320 387
#     4  11  23  41  62  89 124 167 215 263 313 374
#     4  10  19  35  56  83 117 156 202 249 305 374
#     4  12  23  35  55  91 132 162 194 250 326 398
#     4  10  20  36  56  83 117 157 204 248 304 375
#     4  11  23  42  66  92 126 170 221 268 315 380
#     4  12  23  38  61  90 125 166 212 259 318 386
#
# _framework density 20.216515999999999
#
# number of rings (size 3 to 8) (size 9 to 14) (size 15 to 20)
#    0.000    0.857    0.000   11.571    0.000    0.000 
#    0.000    0.000    0.000    3.429    0.000    0.000 
#    0.000    0.000    0.000    0.000    0.000    0.000 
#
# Total GULP energy -78064.504938 kJ/mol
# GULP energy per Si atom -5576.036067 kJ/mol
# Density = 2.017050 g / cm^3
# Si number density = 20.216516 Si / 1000 Ang^3
#
#
#
# Elastic Constant Matrix: (Units=GPa)
#
#
# Indices 1 2 3 4 5 6 
#
# 1 142.5649 16.3867 19.6433 0.0000 7.3826 0.0000
# 2 16.3867 88.2008 21.4427 0.0000 2.8383 0.0000
# 3 19.6433 21.4427 115.2287 0.0000 9.9065 0.0000
# 4 0.0000 0.0000 0.0000 19.4970 0.0000 6.8801
# 5 7.3826 2.8383 9.9065 0.0000 40.8692 0.0000
# 6 0.0000 0.0000 0.0000 6.8801 0.0000 22.1959
#
#
#
# Elastic Compliance Matrix: (Units=1/GPa)
#
#
# Indices 1 2 3 4 5 6 
#
# 1 0.007325 -0.001095 -0.000958 0.000000 -0.001015 0.000000
# 2 -0.001095 0.012042 -0.002042 0.000000 -0.000144 0.000000
# 3 -0.000958 -0.002042 0.009390 0.000000 -0.001961 0.000000
# 4 0.000000 0.000000 0.000000 0.057589 0.000000 -0.017851
# 5 -0.001015 -0.000144 -0.001961 0.000000 0.025137 0.000000
# 6 0.000000 0.000000 0.000000 -0.017851 0.000000 0.050587
#
#
# Mechanical properties :
#
#
# Convention : Reuss Voigt Hill
#
# Bulk Modulus (GPa) = 48.62010 51.21554 49.91782
# Shear Modulus (GPa) = 28.23010 35.74718 31.98864
#
# Velocity S-wave (km/s) = 3.74088 4.20958 3.98213
# Velocity P-wave (km/s) = 6.53918 7.00114 6.77410
#
# Compressibility (1/GPa) = 0.02056763
#
# Stress axis : x y z
#
# Youngs Moduli (GPa) = 136.52334 83.04058 106.49379
#
# Poissons Ratio (x) = 0.09096 0.10198
# Poissons Ratio (y) = 0.14955 0.21745
# Poissons Ratio (z) = 0.13073 0.16956
#
# Static dielectric constant tensor:
#      x y z
#    x 1.735380 0.000000 0.005410 
#    y 0.000000 1.764740 0.000000 
#    z 0.005410 0.000000 1.781740 
# 
# From -- ./inp_files/33990.got.cif
#   From: 2010.05.17/outbox.cif.g08.bks.cpg/sg5_17_cif.got.tgz:33990.got - 2010.06.03 18:56:24.
