data_PCOD9121428
_publ_section_title
;
Structure prediction by ZEFSAII (Michael W. Deem and Ramdas Pophale) SiO2 
 PCOD9121428
Probable space group: C 2
;
_chemical_formula_sum "Si O2"
_cell_formula_units_Z 32
_cell_length_a 19.741035
_cell_length_b 6.873289
_cell_length_c 11.298026
_cell_angle_alpha 90.000000
_cell_angle_beta 121.703090
_cell_angle_gamma 90.000000
_cell_volume 1304.234785
_symmetry_space_group_name_H-M "C 2"
_symmetry_group_IT_number 5
_symmetry_cell_setting 'monoclinic'
loop_
_space_group_symop_operation_xyz
x,y,z
-x,y,-z
1/2+x,1/2+y,z
1/2-x,1/2+y,-z
loop_
_atom_site_type_symbol
_atom_site_label
_atom_site_fract_x
_atom_site_fract_y
_atom_site_fract_z
Si Si1 0.813209 0.861230 0.577297
Si Si2 0.003067 0.419100 0.374217
Si Si3 0.851739 0.547156 0.917701
Si Si4 0.667435 0.064412 0.850305
Si Si5 0.928007 0.860671 0.113191
Si Si6 0.686619 0.476077 0.169212
Si Si7 0.639960 0.916515 0.327440
Si Si8 0.454723 0.369878 0.574957
O O1 0.824881 0.997827 0.702374
O O2 0.850178 0.651644 0.644917
O O3 0.863585 0.928654 0.509682
O O4 0.721073 0.842741 0.461953
O O5 0.062121 0.343840 0.326395
O O6 0.038151 0.635980 0.426564
O O7 0.000000 0.324424 0.500000
O O8 0.911386 0.445861 0.256207
O O9 0.802585 0.740196 0.835426
O O10 0.861953 0.404762 0.817542
O O11 0.810726 0.475871 0.000820
O O12 0.933140 0.657854 0.040630
O O13 0.637201 0.282956 0.852033
O O14 0.734632 0.064495 0.814209
O O15 0.001069 0.919577 0.260359
O O16 0.889592 0.010181 0.985955
O O17 0.500000 0.436498 0.500000
#
# Coordination Sequence:
#
# PCOD9121428 Si02
#       8
#     4   4   4   4   4   4   4   4
#     4  10  20  32  52  74 103 136 169 211 255 304
#     4   9  16  26  46  71  95 122 165 212 250 282
#     4   7  17  29  44  72  98 131 162 210 256 297
#     4   8  14  27  44  67  94 122 161 207 245 290
#     4   7  16  29  46  71  98 127 164 215 250 292
#     4   8  15  29  46  69  99 128 166 202 253 304
#     4  10  19  34  49  75 105 135 168 212 256 305
#     4   9  17  30  46  75 100 127 170 215 254 292
#
# _framework density 24.535461000000002
#
# number of rings (size 3 to 8) (size 9 to 14) (size 15 to 20)
#    1.500    1.750    0.000    0.750    0.000    3.000 
#    4.500    0.000    0.000    6.750    0.000    1.750 
#    0.000    0.000    0.000    0.000    0.000    0.000 
#
# Total GULP energy -89096.320686 kJ/mol
# GULP energy per Si atom -5568.520043 kJ/mol
# Density = 2.447962 g / cm^3
# Si number density = 24.535461 Si / 1000 Ang^3
#
#
#
# Elastic Constant Matrix: (Units=GPa)
#
#
# Indices 1 2 3 4 5 6 
#
# 1 131.2307 -2.0569 27.4128 0.0000 -23.6812 0.0000
# 2 -2.0569 63.8704 -3.3096 0.0000 -7.0693 0.0000
# 3 27.4128 -3.3096 59.7995 0.0000 -16.3426 0.0000
# 4 0.0000 0.0000 0.0000 -9.5283 0.0000 21.9456
# 5 -23.6812 -7.0693 -16.3426 0.0000 26.7997 0.0000
# 6 0.0000 0.0000 0.0000 21.9456 0.0000 -3.4579
#
#
#
# Elastic Compliance Matrix: (Units=1/GPa)
#
#
# Indices 1 2 3 4 5 6 
#
# 1 0.009410 0.000977 -0.002300 0.000000 0.007170 0.000000
# 2 0.000977 0.016538 0.002275 0.000000 0.006613 0.000000
# 3 -0.002300 0.002275 0.021013 0.000000 0.011382 0.000000
# 4 0.000000 0.000000 0.000000 0.007707 0.000000 0.048913
# 5 0.007170 0.006613 0.011382 0.000000 0.052335 0.000000
# 6 0.000000 0.000000 0.000000 0.048913 0.000000 0.021237
#
#
# Mechanical properties :
#
#
# Convention : Reuss Voigt Hill
#
# Bulk Modulus (GPa) = 20.46443 33.22147 26.84295
# Shear Modulus (GPa) = 35.05711 18.28633 26.67172
#
# Velocity S-wave (km/s) = 3.78409 2.73298 3.30065
# Velocity P-wave (km/s) = 5.23940 4.85062 5.04876
#
# Compressibility (1/GPa) = 0.04886527
#
# Stress axis : x y z
#
# Youngs Moduli (GPa) = 106.27202 60.46681 47.58899
#
# Poissons Ratio (x) = -0.05910 0.10945
# Poissons Ratio (y) = -0.10388 -0.10824
# Poissons Ratio (z) = 0.24442 -0.13753
#
# Static dielectric constant tensor:
#      x y z
#    x 1.971450 0.000000 -0.025870 
#    y 0.000000 2.066780 0.000000 
#    z -0.025870 0.000000 2.030220 
# 
# From -- ./inp_files/44514.got.cif
#   From: 2010.05.17/outbox.cif.g08.bks.cpg/sg5_23_cif.got.tgz:44514.got - 2010.06.03 18:56:24.
