data_PCOD9121697
_publ_section_title
;
Structure prediction by ZEFSAII (Michael W. Deem and Ramdas Pophale) SiO2 
 PCOD9121697
Probable space group: C 2
;
_chemical_formula_sum "Si O2"
_cell_formula_units_Z 30
_cell_length_a 14.003487
_cell_length_b 18.371527
_cell_length_c 11.425655
_cell_angle_alpha 90.000000
_cell_angle_beta 147.771362
_cell_angle_gamma 90.000000
_cell_volume 1567.593500
_symmetry_space_group_name_H-M "C 2"
_symmetry_group_IT_number 5
_symmetry_cell_setting 'monoclinic'
loop_
_space_group_symop_operation_xyz
x,y,z
-x,y,-z
1/2+x,1/2+y,z
1/2-x,1/2+y,-z
loop_
_atom_site_type_symbol
_atom_site_label
_atom_site_fract_x
_atom_site_fract_y
_atom_site_fract_z
Si Si1 0.032599 0.534060 0.397255
Si Si2 0.566162 0.908541 0.872048
Si Si3 0.789002 0.111861 0.043603
Si Si4 0.790242 0.531547 0.818028
Si Si5 0.861929 0.249784 0.968231
Si Si6 0.557624 0.504356 0.192499
Si Si7 0.000000 0.799350 0.500000
Si Si8 0.158242 0.923382 0.506918
O O1 0.244900 0.540317 0.597516
O O2 0.000000 0.539477 0.500000
O O3 0.965301 0.454906 0.279002
O O4 0.915131 0.593742 0.207589
O O5 0.368809 0.907136 0.723360
O O6 0.624542 0.825925 0.946996
O O7 0.693247 0.960429 0.080823
O O8 0.786516 0.095656 0.180067
O O9 0.908907 0.052530 0.100808
O O10 0.863093 0.186169 0.065692
O O11 0.665460 0.501175 0.583869
O O12 0.000000 0.546893 0.000000
O O13 0.666586 0.250736 0.708092
O O14 0.000000 0.244410 0.000000
O O15 0.581422 0.434142 0.298316
O O16 0.500000 0.491000 0.000000
O O17 0.938485 0.856097 0.535140
#
# Coordination Sequence:
#
# PCOD9121697 Si02
#       8
#     4   4   4   4   4   4   2   4
#     4  10  21  37  60  86 117 160 208 247 297 355
#     4   9  18  38  60  86 119 152 195 256 303 346
#     4  11  24  37  60  89 123 164 194 246 312 364
#     4   9  17  38  66  91 116 152 203 260 302 347
#     4  12  24  38  55  89 132 158 197 248 309 364
#     4  11  22  36  59  94 124 154 200 254 300 361
#     4  12  22  34  62  90 116 160 206 246 298 364
#     4  10  19  35  64  92 112 148 207 257 299 348
#
# _framework density 19.137613999999999
#
# number of rings (size 3 to 8) (size 9 to 14) (size 15 to 20)
#    0.000    1.600    4.000    2.400    2.800    0.000 
#    0.000    0.000    2.933    2.400    0.000    0.000 
#    0.000    0.000    0.000    0.000    0.000    0.000 
#
# Total GULP energy -83625.396497 kJ/mol
# GULP energy per Si atom -5575.026433 kJ/mol
# Density = 1.909406 g / cm^3
# Si number density = 19.137614 Si / 1000 Ang^3
#
#
#
# Elastic Constant Matrix: (Units=GPa)
#
#
# Indices 1 2 3 4 5 6 
#
# 1 59.0002 16.2187 3.8489 0.0000 -8.1782 0.0000
# 2 16.2187 57.9958 2.3144 0.0000 1.6539 0.0000
# 3 3.8489 2.3144 75.2164 0.0000 -5.3253 0.0000
# 4 0.0000 0.0000 0.0000 3.4945 0.0000 4.8385
# 5 -8.1782 1.6539 -5.3253 0.0000 27.1262 0.0000
# 6 0.0000 0.0000 0.0000 4.8385 0.0000 16.0525
#
#
#
# Elastic Compliance Matrix: (Units=1/GPa)
#
#
# Indices 1 2 3 4 5 6 
#
# 1 0.019351 -0.005570 -0.000387 0.000000 0.006098 0.000000
# 2 -0.005570 0.018904 -0.000504 0.000000 -0.002931 0.000000
# 3 -0.000387 -0.000504 0.013512 0.000000 0.002567 0.000000
# 4 0.000000 0.000000 0.000000 0.491138 0.000000 -0.148037
# 5 0.006098 -0.002931 0.002567 0.000000 0.039386 0.000000
# 6 0.000000 0.000000 0.000000 -0.148037 0.000000 0.106916
#
#
# Mechanical properties :
#
#
# Convention : Reuss Voigt Hill
#
# Bulk Modulus (GPa) = 25.74380 26.33072 26.03726
# Shear Modulus (GPa) = 6.99225 20.65666 13.82446
#
# Velocity S-wave (km/s) = 1.91353 3.28895 2.69061
# Velocity P-wave (km/s) = 4.28524 5.31144 4.82570
#
# Compressibility (1/GPa) = 0.03884430
#
# Stress axis : x y z
#
# Youngs Moduli (GPa) = 51.67774 52.89890 74.00826
#
# Poissons Ratio (x) = 0.29464 0.02865
# Poissons Ratio (y) = 0.28784 0.03731
# Poissons Ratio (z) = 0.02000 0.02667
#
# Static dielectric constant tensor:
#      x y z
#    x 1.716830 0.000000 0.015660 
#    y 0.000000 1.667500 0.000000 
#    z 0.015660 0.000000 1.725430 
# 
# From -- ./inp_files/43338.got.cif
#   From: 2010.05.17/outbox.cif.g08.bks.cpg/sg5_22_cif.got.tgz:43338.got - 2010.06.03 18:56:24.
