data_PCOD9121610
_publ_section_title
;
Structure prediction by ZEFSAII (Michael W. Deem and Ramdas Pophale) SiO2 
 PCOD9121610
Probable space group: C 2
;
_chemical_formula_sum "Si O2"
_cell_formula_units_Z 24
_cell_length_a 12.717674
_cell_length_b 10.691878
_cell_length_c 17.574556
_cell_angle_alpha 90.000000
_cell_angle_beta 151.008063
_cell_angle_gamma 90.000000
_cell_volume 1158.262507
_symmetry_space_group_name_H-M "C 2"
_symmetry_group_IT_number 5
_symmetry_cell_setting 'monoclinic'
loop_
_space_group_symop_operation_xyz
x,y,z
-x,y,-z
1/2+x,1/2+y,z
1/2-x,1/2+y,-z
loop_
_atom_site_type_symbol
_atom_site_label
_atom_site_fract_x
_atom_site_fract_y
_atom_site_fract_z
Si Si1 0.399247 0.444920 0.721767
Si Si2 0.409145 0.755860 0.285100
Si Si3 0.319150 0.112397 0.543040
Si Si4 0.696267 0.160033 0.302167
Si Si5 0.150730 0.551650 0.028973
Si Si6 0.220756 0.031705 0.187030
O O1 0.262775 0.506956 0.567439
O O2 0.355850 0.298851 0.701313
O O3 0.653084 0.463978 0.869169
O O4 0.335507 0.514470 0.759748
O O5 0.659711 0.729401 0.424444
O O6 0.363225 0.693647 0.339444
O O7 0.262050 0.675353 0.134936
O O8 0.323053 0.896495 0.228777
O O9 0.269189 0.080319 0.599549
O O10 0.578056 0.126242 0.697805
O O11 0.497000 0.094453 0.133659
O O12 0.000000 0.496842 0.000000
O O13 0.000000 0.055715 0.000000
#
# Coordination Sequence:
#
# PCOD9121610 Si02
#       6
#     4   4   4   4   4   4
#     4  10  21  37  56  84 117 152 194 240 287 348
#     4   9  19  36  58  82 110 147 195 241 288 345
#     4  11  21  32  54  83 114 148 190 238 285 333
#     4  10  19  35  58  82 112 152 193 236 287 349
#     4   9  18  35  59  85 113 147 191 243 292 342
#     4  11  21  37  61  86 112 152 199 242 288 347
#
# _framework density 20.720690999999999
#
# number of rings (size 3 to 8) (size 9 to 14) (size 15 to 20)
#    0.000    2.000    0.000    5.500    0.000    2.667 
#    0.000    2.500    0.000   38.000    0.000    0.000 
#    0.000    0.000    0.000    0.000    0.000    0.000 
#
# Total GULP energy -66960.953104 kJ/mol
# GULP energy per Si atom -5580.079425 kJ/mol
# Density = 2.067353 g / cm^3
# Si number density = 20.720691 Si / 1000 Ang^3
#
#
#
# Elastic Constant Matrix: (Units=GPa)
#
#
# Indices 1 2 3 4 5 6 
#
# 1 70.4290 34.1717 63.4846 0.0009 -3.4241 0.0001
# 2 34.1717 27.0523 37.3686 -0.0003 0.9519 0.0001
# 3 63.4846 37.3686 149.5970 0.0021 18.0802 0.0008
# 4 0.0009 -0.0003 0.0021 16.2904 0.0005 4.1911
# 5 -3.4241 0.9519 18.0802 0.0005 52.7072 0.0001
# 6 0.0001 0.0001 0.0008 4.1911 0.0001 30.7588
#
#
#
# Elastic Compliance Matrix: (Units=1/GPa)
#
#
# Indices 1 2 3 4 5 6 
#
# 1 0.042634 -0.042791 -0.008171 -0.000002 0.006345 0.000000
# 2 -0.042791 0.100202 -0.006589 0.000005 -0.002329 -0.000001
# 3 -0.008171 -0.006589 0.012360 -0.000001 -0.004652 0.000000
# 4 -0.000002 0.000005 -0.000001 0.063616 0.000000 -0.008668
# 5 0.006345 -0.002329 -0.004652 0.000000 0.021023 0.000000
# 6 0.000000 -0.000001 0.000000 -0.008668 0.000000 0.033692
#
#
# Mechanical properties :
#
#
# Convention : Reuss Voigt Hill
#
# Bulk Modulus (GPa) = 24.94106 57.45869 41.19987
# Shear Modulus (GPa) = 12.43801 27.42151 19.92976
#
# Velocity S-wave (km/s) = 2.45270 3.64179 3.10470
# Velocity P-wave (km/s) = 4.48151 6.74342 5.72528
#
# Compressibility (1/GPa) = 0.04009452
#
# Stress axis : x y z
#
# Youngs Moduli (GPa) = 23.45533 9.97983 80.90561
#
# Poissons Ratio (x) = 0.42705 0.66104
# Poissons Ratio (y) = 1.00368 0.53309
# Poissons Ratio (z) = 0.19164 0.06576
#
# Static dielectric constant tensor:
#      x y z
#    x 1.774970 0.000000 0.010860 
#    y 0.000000 1.719230 0.000000 
#    z 0.010860 0.000000 1.789810 
# 
# From -- ./inp_files/19262.got.cif
#   From: 2010.05.17/outbox.cif.g08.bks.cpg/sg5_10_cif.got.tgz:19262.got - 2010.06.03 18:56:24.
