data_PCOD9121761
_publ_section_title
;
Structure prediction by ZEFSAII (Michael W. Deem and Ramdas Pophale) SiO2 
 PCOD9121761
Probable space group: C 2
;
_chemical_formula_sum "Si O2"
_cell_formula_units_Z 28
_cell_length_a 30.454297
_cell_length_b 9.936199
_cell_length_c 5.290551
_cell_angle_alpha 90.000000
_cell_angle_beta 58.447241
_cell_angle_gamma 90.000000
_cell_volume 1364.238292
_symmetry_space_group_name_H-M "C 2"
_symmetry_group_IT_number 5
_symmetry_cell_setting 'monoclinic'
loop_
_space_group_symop_operation_xyz
x,y,z
-x,y,-z
1/2+x,1/2+y,z
1/2-x,1/2+y,-z
loop_
_atom_site_type_symbol
_atom_site_label
_atom_site_fract_x
_atom_site_fract_y
_atom_site_fract_z
Si Si1 0.821748 0.413670 0.345053
Si Si2 0.390202 0.057151 0.469309
Si Si3 0.688492 0.249908 0.094386
Si Si4 0.799468 0.171754 0.721350
Si Si5 0.791047 0.918560 0.475174
Si Si6 0.610961 0.767909 0.245518
Si Si7 0.500000 0.810956 0.500000
Si Si8 0.500000 0.997540 0.000000
O O1 0.849919 0.545650 0.358198
O O2 0.800545 0.327952 0.642180
O O3 0.771343 0.425232 0.328248
O O4 0.864567 0.322526 0.085113
O O5 0.362444 0.158173 0.743312
O O6 0.392806 0.905977 0.576887
O O7 0.448263 0.083032 0.206581
O O8 0.688225 0.348472 0.335174
O O9 0.740194 0.158166 0.986705
O O10 0.693141 0.335897 0.821707
O O11 0.848333 0.163635 0.758639
O O12 0.807007 0.074018 0.459730
O O13 0.551977 0.726219 0.387043
O O14 0.491345 0.904900 0.775304
#
# Coordination Sequence:
#
# PCOD9121761 Si02
#       8
#     4   4   4   4   4   4   2   2
#     4  10  20  35  58  85 120 164 198 252 303 366
#     4  10  22  36  59  90 125 157 202 249 314 364
#     4  11  25  37  59  89 122 170 201 251 301 367
#     4  10  23  37  56  86 126 167 202 247 305 367
#     4  11  25  38  56  88 126 163 209 244 302 371
#     4  10  19  36  59  90 124 161 195 256 305 365
#     4  10  20  34  58  94 126 148 202 246 316 364
#     4  10  20  36  58  90 124 158 188 260 308 364
#
# _framework density 20.524274999999999
#
# number of rings (size 3 to 8) (size 9 to 14) (size 15 to 20)
#    0.000    1.714    2.857    0.857   12.000    0.000 
#    0.000    0.000    0.000    0.000    3.714    1.000 
#    0.000    0.000    0.000    0.000    0.000    0.000 
#
# Total GULP energy -78018.750804 kJ/mol
# GULP energy per Si atom -5572.767915 kJ/mol
# Density = 2.047756 g / cm^3
# Si number density = 20.524275 Si / 1000 Ang^3
#
#
#
# Elastic Constant Matrix: (Units=GPa)
#
#
# Indices 1 2 3 4 5 6 
#
# 1 72.8963 36.5667 56.3372 0.0000 -16.8545 0.0000
# 2 36.5667 47.7982 25.8493 0.0000 -9.6961 0.0000
# 3 56.3372 25.8493 111.7635 0.0000 -12.9314 0.0000
# 4 0.0000 0.0000 0.0000 28.5538 0.0000 7.8006
# 5 -16.8545 -9.6961 -12.9314 0.0000 43.2161 0.0000
# 6 0.0000 0.0000 0.0000 7.8006 0.0000 14.4276
#
#
#
# Elastic Compliance Matrix: (Units=1/GPa)
#
#
# Indices 1 2 3 4 5 6 
#
# 1 0.033122 -0.017784 -0.011964 0.000000 0.005348 0.000000
# 2 -0.017784 0.034093 0.001203 0.000000 0.001074 0.000000
# 3 -0.011964 0.001203 0.014700 0.000000 0.000003 0.000000
# 4 0.000000 0.000000 0.000000 0.041091 0.000000 -0.022217
# 5 0.005348 0.001074 0.000003 0.000000 0.025467 0.000000
# 6 0.000000 0.000000 0.000000 -0.022217 0.000000 0.081324
#
#
# Mechanical properties :
#
#
# Convention : Reuss Voigt Hill
#
# Bulk Modulus (GPa) = 40.27996 52.21825 46.24910
# Shear Modulus (GPa) = 16.93992 24.81983 20.87987
#
# Velocity S-wave (km/s) = 2.87602 3.48126 3.19301
# Velocity P-wave (km/s) = 5.54047 6.45417 6.01470
#
# Compressibility (1/GPa) = 0.02482624
#
# Stress axis : x y z
#
# Youngs Moduli (GPa) = 30.19179 29.33125 68.02657
#
# Poissons Ratio (x) = 0.52162 0.81386
# Poissons Ratio (y) = 0.53693 -0.08186
# Poissons Ratio (z) = 0.36121 -0.03530
#
# Static dielectric constant tensor:
#      x y z
#    x 1.824680 0.000000 0.028280 
#    y 0.000000 1.752890 0.000000 
#    z 0.028280 0.000000 1.796550 
# 
# From -- ./inp_files/10274.got.cif
#   From: 2010.05.17/outbox.cif.g08.bks.cpg/sg5_6_cif.got.tgz:10274.got - 2010.06.03 18:56:24.
