data_PCOD9121871
_publ_section_title
;
Structure prediction by ZEFSAII (Michael W. Deem and Ramdas Pophale) SiO2 
 PCOD9121871
Probable space group: C 2
;
_chemical_formula_sum "Si O2"
_cell_formula_units_Z 30
_cell_length_a 13.817918
_cell_length_b 13.907388
_cell_length_c 13.954704
_cell_angle_alpha 90.000000
_cell_angle_beta 33.593182
_cell_angle_gamma 90.000000
_cell_volume 1483.759593
_symmetry_space_group_name_H-M "C 2"
_symmetry_group_IT_number 5
_symmetry_cell_setting 'monoclinic'
loop_
_space_group_symop_operation_xyz
x,y,z
-x,y,-z
1/2+x,1/2+y,z
1/2-x,1/2+y,-z
loop_
_atom_site_type_symbol
_atom_site_label
_atom_site_fract_x
_atom_site_fract_y
_atom_site_fract_z
Si Si1 0.854192 0.013060 0.200023
Si Si2 0.424753 0.632553 0.456386
Si Si3 0.633811 0.990926 0.635339
Si Si4 0.500000 0.298790 0.500000
Si Si5 0.397783 0.853931 0.184254
Si Si6 0.163320 0.341014 0.439585
Si Si7 0.443574 0.665851 0.850856
Si Si8 0.885011 0.638540 0.737035
O O1 0.698161 0.074426 0.280608
O O2 0.936576 0.075919 0.216398
O O3 0.806715 0.906021 0.269180
O O4 0.000000 0.008988 0.000000
O O5 0.500000 0.616316 0.500000
O O6 0.315732 0.540135 0.513931
O O7 0.306002 0.729490 0.562411
O O8 0.565074 0.659531 0.257196
O O9 0.637084 0.902123 0.558301
O O10 0.523467 0.073013 0.675810
O O11 0.686072 0.353080 0.351591
O O12 0.472541 0.230587 0.615551
O O13 0.451079 0.948408 0.198651
O O14 0.454366 0.760233 0.197733
O O15 0.500000 0.847710 0.000000
O O16 0.000000 0.342876 0.500000
O O17 0.267550 0.662757 0.060130
#
# Coordination Sequence:
#
# PCOD9121871 Si02
#       8
#     4   4   4   2   4   4   4   4
#     4  10  19  36  66 102 129 162 226 296 333 389
#     4  11  26  44  64  93 140 185 218 280 353 409
#     4  12  25  42  67 100 135 179 228 274 345 414
#     4  12  22  42  76  98 132 180 236 292 346 390
#     4  12  25  45  69 105 140 179 235 291 341 416
#     4  11  21  40  66  93 128 170 222 272 329 406
#     4  11  20  43  68 101 139 174 227 299 345 392
#     4  11  22  38  70 105 133 173 230 294 343 399
#
# _framework density 20.218907999999999
#
# number of rings (size 3 to 8) (size 9 to 14) (size 15 to 20)
#    0.000    0.800    6.667    2.000    0.933    1.067 
#    0.000    6.000    0.000    0.000    0.000    0.000 
#    0.000    0.000    0.000    0.000    0.000    0.000 
#
# Total GULP energy -83735.409060 kJ/mol
# GULP energy per Si atom -5582.360604 kJ/mol
# Density = 2.017289 g / cm^3
# Si number density = 20.218908 Si / 1000 Ang^3
#
#
#
# Elastic Constant Matrix: (Units=GPa)
#
#
# Indices 1 2 3 4 5 6 
#
# 1 90.1996 17.4665 49.7505 0.0000 25.5295 0.0000
# 2 17.4665 64.0213 14.9429 0.0000 13.9156 0.0000
# 3 49.7505 14.9429 88.1252 0.0000 20.0697 0.0000
# 4 0.0000 0.0000 0.0000 29.9978 0.0000 13.5185
# 5 25.5295 13.9156 20.0697 0.0000 32.4771 0.0000
# 6 0.0000 0.0000 0.0000 13.5185 0.0000 16.9387
#
#
#
# Elastic Compliance Matrix: (Units=1/GPa)
#
#
# Indices 1 2 3 4 5 6 
#
# 1 0.018297 -0.001171 -0.008111 0.000000 -0.008869 0.000000
# 2 -0.001171 0.017458 -0.000937 0.000000 -0.005981 0.000000
# 3 -0.008111 -0.000937 0.016924 0.000000 -0.003681 0.000000
# 4 0.000000 0.000000 0.000000 0.052059 0.000000 -0.041548
# 5 -0.008869 -0.005981 -0.003681 0.000000 0.042600 0.000000
# 6 0.000000 0.000000 0.000000 -0.041548 0.000000 0.092195
#
#
# Mechanical properties :
#
#
# Convention : Reuss Voigt Hill
#
# Bulk Modulus (GPa) = 31.01705 45.18508 38.10107
# Shear Modulus (GPa) = 18.46935 26.56180 22.51557
#
# Velocity S-wave (km/s) = 3.02564 3.62845 3.34067
# Velocity P-wave (km/s) = 5.25166 6.32065 5.81079
#
# Compressibility (1/GPa) = 0.03224033
#
# Stress axis : x y z
#
# Youngs Moduli (GPa) = 54.65278 57.28048 59.08839
#
# Poissons Ratio (x) = 0.06707 0.47928
# Poissons Ratio (y) = 0.06400 0.05537
# Poissons Ratio (z) = 0.44330 0.05368
#
# Static dielectric constant tensor:
#      x y z
#    x 1.765360 0.000000 0.040900 
#    y 0.000000 1.704570 0.000000 
#    z 0.040900 0.000000 1.753840 
# 
# From -- ./inp_files/40465.got.cif
#   From: 2010.05.17/outbox.cif.g08.bks.cpg/sg5_21_cif.got.tgz:40465.got - 2010.06.03 18:56:24.
