data_PCOD9121807
_publ_section_title
;
Structure prediction by ZEFSAII (Michael W. Deem and Ramdas Pophale) SiO2 
 PCOD9121807
Probable space group: C 2
;
_chemical_formula_sum "Si O2"
_cell_formula_units_Z 32
_cell_length_a 9.229375
_cell_length_b 15.682791
_cell_length_c 11.359897
_cell_angle_alpha 90.000000
_cell_angle_beta 78.828214
_cell_angle_gamma 90.000000
_cell_volume 1613.100720
_symmetry_space_group_name_H-M "C 2"
_symmetry_group_IT_number 5
_symmetry_cell_setting 'monoclinic'
loop_
_space_group_symop_operation_xyz
x,y,z
-x,y,-z
1/2+x,1/2+y,z
1/2-x,1/2+y,-z
loop_
_atom_site_type_symbol
_atom_site_label
_atom_site_fract_x
_atom_site_fract_y
_atom_site_fract_z
Si Si1 0.702215 0.539020 0.938995
Si Si2 0.158691 0.393508 0.937148
Si Si3 0.028244 0.582401 0.277620
Si Si4 0.557084 0.442829 0.754707
Si Si5 0.346106 0.953538 0.554592
Si Si6 0.749786 0.970807 0.695841
Si Si7 0.247063 0.717242 0.973041
Si Si8 0.028840 0.747163 0.814269
O O1 0.851418 0.556283 0.839377
O O2 0.588470 0.504935 0.859535
O O3 0.674943 0.627915 0.010568
O O4 0.728874 0.461071 0.023635
O O5 0.187710 0.396311 0.792739
O O6 0.169972 0.301618 0.996321
O O7 0.000000 0.427892 0.000000
O O8 0.087322 0.536127 0.385898
O O9 0.869550 0.545455 0.262187
O O10 0.004547 0.683876 0.288569
O O11 0.712682 0.428015 0.661974
O O12 0.421515 0.480734 0.700752
O O13 0.513922 0.347232 0.798036
O O14 0.500000 0.903508 0.500000
O O15 0.268898 0.959378 0.440225
O O16 0.099545 0.721162 0.075289
O O17 0.186394 0.727866 0.850409
#
# Coordination Sequence:
#
# PCOD9121807 Si02
#       8
#     4   4   4   4   4   4   4   4
#     4  10  21  38  60  88 121 167 201 251 308 369
#     4  12  22  37  59  89 125 169 203 244 306 380
#     4   9  19  39  64  85 116 163 210 247 300 370
#     4  11  21  38  65  90 124 153 207 259 311 355
#     4   9  21  40  64  86 113 164 207 248 298 373
#     4  11  21  37  61  91 119 159 201 252 305 361
#     4  10  21  36  54  90 130 156 206 247 306 375
#     4  10  19  36  61  91 119 159 201 258 299 366
#
# _framework density 19.837571000000001
#
# number of rings (size 3 to 8) (size 9 to 14) (size 15 to 20)
#    0.000    1.750    3.750    1.125    1.750    0.500 
#    4.500    3.750    0.000    0.000    0.000    0.000 
#    0.000    0.000    0.000    0.000    0.000    0.000 
#
# Total GULP energy -89072.454371 kJ/mol
# GULP energy per Si atom -5567.028398 kJ/mol
# Density = 1.979242 g / cm^3
# Si number density = 19.837571 Si / 1000 Ang^3
#
#
#
# Elastic Constant Matrix: (Units=GPa)
#
#
# Indices 1 2 3 4 5 6 
#
# 1 115.0071 37.3871 22.4866 0.0000 17.6828 0.0000
# 2 37.3871 121.9755 33.3106 0.0000 25.4755 0.0000
# 3 22.4866 33.3106 77.0253 0.0000 19.7165 0.0000
# 4 0.0000 0.0000 0.0000 11.4275 0.0000 3.3072
# 5 17.6828 25.4755 19.7165 0.0000 39.1652 0.0000
# 6 0.0000 0.0000 0.0000 3.3072 0.0000 25.7230
#
#
#
# Elastic Compliance Matrix: (Units=1/GPa)
#
#
# Indices 1 2 3 4 5 6 
#
# 1 0.010050 -0.002203 -0.001362 0.000000 -0.002419 0.000000
# 2 -0.002203 0.010569 -0.002781 0.000000 -0.004480 0.000000
# 3 -0.001362 -0.002781 0.016028 0.000000 -0.005645 0.000000
# 4 0.000000 0.000000 0.000000 0.090890 0.000000 -0.011686
# 5 -0.002419 -0.004480 -0.005645 0.000000 0.032381 0.000000
# 6 0.000000 0.000000 0.000000 -0.011686 0.000000 0.040378
#
#
# Mechanical properties :
#
#
# Convention : Reuss Voigt Hill
#
# Bulk Modulus (GPa) = 41.74575 55.59740 48.67157
# Shear Modulus (GPa) = 22.62735 29.98473 26.30604
#
# Velocity S-wave (km/s) = 3.38099 3.89203 3.64548
# Velocity P-wave (km/s) = 6.02751 6.94870 6.50443
#
# Compressibility (1/GPa) = 0.02395454
#
# Stress axis : x y z
#
# Youngs Moduli (GPa) = 99.50739 94.61869 62.39130
#
# Poissons Ratio (x) = 0.20847 0.08497
# Poissons Ratio (y) = 0.21924 0.17349
# Poissons Ratio (z) = 0.13552 0.26310
#
# Static dielectric constant tensor:
#      x y z
#    x 1.782350 0.000000 -0.017810 
#    y 0.000000 1.700290 0.000000 
#    z -0.017810 0.000000 1.722610 
# 
# From -- ./inp_files/36411.got.cif
#   From: 2010.05.17/outbox.cif.g08.bks.cpg/sg5_19_cif.got.tgz:36411.got - 2010.06.03 18:56:24.
