data_PCOD9121345
_publ_section_title
;
Structure prediction by ZEFSAII (Michael W. Deem and Ramdas Pophale) SiO2 
 PCOD9121345
Probable space group: C 2
;
_chemical_formula_sum "Si O2"
_cell_formula_units_Z 30
_cell_length_a 24.858982
_cell_length_b 5.080030
_cell_length_c 14.073877
_cell_angle_alpha 90.000000
_cell_angle_beta 64.970478
_cell_angle_gamma 90.000000
_cell_volume 1610.403339
_symmetry_space_group_name_H-M "C 2"
_symmetry_group_IT_number 5
_symmetry_cell_setting 'monoclinic'
loop_
_space_group_symop_operation_xyz
x,y,z
-x,y,-z
1/2+x,1/2+y,z
1/2-x,1/2+y,-z
loop_
_atom_site_type_symbol
_atom_site_label
_atom_site_fract_x
_atom_site_fract_y
_atom_site_fract_z
Si Si1 0.820360 0.583610 0.762202
Si Si2 0.277542 0.230870 0.598710
Si Si3 0.775916 0.190451 0.027518
Si Si4 0.501705 0.586649 0.802801
Si Si5 0.624917 0.584502 0.180342
Si Si6 0.500000 0.834761 0.000000
Si Si7 0.299547 0.230609 0.363228
Si Si8 0.428353 0.069572 0.208936
O O1 0.820701 0.651856 0.651592
O O2 0.752071 0.617264 0.850366
O O3 0.845448 0.300604 0.772603
O O4 0.857212 0.798891 0.794313
O O5 0.305436 0.206681 0.473126
O O6 0.251036 0.522589 0.629601
O O7 0.223348 0.022483 0.641029
O O8 0.761186 0.493352 0.014664
O O9 0.842712 0.130898 0.945924
O O10 0.445199 0.614206 0.777962
O O11 0.529637 0.299612 0.783245
O O12 0.553609 0.802347 0.749250
O O13 0.519698 0.658661 0.074060
O O14 0.448257 0.009706 0.085600
O O15 0.361025 0.154099 0.269326
#
# Coordination Sequence:
#
# PCOD9121345 Si02
#       8
#     4   4   4   4   4   2   4   4
#     4  10  19  34  52  78 106 137 181 220 266 325
#     4  10  21  37  59  86 107 138 188 224 276 341
#     4   8  16  29  44  68 101 134 172 207 254 311
#     4  10  20  35  54  79 111 145 184 219 265 329
#     4  10  19  33  53  74 108 148 171 217 273 313
#     4   8  22  34  54  80 114 136 196 212 266 316
#     4  10  21  38  59  82 110 144 174 232 291 310
#     4  10  20  37  55  79 115 142 184 226 274 321
#
# _framework density 18.628875000000001
#
# number of rings (size 3 to 8) (size 9 to 14) (size 15 to 20)
#    0.800    1.600    0.000    2.800    0.000    1.067 
#    2.400    1.333    0.000    4.800    0.000    0.000 
#    0.000    0.000    0.000    0.000    0.000    0.000 
#
# Total GULP energy -83549.645620 kJ/mol
# GULP energy per Si atom -5569.976375 kJ/mol
# Density = 1.858647 g / cm^3
# Si number density = 18.628875 Si / 1000 Ang^3
#
#
#
# Elastic Constant Matrix: (Units=GPa)
#
#
# Indices 1 2 3 4 5 6 
#
# 1 26.9064 -12.5201 5.9353 0.0000 2.3553 0.0000
# 2 -12.5201 55.3240 -12.6430 0.0000 6.6514 0.0000
# 3 5.9353 -12.6430 36.0444 0.0000 1.7773 0.0000
# 4 0.0000 0.0000 0.0000 16.6300 0.0000 -3.0062
# 5 2.3553 6.6514 1.7773 0.0000 19.6928 0.0000
# 6 0.0000 0.0000 0.0000 -3.0062 0.0000 13.3095
#
#
#
# Elastic Compliance Matrix: (Units=1/GPa)
#
#
# Indices 1 2 3 4 5 6 
#
# 1 0.043276 0.010061 -0.003189 0.000000 -0.008286 0.000000
# 2 0.010061 0.023090 0.006917 0.000000 -0.009627 0.000000
# 3 -0.003189 0.006917 0.030929 0.000000 -0.004746 0.000000
# 4 0.000000 0.000000 0.000000 0.062692 0.000000 0.014160
# 5 -0.008286 -0.009627 -0.004746 0.000000 0.055451 0.000000
# 6 0.000000 0.000000 0.000000 0.014160 0.000000 0.078333
#
#
# Mechanical properties :
#
#
# Convention : Reuss Voigt Hill
#
# Bulk Modulus (GPa) = 8.00801 8.86882 8.43842
# Shear Modulus (GPa) = 16.24346 19.09331 17.66838
#
# Velocity S-wave (km/s) = 2.95608 3.20493 3.08302
# Velocity P-wave (km/s) = 3.99491 4.29727 4.14884
#
# Compressibility (1/GPa) = 0.12487501
#
# Stress axis : x y z
#
# Youngs Moduli (GPa) = 23.10735 43.30822 32.33222
#
# Poissons Ratio (x) = -0.43573 0.10309
# Poissons Ratio (y) = -0.23249 -0.22365
# Poissons Ratio (z) = 0.07368 -0.29957
#
# Static dielectric constant tensor:
#      x y z
#    x 1.613190 0.000000 -0.005240 
#    y 0.000000 1.643320 0.000000 
#    z -0.005240 0.000000 1.669490 
# 
# From -- ./inp_files/55286.got.cif
#   From: 2010.05.17/outbox.cif.g08.bks.cpg/sg5_28_cif.got.tgz:55286.got - 2010.06.03 18:56:24.
