data_PCOD9121176
_publ_section_title
;
Structure prediction by ZEFSAII (Michael W. Deem and Ramdas Pophale) SiO2 
 PCOD9121176
Probable space group: C 2
;
_chemical_formula_sum "Si O2"
_cell_formula_units_Z 18
_cell_length_a 28.879634
_cell_length_b 4.996346
_cell_length_c 10.587244
_cell_angle_alpha 90.000000
_cell_angle_beta 151.059579
_cell_angle_gamma 90.000000
_cell_volume 739.235189
_symmetry_space_group_name_H-M "C 2"
_symmetry_group_IT_number 5
_symmetry_cell_setting 'monoclinic'
loop_
_space_group_symop_operation_xyz
x,y,z
-x,y,-z
1/2+x,1/2+y,z
1/2-x,1/2+y,-z
loop_
_atom_site_type_symbol
_atom_site_label
_atom_site_fract_x
_atom_site_fract_y
_atom_site_fract_z
Si Si1 0.286022 0.914570 0.648211
Si Si2 0.681588 0.545558 0.640207
Si Si3 0.000000 0.854833 0.500000
Si Si4 0.014740 0.207445 0.790805
Si Si5 0.136022 0.545619 0.672799
O O1 0.215618 0.661858 0.453579
O O2 0.252437 0.066384 0.694659
O O3 0.386572 0.767188 0.907585
O O4 0.570806 0.574584 0.332504
O O5 0.693479 0.259139 0.730276
O O6 0.685622 0.761480 0.763817
O O7 0.904977 0.673969 0.297308
O O8 0.982251 0.043011 0.334806
O O9 0.966903 0.490837 0.640260
#
# Coordination Sequence:
#
# PCOD9121176 Si02
#       5
#     4   4   2   4   4
#     4  12  27  44  68 103 140 184 236 289 344 415
#     4   9  21  42  63  96 137 175 233 283 337 407
#     4  10  18  40  76 102 132 186 228 274 352 430
#     4   9  23  42  71 101 136 182 228 282 348 415
#     4   9  19  38  68  95 132 175 224 277 338 411
#
# _framework density 24.349491
#
# number of rings (size 3 to 8) (size 9 to 14) (size 15 to 20)
#    1.333    0.889    0.000    2.000    6.222    0.889 
#    0.000    0.000   29.333    0.000    0.000    0.000 
#    0.000    0.000    0.000    0.000    0.000    0.000 
#
# Total GULP energy -50148.594571 kJ/mol
# GULP energy per Si atom -5572.066063 kJ/mol
# Density = 2.429407 g / cm^3
# Si number density = 24.349491 Si / 1000 Ang^3
#
#
#
# Elastic Constant Matrix: (Units=GPa)
#
#
# Indices 1 2 3 4 5 6 
#
# 1 46.0922 3.5348 15.0661 0.0000 5.9404 0.0000
# 2 3.5348 126.2803 0.8856 0.0000 -14.3431 0.0000
# 3 15.0661 0.8856 103.4072 0.0000 -3.0674 0.0000
# 4 0.0000 0.0000 0.0000 -2.8145 0.0000 -13.0463
# 5 5.9404 -14.3431 -3.0674 0.0000 17.3817 0.0000
# 6 0.0000 0.0000 0.0000 -13.0463 0.0000 29.5470
#
#
#
# Elastic Compliance Matrix: (Units=1/GPa)
#
#
# Indices 1 2 3 4 5 6 
#
# 1 0.024464 -0.001859 -0.003862 0.000000 -0.010576 0.000000
# 2 -0.001859 0.008881 0.000433 0.000000 0.008040 0.000000
# 3 -0.003862 0.000433 0.010333 0.000000 0.003501 0.000000
# 4 0.000000 0.000000 0.000000 -0.116617 0.000000 -0.051492
# 5 -0.010576 0.008040 0.003501 0.000000 0.068399 0.000000
# 6 0.000000 0.000000 0.000000 -0.051492 0.000000 0.011108
#
#
# Mechanical properties :
#
#
# Convention : Reuss Voigt Hill
#
# Bulk Modulus (GPa) = 30.20907 34.97251 32.59079
# Shear Modulus (GPa) = 177.44320 25.90904 101.67612
#
# Velocity S-wave (km/s) = 8.54586 3.26551 6.46897
# Velocity P-wave (km/s) = 10.47898 5.34902 8.31928
#
# Compressibility (1/GPa) = 0.03310264
#
# Stress axis : x y z
#
# Youngs Moduli (GPa) = 40.87693 112.59847 96.77410
#
# Poissons Ratio (x) = 0.20931 0.37375
# Poissons Ratio (y) = 0.07599 -0.04193
# Poissons Ratio (z) = 0.15787 -0.04879
#
# Static dielectric constant tensor:
#      x y z
#    x 1.935660 0.000000 -0.018180 
#    y 0.000000 1.925090 0.000000 
#    z -0.018180 0.000000 2.040190 
# 
# From -- ./inp_files/48110.got.cif
#   From: 2010.05.17/outbox.cif.g08.bks.cpg/sg5_25_cif.got.tgz:48110.got - 2010.06.03 18:56:24.
