data_PCOD9121958
_publ_section_title
;
Structure prediction by ZEFSAII (Michael W. Deem and Ramdas Pophale) SiO2 
 PCOD9121958
Probable space group: C 2
;
_chemical_formula_sum "Si O2"
_cell_formula_units_Z 26
_cell_length_a 17.921883
_cell_length_b 10.370244
_cell_length_c 8.163703
_cell_angle_alpha 90.000000
_cell_angle_beta 56.732835
_cell_angle_gamma 90.000000
_cell_volume 1268.613667
_symmetry_space_group_name_H-M "C 2"
_symmetry_group_IT_number 5
_symmetry_cell_setting 'monoclinic'
loop_
_space_group_symop_operation_xyz
x,y,z
-x,y,-z
1/2+x,1/2+y,z
1/2-x,1/2+y,-z
loop_
_atom_site_type_symbol
_atom_site_label
_atom_site_fract_x
_atom_site_fract_y
_atom_site_fract_z
Si Si1 0.788984 0.532700 0.111589
Si Si2 0.096587 0.690753 0.806466
Si Si3 0.709334 0.344333 0.432907
Si Si4 0.845210 0.451680 0.483198
Si Si5 0.930818 0.295643 0.936945
Si Si6 0.000000 0.337757 0.500000
Si Si7 0.725253 0.614522 0.837010
O O1 0.834326 0.660149 0.130879
O O2 0.717176 0.479547 0.329761
O O3 0.864664 0.420383 0.004763
O O4 0.746810 0.561581 0.989024
O O5 0.130648 0.805211 0.649128
O O6 0.105555 0.559478 0.686530
O O7 0.000000 0.707488 0.000000
O O8 0.803621 0.338992 0.421010
O O9 0.713006 0.236868 0.286486
O O10 0.912434 0.415437 0.546156
O O11 0.755408 0.511690 0.667186
O O12 0.973379 0.273944 0.705643
O O13 0.873384 0.170032 0.048896
O O14 0.000000 0.320762 0.000000
#
# Coordination Sequence:
#
# PCOD9121958 Si02
#       7
#     4   4   4   4   4   2   4
#     4  10  19  37  62  90 123 159 209 254 308 368
#     4  10  20  35  60  88 123 158 199 256 314 360
#     4   9  21  37  57  89 123 160 203 250 313 378
#     4  10  21  38  60  90 121 159 205 255 307 373
#     4  11  23  40  62  97 128 157 212 266 312 370
#     4  12  20  34  66  92 122 154 210 270 304 354
#     4  10  21  38  62  90 120 166 201 255 311 373
#
# _framework density 20.494814000000002
#
# number of rings (size 3 to 8) (size 9 to 14) (size 15 to 20)
#    0.000    1.846    1.538    4.154    2.154    0.000 
#    2.769    0.769    0.000    1.846    0.000    0.000 
#    0.000    0.000    0.000    0.000    0.000    0.000 
#
# Total GULP energy -72471.447023 kJ/mol
# GULP energy per Si atom -5574.726694 kJ/mol
# Density = 2.044817 g / cm^3
# Si number density = 20.494814 Si / 1000 Ang^3
#
#
#
# Elastic Constant Matrix: (Units=GPa)
#
#
# Indices 1 2 3 4 5 6 
#
# 1 88.7679 36.1471 47.5878 0.0000 16.3283 0.0000
# 2 36.1471 42.8579 45.0772 0.0000 -7.0083 0.0000
# 3 47.5878 45.0772 179.5454 0.0000 -4.3226 0.0000
# 4 0.0000 0.0000 0.0000 22.0867 0.0000 -5.3444
# 5 16.3283 -7.0083 -4.3226 0.0000 31.8918 0.0000
# 6 0.0000 0.0000 0.0000 -5.3444 0.0000 23.5827
#
#
#
# Elastic Compliance Matrix: (Units=1/GPa)
#
#
# Indices 1 2 3 4 5 6 
#
# 1 0.023933 -0.021589 -0.001337 0.000000 -0.017179 0.000000
# 2 -0.021589 0.052329 -0.006895 0.000000 0.021618 0.000000
# 3 -0.001337 -0.006895 0.007660 0.000000 0.000207 0.000000
# 4 0.000000 0.000000 0.000000 0.047903 0.000000 0.010856
# 5 -0.017179 0.021618 0.000207 0.000000 0.044930 0.000000
# 6 0.000000 0.000000 0.000000 0.010856 0.000000 0.044864
#
#
# Mechanical properties :
#
#
# Convention : Reuss Voigt Hill
#
# Bulk Modulus (GPa) = 41.18594 63.19949 52.19271
# Shear Modulus (GPa) = 17.27988 27.66951 22.47469
#
# Velocity S-wave (km/s) = 2.90683 3.67832 3.31509
# Velocity P-wave (km/s) = 5.60407 6.99599 6.33835
#
# Compressibility (1/GPa) = 0.02428013
#
# Stress axis : x y z
#
# Youngs Moduli (GPa) = 41.78330 19.11004 130.54658
#
# Poissons Ratio (x) = 0.41256 0.17452
# Poissons Ratio (y) = 0.90204 0.90016
# Poissons Ratio (z) = 0.05586 0.13177
#
# Static dielectric constant tensor:
#      x y z
#    x 1.714580 0.000000 0.000690 
#    y 0.000000 1.771230 0.000000 
#    z 0.000690 0.000000 1.804150 
# 
# From -- ./inp_files/23511.got.cif
#   From: 2010.05.17/outbox.cif.g08.bks.cpg/sg5_12_cif.got.tgz:23511.got - 2010.06.03 18:56:24.
