data_PCOD9121420
_publ_section_title
;
Structure prediction by ZEFSAII (Michael W. Deem and Ramdas Pophale) SiO2 
 PCOD9121420
Probable space group: C 2
;
_chemical_formula_sum "Si O2"
_cell_formula_units_Z 32
_cell_length_a 17.634047
_cell_length_b 14.527617
_cell_length_c 11.976574
_cell_angle_alpha 90.000000
_cell_angle_beta 153.962299
_cell_angle_gamma 90.000000
_cell_volume 1346.810096
_symmetry_space_group_name_H-M "C 2"
_symmetry_group_IT_number 5
_symmetry_cell_setting 'monoclinic'
loop_
_space_group_symop_operation_xyz
x,y,z
-x,y,-z
1/2+x,1/2+y,z
1/2-x,1/2+y,-z
loop_
_atom_site_type_symbol
_atom_site_label
_atom_site_fract_x
_atom_site_fract_y
_atom_site_fract_z
Si Si1 0.887019 0.290220 0.552052
Si Si2 0.696715 0.266424 0.908367
Si Si3 0.826879 0.522793 0.803760
Si Si4 0.611913 0.222733 0.042010
Si Si5 0.212431 0.085989 0.084079
Si Si6 0.332465 0.618610 0.620371
Si Si7 0.214183 0.971053 0.883713
Si Si8 0.883422 0.495341 0.510529
O O1 0.805228 0.250047 0.331537
O O2 0.818273 0.224226 0.560289
O O3 0.822298 0.395159 0.472764
O O4 0.092872 0.278741 0.812837
O O5 0.601035 0.246827 0.898645
O O6 0.642185 0.369717 0.808079
O O7 0.681125 0.178441 0.805518
O O8 0.903206 0.613636 0.965857
O O9 0.725799 0.556252 0.562248
O O10 0.710177 0.482617 0.746081
O O11 0.000000 0.466332 0.000000
O O12 0.500000 0.260802 0.000000
O O13 0.141156 0.047164 0.870897
O O14 0.322009 0.012788 0.301670
O O15 0.034183 0.105590 0.912975
O O16 0.206306 0.581603 0.548069
O O17 0.415637 0.985585 0.190750
#
# Coordination Sequence:
#
# PCOD9121420 Si02
#       8
#     4   4   4   4   4   4   4   4
#     4   9  21  37  61  92 121 168 216 263 310 386
#     4  10  21  39  59  93 126 165 215 258 323 388
#     4  10  19  38  64  89 114 164 216 260 307 375
#     4  10  19  33  61  90 119 155 209 267 308 355
#     4  11  23  39  62  94 130 165 203 275 330 384
#     4  10  22  40  64  93 127 162 214 273 324 368
#     4  11  22  40  66  88 124 173 216 257 316 394
#     4  11  22  41  63  91 129 172 214 254 330 395
#
# _framework density 23.759844000000001
#
# number of rings (size 3 to 8) (size 9 to 14) (size 15 to 20)
#    0.000    1.750    2.500    1.875    0.000    4.500 
#    2.250    0.000    2.750    0.000    0.000    0.000 
#    0.000    0.000    0.000    0.000    0.000    0.000 
#
# Total GULP energy -89205.516967 kJ/mol
# GULP energy per Si atom -5575.344810 kJ/mol
# Density = 2.370577 g / cm^3
# Si number density = 23.759844 Si / 1000 Ang^3
#
#
#
# Elastic Constant Matrix: (Units=GPa)
#
#
# Indices 1 2 3 4 5 6 
#
# 1 113.7663 26.5168 2.8008 0.0000 -2.6438 0.0000
# 2 26.5168 91.2692 4.9490 0.0000 2.8146 0.0000
# 3 2.8008 4.9490 74.2704 0.0000 -0.8594 0.0000
# 4 0.0000 0.0000 0.0000 18.9317 0.0000 2.5875
# 5 -2.6438 2.8146 -0.8594 0.0000 31.1858 0.0000
# 6 0.0000 0.0000 0.0000 2.5875 0.0000 10.0532
#
#
#
# Elastic Compliance Matrix: (Units=1/GPa)
#
#
# Indices 1 2 3 4 5 6 
#
# 1 0.009465 -0.002773 -0.000160 0.000000 0.001048 0.000000
# 2 -0.002773 0.011841 -0.000700 0.000000 -0.001323 0.000000
# 3 -0.000160 -0.000700 0.013522 0.000000 0.000422 0.000000
# 4 0.000000 0.000000 0.000000 0.054747 0.000000 -0.014091
# 5 0.001048 -0.001323 0.000422 0.000000 0.032286 0.000000
# 6 0.000000 0.000000 0.000000 -0.014091 0.000000 0.103098
#
#
# Mechanical properties :
#
#
# Convention : Reuss Voigt Hill
#
# Bulk Modulus (GPa) = 36.28277 38.64877 37.46577
# Shear Modulus (GPa) = 20.71144 28.37008 24.54076
#
# Velocity S-wave (km/s) = 2.95566 3.45923 3.21731
# Velocity P-wave (km/s) = 5.19150 5.67950 5.44098
#
# Compressibility (1/GPa) = 0.02756129
#
# Stress axis : x y z
#
# Youngs Moduli (GPa) = 105.65587 84.45138 73.95436
#
# Poissons Ratio (x) = 0.23422 0.01183
# Poissons Ratio (y) = 0.29303 0.05175
# Poissons Ratio (z) = 0.01690 0.05909
#
# Static dielectric constant tensor:
#      x y z
#    x 2.032440 0.000000 0.056460 
#    y 0.000000 1.930440 0.000000 
#    z 0.056460 0.000000 1.974340 
# 
# From -- ./inp_files/44991.got.cif
#   From: 2010.05.17/outbox.cif.g08.bks.cpg/sg5_23_cif.got.tgz:44991.got - 2010.06.03 18:56:24.
