data_PCOD9121272
_publ_section_title
;
Structure prediction by ZEFSAII (Michael W. Deem and Ramdas Pophale) SiO2 
 PCOD9121272
Probable space group: C 2
;
_chemical_formula_sum "Si O2"
_cell_formula_units_Z 30
_cell_length_a 22.093256
_cell_length_b 5.301228
_cell_length_c 13.464689
_cell_angle_alpha 90.000000
_cell_angle_beta 99.791389
_cell_angle_gamma 90.000000
_cell_volume 1554.031590
_symmetry_space_group_name_H-M "C 2"
_symmetry_group_IT_number 5
_symmetry_cell_setting 'monoclinic'
loop_
_space_group_symop_operation_xyz
x,y,z
-x,y,-z
1/2+x,1/2+y,z
1/2-x,1/2+y,-z
loop_
_atom_site_type_symbol
_atom_site_label
_atom_site_fract_x
_atom_site_fract_y
_atom_site_fract_z
Si Si1 0.104934 0.240510 0.120295
Si Si2 0.208235 0.764633 0.486128
Si Si3 0.500000 0.401797 0.000000
Si Si4 0.810852 0.816357 0.305560
Si Si5 0.667823 0.810539 0.812574
Si Si6 0.901592 0.599642 0.056199
Si Si7 0.698343 0.361246 0.085501
Si Si8 0.825922 0.532532 0.724457
O O1 0.119265 0.340723 0.233820
O O2 0.052746 0.044135 0.077616
O O3 0.170468 0.137600 0.096491
O O4 0.086316 0.470014 0.045723
O O5 0.251602 0.518581 0.519515
O O6 0.168546 0.812116 0.573969
O O7 0.172049 0.687806 0.376582
O O8 0.460973 0.270372 0.077533
O O9 0.821429 0.544697 0.259595
O O10 0.837112 0.046201 0.246495
O O11 0.738290 0.880254 0.293955
O O12 0.729351 0.814491 0.898065
O O13 0.610874 0.891912 0.864654
O O14 0.838911 0.756342 0.019491
O O15 0.679313 0.218349 0.182455
#
# Coordination Sequence:
#
# PCOD9121272 Si02
#       8
#     4   4   2   4   4   4   4   4
#     4  10  19  36  55  76 113 152 199 253 290 345
#     4  10  19  31  54  79 120 169 197 233 293 353
#     4  10  22  40  56  76 114 152 220 256 296 334
#     4  10  20  34  49  82 121 160 196 234 279 372
#     4  11  22  34  53  80 121 159 199 231 299 351
#     4  10  23  34  55  79 109 162 200 250 292 354
#     4   9  19  31  49  79 113 148 193 239 280 359
#     4   9  18  31  51  81 114 158 196 231 292 347
#
# _framework density 19.304627
#
# number of rings (size 3 to 8) (size 9 to 14) (size 15 to 20)
#    0.000    2.133    1.333    2.800    7.467    0.000 
#    0.000    0.000    0.000    0.000    0.000    0.000 
#    0.000   25.600    0.000    0.000    0.000    0.000 
#
# Total GULP energy -83576.170064 kJ/mol
# GULP energy per Si atom -5571.744671 kJ/mol
# Density = 1.926069 g / cm^3
# Si number density = 19.304627 Si / 1000 Ang^3
#
#
#
# Elastic Constant Matrix: (Units=GPa)
#
#
# Indices 1 2 3 4 5 6 
#
# 1 56.2935 12.7031 27.7767 0.0000 -2.7895 0.0000
# 2 12.7031 75.9038 20.9994 0.0000 -0.4629 0.0000
# 3 27.7767 20.9994 87.9421 0.0000 -5.2392 0.0000
# 4 0.0000 0.0000 0.0000 37.4164 0.0000 -3.8909
# 5 -2.7895 -0.4629 -5.2392 0.0000 8.6090 0.0000
# 6 0.0000 0.0000 0.0000 -3.8909 0.0000 20.4686
#
#
#
# Elastic Compliance Matrix: (Units=1/GPa)
#
#
# Indices 1 2 3 4 5 6 
#
# 1 0.021356 -0.001863 -0.006116 0.000000 0.003098 0.000000
# 2 -0.001863 0.014284 -0.002918 0.000000 -0.001612 0.000000
# 3 -0.006116 -0.002918 0.014394 0.000000 0.006621 0.000000
# 4 0.000000 0.000000 0.000000 0.027265 0.000000 0.005183
# 5 0.003098 -0.001612 0.006621 0.000000 0.121104 0.000000
# 6 0.000000 0.000000 0.000000 0.005183 0.000000 0.049841
#
#
# Mechanical properties :
#
#
# Convention : Reuss Voigt Hill
#
# Bulk Modulus (GPa) = 35.41184 38.12196 36.76690
# Shear Modulus (GPa) = 17.89225 23.87616 20.88420
#
# Velocity S-wave (km/s) = 3.04770 3.52065 3.29268
# Velocity P-wave (km/s) = 5.54691 6.02636 5.79160
#
# Compressibility (1/GPa) = 0.02823914
#
# Stress axis : x y z
#
# Youngs Moduli (GPa) = 46.82601 70.00873 69.47280
#
# Poissons Ratio (x) = 0.13044 0.42488
# Poissons Ratio (y) = 0.08724 0.20275
# Poissons Ratio (z) = 0.28638 0.20431
#
# Static dielectric constant tensor:
#      x y z
#    x 1.680690 0.000000 0.001080 
#    y 0.000000 1.784430 0.000000 
#    z 0.001080 0.000000 1.714850 
# 
# From -- ./inp_files/46960.got.cif
#   From: 2010.05.17/outbox.cif.g08.bks.cpg/sg5_24_cif.got.tgz:46960.got - 2010.06.03 18:56:24.
