data_PCOD9121769
_publ_section_title
;
Structure prediction by ZEFSAII (Michael W. Deem and Ramdas Pophale) SiO2 
 PCOD9121769
Probable space group: C 2
;
_chemical_formula_sum "Si O2"
_cell_formula_units_Z 24
_cell_length_a 15.674980
_cell_length_b 9.197567
_cell_length_c 15.840589
_cell_angle_alpha 90.000000
_cell_angle_beta 26.725780
_cell_angle_gamma 90.000000
_cell_volume 1027.056590
_symmetry_space_group_name_H-M "C 2"
_symmetry_group_IT_number 5
_symmetry_cell_setting 'monoclinic'
loop_
_space_group_symop_operation_xyz
x,y,z
-x,y,-z
1/2+x,1/2+y,z
1/2-x,1/2+y,-z
loop_
_atom_site_type_symbol
_atom_site_label
_atom_site_fract_x
_atom_site_fract_y
_atom_site_fract_z
Si Si1 0.962761 0.526380 0.233508
Si Si2 0.552315 0.354327 0.746277
Si Si3 0.278883 0.011200 0.693517
Si Si4 0.134952 0.032068 0.226896
Si Si5 0.199669 0.349192 0.773001
Si Si6 0.326776 0.858745 0.816058
O O1 0.888818 0.687646 0.319927
O O2 0.831208 0.438023 0.285464
O O3 0.008912 0.444194 0.279842
O O4 0.163897 0.532034 0.003147
O O5 0.673502 0.428606 0.712255
O O6 0.523869 0.460348 0.692202
O O7 0.337659 0.335731 0.970212
O O8 0.500000 0.974777 0.500000
O O9 0.255152 0.183521 0.706999
O O10 0.224363 0.952630 0.834159
O O11 0.104923 0.201162 0.275063
O O12 0.162594 0.933434 0.284770
O O13 0.000000 0.343772 0.000000
#
# Coordination Sequence:
#
# PCOD9121769 Si02
#       6
#     4   4   4   4   4   4
#     4   9  18  33  61  92 112 135 178 227 277 330
#     4  10  19  36  60  86 112 142 179 226 276 328
#     4  12  25  38  52  78 112 152 193 228 268 320
#     4   9  18  33  61  92 112 135 178 227 277 330
#     4  10  19  36  60  86 112 142 179 226 276 328
#     4  10  19  36  60  86 112 142 179 226 276 328
#
# _framework density 23.367750000000001
#
# number of rings (size 3 to 8) (size 9 to 14) (size 15 to 20)
#    0.000    2.000    0.000    4.500    0.000    8.000 
#    0.000   10.000    0.000    0.000    0.000    0.000 
#    0.000    0.000    0.000    0.000    0.000    0.000 
#
# Total GULP energy -67142.008342 kJ/mol
# GULP energy per Si atom -5595.167362 kJ/mol
# Density = 2.331456 g / cm^3
# Si number density = 23.367750 Si / 1000 Ang^3
#
#
#
# Elastic Constant Matrix: (Units=GPa)
#
#
# Indices 1 2 3 4 5 6 
#
# 1 191.6856 111.2454 -1.8363 0.0000 -47.9577 -0.0001
# 2 111.2454 230.2238 -6.7693 0.0002 -30.5411 -0.0001
# 3 -1.8363 -6.7693 38.3232 0.0001 2.1129 0.0000
# 4 0.0000 0.0002 0.0001 6.9619 0.0000 -8.9763
# 5 -47.9577 -30.5411 2.1129 0.0000 33.4431 0.0001
# 6 -0.0001 -0.0001 0.0000 -8.9763 0.0001 39.1337
#
#
#
# Elastic Compliance Matrix: (Units=1/GPa)
#
#
# Indices 1 2 3 4 5 6 
#
# 1 0.009978 -0.003344 -0.000736 0.000000 0.011301 0.000000
# 2 -0.003344 0.006078 0.000875 0.000000 0.000700 0.000000
# 3 -0.000736 0.000875 0.026319 -0.000001 -0.001919 0.000000
# 4 0.000000 0.000000 -0.000001 0.203961 0.000000 0.046784
# 5 0.011301 0.000700 -0.001919 0.000000 0.046868 0.000000
# 6 0.000000 0.000000 0.000000 0.046784 0.000000 0.036284
#
#
# Mechanical properties :
#
#
# Convention : Reuss Voigt Hill
#
# Bulk Modulus (GPa) = 27.80447 73.94581 50.87514
# Shear Modulus (GPa) = 14.37253 39.74726 27.05989
#
# Velocity S-wave (km/s) = 2.48273 4.12873 3.40663
# Velocity P-wave (km/s) = 4.48810 7.37845 6.10674
#
# Compressibility (1/GPa) = 0.03596543
#
# Stress axis : x y z
#
# Youngs Moduli (GPa) = 100.22221 164.52918 37.99552
#
# Poissons Ratio (x) = 0.55015 0.02795
# Poissons Ratio (y) = 0.33512 -0.03324
# Poissons Ratio (z) = 0.07372 -0.14392
#
# Static dielectric constant tensor:
#      x y z
#    x 1.839490 0.000000 0.083310 
#    y 0.000000 1.821180 0.000000 
#    z 0.083310 0.000000 2.045480 
# 
# From -- ./inp_files/22777.got.cif
#   From: 2010.05.17/outbox.cif.g08.bks.cpg/sg5_12_cif.got.tgz:22777.got - 2010.06.03 18:56:24.
