data_PCOD9121669
_publ_section_title
;
Structure prediction by ZEFSAII (Michael W. Deem and Ramdas Pophale) SiO2 
 PCOD9121669
Probable space group: C 2
;
_chemical_formula_sum "Si O2"
_cell_formula_units_Z 20
_cell_length_a 17.559629
_cell_length_b 5.263997
_cell_length_c 12.509753
_cell_angle_alpha 90.000000
_cell_angle_beta 43.833606
_cell_angle_gamma 90.000000
_cell_volume 800.831444
_symmetry_space_group_name_H-M "C 2"
_symmetry_group_IT_number 5
_symmetry_cell_setting 'monoclinic'
loop_
_space_group_symop_operation_xyz
x,y,z
-x,y,-z
1/2+x,1/2+y,z
1/2-x,1/2+y,-z
loop_
_atom_site_type_symbol
_atom_site_label
_atom_site_fract_x
_atom_site_fract_y
_atom_site_fract_z
Si Si1 0.965757 0.517940 0.158412
Si Si2 0.657070 0.515682 0.762961
Si Si3 0.898069 0.777967 0.757572
Si Si4 0.147105 0.164863 0.020108
Si Si5 0.907909 0.554389 0.528578
O O1 0.881774 0.278943 0.252290
O O2 0.084634 0.433961 0.084245
O O3 0.905587 0.785230 0.228510
O O4 0.000000 0.521144 0.000000
O O5 0.787664 0.463063 0.623591
O O6 0.629696 0.542605 0.919003
O O7 0.888918 0.780254 0.636001
O O8 0.017684 0.643894 0.644474
O O9 0.901739 0.018998 0.829259
O O10 0.777627 0.665299 0.902569
O O11 0.000000 0.386521 0.500000
#
# Coordination Sequence:
#
# PCOD9121669 Si02
#       5
#     4   4   4   4   4
#     4  10  21  35  62  94 133 173 213 275 324 396
#     4  10  20  39  63  93 133 175 222 262 334 398
#     4   8  18  34  62  97 135 172 217 283 333 395
#     4  10  19  35  62 101 137 170 228 277 334 388
#     4   7  17  39  63  94 139 172 217 267 346 394
#
# _framework density 24.974042000000001
#
# number of rings (size 3 to 8) (size 9 to 14) (size 15 to 20)
#    1.200    1.600    0.000    1.800    0.000    6.400 
#    0.000    3.000    0.000   14.400    0.000    5.600 
#    0.000    0.000    0.000    0.000    0.000    0.000 
#
# Total GULP energy -55674.399179 kJ/mol
# GULP energy per Si atom -5567.439918 kJ/mol
# Density = 2.491720 g / cm^3
# Si number density = 24.974042 Si / 1000 Ang^3
#
#
#
# Elastic Constant Matrix: (Units=GPa)
#
#
# Indices 1 2 3 4 5 6 
#
# 1 165.4535 57.8206 45.1565 -0.0035 -38.6093 0.0012
# 2 57.8206 114.2047 37.4033 -0.0193 -17.7469 0.0496
# 3 45.1565 37.4033 153.9485 -0.0112 -31.6518 0.0074
# 4 -0.0035 -0.0193 -0.0112 6.6071 -0.0047 -6.0944
# 5 -38.6093 -17.7469 -31.6518 -0.0047 50.5987 0.0021
# 6 0.0012 0.0496 0.0074 -6.0944 0.0021 33.7817
#
#
#
# Elastic Compliance Matrix: (Units=1/GPa)
#
#
# Indices 1 2 3 4 5 6 
#
# 1 0.008546 -0.003338 -0.000684 0.000002 0.004922 0.000005
# 2 -0.003338 0.011029 -0.001640 0.000016 0.000296 -0.000013
# 3 -0.000684 -0.001640 0.007883 0.000014 0.003834 0.000003
# 4 0.000002 0.000016 0.000014 0.181565 0.000031 0.032755
# 5 0.004922 0.000296 0.003834 0.000031 0.026022 0.000002
# 6 0.000005 -0.000013 0.000003 0.032755 0.000002 0.035511
#
#
# Mechanical properties :
#
#
# Convention : Reuss Voigt Hill
#
# Bulk Modulus (GPa) = 61.97575 79.37415 70.67495
# Shear Modulus (GPa) = 17.40608 37.74592 27.57600
#
# Velocity S-wave (km/s) = 2.64288 3.89190 3.32654
# Velocity P-wave (km/s) = 5.84662 7.21439 6.56622
#
# Compressibility (1/GPa) = 0.01613534
#
# Stress axis : x y z
#
# Youngs Moduli (GPa) = 117.01792 90.66934 126.85596
#
# Poissons Ratio (x) = 0.30263 0.08672
# Poissons Ratio (y) = 0.39058 0.20802
# Poissons Ratio (z) = 0.08000 0.14868
#
# Static dielectric constant tensor:
#      x y z
#    x 2.080490 -0.000040 0.033310 
#    y -0.000040 2.008810 0.000000 
#    z 0.033310 0.000000 1.974780 
# 
# From -- ./inp_files/56295.got.cif
#   From: 2010.05.17/outbox.cif.g08.bks.cpg/sg5_29_cif.got.tgz:56295.got - 2010.06.03 18:56:24.
