data_PCOD9121188
_publ_section_title
;
Structure prediction by ZEFSAII (Michael W. Deem and Ramdas Pophale) SiO2 
 PCOD9121188
Probable space group: C 2
;
_chemical_formula_sum "Si O2"
_cell_formula_units_Z 24
_cell_length_a 13.163850
_cell_length_b 5.106300
_cell_length_c 20.530139
_cell_angle_alpha 90.000000
_cell_angle_beta 137.413893
_cell_angle_gamma 90.000000
_cell_volume 933.846916
_symmetry_space_group_name_H-M "C 2"
_symmetry_group_IT_number 5
_symmetry_cell_setting 'monoclinic'
loop_
_space_group_symop_operation_xyz
x,y,z
-x,y,-z
1/2+x,1/2+y,z
1/2-x,1/2+y,-z
loop_
_atom_site_type_symbol
_atom_site_label
_atom_site_fract_x
_atom_site_fract_y
_atom_site_fract_z
Si Si1 0.580085 0.235530 0.169501
Si Si2 0.000000 0.961993 0.000000
Si Si3 0.701246 0.523775 0.934697
Si Si4 0.773130 0.364836 0.836282
Si Si5 0.910669 0.486313 0.320845
Si Si6 0.225717 0.407649 0.445740
Si Si7 0.500000 0.208082 0.500000
O O1 0.460897 0.380985 0.157600
O O2 0.749105 0.347503 0.249497
O O3 0.620981 0.934119 0.175936
O O4 0.493743 0.294951 0.061401
O O5 0.859795 0.146839 0.918421
O O6 0.750346 0.576551 0.882595
O O7 0.709317 0.792760 0.981570
O O8 0.624602 0.254137 0.733692
O O9 0.049925 0.355634 0.348783
O O10 0.962287 0.538349 0.418817
O O11 0.234911 0.699504 0.478921
O O12 0.350234 0.369988 0.448699
#
# Coordination Sequence:
#
# PCOD9121188 Si02
#       7
#     4   2   4   4   4   4   2
#     4  11  24  41  71 102 144 196 243 305 367 428
#     4  10  18  42  62  90 138 184 236 286 356 418
#     4  12  26  46  71 108 147 199 248 297 364 445
#     4  11  24  42  68 103 147 189 244 309 359 433
#     4  10  26  46  70 109 144 192 250 309 373 441
#     4  10  24  48  75 106 142 189 248 307 373 444
#     4  10  24  52  76 102 148 198 244 304 386 444
#
# _framework density 25.700144000000002
#
# number of rings (size 3 to 8) (size 9 to 14) (size 15 to 20)
#    0.000    1.333    1.667    2.500    9.333    5.333 
#    6.000    0.000    0.000    0.000    0.000    0.000 
#    0.000    0.000    0.000    0.000    0.000    0.000 
#
# Total GULP energy -66888.646343 kJ/mol
# GULP energy per Si atom -5574.053862 kJ/mol
# Density = 2.564165 g / cm^3
# Si number density = 25.700144 Si / 1000 Ang^3
#
#
#
# Elastic Constant Matrix: (Units=GPa)
#
#
# Indices 1 2 3 4 5 6 
#
# 1 150.0060 7.3557 36.3281 -0.0002 32.0363 0.0001
# 2 7.3557 66.5606 18.1061 -0.0004 2.7358 0.0008
# 3 36.3281 18.1061 123.7237 0.0000 23.2404 0.0002
# 4 -0.0002 -0.0004 0.0000 42.2931 0.0000 10.3453
# 5 32.0363 2.7358 23.2404 0.0000 57.7062 -0.0001
# 6 0.0001 0.0008 0.0002 10.3453 -0.0001 29.4781
#
#
#
# Elastic Compliance Matrix: (Units=1/GPa)
#
#
# Indices 1 2 3 4 5 6 
#
# 1 0.007853 -0.000289 -0.001566 0.000000 -0.003716 0.000000
# 2 -0.000289 0.015659 -0.002269 0.000000 0.000332 0.000000
# 3 -0.001566 -0.002269 0.009402 0.000000 -0.002810 0.000000
# 4 0.000000 0.000000 0.000000 0.025865 0.000000 -0.009077
# 5 -0.003716 0.000332 -0.002810 0.000000 0.020508 0.000000
# 6 0.000000 0.000000 0.000000 -0.009077 0.000000 0.037109
#
#
# Mechanical properties :
#
#
# Convention : Reuss Voigt Hill
#
# Bulk Modulus (GPa) = 40.54021 51.54112 46.04067
# Shear Modulus (GPa) = 37.63163 44.46218 41.04691
#
# Velocity S-wave (km/s) = 3.83071 4.16388 4.00077
# Velocity P-wave (km/s) = 5.94764 6.57385 6.26857
#
# Compressibility (1/GPa) = 0.02466687
#
# Stress axis : x y z
#
# Youngs Moduli (GPa) = 127.33558 63.85908 106.35927
#
# Poissons Ratio (x) = 0.01847 0.16652
# Poissons Ratio (y) = 0.03683 0.24134
# Poissons Ratio (z) = 0.19936 0.14490
#
# Static dielectric constant tensor:
#      x y z
#    x 2.497000 0.000000 0.140490 
#    y 0.000000 2.137800 0.000000 
#    z 0.140490 0.000000 1.983910 
# 
# From -- ./inp_files/53699.got.cif
#   From: 2010.05.17/outbox.cif.g08.bks.cpg/sg5_27_cif.got.tgz:53699.got - 2010.06.03 18:56:24.
