data_PCOD9121914
_publ_section_title
;
Structure prediction by ZEFSAII (Michael W. Deem and Ramdas Pophale) SiO2 
 PCOD9121914
Probable space group: C 2
;
_chemical_formula_sum "Si O2"
_cell_formula_units_Z 28
_cell_length_a 14.004061
_cell_length_b 9.010514
_cell_length_c 11.367660
_cell_angle_alpha 90.000000
_cell_angle_beta 68.032815
_cell_angle_gamma 90.000000
_cell_volume 1330.273402
_symmetry_space_group_name_H-M "C 2"
_symmetry_group_IT_number 5
_symmetry_cell_setting 'monoclinic'
loop_
_space_group_symop_operation_xyz
x,y,z
-x,y,-z
1/2+x,1/2+y,z
1/2-x,1/2+y,-z
loop_
_atom_site_type_symbol
_atom_site_label
_atom_site_fract_x
_atom_site_fract_y
_atom_site_fract_z
Si Si1 0.755521 0.431840 0.040770
Si Si2 0.149644 0.681133 0.696149
Si Si3 0.473089 0.352024 0.878037
Si Si4 0.955162 0.120418 0.320652
Si Si5 0.611574 0.369593 0.487275
Si Si6 0.820260 0.238629 0.812082
Si Si7 0.688853 0.857243 0.734334
O O1 0.648214 0.341577 0.082646
O O2 0.717590 0.599462 0.087637
O O3 0.823734 0.380828 0.120643
O O4 0.812232 0.387507 0.894097
O O5 0.154662 0.770891 0.573304
O O6 0.239085 0.737355 0.742863
O O7 0.158859 0.506120 0.678890
O O8 0.039816 0.712547 0.807297
O O9 0.514914 0.484456 0.778073
O O10 0.500000 0.384917 0.000000
O O11 0.873169 0.222761 0.292361
O O12 0.063963 0.205494 0.285939
O O13 0.905904 0.037531 0.456348
O O14 0.500000 0.315338 0.500000
O O15 0.688803 0.353044 0.344127
#
# Coordination Sequence:
#
# PCOD9121914 Si02
#       7
#     4   4   4   4   4   4   4
#     4  10  22  36  60  87 127 161 201 246 298 366
#     4  10  21  39  61  88 123 156 206 250 306 359
#     4  10  19  37  59  85 117 169 202 234 299 369
#     4  10  24  38  63  89 121 162 202 256 298 366
#     4  11  22  44  68  84 116 164 208 250 305 377
#     4  10  21  39  58  91 124 164 198 246 305 362
#     4  11  23  39  59  95 122 156 204 261 308 347
#
# _framework density 21.048304999999999
#
# number of rings (size 3 to 8) (size 9 to 14) (size 15 to 20)
#    0.000    1.714    1.429    4.286    4.000    1.143 
#    0.000    5.000    0.000    0.000    0.000    0.000 
#    0.000    0.000    0.000    0.000    0.000    0.000 
#
# Total GULP energy -78194.181585 kJ/mol
# GULP energy per Si atom -5585.298685 kJ/mol
# Density = 2.100040 g / cm^3
# Si number density = 21.048305 Si / 1000 Ang^3
#
#
#
# Elastic Constant Matrix: (Units=GPa)
#
#
# Indices 1 2 3 4 5 6 
#
# 1 62.3711 34.7538 2.4089 0.0000 -6.4867 0.0000
# 2 34.7538 32.3799 -0.3867 0.0000 -4.2470 0.0000
# 3 2.4089 -0.3867 39.3792 0.0000 1.4503 0.0000
# 4 0.0000 0.0000 0.0000 24.0061 0.0000 0.6759
# 5 -6.4867 -4.2470 1.4503 0.0000 31.7721 0.0000
# 6 0.0000 0.0000 0.0000 0.6759 0.0000 26.8475
#
#
#
# Elastic Compliance Matrix: (Units=1/GPa)
#
#
# Indices 1 2 3 4 5 6 
#
# 1 0.040429 -0.043084 -0.002993 0.000000 0.002632 0.000000
# 2 -0.043084 0.077348 0.003344 0.000000 0.001391 0.000000
# 3 -0.002993 0.003344 0.025659 0.000000 -0.001335 0.000000
# 4 0.000000 0.000000 0.000000 0.041686 0.000000 -0.001049
# 5 0.002632 0.001391 -0.001335 0.000000 0.032258 0.000000
# 6 0.000000 0.000000 0.000000 -0.001049 0.000000 0.037274
#
#
# Mechanical properties :
#
#
# Convention : Reuss Voigt Hill
#
# Bulk Modulus (GPa) = 17.25015 23.07579 20.16297
# Shear Modulus (GPa) = 13.91038 23.01542 18.46290
#
# Velocity S-wave (km/s) = 2.57355 3.31033 2.96492
# Velocity P-wave (km/s) = 4.12846 5.05946 4.61748
#
# Compressibility (1/GPa) = 0.05797050
#
# Stress axis : x y z
#
# Youngs Moduli (GPa) = 24.73469 12.92855 38.97232
#
# Poissons Ratio (x) = 0.55701 0.11665
# Poissons Ratio (y) = 1.06566 -0.13032
# Poissons Ratio (z) = 0.07403 -0.04323
#
# Static dielectric constant tensor:
#      x y z
#    x 1.747190 0.000000 -0.042430 
#    y 0.000000 1.751110 0.000000 
#    z -0.042430 0.000000 1.805480 
# 
# From -- ./inp_files/41699.got.cif
#   From: 2010.05.17/outbox.cif.g08.bks.cpg/sg5_21_cif.got.tgz:41699.got - 2010.06.03 18:56:24.
