data_PCOD9121142
_publ_section_title
;
Structure prediction by ZEFSAII (Michael W. Deem and Ramdas Pophale) SiO2 
 PCOD9121142
Probable space group: C 2
;
_chemical_formula_sum "Si O2"
_cell_formula_units_Z 24
_cell_length_a 10.946307
_cell_length_b 14.539763
_cell_length_c 9.401040
_cell_angle_alpha 90.000000
_cell_angle_beta 51.894598
_cell_angle_gamma 90.000000
_cell_volume 1177.355499
_symmetry_space_group_name_H-M "C 2"
_symmetry_group_IT_number 5
_symmetry_cell_setting 'monoclinic'
loop_
_space_group_symop_operation_xyz
x,y,z
-x,y,-z
1/2+x,1/2+y,z
1/2-x,1/2+y,-z
loop_
_atom_site_type_symbol
_atom_site_label
_atom_site_fract_x
_atom_site_fract_y
_atom_site_fract_z
Si Si1 0.154319 0.729730 0.299989
Si Si2 0.660385 0.248114 0.962512
Si Si3 0.027570 0.329478 0.312984
Si Si4 0.067785 0.147045 0.794544
Si Si5 0.370693 0.580764 0.710502
Si Si6 0.350589 0.914707 0.207905
O O1 0.249467 0.646461 0.306367
O O2 0.262680 0.819607 0.237531
O O3 0.000000 0.744848 0.500000
O O4 0.131455 0.720106 0.147429
O O5 0.746491 0.162092 0.824888
O O6 0.789209 0.329031 0.856927
O O7 0.500000 0.269605 0.000000
O O8 0.969297 0.234985 0.279040
O O9 0.924933 0.407394 0.311336
O O10 0.000000 0.327677 0.500000
O O11 0.971569 0.068332 0.782907
O O12 0.000000 0.162031 0.000000
O O13 0.500000 0.602874 0.500000
O O14 0.272641 0.494017 0.730495
O O15 0.500000 0.924570 0.000000
#
# Coordination Sequence:
#
# PCOD9121142 Si02
#       6
#     4   4   4   4   4   4
#     4  11  22  37  68 101 125 169 220 269 318 390
#     4  11  22  38  64 101 128 169 220 267 321 386
#     4  10  20  38  67  93 124 170 219 271 320 385
#     4  10  18  40  64  93 127 168 218 266 324 378
#     4  11  24  41  65  94 132 175 211 271 333 391
#     4  11  22  45  65  89 137 173 213 272 338 382
#
# _framework density 20.384665999999999
#
# number of rings (size 3 to 8) (size 9 to 14) (size 15 to 20)
#    0.000    1.333    5.000    4.000    7.000    0.000 
#    0.000    2.500    0.000    0.000    0.000    0.000 
#    0.000    0.000    0.000    0.000    0.000    0.000 
#
# Total GULP energy -66928.075634 kJ/mol
# GULP energy per Si atom -5577.339636 kJ/mol
# Density = 2.033827 g / cm^3
# Si number density = 20.384666 Si / 1000 Ang^3
#
#
#
# Elastic Constant Matrix: (Units=GPa)
#
#
# Indices 1 2 3 4 5 6 
#
# 1 186.1575 40.3651 72.8392 0.0000 14.9380 0.0000
# 2 40.3651 48.1222 19.8278 0.0000 2.7689 0.0000
# 3 72.8392 19.8278 162.1087 0.0000 14.2939 0.0000
# 4 0.0000 0.0000 0.0000 8.3039 0.0000 -8.0414
# 5 14.9380 2.7689 14.2939 0.0000 36.4791 0.0000
# 6 0.0000 0.0000 0.0000 -8.0414 0.0000 55.1847
#
#
#
# Elastic Compliance Matrix: (Units=1/GPa)
#
#
# Indices 1 2 3 4 5 6 
#
# 1 0.007690 -0.005255 -0.002662 0.000000 -0.001707 0.000000
# 2 -0.005255 0.025489 -0.000803 0.000000 0.000532 0.000000
# 3 -0.002662 -0.000803 0.007625 0.000000 -0.001837 0.000000
# 4 0.000000 0.000000 0.000000 0.140210 0.000000 0.020431
# 5 -0.001707 0.000532 -0.001837 0.000000 0.028791 0.000000
# 6 0.000000 0.000000 0.000000 0.020431 0.000000 0.021098
#
#
# Mechanical properties :
#
#
# Convention : Reuss Voigt Hill
#
# Bulk Modulus (GPa) = 42.80283 73.60584 58.20433
# Shear Modulus (GPa) = 19.52123 37.55064 28.53594
#
# Velocity S-wave (km/s) = 3.09794 4.29663 3.74555
# Velocity P-wave (km/s) = 5.81717 7.79753 6.87899
#
# Compressibility (1/GPa) = 0.02336294
#
# Stress axis : x y z
#
# Youngs Moduli (GPa) = 130.04187 39.23278 131.14829
#
# Poissons Ratio (x) = 0.20618 0.34911
# Poissons Ratio (y) = 0.68340 0.10534
# Poissons Ratio (z) = 0.34616 0.03151
#
# Static dielectric constant tensor:
#      x y z
#    x 1.771530 0.000000 0.003740 
#    y 0.000000 1.797810 0.000000 
#    z 0.003740 0.000000 1.713030 
# 
# From -- ./inp_files/21184.got.cif
#   From: 2010.05.17/outbox.cif.g08.bks.cpg/sg5_11_cif.got.tgz:21184.got - 2010.06.03 18:56:24.
