data_PCOD9121830
_publ_section_title
;
Structure prediction by ZEFSAII (Michael W. Deem and Ramdas Pophale) SiO2 
 PCOD9121830
Probable space group: C 2
;
_chemical_formula_sum "Si O2"
_cell_formula_units_Z 24
_cell_length_a 11.014748
_cell_length_b 13.420057
_cell_length_c 6.638878
_cell_angle_alpha 90.000000
_cell_angle_beta 60.831007
_cell_angle_gamma 90.000000
_cell_volume 856.900431
_symmetry_space_group_name_H-M "C 2"
_symmetry_group_IT_number 5
_symmetry_cell_setting 'monoclinic'
loop_
_space_group_symop_operation_xyz
x,y,z
-x,y,-z
1/2+x,1/2+y,z
1/2-x,1/2+y,-z
loop_
_atom_site_type_symbol
_atom_site_label
_atom_site_fract_x
_atom_site_fract_y
_atom_site_fract_z
Si Si1 0.310829 0.293260 0.806600
Si Si2 0.539426 0.716244 0.193163
Si Si3 0.731453 0.123600 0.755290
Si Si4 0.679965 0.868970 0.532870
Si Si5 0.000000 0.480277 0.000000
Si Si6 0.500000 0.289214 0.000000
Si Si7 0.166117 0.564178 0.362673
O O1 0.298355 0.347341 0.602687
O O2 0.432566 0.333239 0.852115
O O3 0.319610 0.173246 0.758117
O O4 0.161271 0.296441 0.039235
O O5 0.624149 0.633701 0.246919
O O6 0.407003 0.765057 0.415308
O O7 0.500000 0.679725 0.000000
O O8 0.633106 0.221933 0.826939
O O9 0.736616 0.087208 0.523291
O O10 0.630692 0.047818 0.959108
O O11 0.712296 0.945034 0.324472
O O12 0.563741 0.923640 0.762997
O O13 0.000000 0.557140 0.500000
#
# Coordination Sequence:
#
# PCOD9121830 Si02
#       7
#     4   4   4   4   2   2   4
#     4  10  19  36  62  97 127 168 217 270 325 380
#     4   9  18  36  62  92 118 163 217 267 310 381
#     4   9  18  31  59  84 126 161 207 259 322 380
#     4  10  20  37  63  93 128 164 220 267 315 392
#     4   9  16  34  56  90 111 162 216 261 296 380
#     4   9  16  32  60  92 115 166 220 263 312 386
#     4  11  22  36  59  96 131 167 210 270 333 386
#
# _framework density 28.007921
#
# number of rings (size 3 to 8) (size 9 to 14) (size 15 to 20)
#    0.000    2.333    4.167    0.000    2.333    1.333 
#    0.000    2.500    7.333    8.000    0.000    0.000 
#    0.000    0.000    0.000    0.000    0.000    0.000 
#
# Total GULP energy -66913.105035 kJ/mol
# GULP energy per Si atom -5576.092086 kJ/mol
# Density = 2.794417 g / cm^3
# Si number density = 28.007921 Si / 1000 Ang^3
#
#
#
# Elastic Constant Matrix: (Units=GPa)
#
#
# Indices 1 2 3 4 5 6 
#
# 1 218.8406 46.4303 40.7115 0.0000 43.9874 0.0000
# 2 46.4303 102.1021 32.1567 0.0000 23.2860 0.0000
# 3 40.7115 32.1567 70.6476 0.0000 2.6830 0.0000
# 4 0.0000 0.0000 0.0000 45.3961 0.0000 15.5318
# 5 43.9874 23.2860 2.6830 0.0000 53.8952 0.0000
# 6 0.0000 0.0000 0.0000 15.5318 0.0000 40.3511
#
#
#
# Elastic Compliance Matrix: (Units=1/GPa)
#
#
# Indices 1 2 3 4 5 6 
#
# 1 0.006231 -0.000834 -0.003037 0.000000 -0.004574 0.000000
# 2 -0.000834 0.012864 -0.005200 0.000000 -0.004619 0.000000
# 3 -0.003037 -0.005200 0.018127 0.000000 0.003823 0.000000
# 4 0.000000 0.000000 0.000000 0.025369 0.000000 -0.009765
# 5 -0.004574 -0.004619 0.003823 0.000000 0.024093 0.000000
# 6 0.000000 0.000000 0.000000 -0.009765 0.000000 0.028541
#
#
# Mechanical properties :
#
#
# Convention : Reuss Voigt Hill
#
# Bulk Modulus (GPa) = 52.41002 70.02083 61.21542
# Shear Modulus (GPa) = 35.78410 46.08127 40.93268
#
# Velocity S-wave (km/s) = 3.57829 4.06062 3.82706
# Velocity P-wave (km/s) = 5.98543 6.85854 6.43681
#
# Compressibility (1/GPa) = 0.01908032
#
# Stress axis : x y z
#
# Youngs Moduli (GPa) = 160.49155 77.73491 55.16736
#
# Poissons Ratio (x) = 0.06480 0.16757
# Poissons Ratio (y) = 0.13379 0.28685
# Poissons Ratio (z) = 0.48749 0.40419
#
# Static dielectric constant tensor:
#      x y z
#    x 2.181010 0.000000 0.059530 
#    y 0.000000 2.441940 0.000000 
#    z 0.059530 0.000000 2.334730 
# 
# From -- ./inp_files/19763.got.cif
#   From: 2010.05.17/outbox.cif.g08.bks.cpg/sg5_10_cif.got.tgz:19763.got - 2010.06.03 18:56:24.
