data_PCOD9121956
_publ_section_title
;
Structure prediction by ZEFSAII (Michael W. Deem and Ramdas Pophale) SiO2 
 PCOD9121956
Probable space group: C 2
;
_chemical_formula_sum "Si O2"
_cell_formula_units_Z 26
_cell_length_a 7.710005
_cell_length_b 15.299855
_cell_length_c 14.467604
_cell_angle_alpha 90.000000
_cell_angle_beta 41.138701
_cell_angle_gamma 90.000000
_cell_volume 1122.762700
_symmetry_space_group_name_H-M "C 2"
_symmetry_group_IT_number 5
_symmetry_cell_setting 'monoclinic'
loop_
_space_group_symop_operation_xyz
x,y,z
-x,y,-z
1/2+x,1/2+y,z
1/2-x,1/2+y,-z
loop_
_atom_site_type_symbol
_atom_site_label
_atom_site_fract_x
_atom_site_fract_y
_atom_site_fract_z
Si Si1 0.500000 0.655910 0.000000
Si Si2 0.861564 0.350789 0.810183
Si Si3 0.697019 0.804065 0.507249
Si Si4 0.498039 0.445006 0.281807
Si Si5 0.314295 0.311939 0.930701
Si Si6 0.696992 0.024041 0.233459
Si Si7 0.763973 0.600054 0.518284
O O1 0.250979 0.720256 0.089879
O O2 0.417645 0.594772 0.119040
O O3 0.604368 0.313069 0.860261
O O4 0.813563 0.453718 0.843670
O O5 0.097779 0.338639 0.645378
O O6 0.881275 0.312111 0.903271
O O7 0.500000 0.816299 0.500000
O O8 0.931798 0.866587 0.378963
O O9 0.711355 0.700537 0.517057
O O10 0.703418 0.395543 0.130373
O O11 0.279735 0.469186 0.290891
O O12 0.472119 0.536520 0.350256
O O13 0.409864 0.060824 0.370274
O O14 0.000000 0.601734 0.500000
#
# Coordination Sequence:
#
# PCOD9121956 Si02
#       7
#     2   4   4   4   4   4   4
#     4  12  24  36  64  98 124 150 210 262 308 354
#     4  10  21  41  62  84 117 170 205 236 308 372
#     4  12  20  38  66  89 120 158 208 258 301 362
#     4  10  19  42  63  86 121 165 205 247 298 373
#     4  10  22  38  62  88 120 160 202 249 303 360
#     4  10  19  37  62  89 114 165 209 243 288 380
#     4  10  22  36  63  95 118 157 212 254 300 358
#
# _framework density 23.157163000000001
#
# number of rings (size 3 to 8) (size 9 to 14) (size 15 to 20)
#    0.000    1.538    4.615    3.231    4.308    0.000 
#    0.000    2.308    6.769    0.000    0.000    0.000 
#    0.000    0.000    0.000    0.000    0.000    0.000 
#
# Total GULP energy -72385.059870 kJ/mol
# GULP energy per Si atom -5568.081528 kJ/mol
# Density = 2.310446 g / cm^3
# Si number density = 23.157163 Si / 1000 Ang^3
#
#
#
# Elastic Constant Matrix: (Units=GPa)
#
#
# Indices 1 2 3 4 5 6 
#
# 1 43.0549 16.0400 18.1501 -0.0004 7.3288 0.0002
# 2 16.0400 155.4637 43.6033 0.0001 10.3912 0.0000
# 3 18.1501 43.6033 124.8546 -0.0008 25.2156 0.0005
# 4 -0.0004 0.0001 -0.0008 42.6841 0.0003 6.3386
# 5 7.3288 10.3912 25.2156 0.0003 15.8271 -0.0002
# 6 0.0002 0.0000 0.0005 6.3386 -0.0002 27.5021
#
#
#
# Elastic Compliance Matrix: (Units=1/GPa)
#
#
# Indices 1 2 3 4 5 6 
#
# 1 0.025929 -0.001697 -0.001440 0.000000 -0.008598 0.000000
# 2 -0.001697 0.007254 -0.002187 0.000000 -0.000492 0.000000
# 3 -0.001440 -0.002187 0.012618 0.000000 -0.018000 0.000000
# 4 0.000000 0.000000 0.000000 0.024258 -0.000001 -0.005591
# 5 -0.008598 -0.000492 -0.018000 -0.000001 0.096164 0.000001
# 6 0.000000 0.000000 0.000000 -0.005591 0.000001 0.037649
#
#
# Mechanical properties :
#
#
# Convention : Reuss Voigt Hill
#
# Bulk Modulus (GPa) = 28.44784 53.21777 40.83280
# Shear Modulus (GPa) = 22.10065 33.57465 27.83765
#
# Velocity S-wave (km/s) = 3.09265 3.81183 3.47092
# Velocity P-wave (km/s) = 5.00640 6.51187 5.80812
#
# Compressibility (1/GPa) = 0.03515206
#
# Stress axis : x y z
#
# Youngs Moduli (GPa) = 38.56702 137.85945 79.25346
#
# Poissons Ratio (x) = 0.23389 0.11416
# Poissons Ratio (y) = 0.06543 0.17334
# Poissons Ratio (z) = 0.05555 0.30153
#
# Static dielectric constant tensor:
#      x y z
#    x 1.899770 0.000000 -0.021990 
#    y 0.000000 1.910400 0.000000 
#    z -0.021990 0.000000 1.914650 
# 
# From -- ./inp_files/51077.got.cif
#   From: 2010.05.17/outbox.cif.g08.bks.cpg/sg5_26_cif.got.tgz:51077.got - 2010.06.03 18:56:24.
