data_PCOD9121190
_publ_section_title
;
Structure prediction by ZEFSAII (Michael W. Deem and Ramdas Pophale) SiO2 
 PCOD9121190
Probable space group: C 2
;
_chemical_formula_sum "Si O2"
_cell_formula_units_Z 20
_cell_length_a 16.449817
_cell_length_b 8.830783
_cell_length_c 11.191500
_cell_angle_alpha 90.000000
_cell_angle_beta 146.037803
_cell_angle_gamma 90.000000
_cell_volume 908.207567
_symmetry_space_group_name_H-M "C 2"
_symmetry_group_IT_number 5
_symmetry_cell_setting 'monoclinic'
loop_
_space_group_symop_operation_xyz
x,y,z
-x,y,-z
1/2+x,1/2+y,z
1/2-x,1/2+y,-z
loop_
_atom_site_type_symbol
_atom_site_label
_atom_site_fract_x
_atom_site_fract_y
_atom_site_fract_z
Si Si1 0.217899 0.578420 0.092270
Si Si2 0.000000 0.259283 0.000000
Si Si3 0.265329 0.473934 0.403167
Si Si4 0.416988 0.173106 0.651832
Si Si5 0.810757 0.233823 0.976992
Si Si6 0.500000 0.142855 0.500000
O O1 0.292074 0.559317 0.310766
O O2 0.315916 0.652304 0.109612
O O3 0.168423 0.412499 0.987735
O O4 0.064451 0.666594 0.909076
O O5 0.123582 0.368925 0.204106
O O6 0.921952 0.172528 0.012911
O O7 0.383951 0.348355 0.581332
O O8 0.216048 0.594368 0.441708
O O9 0.443155 0.081837 0.558765
O O10 0.646603 0.222313 0.725818
#
# Coordination Sequence:
#
# PCOD9121190 Si02
#       6
#     4   2   4   4   4   2
#     4  10  21  42  69  94 139 177 218 282 334 392
#     4  10  18  42  64  90 134 174 208 278 330 380
#     4  11  21  43  68  95 133 180 218 276 337 394
#     4  11  21  41  69  95 137 177 221 279 337 393
#     4  10  20  40  68  92 135 179 215 277 338 385
#     4  10  20  38  66  94 128 180 212 268 334 398
#
# _framework density 22.021398999999999
#
# number of rings (size 3 to 8) (size 9 to 14) (size 15 to 20)
#    0.000    1.600    8.000    0.000    0.000    0.000 
#   14.400    0.000    0.000    0.000    0.000    0.000 
#    0.000    0.000    0.000    0.000    0.000    0.000 
#
# Total GULP energy -55749.587585 kJ/mol
# GULP energy per Si atom -5574.958759 kJ/mol
# Density = 2.197128 g / cm^3
# Si number density = 22.021399 Si / 1000 Ang^3
#
#
#
# Elastic Constant Matrix: (Units=GPa)
#
#
# Indices 1 2 3 4 5 6 
#
# 1 203.8292 59.1148 15.8939 0.0000 -22.8620 0.0000
# 2 59.1148 51.8226 31.7184 0.0000 -18.6464 0.0000
# 3 15.8939 31.7184 68.5440 0.0000 -2.5720 0.0000
# 4 0.0000 0.0000 0.0000 33.4467 0.0000 -5.4006
# 5 -22.8620 -18.6464 -2.5720 0.0000 33.4566 0.0000
# 6 0.0000 0.0000 0.0000 -5.4006 0.0000 40.4169
#
#
#
# Elastic Compliance Matrix: (Units=1/GPa)
#
#
# Indices 1 2 3 4 5 6 
#
# 1 0.007822 -0.011200 0.003345 0.000000 -0.000640 0.000000
# 2 -0.011200 0.051738 -0.020609 0.000000 0.019598 0.000000
# 3 0.003345 -0.020609 0.023072 0.000000 -0.007427 0.000000
# 4 0.000000 0.000000 0.000000 0.030558 0.000000 0.004083
# 5 -0.000640 0.019598 -0.007427 0.000000 0.039803 0.000000
# 6 0.000000 0.000000 0.000000 0.004083 0.000000 0.025288
#
#
# Mechanical properties :
#
#
# Convention : Reuss Voigt Hill
#
# Bulk Modulus (GPa) = 38.90567 59.73888 49.32228
# Shear Modulus (GPa) = 20.51065 35.96195 28.23630
#
# Velocity S-wave (km/s) = 3.05519 4.04548 3.58470
# Velocity P-wave (km/s) = 5.49101 7.00055 6.29122
#
# Compressibility (1/GPa) = 0.02570319
#
# Stress axis : x y z
#
# Youngs Moduli (GPa) = 127.85002 19.32817 43.34333
#
# Poissons Ratio (x) = 0.21648 -0.14498
# Poissons Ratio (y) = 1.43192 0.89327
# Poissons Ratio (z) = -0.42766 0.39834
#
# Static dielectric constant tensor:
#      x y z
#    x 1.892000 0.000000 -0.003600 
#    y 0.000000 1.790850 0.000000 
#    z -0.003600 0.000000 1.828670 
# 
# From -- ./inp_files/38503.got.cif
#   From: 2010.05.17/outbox.cif.g08.bks.cpg/sg5_20_cif.got.tgz:38503.got - 2010.06.03 18:56:24.
