data_PCOD9121748
_publ_section_title
;
Structure prediction by ZEFSAII (Michael W. Deem and Ramdas Pophale) SiO2 
 PCOD9121748
Probable space group: C 2
;
_chemical_formula_sum "Si O2"
_cell_formula_units_Z 32
_cell_length_a 13.759735
_cell_length_b 11.507744
_cell_length_c 16.322199
_cell_angle_alpha 90.000000
_cell_angle_beta 32.042012
_cell_angle_gamma 90.000000
_cell_volume 1371.190646
_symmetry_space_group_name_H-M "C 2"
_symmetry_group_IT_number 5
_symmetry_cell_setting 'monoclinic'
loop_
_space_group_symop_operation_xyz
x,y,z
-x,y,-z
1/2+x,1/2+y,z
1/2-x,1/2+y,-z
loop_
_atom_site_type_symbol
_atom_site_label
_atom_site_fract_x
_atom_site_fract_y
_atom_site_fract_z
Si Si1 0.276074 0.018060 0.954104
Si Si2 0.099457 0.596737 0.841934
Si Si3 0.316032 0.839037 0.185440
Si Si4 0.511329 0.877717 0.315101
Si Si5 0.180018 0.041829 0.537105
Si Si6 0.577792 0.363775 0.217712
Si Si7 0.058003 0.179865 0.761109
Si Si8 0.213031 0.258764 0.398353
O O1 0.443268 0.081403 0.882465
O O2 0.331298 0.967484 0.825683
O O3 0.099111 0.100849 0.085145
O O4 0.225547 0.905463 0.046074
O O5 0.202895 0.472648 0.771389
O O6 0.227313 0.708031 0.732170
O O7 0.000000 0.612096 0.000000
O O8 0.164043 0.792895 0.230291
O O9 0.344816 0.757948 0.241596
O O10 0.500000 0.840548 0.000000
O O11 0.528991 0.762084 0.247365
O O12 0.450384 0.841120 0.450576
O O13 0.329902 0.945021 0.413102
O O14 0.207826 0.104029 0.604954
O O15 0.177278 0.137758 0.470430
O O16 0.987700 0.980653 0.689985
O O17 0.399982 0.312936 0.301570
#
# Coordination Sequence:
#
# PCOD9121748 Si02
#       8
#     4   4   4   4   4   4   4   4
#     4  11  20  35  63  95 122 165 211 269 319 382
#     4  11  21  36  61  92 135 154 213 276 326 360
#     4  11  20  36  58  98 131 146 204 284 321 360
#     4  10  19  36  58  87 127 165 214 258 305 392
#     4   9  19  37  57  88 125 170 206 255 315 392
#     4  10  21  37  64  96 125 163 213 264 328 372
#     4  10  21  34  60  94 123 164 212 261 326 382
#     4  10  21  37  61  92 127 175 207 256 326 398
#
# _framework density 23.337382000000002
#
# number of rings (size 3 to 8) (size 9 to 14) (size 15 to 20)
#    0.000    1.750    5.000    0.000    3.500    0.000 
#    0.000   10.000    0.000    6.750   29.250    0.000 
#    0.000    0.000    0.000    0.000    0.000    0.000 
#
# Total GULP energy -89275.267886 kJ/mol
# GULP energy per Si atom -5579.704243 kJ/mol
# Density = 2.328427 g / cm^3
# Si number density = 23.337382 Si / 1000 Ang^3
#
#
#
# Elastic Constant Matrix: (Units=GPa)
#
#
# Indices 1 2 3 4 5 6 
#
# 1 69.6010 22.4997 25.5777 -0.0002 9.5097 0.0000
# 2 22.4997 68.9493 35.2783 -0.0002 14.3594 0.0000
# 3 25.5777 35.2783 102.4651 -0.0009 25.6015 0.0002
# 4 -0.0002 -0.0002 -0.0009 61.3917 0.0001 15.7322
# 5 9.5097 14.3594 25.6015 0.0001 32.2841 0.0000
# 6 0.0000 0.0000 0.0002 15.7322 0.0000 21.7558
#
#
#
# Elastic Compliance Matrix: (Units=1/GPa)
#
#
# Indices 1 2 3 4 5 6 
#
# 1 0.016725 -0.003917 -0.002533 0.000000 -0.001176 0.000000
# 2 -0.003917 0.018898 -0.004635 0.000000 -0.003576 0.000000
# 3 -0.002533 -0.004635 0.014075 0.000000 -0.008354 0.000000
# 4 0.000000 0.000000 0.000000 0.019994 0.000000 -0.014458
# 5 -0.001176 -0.003576 -0.008354 0.000000 0.039536 0.000000
# 6 0.000000 0.000000 0.000000 -0.014458 0.000000 0.056420
#
#
# Mechanical properties :
#
#
# Convention : Reuss Voigt Hill
#
# Bulk Modulus (GPa) = 36.32635 45.30298 40.81467
# Shear Modulus (GPa) = 25.38148 33.59695 29.48922
#
# Velocity S-wave (km/s) = 3.30144 3.79835 3.55858
# Velocity P-wave (km/s) = 5.48928 6.22020 5.86614
#
# Compressibility (1/GPa) = 0.02752822
#
# Stress axis : x y z
#
# Youngs Moduli (GPa) = 59.78981 52.91556 71.04941
#
# Poissons Ratio (x) = 0.20728 0.17993
# Poissons Ratio (y) = 0.23420 0.32933
# Poissons Ratio (z) = 0.15142 0.24528
#
# Static dielectric constant tensor:
#      x y z
#    x 1.959630 0.000000 0.003360 
#    y 0.000000 1.930050 0.000000 
#    z 0.003360 0.000000 1.923290 
# 
# From -- ./inp_files/61681.got.cif
#   From: 2010.05.17/outbox.cif.g08.bks.cpg/sg5_31_cif.got.tgz:61681.got - 2010.06.03 18:56:24.
