data_PCOD9121453
_publ_section_title
;
Structure prediction by ZEFSAII (Michael W. Deem and Ramdas Pophale) SiO2 
 PCOD9121453
Probable space group: C 2
;
_chemical_formula_sum "Si O2"
_cell_formula_units_Z 32
_cell_length_a 26.490373
_cell_length_b 7.793271
_cell_length_c 7.489513
_cell_angle_alpha 90.000000
_cell_angle_beta 116.778445
_cell_angle_gamma 90.000000
_cell_volume 1380.364895
_symmetry_space_group_name_H-M "C 2"
_symmetry_group_IT_number 5
_symmetry_cell_setting 'monoclinic'
loop_
_space_group_symop_operation_xyz
x,y,z
-x,y,-z
1/2+x,1/2+y,z
1/2-x,1/2+y,-z
loop_
_atom_site_type_symbol
_atom_site_label
_atom_site_fract_x
_atom_site_fract_y
_atom_site_fract_z
Si Si1 0.356131 0.882700 0.460955
Si Si2 0.108703 0.488246 0.857084
Si Si3 0.325159 0.288754 0.999969
Si Si4 0.151007 0.008005 0.251313
Si Si5 0.558318 0.633212 0.811503
Si Si6 0.431087 0.587345 0.594649
Si Si7 0.218437 0.070999 0.808643
Si Si8 0.701361 0.871887 0.291159
O O1 0.376739 0.991348 0.328993
O O2 0.410184 0.777997 0.620044
O O3 0.318061 0.731991 0.312606
O O4 0.322239 0.963717 0.568906
O O5 0.114660 0.690343 0.907872
O O6 0.060677 0.343883 0.809968
O O7 0.158105 0.408725 0.059971
O O8 0.314192 0.454332 0.102851
O O9 0.316260 0.349145 0.782377
O O10 0.275123 0.159008 0.977466
O O11 0.115048 0.974598 0.373343
O O12 0.192867 0.171643 0.321175
O O13 0.102866 0.061643 0.026181
O O14 0.495630 0.566771 0.753133
O O15 0.570708 0.581595 0.623973
O O16 0.240088 0.946205 0.685554
#
# Coordination Sequence:
#
# PCOD9121453 Si02
#       8
#     4   4   4   4   4   4   4   4
#     4  10  20  35  55  81 107 142 186 228 274 322
#     4   9  19  36  56  78 109 140 177 231 276 322
#     4  11  21  35  56  81 113 150 188 225 273 327
#     4  10  19  34  55  81 111 143 179 227 274 322
#     4   9  17  35  60  83 105 139 182 226 279 330
#     4   9  18  32  58  84 105 136 182 223 268 332
#     4  11  21  34  54  79 111 153 187 225 273 322
#     4   9  20  35  52  78 108 142 190 228 268 325
#
# _framework density 23.182279000000001
#
# number of rings (size 3 to 8) (size 9 to 14) (size 15 to 20)
#    0.000    2.250    0.000    4.875    0.000    3.000 
#    0.000    5.000    0.000   27.000    0.000    0.000 
#    0.000    0.000    0.000    0.000    0.000    0.000 
#
# Total GULP energy -89206.332154 kJ/mol
# GULP energy per Si atom -5575.395760 kJ/mol
# Density = 2.312951 g / cm^3
# Si number density = 23.182279 Si / 1000 Ang^3
#
#
#
# Elastic Constant Matrix: (Units=GPa)
#
#
# Indices 1 2 3 4 5 6 
#
# 1 91.0719 5.8592 1.0326 0.0000 -7.4087 0.0000
# 2 5.8592 47.3243 -4.5905 0.0000 -4.1411 0.0000
# 3 1.0326 -4.5905 43.1525 0.0000 -8.7183 0.0000
# 4 0.0000 0.0000 0.0000 22.6392 0.0000 -4.9620
# 5 -7.4087 -4.1411 -8.7183 0.0000 42.1473 0.0000
# 6 0.0000 0.0000 0.0000 -4.9620 0.0000 22.9812
#
#
#
# Elastic Compliance Matrix: (Units=1/GPa)
#
#
# Indices 1 2 3 4 5 6 
#
# 1 0.011210 -0.001229 -0.000026 0.000000 0.001844 0.000000
# 2 -0.001229 0.021780 0.002854 0.000000 0.002514 0.000000
# 3 -0.000026 0.002854 0.024560 0.000000 0.005356 0.000000
# 4 0.000000 0.000000 0.000000 0.046365 0.000000 0.010011
# 5 0.001844 0.002514 0.005356 0.000000 0.025405 0.000000
# 6 0.000000 0.000000 0.000000 0.010011 0.000000 0.045675
#
#
# Mechanical properties :
#
#
# Convention : Reuss Voigt Hill
#
# Bulk Modulus (GPa) = 16.46159 20.68344 18.57252
# Shear Modulus (GPa) = 26.03527 29.50337 27.76932
#
# Velocity S-wave (km/s) = 3.35486 3.57132 3.46478
# Velocity P-wave (km/s) = 4.70352 5.09384 4.90257
#
# Compressibility (1/GPa) = 0.06074748
#
# Stress axis : x y z
#
# Youngs Moduli (GPa) = 89.20814 45.91402 40.71653
#
# Poissons Ratio (x) = 0.05643 0.00107
# Poissons Ratio (y) = 0.10964 -0.11622
# Poissons Ratio (z) = 0.00235 -0.13105
#
# Static dielectric constant tensor:
#      x y z
#    x 1.909860 0.000000 0.011570 
#    y 0.000000 1.962680 0.000000 
#    z 0.011570 0.000000 1.974110 
# 
# From -- ./inp_files/31572.got.cif
#   From: 2010.05.17/outbox.cif.g08.bks.cpg/sg5_16_cif.got.tgz:31572.got - 2010.06.03 18:56:24.
