data_PCOD9121187
_publ_section_title
;
Structure prediction by ZEFSAII (Michael W. Deem and Ramdas Pophale) SiO2 
 PCOD9121187
Probable space group: C 2
;
_chemical_formula_sum "Si O2"
_cell_formula_units_Z 24
_cell_length_a 17.267320
_cell_length_b 8.851195
_cell_length_c 6.761461
_cell_angle_alpha 90.000000
_cell_angle_beta 86.728152
_cell_angle_gamma 90.000000
_cell_volume 1031.713011
_symmetry_space_group_name_H-M "C 2"
_symmetry_group_IT_number 5
_symmetry_cell_setting 'monoclinic'
loop_
_space_group_symop_operation_xyz
x,y,z
-x,y,-z
1/2+x,1/2+y,z
1/2-x,1/2+y,-z
loop_
_atom_site_type_symbol
_atom_site_label
_atom_site_fract_x
_atom_site_fract_y
_atom_site_fract_z
Si Si1 0.699774 0.763060 0.632315
Si Si2 0.500000 0.870994 0.000000
Si Si3 0.878782 0.126901 0.014976
Si Si4 0.938118 0.627316 0.292118
Si Si5 0.000000 0.867259 0.000000
Si Si6 0.709267 0.049632 0.908696
Si Si7 0.339013 0.032858 0.637451
O O1 0.675533 0.867345 0.452916
O O2 0.832241 0.530185 0.873359
O O3 0.720094 0.890561 0.794635
O O4 0.633694 0.664289 0.749850
O O5 0.433289 0.760417 0.930616
O O6 0.531461 0.976294 0.820567
O O7 0.794045 0.116817 0.932524
O O8 0.925508 0.973009 0.982362
O O9 0.851577 0.646571 0.207883
O O10 0.917118 0.597431 0.523929
O O11 0.986576 0.764014 0.194640
O O12 0.730514 0.147630 0.412811
#
# Coordination Sequence:
#
# PCOD9121187 Si02
#       7
#     4   2   4   4   2   4   4
#     4  10  22  40  64  99 125 164 218 275 315 366
#     4  10  18  42  62  90 130 174 202 254 338 382
#     4  10  21  38  67  90 124 172 212 259 326 374
#     4  10  22  42  67  92 129 173 214 261 321 383
#     4  10  24  36  66  92 136 174 202 266 332 376
#     4  10  22  39  70  93 120 166 221 267 309 374
#     4  10  22  38  68  94 129 162 219 269 315 377
#
# _framework density 23.262281000000002
#
# number of rings (size 3 to 8) (size 9 to 14) (size 15 to 20)
#    0.000    2.000    3.333    0.000    9.333    2.667 
#    0.000    3.333    0.000    2.000    0.000    0.000 
#    0.000    0.000    0.000    0.000    0.000    0.000 
#
# Total GULP energy -67109.892860 kJ/mol
# GULP energy per Si atom -5592.491072 kJ/mol
# Density = 2.320934 g / cm^3
# Si number density = 23.262281 Si / 1000 Ang^3
#
#
#
# Elastic Constant Matrix: (Units=GPa)
#
#
# Indices 1 2 3 4 5 6 
#
# 1 82.6011 45.3476 46.2162 0.0000 -23.3870 0.0000
# 2 45.3476 112.0989 29.2199 0.0000 -11.9449 0.0000
# 3 46.2162 29.2199 121.9656 0.0000 -7.2090 0.0000
# 4 0.0000 0.0000 0.0000 45.0203 0.0000 -5.4308
# 5 -23.3870 -11.9449 -7.2090 0.0000 39.1109 0.0000
# 6 0.0000 0.0000 0.0000 -5.4308 0.0000 41.1800
#
#
#
# Elastic Compliance Matrix: (Units=1/GPa)
#
#
# Indices 1 2 3 4 5 6 
#
# 1 0.021763 -0.006125 -0.006188 0.000000 0.010003 0.000000
# 2 -0.006125 0.011490 -0.000446 0.000000 -0.000236 0.000000
# 3 -0.006188 -0.000446 0.010539 0.000000 -0.001894 0.000000
# 4 0.000000 0.000000 0.000000 0.022571 0.000000 0.002977
# 5 0.010003 -0.000236 -0.001894 0.000000 0.031128 0.000000
# 6 0.000000 0.000000 0.000000 0.002977 0.000000 0.024676
#
#
# Mechanical properties :
#
#
# Convention : Reuss Voigt Hill
#
# Bulk Modulus (GPa) = 54.72260 62.02591 58.37425
# Shear Modulus (GPa) = 32.51471 38.12103 35.31787
#
# Velocity S-wave (km/s) = 3.74270 4.05254 3.90070
# Velocity P-wave (km/s) = 6.50018 6.97273 6.74060
#
# Compressibility (1/GPa) = 0.01827399
#
# Stress axis : x y z
#
# Youngs Moduli (GPa) = 45.94862 87.03566 94.88846
#
# Poissons Ratio (x) = 0.53311 0.58718
# Poissons Ratio (y) = 0.28144 0.04228
# Poissons Ratio (z) = 0.28434 0.03878
#
# Static dielectric constant tensor:
#      x y z
#    x 1.950300 0.000000 0.018360 
#    y 0.000000 1.852880 0.000000 
#    z 0.018360 0.000000 1.902570 
# 
# From -- ./inp_files/26469.got.cif
#   From: 2010.05.17/outbox.cif.g08.bks.cpg/sg5_14_cif.got.tgz:26469.got - 2010.06.03 18:56:24.
