data_PCOD9121452
_publ_section_title
;
Structure prediction by ZEFSAII (Michael W. Deem and Ramdas Pophale) SiO2 
 PCOD9121452
Probable space group: C 2
;
_chemical_formula_sum "Si O2"
_cell_formula_units_Z 24
_cell_length_a 15.504458
_cell_length_b 16.812717
_cell_length_c 9.415732
_cell_angle_alpha 90.000000
_cell_angle_beta 153.372742
_cell_angle_gamma 90.000000
_cell_volume 1100.032051
_symmetry_space_group_name_H-M "C 2"
_symmetry_group_IT_number 5
_symmetry_cell_setting 'monoclinic'
loop_
_space_group_symop_operation_xyz
x,y,z
-x,y,-z
1/2+x,1/2+y,z
1/2-x,1/2+y,-z
loop_
_atom_site_type_symbol
_atom_site_label
_atom_site_fract_x
_atom_site_fract_y
_atom_site_fract_z
Si Si1 0.292886 0.231410 0.272396
Si Si2 0.547578 0.058985 0.903327
Si Si3 0.944858 0.903098 0.086249
Si Si4 0.317554 0.897076 0.835171
Si Si5 0.206790 0.558600 0.727527
Si Si6 0.948964 0.730934 0.089917
O O1 0.500000 0.233533 0.500000
O O2 0.189462 0.314217 0.089945
O O3 0.200744 0.145401 0.107958
O O4 0.353932 0.232629 0.528298
O O5 0.351913 0.053783 0.524798
O O6 0.500000 0.059742 0.000000
O O7 0.641391 0.144905 0.005980
O O8 0.663239 0.978006 0.046777
O O9 0.129923 0.904468 0.460536
O O10 0.849515 0.815844 0.971402
O O11 0.000000 0.905880 0.000000
O O12 0.823239 0.981159 0.938557
O O13 0.500000 0.891964 0.000000
O O14 0.000000 0.558469 0.500000
O O15 0.000000 0.729618 0.000000
#
# Coordination Sequence:
#
# PCOD9121452 Si02
#       6
#     4   4   4   4   4   4
#     4   9  19  35  54  77 107 141 178 221 267 315
#     4   9  17  33  54  76 104 140 176 216 262 313
#     4  10  19  34  55  80 108 142 181 221 265 318
#     4  10  20  34  54  82 110 141 179 221 265 318
#     4  10  21  37  56  80 110 142 178 223 271 317
#     4   8  16  31  52  73 102 140 174 212 262 311
#
# _framework density 21.817544999999999
#
# number of rings (size 3 to 8) (size 9 to 14) (size 15 to 20)
#    0.000    2.667    0.000    2.000    0.000    3.333 
#    0.000    8.333    0.000    1.000    0.000    0.000 
#    0.000    0.000    0.000    0.000    0.000    0.000 
#
# Total GULP energy -66850.552572 kJ/mol
# GULP energy per Si atom -5570.879381 kJ/mol
# Density = 2.176789 g / cm^3
# Si number density = 21.817545 Si / 1000 Ang^3
#
#
#
# Elastic Constant Matrix: (Units=GPa)
#
#
# Indices 1 2 3 4 5 6 
#
# 1 37.5481 16.9161 7.7200 0.0000 -7.0226 0.0000
# 2 16.9161 325.6840 48.6563 0.0000 21.7280 0.0000
# 3 7.7200 48.6563 37.2666 0.0000 -3.9554 0.0000
# 4 0.0000 0.0000 0.0000 32.3005 0.0000 9.1915
# 5 -7.0226 21.7280 -3.9554 0.0000 17.8412 0.0000
# 6 0.0000 0.0000 0.0000 9.1915 0.0000 -15.3229
#
#
#
# Elastic Compliance Matrix: (Units=1/GPa)
#
#
# Indices 1 2 3 4 5 6 
#
# 1 0.030751 -0.002287 -0.001847 0.000000 0.014480 0.000000
# 2 -0.002287 0.004702 -0.006522 0.000000 -0.008073 0.000000
# 3 -0.001847 -0.006522 0.037378 0.000000 0.015503 0.000000
# 4 0.000000 0.000000 0.000000 0.026445 0.000000 0.015863
# 5 0.014480 -0.008073 0.015503 0.000000 0.075018 0.000000
# 6 0.000000 0.000000 0.000000 0.015863 0.000000 -0.055746
#
#
# Mechanical properties :
#
#
# Convention : Reuss Voigt Hill
#
# Bulk Modulus (GPa) = 19.41090 60.78707 40.09898
# Shear Modulus (GPa) = 31.84013 28.77751 30.30882
#
# Velocity S-wave (km/s) = 3.82433 3.63575 3.73123
# Velocity P-wave (km/s) = 5.33075 6.74885 6.08128
#
# Compressibility (1/GPa) = 0.05151744
#
# Stress axis : x y z
#
# Youngs Moduli (GPa) = 32.51925 212.66172 26.75390
#
# Poissons Ratio (x) = 0.48643 0.04941
# Poissons Ratio (y) = 0.07438 0.17450
# Poissons Ratio (z) = 0.06006 1.38708
#
# Static dielectric constant tensor:
#      x y z
#    x 1.828770 0.000000 -0.029860 
#    y 0.000000 1.912890 0.000000 
#    z -0.029860 0.000000 1.772570 
# 
# From -- ./inp_files/36902.got.cif
#   From: 2010.05.17/outbox.cif.g08.bks.cpg/sg5_19_cif.got.tgz:36902.got - 2010.06.03 18:56:24.
