data_PCOD9121264
_publ_section_title
;
Structure prediction by ZEFSAII (Michael W. Deem and Ramdas Pophale) SiO2 
 PCOD9121264
Probable space group: C 2
;
_chemical_formula_sum "Si O2"
_cell_formula_units_Z 28
_cell_length_a 29.932267
_cell_length_b 5.024197
_cell_length_c 6.856017
_cell_angle_alpha 90.000000
_cell_angle_beta 78.151154
_cell_angle_gamma 90.000000
_cell_volume 1009.077455
_symmetry_space_group_name_H-M "C 2"
_symmetry_group_IT_number 5
_symmetry_cell_setting 'monoclinic'
loop_
_space_group_symop_operation_xyz
x,y,z
-x,y,-z
1/2+x,1/2+y,z
1/2-x,1/2+y,-z
loop_
_atom_site_type_symbol
_atom_site_label
_atom_site_fract_x
_atom_site_fract_y
_atom_site_fract_z
Si Si1 0.660679 0.997930 0.910577
Si Si2 0.127814 0.187365 0.464733
Si Si3 0.269964 0.136940 0.872293
Si Si4 0.298089 0.504174 0.342361
Si Si5 0.529945 0.170491 0.203771
Si Si6 0.569953 0.210203 0.601020
Si Si7 0.581328 0.675972 0.097529
O O1 0.608898 0.899782 0.950032
O O2 0.677764 0.085530 0.111008
O O3 0.683324 0.723059 0.825736
O O4 0.681212 0.226133 0.751785
O O5 0.107029 0.473160 0.541901
O O6 0.115409 0.140972 0.250941
O O7 0.179291 0.099741 0.476424
O O8 0.097714 0.977653 0.615047
O O9 0.255299 0.054991 0.664983
O O10 0.256621 0.429170 0.960123
O O11 0.547152 0.236116 0.407429
O O12 0.475606 0.188002 0.229620
O O13 0.561564 0.389340 0.064853
O O14 0.538053 0.854491 0.187218
#
# Coordination Sequence:
#
# PCOD9121264 Si02
#       7
#     4   4   4   4   4   4   4
#     4  10  19  33  53  75 101 135 175 213 255 309
#     4  10  19  31  51  77 103 130 168 217 261 304
#     4   8  16  30  50  72  94 128 172 210 242 300
#     4  10  19  33  53  75 101 135 175 213 255 309
#     4   9  17  30  49  73 100 132 170 210 253 306
#     4   9  17  30  49  73 100 132 170 210 253 306
#     4  10  19  31  51  77 103 130 168 217 261 304
#
# _framework density 27.748114999999999
#
# number of rings (size 3 to 8) (size 9 to 14) (size 15 to 20)
#    0.000    2.571    0.000    2.571    0.000    3.429 
#    0.000    0.000    0.000   28.286    0.000    0.000 
#    0.000    0.000    0.000    0.000    0.000    0.000 
#
# Total GULP energy -78157.123341 kJ/mol
# GULP energy per Si atom -5582.651667 kJ/mol
# Density = 2.768496 g / cm^3
# Si number density = 27.748115 Si / 1000 Ang^3
#
#
#
# Elastic Constant Matrix: (Units=GPa)
#
#
# Indices 1 2 3 4 5 6 
#
# 1 104.5079 50.2364 48.4427 0.0000 32.8064 0.0000
# 2 50.2364 192.8012 22.5646 0.0000 -7.7954 0.0000
# 3 48.4427 22.5646 76.6287 0.0000 29.6356 0.0000
# 4 0.0000 0.0000 0.0000 17.5611 0.0000 -7.7849
# 5 32.8064 -7.7954 29.6356 0.0000 47.9943 0.0000
# 6 0.0000 0.0000 0.0000 -7.7849 0.0000 32.0655
#
#
#
# Elastic Compliance Matrix: (Units=1/GPa)
#
#
# Indices 1 2 3 4 5 6 
#
# 1 0.017114 -0.004055 -0.006366 0.000000 -0.008425 0.000000
# 2 -0.004055 0.006557 -0.001118 0.000000 0.004527 0.000000
# 3 -0.006366 -0.001118 0.020745 0.000000 -0.008640 0.000000
# 4 0.000000 0.000000 0.000000 0.063812 0.000000 0.015492
# 5 -0.008425 0.004527 -0.008640 0.000000 0.032665 0.000000
# 6 0.000000 0.000000 0.000000 0.015492 0.000000 0.034947
#
#
# Mechanical properties :
#
#
# Convention : Reuss Voigt Hill
#
# Bulk Modulus (GPa) = 46.86679 68.49171 57.67925
# Shear Modulus (GPa) = 24.26814 36.37048 30.31931
#
# Velocity S-wave (km/s) = 2.96055 3.62434 3.30913
# Velocity P-wave (km/s) = 5.34913 6.50011 5.95250
#
# Compressibility (1/GPa) = 0.02133707
#
# Stress axis : x y z
#
# Youngs Moduli (GPa) = 58.43316 152.50577 48.20372
#
# Poissons Ratio (x) = 0.61836 0.30688
# Poissons Ratio (y) = 0.23693 0.05391
# Poissons Ratio (z) = 0.37200 0.17057
#
# Static dielectric constant tensor:
#      x y z
#    x 2.445390 0.000000 0.010210 
#    y 0.000000 2.057520 0.000000 
#    z 0.010210 0.000000 2.273500 
# 
# From -- ./inp_files/32044.got.cif
#   From: 2010.05.17/outbox.cif.g08.bks.cpg/sg5_17_cif.got.tgz:32044.got - 2010.06.03 18:56:24.
