data_PCOD9121483
_publ_section_title
;
Structure prediction by ZEFSAII (Michael W. Deem and Ramdas Pophale) SiO2 
 PCOD9121483
Probable space group: C 2
;
_chemical_formula_sum "Si O2"
_cell_formula_units_Z 30
_cell_length_a 17.751109
_cell_length_b 8.553265
_cell_length_c 30.380533
_cell_angle_alpha 90.000000
_cell_angle_beta 18.582017
_cell_angle_gamma 90.000000
_cell_volume 1469.883267
_symmetry_space_group_name_H-M "C 2"
_symmetry_group_IT_number 5
_symmetry_cell_setting 'monoclinic'
loop_
_space_group_symop_operation_xyz
x,y,z
-x,y,-z
1/2+x,1/2+y,z
1/2-x,1/2+y,-z
loop_
_atom_site_type_symbol
_atom_site_label
_atom_site_fract_x
_atom_site_fract_y
_atom_site_fract_z
Si Si1 0.220566 0.813010 0.770377
Si Si2 0.500000 0.287504 0.500000
Si Si3 0.536558 0.107761 0.389794
Si Si4 0.000485 0.094399 0.323238
Si Si5 0.698919 0.094427 0.006467
Si Si6 0.143421 0.336035 0.848303
Si Si7 0.096808 0.033293 0.009792
Si Si8 0.524369 0.796966 0.220855
O O1 0.408015 0.693505 0.685927
O O2 0.005846 0.718594 0.868674
O O3 0.327565 0.945321 0.680914
O O4 0.115742 0.908790 0.870107
O O5 0.501837 0.182871 0.455947
O O6 0.761222 0.361967 0.356074
O O7 0.687725 0.233146 0.277763
O O8 0.276933 0.065997 0.515276
O O9 0.024581 0.194586 0.265131
O O10 0.176412 0.945697 0.224439
O O11 0.550313 0.949640 0.067921
O O12 0.825591 0.051605 0.981693
O O13 0.871165 0.183453 0.876064
O O14 0.992592 0.201226 0.955431
O O15 0.306112 0.946284 0.869358
#
# Coordination Sequence:
#
# PCOD9121483 Si02
#       8
#     4   2   4   4   4   4   4   4
#     4   9  19  33  54  79 110 147 186 227 272 326
#     4  10  20  34  60  84 110 148 184 232 292 336
#     4  10  19  36  58  83 113 148 192 230 274 336
#     4  10  21  36  56  82 115 155 185 227 282 333
#     4  10  19  34  58  85 112 144 186 235 282 328
#     4  10  20  34  58  86 113 151 191 229 277 334
#     4  10  19  34  57  82 109 143 187 233 275 328
#     4  10  21  37  57  82 113 146 187 233 286 339
#
# _framework density 20.409784999999999
#
# number of rings (size 3 to 8) (size 9 to 14) (size 15 to 20)
#    0.000    2.133    0.000    4.800    0.000    4.800 
#    0.000    5.333    0.000   25.600    0.000    0.000 
#    0.000    0.000    0.000    0.000    0.000    0.000 
#
# Total GULP energy -83640.295063 kJ/mol
# GULP energy per Si atom -5576.019671 kJ/mol
# Density = 2.036333 g / cm^3
# Si number density = 20.409785 Si / 1000 Ang^3
#
#
#
# Elastic Constant Matrix: (Units=GPa)
#
#
# Indices 1 2 3 4 5 6 
#
# 1 55.7689 5.6872 15.8298 -0.0222 -3.1550 -0.0168
# 2 5.6872 108.7195 43.1043 -0.0324 -12.5719 -0.0224
# 3 15.8298 43.1043 103.2360 -0.0741 -13.0104 -0.1451
# 4 -0.0222 -0.0324 -0.0741 -6.2100 -0.0065 -33.2404
# 5 -3.1550 -12.5719 -13.0104 -0.0065 25.1492 0.0484
# 6 -0.0168 -0.0224 -0.1451 -33.2404 0.0484 -4.5665
#
#
#
# Elastic Compliance Matrix: (Units=1/GPa)
#
#
# Indices 1 2 3 4 5 6 
#
# 1 0.018774 0.000270 -0.002864 0.000005 0.001008 -0.000008
# 2 0.000270 0.011296 -0.004324 0.000017 0.003444 -0.000005
# 3 -0.002864 -0.004324 0.012423 -0.000042 0.003906 -0.000014
# 4 0.000005 0.000017 -0.000042 0.004242 0.000048 -0.030876
# 5 0.001008 0.003444 0.003906 0.000048 0.043632 -0.000030
# 6 -0.000008 -0.000005 -0.000014 -0.030876 -0.000030 0.005768
#
#
# Mechanical properties :
#
#
# Convention : Reuss Voigt Hill
#
# Bulk Modulus (GPa) = 34.89539 44.10744 39.50142
# Shear Modulus (GPa) = 41.83247 16.41474 29.12360
#
# Velocity S-wave (km/s) = 4.53219 2.83902 3.78159
# Velocity P-wave (km/s) = 6.67250 5.69250 6.20189
#
# Compressibility (1/GPa) = 0.02865708
#
# Stress axis : x y z
#
# Youngs Moduli (GPa) = 53.26602 88.52328 80.49327
#
# Poissons Ratio (x) = -0.02392 0.23057
# Poissons Ratio (y) = -0.01439 0.34806
# Poissons Ratio (z) = 0.15258 0.38278
#
# Static dielectric constant tensor:
#      x y z
#    x 1.728800 -0.000020 -0.030730 
#    y -0.000020 1.736320 0.000060 
#    z -0.030730 0.000060 1.772850 
# 
# From -- ./inp_files/55742.got.cif
#   From: 2010.05.17/outbox.cif.g08.bks.cpg/sg5_28_cif.got.tgz:55742.got - 2010.06.03 18:56:24.
