data_PCOD9121322
_publ_section_title
;
Structure prediction by ZEFSAII (Michael W. Deem and Ramdas Pophale) SiO2 
 PCOD9121322
Probable space group: C 2
;
_chemical_formula_sum "Si O2"
_cell_formula_units_Z 32
_cell_length_a 26.414768
_cell_length_b 14.436803
_cell_length_c 7.129213
_cell_angle_alpha 90.000000
_cell_angle_beta 139.219949
_cell_angle_gamma 90.000000
_cell_volume 1775.730299
_symmetry_space_group_name_H-M "C 2"
_symmetry_group_IT_number 5
_symmetry_cell_setting 'monoclinic'
loop_
_space_group_symop_operation_xyz
x,y,z
-x,y,-z
1/2+x,1/2+y,z
1/2-x,1/2+y,-z
loop_
_atom_site_type_symbol
_atom_site_label
_atom_site_fract_x
_atom_site_fract_y
_atom_site_fract_z
Si Si1 0.764588 0.829050 0.197879
Si Si2 0.853348 0.326239 0.820371
Si Si3 0.348675 0.038443 0.803466
Si Si4 0.718267 0.537291 0.759113
Si Si5 0.830255 0.631946 0.358647
Si Si6 0.582963 0.681152 0.302996
Si Si7 0.591923 0.834482 0.621789
Si Si8 0.481224 0.025234 0.724852
O O1 0.685576 0.840037 0.854891
O O2 0.728858 0.809764 0.306112
O O3 0.812923 0.739763 0.278057
O O4 0.803700 0.928994 0.296514
O O5 0.850384 0.431246 0.737854
O O6 0.880052 0.252313 0.744862
O O7 0.911774 0.325872 0.163376
O O8 0.282992 0.045694 0.776458
O O9 0.332352 0.105338 0.584141
O O10 0.435596 0.051831 0.127867
O O11 0.644875 0.601581 0.515127
O O12 0.762454 0.573611 0.067763
O O13 0.913142 0.599484 0.513256
O O14 0.567390 0.743750 0.442244
O O15 0.500000 0.646042 0.000000
O O16 0.552253 0.927610 0.439091
O O17 0.500000 0.017190 0.000000
#
# Coordination Sequence:
#
# PCOD9121322 Si02
#       8
#     4   4   4   4   4   4   4   4
#     4   9  20  37  55  80 105 150 180 212 269 325
#     4   9  20  35  54  84 110 138 173 228 280 322
#     4  10  21  33  56  84 111 139 176 226 277 324
#     4  11  22  38  55  77 111 147 181 223 269 326
#     4  11  19  36  55  78 115 142 180 218 269 328
#     4  12  23  35  56  83 110 145 185 223 271 326
#     4  10  19  36  55  85 116 135 175 229 281 323
#     4  10  19  32  56  88 112 140 178 227 279 321
#
# _framework density 18.020755999999999
#
# number of rings (size 3 to 8) (size 9 to 14) (size 15 to 20)
#    0.750    1.000    2.500    3.375    0.000    3.500 
#    0.000    1.875    0.000    0.000    0.000    5.250 
#    0.000    0.000    0.000    0.000    0.000    0.000 
#
# Total GULP energy -89258.633994 kJ/mol
# GULP energy per Si atom -5578.664625 kJ/mol
# Density = 1.797974 g / cm^3
# Si number density = 18.020756 Si / 1000 Ang^3
#
#
#
# Elastic Constant Matrix: (Units=GPa)
#
#
# Indices 1 2 3 4 5 6 
#
# 1 38.4261 43.5938 23.3903 0.0000 5.7829 0.0000
# 2 43.5938 136.6489 71.4147 0.0000 14.2268 0.0000
# 3 23.3903 71.4147 110.4831 0.0000 10.8183 0.0000
# 4 0.0000 0.0000 0.0000 37.0600 0.0000 5.1885
# 5 5.7829 14.2268 10.8183 0.0000 29.4256 0.0000
# 6 0.0000 0.0000 0.0000 5.1885 0.0000 17.4624
#
#
#
# Elastic Compliance Matrix: (Units=1/GPa)
#
#
# Indices 1 2 3 4 5 6 
#
# 1 0.040882 -0.012722 -0.000257 0.000000 -0.001789 0.000000
# 2 -0.012722 0.015240 -0.006930 0.000000 -0.002320 0.000000
# 3 -0.000257 -0.006930 0.013747 0.000000 -0.001653 0.000000
# 4 0.000000 0.000000 0.000000 0.028154 0.000000 -0.008365
# 5 -0.001789 -0.002320 -0.001653 0.000000 0.036065 0.000000
# 6 0.000000 0.000000 0.000000 -0.008365 0.000000 0.059751
#
#
# Mechanical properties :
#
#
# Convention : Reuss Voigt Hill
#
# Bulk Modulus (GPa) = 33.27641 62.48397 47.88019
# Shear Modulus (GPa) = 20.51912 26.60024 23.55968
#
# Velocity S-wave (km/s) = 3.37803 3.84616 3.61967
# Velocity P-wave (km/s) = 5.80693 7.38055 6.64052
#
# Compressibility (1/GPa) = 0.03005132
#
# Stress axis : x y z
#
# Youngs Moduli (GPa) = 24.46056 65.61668 72.74263
#
# Poissons Ratio (x) = 0.83476 0.01868
# Poissons Ratio (y) = 0.31118 0.50414
# Poissons Ratio (z) = 0.00628 0.45475
#
# Static dielectric constant tensor:
#      x y z
#    x 1.662080 0.000000 -0.001090 
#    y 0.000000 1.589870 0.000000 
#    z -0.001090 0.000000 1.648370 
# 
# From -- ./inp_files/29491.got.cif
#   From: 2010.05.17/outbox.cif.g08.bks.cpg/sg5_15_cif.got.tgz:29491.got - 2010.06.03 18:56:24.
