data_PCOD9121747
_publ_section_title
;
Structure prediction by ZEFSAII (Michael W. Deem and Ramdas Pophale) SiO2 
 PCOD9121747
Probable space group: C 2
;
_chemical_formula_sum "Si O2"
_cell_formula_units_Z 32
_cell_length_a 8.873145
_cell_length_b 19.451392
_cell_length_c 11.579253
_cell_angle_alpha 90.000000
_cell_angle_beta 115.882414
_cell_angle_gamma 90.000000
_cell_volume 1798.053347
_symmetry_space_group_name_H-M "C 2"
_symmetry_group_IT_number 5
_symmetry_cell_setting 'monoclinic'
loop_
_space_group_symop_operation_xyz
x,y,z
-x,y,-z
1/2+x,1/2+y,z
1/2-x,1/2+y,-z
loop_
_atom_site_type_symbol
_atom_site_label
_atom_site_fract_x
_atom_site_fract_y
_atom_site_fract_z
Si Si1 0.679294 0.075570 0.275469
Si Si2 0.824698 0.562063 0.463184
Si Si3 0.200097 0.161083 0.865667
Si Si4 0.813184 0.541312 0.069402
Si Si5 0.610576 0.409444 0.918190
Si Si6 0.690977 0.641248 0.217256
Si Si7 0.800415 0.268014 0.947969
Si Si8 0.007136 0.971593 0.638210
O O1 0.664379 0.088712 0.404671
O O2 0.725438 0.148332 0.233861
O O3 0.506596 0.042372 0.172134
O O4 0.834109 0.023497 0.308326
O O5 0.800941 0.623135 0.364194
O O6 0.663833 0.513795 0.403051
O O7 0.000000 0.524029 0.500000
O O8 0.001112 0.149972 0.809045
O O9 0.286433 0.098724 0.963349
O O10 0.235816 0.231283 0.942064
O O11 0.707542 0.574202 0.140256
O O12 0.740093 0.470188 0.998354
O O13 0.704592 0.339076 0.917729
O O14 0.525232 0.429805 0.765675
O O15 0.500000 0.401477 0.000000
O O16 0.741815 0.708865 0.161409
O O17 0.000000 0.279102 0.000000
O O18 0.000000 0.943206 0.500000
#
# Coordination Sequence:
#
# PCOD9121747 Si02
#       8
#     4   4   4   4   4   4   4   4
#     4  11  21  31  58  93 122 148 193 257 299 371
#     4  11  20  36  58  90 119 156 198 247 305 371
#     4  10  19  36  58  85 120 152 187 255 308 353
#     4  11  20  32  58  93 113 149 197 248 308 351
#     4  12  24  39  63  89 122 167 207 258 300 378
#     4  10  19  39  58  86 123 157 194 250 312 356
#     4   9  23  39  60  86 124 158 200 255 309 360
#     4  10  23  40  58  90 127 155 196 253 316 358
#
# _framework density 17.797024
#
# number of rings (size 3 to 8) (size 9 to 14) (size 15 to 20)
#    0.000    1.500    3.750    3.000    1.750    2.000 
#    0.000    0.625    0.000    0.000    0.000    0.000 
#    0.000    0.000    0.000    0.000    0.000    0.000 
#
# Total GULP energy -89122.216644 kJ/mol
# GULP energy per Si atom -5570.138540 kJ/mol
# Density = 1.775652 g / cm^3
# Si number density = 17.797024 Si / 1000 Ang^3
#
#
#
# Elastic Constant Matrix: (Units=GPa)
#
#
# Indices 1 2 3 4 5 6 
#
# 1 84.3609 50.6186 62.3572 0.0000 -2.1085 0.0000
# 2 50.6186 96.1554 56.4661 0.0000 -0.0518 0.0000
# 3 62.3572 56.4661 111.9001 0.0000 -8.7304 0.0000
# 4 0.0000 0.0000 0.0000 16.6376 0.0000 2.4792
# 5 -2.1085 -0.0518 -8.7304 0.0000 39.9675 0.0000
# 6 0.0000 0.0000 0.0000 2.4792 0.0000 18.3952
#
#
#
# Elastic Compliance Matrix: (Units=1/GPa)
#
#
# Indices 1 2 3 4 5 6 
#
# 1 0.022660 -0.006357 -0.009489 0.000000 -0.000885 0.000000
# 2 -0.006357 0.016669 -0.004978 0.000000 -0.001401 0.000000
# 3 -0.009489 -0.004978 0.016986 0.000000 0.003203 0.000000
# 4 0.000000 0.000000 0.000000 0.061336 0.000000 -0.008266
# 5 -0.000885 -0.001401 0.003203 0.000000 0.025672 0.000000
# 6 0.000000 0.000000 0.000000 -0.008266 0.000000 0.055476
#
#
# Mechanical properties :
#
#
# Convention : Reuss Voigt Hill
#
# Bulk Modulus (GPa) = 68.17920 70.14447 69.16183
# Shear Modulus (GPa) = 20.38025 23.19837 21.78931
#
# Velocity S-wave (km/s) = 3.38768 3.61431 3.50283
# Velocity P-wave (km/s) = 7.32764 7.54433 7.43677
#
# Compressibility (1/GPa) = 0.01466723
#
# Stress axis : x y z
#
# Youngs Moduli (GPa) = 44.13098 59.99173 58.87175
#
# Poissons Ratio (x) = 0.38137 0.55861
# Poissons Ratio (y) = 0.28055 0.29307
# Poissons Ratio (z) = 0.41874 0.29865
#
# Static dielectric constant tensor:
#      x y z
#    x 1.662220 0.000000 -0.039030 
#    y 0.000000 1.573340 0.000000 
#    z -0.039030 0.000000 1.675220 
# 
# From -- ./inp_files/37219.got.cif
#   From: 2010.05.17/outbox.cif.g08.bks.cpg/sg5_19_cif.got.tgz:37219.got - 2010.06.03 18:56:24.
