data_PCOD9121354
_publ_section_title
;
Structure prediction by ZEFSAII (Michael W. Deem and Ramdas Pophale) SiO2 
 PCOD9121354
Probable space group: C 2
;
_chemical_formula_sum "Si O2"
_cell_formula_units_Z 24
_cell_length_a 17.289426
_cell_length_b 9.532450
_cell_length_c 13.767419
_cell_angle_alpha 90.000000
_cell_angle_beta 26.138631
_cell_angle_gamma 90.000000
_cell_volume 999.602833
_symmetry_space_group_name_H-M "C 2"
_symmetry_group_IT_number 5
_symmetry_cell_setting 'monoclinic'
loop_
_space_group_symop_operation_xyz
x,y,z
-x,y,-z
1/2+x,1/2+y,z
1/2-x,1/2+y,-z
loop_
_atom_site_type_symbol
_atom_site_label
_atom_site_fract_x
_atom_site_fract_y
_atom_site_fract_z
Si Si1 0.739766 0.465650 0.873819
Si Si2 0.692824 0.332168 0.741137
Si Si3 0.937176 0.490430 0.337041
Si Si4 0.123859 0.238035 0.066114
Si Si5 0.068421 0.081729 0.534937
Si Si6 0.499021 0.303826 0.714906
O O1 0.805204 0.404133 0.700343
O O2 0.899441 0.482112 0.769781
O O3 0.630355 0.609363 0.984604
O O4 0.601890 0.359449 0.076987
O O5 0.758821 0.419003 0.574612
O O6 0.756004 0.173372 0.661863
O O7 0.500000 0.344724 0.000000
O O8 0.012160 0.378403 0.174194
O O9 0.911267 0.657041 0.358061
O O10 0.059595 0.165341 0.242332
O O11 0.328130 0.278089 0.840019
O O12 0.000000 0.076557 0.500000
O O13 0.097082 0.928559 0.548734
#
# Coordination Sequence:
#
# PCOD9121354 Si02
#       6
#     4   4   4   4   4   4
#     4   9  17  33  55  75 101 132 167 212 258 306
#     4  11  22  35  49  70 104 146 179 209 253 303
#     4   9  17  33  54  80 103 126 165 215 261 310
#     4   8  16  30  53  79 101 127 164 209 260 307
#     4  10  19  33  54  78 104 136 171 211 259 308
#     4   9  17  30  54  84 103 123 166 218 261 306
#
# _framework density 24.009535
#
# number of rings (size 3 to 8) (size 9 to 14) (size 15 to 20)
#    0.000    2.667    0.000    4.500    0.000    2.667 
#    0.000    5.833    0.000    0.000    0.000    0.000 
#    0.000    0.000    0.000    0.000    0.000    0.000 
#
# Total GULP energy -66914.326890 kJ/mol
# GULP energy per Si atom -5576.193907 kJ/mol
# Density = 2.395489 g / cm^3
# Si number density = 24.009535 Si / 1000 Ang^3
#
#
#
# Elastic Constant Matrix: (Units=GPa)
#
#
# Indices 1 2 3 4 5 6 
#
# 1 59.0619 9.3023 4.1050 0.0000 1.0320 0.0000
# 2 9.3023 217.5868 58.5528 0.0000 3.7526 0.0000
# 3 4.1050 58.5528 105.3798 0.0000 -16.4895 0.0000
# 4 0.0000 0.0000 0.0000 33.9693 0.0000 1.0296
# 5 1.0320 3.7526 -16.4895 0.0000 24.3958 0.0000
# 6 0.0000 0.0000 0.0000 1.0296 0.0000 4.5893
#
#
#
# Elastic Compliance Matrix: (Units=1/GPa)
#
#
# Indices 1 2 3 4 5 6 
#
# 1 0.017074 -0.000580 -0.000494 0.000000 -0.000967 0.000000
# 2 -0.000580 0.005656 -0.003637 0.000000 -0.003304 0.000000
# 3 -0.000494 -0.003637 0.012995 0.000000 0.009364 0.000000
# 4 0.000000 0.000000 0.000000 0.029640 0.000000 -0.006649
# 5 -0.000967 -0.003304 0.009364 0.000000 0.047869 0.000000
# 6 0.000000 0.000000 0.000000 -0.006649 0.000000 0.219391
#
#
# Mechanical properties :
#
#
# Convention : Reuss Voigt Hill
#
# Bulk Modulus (GPa) = 38.01956 58.43874 48.22915
# Shear Modulus (GPa) = 14.25247 33.26210 23.75729
#
# Velocity S-wave (km/s) = 2.43907 3.72609 3.14903
# Velocity P-wave (km/s) = 4.87869 6.55014 5.77521
#
# Compressibility (1/GPa) = 0.02630225
#
# Stress axis : x y z
#
# Youngs Moduli (GPa) = 58.56852 176.78857 76.95262
#
# Poissons Ratio (x) = 0.10260 0.03801
# Poissons Ratio (y) = 0.03399 0.27990
# Poissons Ratio (z) = 0.02893 0.64304
#
# Static dielectric constant tensor:
#      x y z
#    x 2.148420 0.000000 -0.031250 
#    y 0.000000 1.976490 0.000000 
#    z -0.031250 0.000000 1.874770 
# 
# From -- ./inp_files/22855.got.cif
#   From: 2010.05.17/outbox.cif.g08.bks.cpg/sg5_12_cif.got.tgz:22855.got - 2010.06.03 18:56:24.
