data_PCOD9121356
_publ_section_title
;
Structure prediction by ZEFSAII (Michael W. Deem and Ramdas Pophale) SiO2 
 PCOD9121356
Probable space group: C 2
;
_chemical_formula_sum "Si O2"
_cell_formula_units_Z 24
_cell_length_a 18.115396
_cell_length_b 9.048925
_cell_length_c 12.247748
_cell_angle_alpha 90.000000
_cell_angle_beta 40.316901
_cell_angle_gamma 90.000000
_cell_volume 1299.018169
_symmetry_space_group_name_H-M "C 2"
_symmetry_group_IT_number 5
_symmetry_cell_setting 'monoclinic'
loop_
_space_group_symop_operation_xyz
x,y,z
-x,y,-z
1/2+x,1/2+y,z
1/2-x,1/2+y,-z
loop_
_atom_site_type_symbol
_atom_site_label
_atom_site_fract_x
_atom_site_fract_y
_atom_site_fract_z
Si Si1 0.684188 0.088150 0.470701
Si Si2 0.250025 0.090438 0.201628
Si Si3 0.443927 0.383369 0.677957
Si Si4 0.576707 0.082397 0.177175
Si Si5 0.367694 0.903879 0.679198
Si Si6 0.315412 0.437370 0.508127
O O1 0.559375 0.062045 0.664985
O O2 0.706900 0.262804 0.452061
O O3 0.674117 0.028176 0.359053
O O4 0.775288 0.996574 0.437250
O O5 0.207278 0.258468 0.250052
O O6 0.154668 0.995514 0.243747
O O7 0.249729 0.026906 0.323892
O O8 0.367061 0.074312 0.004102
O O9 0.500000 0.328103 0.500000
O O10 0.402327 0.244091 0.793770
O O11 0.549448 0.458182 0.622411
O O12 0.631864 0.965959 0.198845
O O13 0.500000 0.870261 0.500000
#
# Coordination Sequence:
#
# PCOD9121356 Si02
#       6
#     4   4   4   4   4   4
#     4  10  21  37  56  74 102 140 177 210 250 308
#     4  11  20  32  55  82 107 131 167 217 260 301
#     4   9  18  35  54  75 104 139 172 206 253 308
#     4  10  20  34  54  79 107 135 166 213 263 303
#     4  10  19  33  54  80 104 135 175 209 249 306
#     4  10  20  35  55  76 102 138 177 211 251 304
#
# _framework density 18.475494000000001
#
# number of rings (size 3 to 8) (size 9 to 14) (size 15 to 20)
#    0.000    2.000    0.000    7.000    0.000    2.000 
#    0.000    0.000    0.000    9.000    0.000    0.000 
#    0.000    0.000    0.000    0.000    0.000    0.000 
#
# Total GULP energy -67006.070226 kJ/mol
# GULP energy per Si atom -5583.839185 kJ/mol
# Density = 1.843344 g / cm^3
# Si number density = 18.475494 Si / 1000 Ang^3
#
#
#
# Elastic Constant Matrix: (Units=GPa)
#
#
# Indices 1 2 3 4 5 6 
#
# 1 55.7038 -0.2723 -14.3078 0.0000 5.2087 0.0000
# 2 -0.2723 46.5674 3.2900 0.0000 -2.2372 0.0000
# 3 -14.3078 3.2900 48.9552 0.0000 8.0227 0.0000
# 4 0.0000 0.0000 0.0000 15.7249 0.0000 1.2191
# 5 5.2087 -2.2372 8.0227 0.0000 8.5447 0.0000
# 6 0.0000 0.0000 0.0000 1.2191 0.0000 26.3235
#
#
#
# Elastic Compliance Matrix: (Units=1/GPa)
#
#
# Indices 1 2 3 4 5 6 
#
# 1 0.023070 -0.001829 0.010930 0.000000 -0.024805 0.000000
# 2 -0.001829 0.022230 -0.003741 0.000000 0.010447 0.000000
# 3 0.010930 -0.003741 0.029694 0.000000 -0.035522 0.000000
# 4 0.000000 0.000000 0.000000 0.063823 0.000000 -0.002956
# 5 -0.024805 0.010447 -0.035522 0.000000 0.168240 0.000000
# 6 0.000000 0.000000 0.000000 -0.002956 0.000000 0.038126
#
#
# Mechanical properties :
#
#
# Convention : Reuss Voigt Hill
#
# Bulk Modulus (GPa) = 11.66651 14.29405 12.98028
# Shear Modulus (GPa) = 13.77289 20.95306 17.36298
#
# Velocity S-wave (km/s) = 2.73329 3.37129 3.06892
# Velocity P-wave (km/s) = 4.03602 4.78620 4.42703
#
# Compressibility (1/GPa) = 0.08571543
#
# Stress axis : x y z
#
# Youngs Moduli (GPa) = 43.34620 44.98475 33.67669
#
# Poissons Ratio (x) = 0.08228 -0.36810
# Poissons Ratio (y) = 0.07928 0.12597
# Poissons Ratio (z) = -0.47379 0.16827
#
# Static dielectric constant tensor:
#      x y z
#    x 1.626780 0.000000 -0.001460 
#    y 0.000000 1.627470 0.000000 
#    z -0.001460 0.000000 1.630150 
# 
# From -- ./inp_files/44087.got.cif
#   From: 2010.05.17/outbox.cif.g08.bks.cpg/sg5_23_cif.got.tgz:44087.got - 2010.06.03 18:56:24.
