data_PCOD9121447
_publ_section_title
;
Structure prediction by ZEFSAII (Michael W. Deem and Ramdas Pophale) SiO2 
 PCOD9121447
Probable space group: C 2
;
_chemical_formula_sum "Si O2"
_cell_formula_units_Z 24
_cell_length_a 19.462424
_cell_length_b 17.798531
_cell_length_c 11.266798
_cell_angle_alpha 90.000000
_cell_angle_beta 159.784137
_cell_angle_gamma 90.000000
_cell_volume 1348.660295
_symmetry_space_group_name_H-M "C 2"
_symmetry_group_IT_number 5
_symmetry_cell_setting 'monoclinic'
loop_
_space_group_symop_operation_xyz
x,y,z
-x,y,-z
1/2+x,1/2+y,z
1/2-x,1/2+y,-z
loop_
_atom_site_type_symbol
_atom_site_label
_atom_site_fract_x
_atom_site_fract_y
_atom_site_fract_z
Si Si1 0.731799 0.288170 0.383140
Si Si2 0.500640 0.666935 0.276939
Si Si3 0.064382 0.394526 0.968574
Si Si4 0.233343 0.740489 0.657005
Si Si5 0.627068 0.159653 0.822870
Si Si6 0.682025 0.534117 0.708808
O O1 0.763857 0.252318 0.566709
O O2 0.818469 0.225524 0.435346
O O3 0.862542 0.363437 0.581207
O O4 0.500000 0.302986 0.000000
O O5 0.584823 0.584825 0.445853
O O6 0.376401 0.679448 0.953478
O O7 0.338847 0.687407 0.115765
O O8 0.205066 0.321077 0.190481
O O9 0.184168 0.465029 0.114951
O O10 0.000000 0.408793 0.000000
O O11 0.010482 0.718291 0.330704
O O12 0.500000 0.137198 0.500000
O O13 0.678950 0.090630 0.991372
O O14 0.500000 0.511036 0.500000
#
# Coordination Sequence:
#
# PCOD9121447 Si02
#       6
#     4   4   4   4   4   4
#     4  10  19  34  55  79 107 141 180 221 262 314
#     4   9  18  32  53  79 104 133 175 218 261 312
#     4   9  20  36  52  75 107 140 176 219 265 312
#     4   9  18  35  57  78 105 138 175 219 264 314
#     4   9  18  33  53  78 106 135 173 220 263 315
#     4  10  20  34  54  79 107 139 176 219 268 315
#
# _framework density 17.795437
#
# number of rings (size 3 to 8) (size 9 to 14) (size 15 to 20)
#    0.000    2.667    0.000    2.500    0.000    5.333 
#    0.000   10.000    0.000   16.000    0.000    0.000 
#    0.000    0.000    0.000    0.000    0.000    0.000 
#
# Total GULP energy -66812.205824 kJ/mol
# GULP energy per Si atom -5567.683819 kJ/mol
# Density = 1.775493 g / cm^3
# Si number density = 17.795437 Si / 1000 Ang^3
#
#
#
# Elastic Constant Matrix: (Units=GPa)
#
#
# Indices 1 2 3 4 5 6 
#
# 1 68.9395 69.0486 50.9501 0.0000 15.9127 0.0000
# 2 69.0486 107.4595 68.9016 0.0000 23.3397 0.0000
# 3 50.9501 68.9016 115.1493 0.0000 28.5697 0.0000
# 4 0.0000 0.0000 0.0000 12.8195 0.0000 17.2862
# 5 15.9127 23.3397 28.5697 0.0000 39.8652 0.0000
# 6 0.0000 0.0000 0.0000 17.2862 0.0000 33.1865
#
#
#
# Elastic Compliance Matrix: (Units=1/GPa)
#
#
# Indices 1 2 3 4 5 6 
#
# 1 0.041772 -0.024365 -0.004021 0.000000 0.000473 0.000000
# 2 -0.024365 0.029587 -0.006128 0.000000 -0.003205 0.000000
# 3 -0.004021 -0.006128 0.015619 0.000000 -0.006001 0.000000
# 4 0.000000 0.000000 0.000000 0.262086 0.000000 -0.136515
# 5 0.000473 -0.003205 -0.006001 0.000000 0.031073 0.000000
# 6 0.000000 0.000000 0.000000 -0.136515 0.000000 0.101241
#
#
# Mechanical properties :
#
#
# Convention : Reuss Voigt Hill
#
# Bulk Modulus (GPa) = 55.70969 74.37211 65.04090
# Shear Modulus (GPa) = 8.98654 24.01745 16.50199
#
# Velocity S-wave (km/s) = 2.24964 3.67773 3.04849
# Velocity P-wave (km/s) = 6.17425 7.74066 7.00140
#
# Compressibility (1/GPa) = 0.01795020
#
# Stress axis : x y z
#
# Youngs Moduli (GPa) = 23.93973 33.79862 64.02467
#
# Poissons Ratio (x) = 0.82351 0.25742
# Poissons Ratio (y) = 0.58330 0.39233
# Poissons Ratio (z) = 0.09625 0.20711
#
# Static dielectric constant tensor:
#      x y z
#    x 1.640810 0.000000 -0.017470 
#    y 0.000000 1.572160 0.000000 
#    z -0.017470 0.000000 1.665390 
# 
# From -- ./inp_files/15728.got.cif
#   From: 2010.05.17/outbox.cif.g08.bks.cpg/sg5_8_cif.got.tgz:15728.got - 2010.06.03 18:56:24.
