data_PCOD9121909
_publ_section_title
;
Structure prediction by ZEFSAII (Michael W. Deem and Ramdas Pophale) SiO2 
 PCOD9121909
Probable space group: C 2
;
_chemical_formula_sum "Si O2"
_cell_formula_units_Z 32
_cell_length_a 20.466734
_cell_length_b 11.559789
_cell_length_c 5.612572
_cell_angle_alpha 90.000000
_cell_angle_beta 105.360517
_cell_angle_gamma 90.000000
_cell_volume 1280.450263
_symmetry_space_group_name_H-M "C 2"
_symmetry_group_IT_number 5
_symmetry_cell_setting 'monoclinic'
loop_
_space_group_symop_operation_xyz
x,y,z
-x,y,-z
1/2+x,1/2+y,z
1/2-x,1/2+y,-z
loop_
_atom_site_type_symbol
_atom_site_label
_atom_site_fract_x
_atom_site_fract_y
_atom_site_fract_z
Si Si1 0.073364 0.359530 0.573435
Si Si2 0.278311 0.777833 0.394947
Si Si3 0.941075 0.589208 0.745623
Si Si4 0.208576 0.729294 0.823132
Si Si5 0.346932 0.014420 0.028352
Si Si6 0.692352 0.485052 0.829608
Si Si7 0.036884 0.847920 0.294526
Si Si8 0.172535 0.986760 0.315923
O O1 0.140821 0.299619 0.533421
O O2 0.057644 0.475180 0.408921
O O3 0.101803 0.412833 0.849474
O O4 0.000000 0.296099 0.500000
O O5 0.251387 0.726705 0.620414
O O6 0.238518 0.903533 0.363954
O O7 0.250719 0.727285 0.114398
O O8 0.948995 0.713472 0.637849
O O9 0.871839 0.582485 0.823887
O O10 0.000000 0.581780 0.000000
O O11 0.162482 0.614779 0.784448
O O12 0.167536 0.850814 0.796329
O O13 0.272852 0.965755 0.914972
O O14 0.677329 0.552031 0.571948
O O15 0.667310 0.540861 0.049664
O O16 0.106245 0.911356 0.297462
O O17 0.000000 0.895192 0.500000
O O18 0.000000 0.852329 0.000000
#
# Coordination Sequence:
#
# PCOD9121909 Si02
#       8
#     4   4   4   4   4   4   4   4
#     4  12  24  39  61  93 137 180 209 268 337 404
#     4  10  22  41  58  86 124 166 227 256 308 380
#     4  11  23  34  52  86 133 173 206 243 320 410
#     4  10  22  38  61  86 122 167 211 272 308 376
#     4  12  24  38  62  93 132 172 216 272 324 389
#     4  10  21  37  57  89 118 163 213 269 309 375
#     4  11  24  38  57  89 129 170 211 259 326 401
#     4  10  19  37  59  78 120 160 211 262 305 368
#
# _framework density 24.991209999999999
#
# number of rings (size 3 to 8) (size 9 to 14) (size 15 to 20)
#    0.000    1.250    3.750    4.125    7.000    0.000 
#    0.000    0.000    0.000    0.000    0.000    8.750 
#    0.000    0.000    0.000    0.000    0.000    0.000 
#
# Total GULP energy -89427.641106 kJ/mol
# GULP energy per Si atom -5589.227569 kJ/mol
# Density = 2.493433 g / cm^3
# Si number density = 24.991210 Si / 1000 Ang^3
#
#
#
# Elastic Constant Matrix: (Units=GPa)
#
#
# Indices 1 2 3 4 5 6 
#
# 1 138.7693 9.7185 46.9831 0.0000 -24.1636 0.0000
# 2 9.7185 35.8211 21.1157 0.0000 -8.9915 0.0000
# 3 46.9831 21.1157 179.9229 0.0000 -32.1562 0.0000
# 4 0.0000 0.0000 0.0000 84.7924 0.0000 -4.4556
# 5 -24.1636 -8.9915 -32.1562 0.0000 60.5528 0.0000
# 6 0.0000 0.0000 0.0000 -4.4556 0.0000 36.1119
#
#
#
# Elastic Compliance Matrix: (Units=1/GPa)
#
#
# Indices 1 2 3 4 5 6 
#
# 1 0.008214 -0.000676 -0.001655 0.000000 0.002299 0.000000
# 2 -0.000676 0.030501 -0.002919 0.000000 0.002709 0.000000
# 3 -0.001655 -0.002919 0.006781 0.000000 0.002507 0.000000
# 4 0.000000 0.000000 0.000000 0.011870 0.000000 0.001465
# 5 0.002299 0.002709 0.002507 0.000000 0.019165 0.000000
# 6 0.000000 0.000000 0.000000 0.001465 0.000000 0.027872
#
#
# Mechanical properties :
#
#
# Convention : Reuss Voigt Hill
#
# Bulk Modulus (GPa) = 28.57470 56.68309 42.62890
# Shear Modulus (GPa) = 39.50438 54.73781 47.12109
#
# Velocity S-wave (km/s) = 3.98015 4.68512 4.34695
# Velocity P-wave (km/s) = 5.70797 7.21094 6.50302
#
# Compressibility (1/GPa) = 0.03499599
#
# Stress axis : x y z
#
# Youngs Moduli (GPa) = 121.74228 32.78633 147.47827
#
# Poissons Ratio (x) = 0.02217 0.24404
# Poissons Ratio (y) = 0.08231 0.43046
# Poissons Ratio (z) = 0.20145 0.09570
#
# Static dielectric constant tensor:
#      x y z
#    x 2.012650 0.000000 0.003320 
#    y 0.000000 2.025080 0.000000 
#    z 0.003320 0.000000 2.103810 
# 
# From -- ./inp_files/9750.got.cif
#   From: 2010.05.17/outbox.cif.g08.bks.cpg/sg5_5_cif.got.tgz:9750.got - 2010.06.03 18:56:24.
