data_PCOD9121521
_publ_section_title
;
Structure prediction by ZEFSAII (Michael W. Deem and Ramdas Pophale) SiO2 
 PCOD9121521
Probable space group: C 2
;
_chemical_formula_sum "Si O2"
_cell_formula_units_Z 30
_cell_length_a 17.473235
_cell_length_b 9.242035
_cell_length_c 31.108924
_cell_angle_alpha 90.000000
_cell_angle_beta 161.014827
_cell_angle_gamma 90.000000
_cell_volume 1634.335831
_symmetry_space_group_name_H-M "C 2"
_symmetry_group_IT_number 5
_symmetry_cell_setting 'monoclinic'
loop_
_space_group_symop_operation_xyz
x,y,z
-x,y,-z
1/2+x,1/2+y,z
1/2-x,1/2+y,-z
loop_
_atom_site_type_symbol
_atom_site_label
_atom_site_fract_x
_atom_site_fract_y
_atom_site_fract_z
Si Si1 0.143958 0.297430 0.921886
Si Si2 0.270849 0.802401 0.161588
Si Si3 0.000000 0.352499 0.000000
Si Si4 0.077980 0.539486 0.819545
Si Si5 0.577213 0.671089 0.115142
Si Si6 0.190123 0.872438 0.212939
Si Si7 0.882564 0.050038 0.160395
Si Si8 0.265052 0.808320 0.347700
O O1 0.033857 0.415564 0.831736
O O2 0.995408 0.279527 0.885755
O O3 0.152904 0.144338 0.901522
O O4 0.412272 0.342978 0.073626
O O5 0.261146 0.788438 0.207428
O O6 0.396926 0.668714 0.205740
O O7 0.389345 0.950413 0.207338
O O8 0.000000 0.805475 0.000000
O O9 0.162479 0.256381 0.118251
O O10 0.161433 0.450913 0.055532
O O11 0.888825 0.665773 0.723121
O O12 0.332812 0.602876 0.967734
O O13 0.714892 0.539684 0.210801
O O14 0.312836 0.824471 0.321917
O O15 0.105314 0.947227 0.274217
O O16 0.500000 0.806614 0.500000
#
# Coordination Sequence:
#
# PCOD9121521 Si02
#       8
#     4   4   2   4   4   4   4   4
#     4  10  19  34  59  91 121 145 187 252 320 349
#     4  11  19  35  62  97 125 146 175 249 334 357
#     4  12  20  28  58  96 126 138 182 250 320 354
#     4  10  21  35  57  86 122 151 193 243 296 357
#     4  11  19  30  56  97 120 144 182 253 317 352
#     4  11  20  35  61  88 123 152 194 245 306 358
#     4  11  21  37  58  95 123 150 187 249 302 365
#     4  12  26  43  59  79 121 175 211 233 269 351
#
# _framework density 18.356079999999999
#
# number of rings (size 3 to 8) (size 9 to 14) (size 15 to 20)
#    0.000    1.067    8.667    0.800    1.867    1.067 
#    0.000    4.000    0.000    0.000    0.000    0.000 
#    0.000    0.000    0.000    0.000    0.000    0.000 
#
# Total GULP energy -83720.223772 kJ/mol
# GULP energy per Si atom -5581.348251 kJ/mol
# Density = 1.831430 g / cm^3
# Si number density = 18.356080 Si / 1000 Ang^3
#
#
#
# Elastic Constant Matrix: (Units=GPa)
#
#
# Indices 1 2 3 4 5 6 
#
# 1 110.2672 32.9789 25.8436 -0.0008 -30.0956 0.0002
# 2 32.9789 101.5991 29.3200 0.0001 -8.4394 -0.0006
# 3 25.8436 29.3200 67.1830 0.0057 -23.2172 -0.0023
# 4 -0.0008 0.0001 0.0057 6.8780 0.0003 -2.1371
# 5 -30.0956 -8.4394 -23.2172 0.0003 19.5176 0.0011
# 6 0.0002 -0.0006 -0.0023 -2.1371 0.0011 23.4400
#
#
#
# Elastic Compliance Matrix: (Units=1/GPa)
#
#
# Indices 1 2 3 4 5 6 
#
# 1 0.018382 -0.005152 0.007137 -0.000006 0.034607 -0.000002
# 2 -0.005152 0.012736 -0.007503 0.000006 -0.011362 0.000001
# 3 0.007137 -0.007503 0.030727 -0.000027 0.044312 -0.000002
# 4 -0.000006 0.000006 -0.000027 0.149630 -0.000041 0.013642
# 5 0.034607 -0.011362 0.044312 -0.000041 0.152397 -0.000007
# 6 -0.000002 0.000001 -0.000002 0.013642 -0.000007 0.043906
#
#
# Mechanical properties :
#
#
# Convention : Reuss Voigt Hill
#
# Bulk Modulus (GPa) = 19.68136 50.59269 35.13702
# Shear Modulus (GPa) = 11.47441 22.69423 17.08432
#
# Velocity S-wave (km/s) = 2.50291 3.51997 3.05408
# Velocity P-wave (km/s) = 4.37013 6.64394 5.62316
#
# Compressibility (1/GPa) = 0.05080951
#
# Stress axis : x y z
#
# Youngs Moduli (GPa) = 54.39968 78.51528 32.54425
#
# Poissons Ratio (x) = 0.40449 -0.23226
# Poissons Ratio (y) = 0.28026 0.24419
# Poissons Ratio (z) = -0.38823 0.58912
#
# Static dielectric constant tensor:
#      x y z
#    x 1.672110 0.000000 -0.013530 
#    y 0.000000 1.698820 0.000000 
#    z -0.013530 0.000000 1.587500 
# 
# From -- ./inp_files/46010.got.cif
#   From: 2010.05.17/outbox.cif.g08.bks.cpg/sg5_24_cif.got.tgz:46010.got - 2010.06.03 18:56:24.
