data_PCOD9121711
_publ_section_title
;
Structure prediction by ZEFSAII (Michael W. Deem and Ramdas Pophale) SiO2 
 PCOD9121711
Probable space group: C 2
;
_chemical_formula_sum "Si O2"
_cell_formula_units_Z 18
_cell_length_a 20.050452
_cell_length_b 8.673172
_cell_length_c 14.796982
_cell_angle_alpha 90.000000
_cell_angle_beta 162.853885
_cell_angle_gamma 90.000000
_cell_volume 758.606847
_symmetry_space_group_name_H-M "C 2"
_symmetry_group_IT_number 5
_symmetry_cell_setting 'monoclinic'
loop_
_space_group_symop_operation_xyz
x,y,z
-x,y,-z
1/2+x,1/2+y,z
1/2-x,1/2+y,-z
loop_
_atom_site_type_symbol
_atom_site_label
_atom_site_fract_x
_atom_site_fract_y
_atom_site_fract_z
Si Si1 0.500000 0.947610 0.000000
Si Si2 0.739199 0.909364 0.697729
Si Si3 0.946750 0.876344 0.148662
Si Si4 0.434919 0.249473 0.518932
Si Si5 0.790849 0.172643 0.491093
O O1 0.298251 0.841698 0.771752
O O2 0.404570 0.059801 0.799334
O O3 0.642421 0.781099 0.505715
O O4 0.606131 0.068479 0.517687
O O5 0.000000 0.933036 0.000000
O O6 0.765537 0.852742 0.835064
O O7 0.903727 0.823118 0.195034
O O8 0.171420 0.778354 0.411077
O O9 0.010409 0.057464 0.224021
O O10 0.500000 0.270693 0.500000
#
# Coordination Sequence:
#
# PCOD9121711 Si02
#       5
#     2   4   4   4   4
#     4  10  20  40  68  86 128 164 196 264 302 356
#     4  10  19  40  62  89 122 161 207 255 304 363
#     4  10  20  36  61  92 121 163 204 248 315 361
#     4  11  24  42  60  93 130 161 209 254 302 372
#     4  10  19  35  66  95 119 160 211 252 306 373
#
# _framework density 23.727705
#
# number of rings (size 3 to 8) (size 9 to 14) (size 15 to 20)
#    0.000    1.778    4.444    2.667    3.111    0.000 
#    4.000    4.444    0.000    0.000    0.000    0.000 
#    0.000    0.000    0.000    0.000    0.000    0.000 
#
# Total GULP energy -50383.981917 kJ/mol
# GULP energy per Si atom -5598.220213 kJ/mol
# Density = 2.367370 g / cm^3
# Si number density = 23.727705 Si / 1000 Ang^3
#
#
#
# Elastic Constant Matrix: (Units=GPa)
#
#
# Indices 1 2 3 4 5 6 
#
# 1 137.4685 69.0066 46.7018 0.0004 -33.9089 0.0005
# 2 69.0066 143.1038 20.7715 0.0007 -5.0370 0.0004
# 3 46.7018 20.7715 57.2359 0.0023 2.4650 0.0016
# 4 0.0004 0.0007 0.0023 8.1138 0.0012 -28.5500
# 5 -33.9089 -5.0370 2.4650 0.0012 23.3396 0.0009
# 6 0.0005 0.0004 0.0016 -28.5500 0.0009 26.9108
#
#
#
# Elastic Compliance Matrix: (Units=1/GPa)
#
#
# Indices 1 2 3 4 5 6 
#
# 1 0.033216 -0.010627 -0.025341 0.000001 0.048640 0.000001
# 2 -0.010627 0.010860 0.005318 0.000000 -0.013657 0.000000
# 3 -0.025341 0.005318 0.037927 0.000002 -0.039674 0.000002
# 4 0.000001 0.000000 0.000002 -0.045096 0.000006 -0.047842
# 5 0.048640 -0.013657 -0.039674 0.000006 0.114755 0.000004
# 6 0.000001 0.000000 0.000002 -0.047842 0.000004 -0.013597
#
#
# Mechanical properties :
#
#
# Convention : Reuss Voigt Hill
#
# Bulk Modulus (GPa) = 48.30081 67.86312 58.08197
# Shear Modulus (GPa) = 24.24055 25.09473 24.66764
#
# Velocity S-wave (km/s) = 3.19974 3.25562 3.22780
# Velocity P-wave (km/s) = 5.83537 6.54179 6.19865
#
# Compressibility (1/GPa) = 0.02070359
#
# Stress axis : x y z
#
# Youngs Moduli (GPa) = 30.10620 92.08338 26.36639
#
# Poissons Ratio (x) = 0.97856 0.66814
# Poissons Ratio (y) = 0.31993 -0.14022
# Poissons Ratio (z) = 0.76291 -0.48971
#
# Static dielectric constant tensor:
#      x y z
#    x 1.935460 0.000000 0.006080 
#    y 0.000000 1.872780 0.000000 
#    z 0.006080 0.000000 1.924700 
# 
# From -- ./inp_files/18025.got.cif
#   From: 2010.05.17/outbox.cif.g08.bks.cpg/sg5_10_cif.got.tgz:18025.got - 2010.06.03 18:56:24.
