data_PCOD9121681
_publ_section_title
;
Structure prediction by ZEFSAII (Michael W. Deem and Ramdas Pophale) SiO2 
 PCOD9121681
Probable space group: C 2
;
_chemical_formula_sum "Si O2"
_cell_formula_units_Z 32
_cell_length_a 17.801609
_cell_length_b 5.560845
_cell_length_c 14.660357
_cell_angle_alpha 90.000000
_cell_angle_beta 84.411555
_cell_angle_gamma 90.000000
_cell_volume 1444.360148
_symmetry_space_group_name_H-M "C 2"
_symmetry_group_IT_number 5
_symmetry_cell_setting 'monoclinic'
loop_
_space_group_symop_operation_xyz
x,y,z
-x,y,-z
1/2+x,1/2+y,z
1/2-x,1/2+y,-z
loop_
_atom_site_type_symbol
_atom_site_label
_atom_site_fract_x
_atom_site_fract_y
_atom_site_fract_z
Si Si1 0.678661 0.545250 0.288756
Si Si2 0.277597 0.045545 0.451000
Si Si3 0.454817 0.044579 0.409772
Si Si4 0.306128 0.045243 0.823680
Si Si5 0.458526 0.545687 0.908975
Si Si6 0.207743 0.045641 0.982906
Si Si7 0.512750 0.544586 0.388763
Si Si8 0.537933 0.045666 0.098333
O O1 0.746388 0.545520 0.352249
O O2 0.681619 0.794795 0.231515
O O3 0.600596 0.545156 0.353765
O O4 0.681704 0.295591 0.231593
O O5 0.250061 0.295635 0.499970
O O6 0.367236 0.045231 0.442384
O O7 0.500000 0.044328 0.500000
O O8 0.476888 0.794594 0.359566
O O9 0.477164 0.294233 0.359474
O O10 0.220161 0.045086 0.872184
O O11 0.371027 0.045533 0.895935
O O12 0.482177 0.789642 0.857684
O O13 0.482143 0.301712 0.857687
O O14 0.500000 0.545694 0.000000
O O15 0.371477 0.545632 0.954620
O O16 0.250062 0.795852 0.000167
O O17 0.500000 0.544369 0.500000
O O18 0.500000 0.045689 0.000000
#
# Coordination Sequence:
#
# PCOD9121681 Si02
#       8
#     4   4   4   4   4   4   4   4
#     4  12  26  42  67 100 136 174 214 284 364 386
#     4  12  23  41  69 100 128 174 227 271 324 419
#     4  10  19  35  64  91 120 151 212 268 303 367
#     4  12  24  41  66  97 141 170 217 288 347 390
#     4  10  19  35  62  97 117 158 227 267 298 375
#     4  12  21  38  67  94 122 179 227 263 314 405
#     4  10  20  39  64  91 120 171 221 259 317 411
#     4  10  20  37  65  92 128 167 227 263 314 395
#
# _framework density 22.155141
#
# number of rings (size 3 to 8) (size 9 to 14) (size 15 to 20)
#    0.000    1.000    2.500    6.750    0.000    0.000 
#    0.000    0.000   33.000    0.000    0.000    0.000 
#    0.000    0.000    0.000    0.000    0.000    0.000 
#
# Total GULP energy -89112.814331 kJ/mol
# GULP energy per Si atom -5569.550896 kJ/mol
# Density = 2.210472 g / cm^3
# Si number density = 22.155141 Si / 1000 Ang^3
#
#
#
# Elastic Constant Matrix: (Units=GPa)
#
#
# Indices 1 2 3 4 5 6 
#
# 1 127.6778 44.5664 47.0435 0.0000 14.7259 0.0000
# 2 44.5664 277.1169 42.2393 0.0000 -5.4366 0.0000
# 3 47.0435 42.2393 98.1383 0.0000 -1.8032 0.0000
# 4 0.0000 0.0000 0.0000 28.9609 0.0000 -7.4312
# 5 14.7259 -5.4366 -1.8032 0.0000 38.2183 0.0000
# 6 0.0000 0.0000 0.0000 -7.4312 0.0000 31.4619
#
#
#
# Elastic Compliance Matrix: (Units=1/GPa)
#
#
# Indices 1 2 3 4 5 6 
#
# 1 0.010406 -0.001056 -0.004614 0.000000 -0.004377 0.000000
# 2 -0.001056 0.003978 -0.001189 0.000000 0.000917 0.000000
# 3 -0.004614 -0.001189 0.012954 0.000000 0.002220 0.000000
# 4 0.000000 0.000000 0.000000 0.036757 0.000000 0.008682
# 5 -0.004377 0.000917 0.002220 0.000000 0.028087 0.000000
# 6 0.000000 0.000000 0.000000 0.008682 0.000000 0.033835
#
#
# Mechanical properties :
#
#
# Convention : Reuss Voigt Hill
#
# Bulk Modulus (GPa) = 73.42464 85.62570 79.52517
# Shear Modulus (GPa) = 34.65619 44.33381 39.49500
#
# Velocity S-wave (km/s) = 3.95935 4.47818 4.22673
# Velocity P-wave (km/s) = 7.35629 8.09141 7.73259
#
# Compressibility (1/GPa) = 0.01361941
#
# Stress axis : x y z
#
# Youngs Moduli (GPa) = 96.10073 251.40618 77.19649
#
# Poissons Ratio (x) = 0.26550 0.35618
# Poissons Ratio (y) = 0.10149 0.09178
# Poissons Ratio (z) = 0.44341 0.29890
#
# Static dielectric constant tensor:
#      x y z
#    x 1.794980 0.000000 0.000750 
#    y 0.000000 2.048380 0.000000 
#    z 0.000750 0.000000 1.781130 
# 
# From -- ./inp_files/55461.got.cif
#   From: 2010.05.17/outbox.cif.g08.bks.cpg/sg5_28_cif.got.tgz:55461.got - 2010.06.03 18:56:24.
