data_PCOD9121588
_publ_section_title
;
Structure prediction by ZEFSAII (Michael W. Deem and Ramdas Pophale) SiO2 
 PCOD9121588
Probable space group: C 2
;
_chemical_formula_sum "Si O2"
_cell_formula_units_Z 32
_cell_length_a 6.079325
_cell_length_b 18.592979
_cell_length_c 17.813659
_cell_angle_alpha 90.000000
_cell_angle_beta 52.186593
_cell_angle_gamma 90.000000
_cell_volume 1590.709695
_symmetry_space_group_name_H-M "C 2"
_symmetry_group_IT_number 5
_symmetry_cell_setting 'monoclinic'
loop_
_space_group_symop_operation_xyz
x,y,z
-x,y,-z
1/2+x,1/2+y,z
1/2-x,1/2+y,-z
loop_
_atom_site_type_symbol
_atom_site_label
_atom_site_fract_x
_atom_site_fract_y
_atom_site_fract_z
Si Si1 0.264441 0.890090 0.242940
Si Si2 0.739662 0.773048 0.888918
Si Si3 0.689154 0.664421 0.768705
Si Si4 0.163367 0.329345 0.398545
Si Si5 0.797665 0.102899 0.607385
Si Si6 0.481932 0.981385 0.416944
Si Si7 0.855287 0.286925 0.760518
Si Si8 0.066689 0.043317 0.260645
O O1 0.275975 0.841150 0.165129
O O2 0.519136 0.863459 0.240899
O O3 0.971402 0.864673 0.343961
O O4 0.274811 0.975236 0.222652
O O5 0.705995 0.699947 0.847229
O O6 0.050070 0.774381 0.858097
O O7 0.500000 0.778072 0.000000
O O8 0.575396 0.728996 0.741684
O O9 0.471406 0.599178 0.799813
O O10 0.997458 0.641262 0.677430
O O11 0.957165 0.396388 0.424936
O O12 0.182239 0.282084 0.320657
O O13 0.000000 0.292175 0.500000
O O14 0.733431 0.023079 0.588582
O O15 0.911142 0.090592 0.667694
O O16 0.000000 0.133185 0.500000
O O17 0.500000 0.006992 0.500000
O O18 0.777394 0.000911 0.320735
#
# Coordination Sequence:
#
# PCOD9121588 Si02
#       8
#     4   4   4   4   4   4   4   4
#     4   9  20  36  61  91 117 153 196 252 308 351
#     4  10  22  44  71  90 108 150 204 255 320 389
#     4  10  23  38  59  88 122 162 206 251 301 359
#     4   9  18  32  53  83 120 158 201 244 286 343
#     4  11  20  32  54  85 123 175 210 237 281 351
#     4   9  16  29  49  81 111 155 210 245 281 332
#     4  10  20  40  58  87 119 153 203 254 301 367
#     4  10  19  35  56  84 125 158 198 250 297 347
#
# _framework density 20.116807999999999
#
# number of rings (size 3 to 8) (size 9 to 14) (size 15 to 20)
#    0.000    2.250    1.250    1.500    0.000    3.500 
#    0.000   15.000    5.500    0.000    0.000    0.000 
#    0.000    0.000    0.000    0.000    0.000    0.000 
#
# Total GULP energy -89146.030619 kJ/mol
# GULP energy per Si atom -5571.626914 kJ/mol
# Density = 2.007102 g / cm^3
# Si number density = 20.116808 Si / 1000 Ang^3
#
#
#
# Elastic Constant Matrix: (Units=GPa)
#
#
# Indices 1 2 3 4 5 6 
#
# 1 75.9776 24.9043 28.4379 0.0000 -11.8238 0.0000
# 2 24.9043 101.1393 27.7443 0.0000 -3.6726 0.0000
# 3 28.4379 27.7443 117.4367 0.0000 -15.8437 0.0000
# 4 0.0000 0.0000 0.0000 16.8106 0.0000 1.7179
# 5 -11.8238 -3.6726 -15.8437 0.0000 18.1981 0.0000
# 6 0.0000 0.0000 0.0000 1.7179 0.0000 39.1339
#
#
#
# Elastic Compliance Matrix: (Units=1/GPa)
#
#
# Indices 1 2 3 4 5 6 
#
# 1 0.016231 -0.003127 -0.002101 0.000000 0.008086 0.000000
# 2 -0.003127 0.011175 -0.002099 0.000000 -0.001604 0.000000
# 3 -0.002101 -0.002099 0.010514 0.000000 0.007365 0.000000
# 4 0.000000 0.000000 0.000000 0.059754 0.000000 -0.002623
# 5 0.008086 -0.001604 0.007365 0.000000 0.066292 0.000000
# 6 0.000000 0.000000 0.000000 -0.002623 0.000000 0.025668
#
#
# Mechanical properties :
#
#
# Convention : Reuss Voigt Hill
#
# Bulk Modulus (GPa) = 42.98173 50.74741 46.86457
# Shear Modulus (GPa) = 23.57999 29.05967 26.31983
#
# Velocity S-wave (km/s) = 3.42739 3.80484 3.62104
# Velocity P-wave (km/s) = 6.08893 6.67709 6.38978
#
# Compressibility (1/GPa) = 0.02326570
#
# Stress axis : x y z
#
# Youngs Moduli (GPa) = 61.60902 89.48604 95.11571
#
# Poissons Ratio (x) = 0.27981 0.19983
# Poissons Ratio (y) = 0.19264 0.19968
# Poissons Ratio (z) = 0.12944 0.18786
#
# Static dielectric constant tensor:
#      x y z
#    x 1.768070 0.000000 0.007430 
#    y 0.000000 1.791340 0.000000 
#    z 0.007430 0.000000 1.745540 
# 
# From -- ./inp_files/49335.got.cif
#   From: 2010.05.17/outbox.cif.g08.bks.cpg/sg5_25_cif.got.tgz:49335.got - 2010.06.03 18:56:24.
