data_PCOD9121514
_publ_section_title
;
Structure prediction by ZEFSAII (Michael W. Deem and Ramdas Pophale) SiO2 
 PCOD9121514
Probable space group: C 2
;
_chemical_formula_sum "Si O2"
_cell_formula_units_Z 30
_cell_length_a 5.312905
_cell_length_b 36.469667
_cell_length_c 8.035108
_cell_angle_alpha 90.000000
_cell_angle_beta 115.690163
_cell_angle_gamma 90.000000
_cell_volume 1402.986068
_symmetry_space_group_name_H-M "C 2"
_symmetry_group_IT_number 5
_symmetry_cell_setting 'monoclinic'
loop_
_space_group_symop_operation_xyz
x,y,z
-x,y,-z
1/2+x,1/2+y,z
1/2-x,1/2+y,-z
loop_
_atom_site_type_symbol
_atom_site_label
_atom_site_fract_x
_atom_site_fract_y
_atom_site_fract_z
Si Si1 0.669304 0.354990 0.874603
Si Si2 0.652026 0.592893 0.719492
Si Si3 0.265655 0.280244 0.296803
Si Si4 0.500000 0.744651 0.500000
Si Si5 0.334907 0.434378 0.127924
Si Si6 0.660366 0.133144 0.724654
Si Si7 0.331405 0.513758 0.125621
Si Si8 0.462176 0.211573 0.184611
O O1 0.658771 0.319265 0.756982
O O2 0.500000 0.350033 0.000000
O O3 0.587352 0.394659 0.773669
O O4 0.000000 0.357753 0.000000
O O5 0.500000 0.597931 0.500000
O O6 0.465951 0.616359 0.791960
O O7 0.623977 0.550326 0.757494
O O8 0.964393 0.608184 0.787312
O O9 0.500000 0.271920 0.500000
O O10 0.003136 0.272267 0.340304
O O11 0.285882 0.248273 0.168750
O O12 0.248246 0.717796 0.372331
O O13 0.500000 0.434305 0.000000
O O14 0.406022 0.473944 0.226754
O O15 0.000000 0.434370 0.000000
O O16 0.500000 0.132710 0.500000
O O17 0.675587 0.174828 0.787129
O O18 0.500000 0.516627 0.000000
O O19 0.000000 0.512647 0.000000
O O20 0.500000 0.207699 0.000000
#
# Coordination Sequence:
#
# PCOD9121514 Si02
#       8
#     4   4   4   2   4   4   4   4
#     4  10  21  36  61  88 118 153 206 252 296 366
#     4  10  22  38  59  84 118 155 191 241 302 356
#     4  10  23  39  58  85 121 160 199 252 311 365
#     4  10  24  42  62  84 126 166 206 256 322 358
#     4   8  16  32  53  84 114 152 191 242 300 350
#     4  10  22  40  61  83 117 159 194 247 308 358
#     4  10  19  34  59  84 118 153 196 245 295 355
#     4  11  25  41  63  90 118 161 214 257 308 375
#
# _framework density 21.382963
#
# number of rings (size 3 to 8) (size 9 to 14) (size 15 to 20)
#    0.000    2.133    0.000    2.400   10.267    1.600 
#    0.000    0.667    0.000    0.000    5.200    0.000 
#    0.000    0.000    0.000    0.000    0.000    0.000 
#
# Total GULP energy -83619.268341 kJ/mol
# GULP energy per Si atom -5574.617889 kJ/mol
# Density = 2.133429 g / cm^3
# Si number density = 21.382963 Si / 1000 Ang^3
#
#
#
# Elastic Constant Matrix: (Units=GPa)
#
#
# Indices 1 2 3 4 5 6 
#
# 1 127.5936 44.1316 25.8413 0.0000 -18.7284 0.0000
# 2 44.1316 191.8312 29.1758 0.0000 -24.3887 0.0000
# 3 25.8413 29.1758 47.6704 0.0000 -8.1050 0.0000
# 4 0.0000 0.0000 0.0000 38.4826 0.0000 -15.5566
# 5 -18.7284 -24.3887 -8.1050 0.0000 23.6906 0.0000
# 6 0.0000 0.0000 0.0000 -15.5566 0.0000 40.4112
#
#
#
# Elastic Compliance Matrix: (Units=1/GPa)
#
#
# Indices 1 2 3 4 5 6 
#
# 1 0.009730 -0.000981 -0.003756 0.000000 0.005397 0.000000
# 2 -0.000981 0.006466 -0.002576 0.000000 0.005000 0.000000
# 3 -0.003756 -0.002576 0.025094 0.000000 0.002964 0.000000
# 4 0.000000 0.000000 0.000000 0.030775 0.000000 0.011847
# 5 0.005397 0.005000 0.002964 0.000000 0.052638 0.000000
# 6 0.000000 0.000000 0.000000 0.011847 0.000000 0.029306
#
#
# Mechanical properties :
#
#
# Convention : Reuss Voigt Hill
#
# Bulk Modulus (GPa) = 37.50390 62.82136 50.16263
# Shear Modulus (GPa) = 28.16544 38.37999 33.27271
#
# Velocity S-wave (km/s) = 3.63325 4.24121 3.94894
# Velocity P-wave (km/s) = 5.93110 7.30936 6.65600
#
# Compressibility (1/GPa) = 0.02666389
#
# Stress axis : x y z
#
# Youngs Moduli (GPa) = 102.77964 154.65596 39.85030
#
# Poissons Ratio (x) = 0.15170 0.14969
# Poissons Ratio (y) = 0.10082 0.10264
# Poissons Ratio (z) = 0.38607 0.39832
#
# Static dielectric constant tensor:
#      x y z
#    x 2.152350 0.000000 -0.086240 
#    y 0.000000 1.835520 0.000000 
#    z -0.086240 0.000000 1.778000 
# 
# From -- ./inp_files/13363.got.cif
#   From: 2010.05.17/outbox.cif.g08.bks.cpg/sg5_7_cif.got.tgz:13363.got - 2010.06.03 18:56:24.
