data_PCOD9121766
_publ_section_title
;
Structure prediction by ZEFSAII (Michael W. Deem and Ramdas Pophale) SiO2 
 PCOD9121766
Probable space group: C 2
;
_chemical_formula_sum "Si O2"
_cell_formula_units_Z 32
_cell_length_a 25.318081
_cell_length_b 15.725715
_cell_length_c 8.735256
_cell_angle_alpha 90.000000
_cell_angle_beta 28.901116
_cell_angle_gamma 90.000000
_cell_volume 1680.866070
_symmetry_space_group_name_H-M "C 2"
_symmetry_group_IT_number 5
_symmetry_cell_setting 'monoclinic'
loop_
_space_group_symop_operation_xyz
x,y,z
-x,y,-z
1/2+x,1/2+y,z
1/2-x,1/2+y,-z
loop_
_atom_site_type_symbol
_atom_site_label
_atom_site_fract_x
_atom_site_fract_y
_atom_site_fract_z
Si Si1 0.431516 0.235180 0.543330
Si Si2 0.144812 0.040270 0.948221
Si Si3 0.324558 0.407532 0.860338
Si Si4 0.911715 0.690955 0.101651
Si Si5 0.777487 0.535891 0.310791
Si Si6 0.870612 0.392474 0.849338
Si Si7 0.933641 0.001980 0.313970
Si Si8 0.247581 0.217309 0.774574
O O1 0.500000 0.186250 0.500000
O O2 0.376786 0.316381 0.763736
O O3 0.329809 0.197490 0.707269
O O4 0.520882 0.250950 0.183345
O O5 0.182103 0.132104 0.908973
O O6 0.227087 0.010294 0.604040
O O7 0.024404 0.048857 0.183239
O O8 0.147695 0.973662 0.078512
O O9 0.382718 0.431596 0.552592
O O10 0.197237 0.410526 0.135665
O O11 0.854898 0.615646 0.150007
O O12 0.821169 0.734854 0.437236
O O13 0.000000 0.654702 0.000000
O O14 0.667986 0.557053 0.490269
O O15 0.836175 0.461410 0.066305
O O16 0.000000 0.393806 0.500000
O O17 0.826069 0.299059 0.006930
O O18 0.000000 0.966644 0.000000
#
# Coordination Sequence:
#
# PCOD9121766 Si02
#       8
#     4   4   4   4   4   4   4   4
#     4  10  20  33  53  83 113 138 175 228 279 319
#     4  10  19  36  60  82 110 142 184 230 272 323
#     4  10  21  35  54  83 109 141 185 226 273 327
#     4   9  19  36  58  80 109 144 181 226 273 323
#     4   9  20  36  57  82 106 142 187 224 270 331
#     4  10  22  38  55  77 112 149 183 223 274 331
#     4   9  18  32  54  81 108 139 176 223 270 320
#     4   9  21  38  55  80 109 147 185 220 272 332
#
# _framework density 19.037804000000001
#
# number of rings (size 3 to 8) (size 9 to 14) (size 15 to 20)
#    0.000    2.500    0.000    1.125    0.000   12.000 
#    0.000    1.250    0.000    8.250    0.000    0.000 
#    0.000    0.000    0.000    0.000    0.000    0.000 
#
# Total GULP energy -89133.324322 kJ/mol
# GULP energy per Si atom -5570.832770 kJ/mol
# Density = 1.899447 g / cm^3
# Si number density = 19.037804 Si / 1000 Ang^3
#
#
#
# Elastic Constant Matrix: (Units=GPa)
#
#
# Indices 1 2 3 4 5 6 
#
# 1 132.7588 47.1892 63.7788 0.0000 -16.3892 0.0000
# 2 47.1892 47.0211 40.5120 0.0000 -5.5438 0.0000
# 3 63.7788 40.5120 109.0591 0.0000 -24.9602 0.0000
# 4 0.0000 0.0000 0.0000 13.2579 0.0000 5.2989
# 5 -16.3892 -5.5438 -24.9602 0.0000 25.7141 0.0000
# 6 0.0000 0.0000 0.0000 5.2989 0.0000 22.3598
#
#
#
# Elastic Compliance Matrix: (Units=1/GPa)
#
#
# Indices 1 2 3 4 5 6 
#
# 1 0.012963 -0.009877 -0.003225 0.000000 0.003003 0.000000
# 2 -0.009877 0.039498 -0.010783 0.000000 -0.008247 0.000000
# 3 -0.003225 -0.010783 0.018074 0.000000 0.013164 0.000000
# 4 0.000000 0.000000 0.000000 0.083318 0.000000 -0.019745
# 5 0.003003 -0.008247 0.013164 0.000000 0.051803 0.000000
# 6 0.000000 0.000000 0.000000 -0.019745 0.000000 0.049402
#
#
# Mechanical properties :
#
#
# Convention : Reuss Voigt Hill
#
# Bulk Modulus (GPa) = 43.92904 65.75542 54.84223
# Shear Modulus (GPa) = 16.10738 21.42363 18.76550
#
# Velocity S-wave (km/s) = 2.91189 3.35822 3.14299
# Velocity P-wave (km/s) = 5.86772 7.04636 6.48388
#
# Compressibility (1/GPa) = 0.02276399
#
# Stress axis : x y z
#
# Youngs Moduli (GPa) = 77.14163 25.31782 55.32923
#
# Poissons Ratio (x) = 0.25007 0.17842
# Poissons Ratio (y) = 0.76194 0.59664
# Poissons Ratio (z) = 0.24876 0.27301
#
# Static dielectric constant tensor:
#      x y z
#    x 1.698210 0.000000 -0.002670 
#    y 0.000000 1.627640 0.000000 
#    z -0.002670 0.000000 1.684960 
# 
# From -- ./inp_files/31039.got.cif
#   From: 2010.05.17/outbox.cif.g08.bks.cpg/sg5_16_cif.got.tgz:31039.got - 2010.06.03 18:56:24.
