data_PCOD9121791
_publ_section_title
;
Structure prediction by ZEFSAII (Michael W. Deem and Ramdas Pophale) SiO2 
 PCOD9121791
Probable space group: C 2
;
_chemical_formula_sum "Si O2"
_cell_formula_units_Z 28
_cell_length_a 21.409554
_cell_length_b 9.651394
_cell_length_c 8.950403
_cell_angle_alpha 90.000000
_cell_angle_beta 40.948682
_cell_angle_gamma 90.000000
_cell_volume 1212.091186
_symmetry_space_group_name_H-M "C 2"
_symmetry_group_IT_number 5
_symmetry_cell_setting 'monoclinic'
loop_
_space_group_symop_operation_xyz
x,y,z
-x,y,-z
1/2+x,1/2+y,z
1/2-x,1/2+y,-z
loop_
_atom_site_type_symbol
_atom_site_label
_atom_site_fract_x
_atom_site_fract_y
_atom_site_fract_z
Si Si1 0.000000 0.567050 0.500000
Si Si2 0.193461 0.006752 0.053365
Si Si3 0.434717 0.634916 0.313836
Si Si4 0.000000 0.991820 0.500000
Si Si5 0.362595 0.748767 0.065952
Si Si6 0.745392 0.115233 0.518436
Si Si7 0.846581 0.423050 0.561864
Si Si8 0.648488 0.067431 0.992024
O O1 0.924407 0.482754 0.536422
O O2 0.932937 0.630171 0.752769
O O3 0.257365 0.042441 0.079492
O O4 0.097086 0.926917 0.267122
O O5 0.171842 0.154455 0.011270
O O6 0.252589 0.914495 0.832041
O O7 0.460077 0.576108 0.430935
O O8 0.348161 0.551973 0.389544
O O9 0.384437 0.781040 0.431376
O O10 0.540194 0.670890 0.061392
O O11 0.282640 0.735139 0.338652
O O12 0.382455 0.908463 0.993594
O O13 0.680826 0.141804 0.780914
O O14 0.682174 0.020216 0.523890
#
# Coordination Sequence:
#
# PCOD9121791 Si02
#       8
#     2   4   4   2   4   4   4   4
#     4  10  21  38  64  93 120 160 223 260 322 367
#     4   9  21  34  60  94 129 161 214 270 324 377
#     4  11  20  37  66  93 119 162 220 274 307 377
#     4  10  19  36  60  97 118 160 215 274 316 379
#     4  10  22  39  62  95 125 166 225 268 312 383
#     4  11  23  36  55  97 133 161 198 268 333 374
#     4  10  21  38  61  96 123 165 208 277 321 371
#     4  11  21  38  64  97 131 169 207 279 320 377
#
# _framework density 23.100570000000001
#
# number of rings (size 3 to 8) (size 9 to 14) (size 15 to 20)
#    0.000    1.714    2.857    1.714    6.000    0.571 
#    0.000    0.000    0.000   15.429   29.714    0.000 
#    0.000    0.000    0.000    0.000    0.000    0.000 
#
# Total GULP energy -78066.017616 kJ/mol
# GULP energy per Si atom -5576.144115 kJ/mol
# Density = 2.304799 g / cm^3
# Si number density = 23.100570 Si / 1000 Ang^3
#
#
#
# Elastic Constant Matrix: (Units=GPa)
#
#
# Indices 1 2 3 4 5 6 
#
# 1 141.0313 12.6665 18.9318 0.0000 4.4860 0.0000
# 2 12.6665 53.8518 23.6998 0.0000 5.1537 0.0000
# 3 18.9318 23.6998 218.7820 0.0000 -1.2762 0.0000
# 4 0.0000 0.0000 0.0000 13.9025 0.0000 -3.9986
# 5 4.4860 5.1537 -1.2762 0.0000 41.3428 0.0000
# 6 0.0000 0.0000 0.0000 -3.9986 0.0000 40.0401
#
#
#
# Elastic Compliance Matrix: (Units=1/GPa)
#
#
# Indices 1 2 3 4 5 6 
#
# 1 0.007305 -0.001447 -0.000479 0.000000 -0.000627 0.000000
# 2 -0.001447 0.020047 -0.002060 0.000000 -0.002406 0.000000
# 3 -0.000479 -0.002060 0.004838 0.000000 0.000458 0.000000
# 4 0.000000 0.000000 0.000000 0.074057 0.000000 0.007396
# 5 -0.000627 -0.002406 0.000458 0.000000 0.024570 0.000000
# 6 0.000000 0.000000 0.000000 0.007396 0.000000 0.025713
#
#
# Mechanical properties :
#
#
# Convention : Reuss Voigt Hill
#
# Bulk Modulus (GPa) = 41.29443 58.25125 49.77284
# Shear Modulus (GPa) = 28.97278 42.94820 35.96049
#
# Velocity S-wave (km/s) = 3.54531 4.31650 3.94977
# Velocity P-wave (km/s) = 5.88844 7.07913 6.51106
#
# Compressibility (1/GPa) = 0.02421634
#
# Stress axis : x y z
#
# Youngs Moduli (GPa) = 136.89514 49.88302 206.69378
#
# Poissons Ratio (x) = 0.07220 0.09900
# Poissons Ratio (y) = 0.19814 0.42587
# Poissons Ratio (z) = 0.06557 0.10278
#
# Static dielectric constant tensor:
#      x y z
#    x 1.825450 0.000000 0.017520 
#    y 0.000000 1.852610 0.000000 
#    z 0.017520 0.000000 1.940010 
# 
# From -- ./inp_files/29588.got.cif
#   From: 2010.05.17/outbox.cif.g08.bks.cpg/sg5_15_cif.got.tgz:29588.got - 2010.06.03 18:56:24.
