data_PCOD9121566
_publ_section_title
;
Structure prediction by ZEFSAII (Michael W. Deem and Ramdas Pophale) SiO2 
 PCOD9121566
Probable space group: C 2
;
_chemical_formula_sum "Si O2"
_cell_formula_units_Z 32
_cell_length_a 8.050470
_cell_length_b 14.206840
_cell_length_c 13.506116
_cell_angle_alpha 90.000000
_cell_angle_beta 121.077623
_cell_angle_gamma 90.000000
_cell_volume 1323.002679
_symmetry_space_group_name_H-M "C 2"
_symmetry_group_IT_number 5
_symmetry_cell_setting 'monoclinic'
loop_
_space_group_symop_operation_xyz
x,y,z
-x,y,-z
1/2+x,1/2+y,z
1/2-x,1/2+y,-z
loop_
_atom_site_type_symbol
_atom_site_label
_atom_site_fract_x
_atom_site_fract_y
_atom_site_fract_z
Si Si1 0.707261 0.471350 0.293369
Si Si2 0.777132 0.173583 0.626638
Si Si3 0.249607 0.151998 0.763765
Si Si4 0.267411 0.774474 0.423273
Si Si5 0.755050 0.740254 0.969528
Si Si6 0.196792 0.256033 0.161277
Si Si7 0.758848 0.473336 0.866953
Si Si8 0.220687 0.961974 0.069876
O O1 0.779616 0.564826 0.371976
O O2 0.731334 0.379424 0.369826
O O3 0.476075 0.475723 0.203671
O O4 0.791532 0.467865 0.205934
O O5 0.705651 0.232007 0.510012
O O6 0.720111 0.229782 0.707754
O O7 0.014031 0.166284 0.692380
O O8 0.311032 0.205098 0.685144
O O9 0.325089 0.194387 0.890228
O O10 0.304812 0.043634 0.791779
O O11 0.500000 0.768537 0.500000
O O12 0.523889 0.720677 0.901944
O O13 0.786551 0.851058 0.959711
O O14 0.806459 0.716851 0.098613
O O15 0.181336 0.367804 0.140276
O O16 0.818278 0.501203 0.998405
O O17 0.000000 0.999844 0.000000
#
# Coordination Sequence:
#
# PCOD9121566 Si02
#       8
#     4   4   4   4   4   4   4   4
#     4  10  19  35  55  77 105 138 174 220 260 304
#     4   9  20  33  52  79 100 137 185 211 250 313
#     4   9  17  32  54  78 100 138 180 213 252 309
#     4  10  20  36  55  75 104 140 183 217 250 303
#     4   9  16  30  54  75 106 140 170 211 261 302
#     4   9  18  32  51  76 110 137 173 211 257 313
#     4   9  19  32  54  82 109 135 168 213 270 315
#     4   9  17  30  54  81 109 134 170 211 265 315
#
# _framework density 24.187403
#
# number of rings (size 3 to 8) (size 9 to 14) (size 15 to 20)
#    0.000    2.750    1.250    0.000    1.750    1.000 
#    0.000    3.125    8.250    0.000    0.000    0.000 
#    0.000    0.000    0.000    0.000    0.000    0.000 
#
# Total GULP energy -89321.169449 kJ/mol
# GULP energy per Si atom -5582.573091 kJ/mol
# Density = 2.413235 g / cm^3
# Si number density = 24.187403 Si / 1000 Ang^3
#
#
#
# Elastic Constant Matrix: (Units=GPa)
#
#
# Indices 1 2 3 4 5 6 
#
# 1 78.6951 8.3070 53.2731 0.0000 -15.0139 0.0000
# 2 8.3070 126.4121 111.3466 0.0000 -35.1431 0.0000
# 3 53.2731 111.3466 244.2436 0.0000 -42.2379 0.0000
# 4 0.0000 0.0000 0.0000 30.6537 0.0000 -3.4663
# 5 -15.0139 -35.1431 -42.2379 0.0000 52.4790 0.0000
# 6 0.0000 0.0000 0.0000 -3.4663 0.0000 14.0167
#
#
#
# Elastic Compliance Matrix: (Units=1/GPa)
#
#
# Indices 1 2 3 4 5 6 
#
# 1 0.016208 0.004169 -0.004822 0.000000 0.003548 0.000000
# 2 0.004169 0.015345 -0.006879 0.000000 0.005932 0.000000
# 3 -0.004822 -0.006879 0.008419 0.000000 0.000790 0.000000
# 4 0.000000 0.000000 0.000000 0.033561 0.000000 0.008300
# 5 0.003548 0.005932 0.000790 0.000000 0.024678 0.000000
# 6 0.000000 0.000000 0.000000 0.008300 0.000000 0.073396
#
#
# Mechanical properties :
#
#
# Convention : Reuss Voigt Hill
#
# Bulk Modulus (GPa) = 40.14931 88.35603 64.25267
# Shear Modulus (GPa) = 25.64442 37.85816 31.75129
#
# Velocity S-wave (km/s) = 3.25966 3.96055 3.62708
# Velocity P-wave (km/s) = 5.55000 7.58444 6.64553
#
# Compressibility (1/GPa) = 0.02490703
#
# Stress axis : x y z
#
# Youngs Moduli (GPa) = 61.69603 65.16831 118.78473
#
# Poissons Ratio (x) = -0.27166 0.57281
# Poissons Ratio (y) = -0.25719 0.81711
# Poissons Ratio (z) = 0.29751 0.44829
#
# Static dielectric constant tensor:
#      x y z
#    x 2.013140 0.000000 0.026500 
#    y 0.000000 1.950850 0.000000 
#    z 0.026500 0.000000 1.925800 
# 
# From -- ./inp_files/39861.got.cif
#   From: 2010.05.17/outbox.cif.g08.bks.cpg/sg5_20_cif.got.tgz:39861.got - 2010.06.03 18:56:24.
