data_PCOD9121465
_publ_section_title
;
Structure prediction by ZEFSAII (Michael W. Deem and Ramdas Pophale) SiO2 
 PCOD9121465
Probable space group: C 2
;
_chemical_formula_sum "Si O2"
_cell_formula_units_Z 20
_cell_length_a 5.227194
_cell_length_b 24.601333
_cell_length_c 8.537112
_cell_angle_alpha 90.000000
_cell_angle_beta 124.430368
_cell_angle_gamma 90.000000
_cell_volume 905.512038
_symmetry_space_group_name_H-M "C 2"
_symmetry_group_IT_number 5
_symmetry_cell_setting 'monoclinic'
loop_
_space_group_symop_operation_xyz
x,y,z
-x,y,-z
1/2+x,1/2+y,z
1/2-x,1/2+y,-z
loop_
_atom_site_type_symbol
_atom_site_label
_atom_site_fract_x
_atom_site_fract_y
_atom_site_fract_z
Si Si1 0.870111 0.787460 0.129317
Si Si2 0.127733 0.014863 0.367196
Si Si3 0.348882 0.175612 0.771336
Si Si4 0.143883 0.126565 0.219024
Si Si5 0.373179 0.395978 0.630871
O O1 0.045098 0.734192 0.255387
O O2 0.963901 0.843757 0.240293
O O3 0.500000 0.779142 0.000000
O O4 0.000000 0.791401 0.000000
O O5 0.500000 0.015655 0.500000
O O6 0.037009 0.066779 0.233233
O O7 0.000000 0.019642 0.500000
O O8 0.044254 0.955319 0.269834
O O9 0.495098 0.132464 0.700582
O O10 0.993012 0.166269 0.695082
O O11 0.500000 0.170022 0.000000
O O12 0.000000 0.140535 0.000000
O O13 0.500000 0.399337 0.500000
O O14 0.000000 0.389326 0.500000
#
# Coordination Sequence:
#
# PCOD9121465 Si02
#       5
#     4   4   4   4   4
#     4  11  21  37  61  85 111 146 191 233 273 332
#     4  10  21  38  56  77 111 148 181 226 282 329
#     4   9  18  33  54  80 111 141 172 223 283 321
#     4  10  19  34  56  80 106 141 182 221 267 329
#     4  10  22  40  58  80 115 152 184 229 288 333
#
# _framework density 22.086952
#
# number of rings (size 3 to 8) (size 9 to 14) (size 15 to 20)
#    0.000    2.000    0.000    5.400    0.000    0.800 
#    0.000    9.000    0.000    0.000    0.000    0.000 
#    0.000    0.000    0.000    0.000    0.000    0.000 
#
# Total GULP energy -55795.747667 kJ/mol
# GULP energy per Si atom -5579.574767 kJ/mol
# Density = 2.203668 g / cm^3
# Si number density = 22.086952 Si / 1000 Ang^3
#
#
#
# Elastic Constant Matrix: (Units=GPa)
#
#
# Indices 1 2 3 4 5 6 
#
# 1 185.5075 57.8897 27.0470 0.0000 -6.6859 0.0000
# 2 57.8897 177.3957 16.6998 0.0000 -11.8422 0.0000
# 3 27.0470 16.6998 25.5543 0.0000 10.2002 0.0000
# 4 0.0000 0.0000 0.0000 32.7391 0.0000 -1.8666
# 5 -6.6859 -11.8422 10.2002 0.0000 19.2037 0.0000
# 6 0.0000 0.0000 0.0000 -1.8666 0.0000 33.2884
#
#
#
# Elastic Compliance Matrix: (Units=1/GPa)
#
#
# Indices 1 2 3 4 5 6 
#
# 1 0.007451 -0.000975 -0.010208 0.000000 0.007414 0.000000
# 2 -0.000975 0.007080 -0.006601 0.000000 0.007532 0.000000
# 3 -0.010208 -0.006601 0.072709 0.000000 -0.046244 0.000000
# 4 0.000000 0.000000 0.000000 0.030642 0.000000 0.001718
# 5 0.007414 0.007532 -0.046244 0.000000 0.083862 0.000000
# 6 0.000000 0.000000 0.000000 0.001718 0.000000 0.030137
#
#
# Mechanical properties :
#
#
# Convention : Reuss Voigt Hill
#
# Bulk Modulus (GPa) = 19.35320 65.74784 42.55052
# Shear Modulus (GPa) = 17.56412 36.16766 26.86589
#
# Velocity S-wave (km/s) = 2.82303 4.05101 3.49143
# Velocity P-wave (km/s) = 4.40538 7.19119 5.96324
#
# Compressibility (1/GPa) = 0.05167103
#
# Stress axis : x y z
#
# Youngs Moduli (GPa) = 134.21861 141.25074 13.75354
#
# Poissons Ratio (x) = 0.13778 0.14039
# Poissons Ratio (y) = 0.13092 0.09078
# Poissons Ratio (z) = 1.37008 0.93234
#
# Static dielectric constant tensor:
#      x y z
#    x 1.804840 0.000000 0.052180 
#    y 0.000000 1.909190 0.000000 
#    z 0.052180 0.000000 1.847530 
# 
# From -- ./inp_files/12092.got.cif
#   From: 2010.05.17/outbox.cif.g08.bks.cpg/sg5_7_cif.got.tgz:12092.got - 2010.06.03 18:56:24.
