data_PCOD9121290
_publ_section_title
;
Structure prediction by ZEFSAII (Michael W. Deem and Ramdas Pophale) SiO2 
 PCOD9121290
Probable space group: C 2
;
_chemical_formula_sum "Si O2"
_cell_formula_units_Z 32
_cell_length_a 5.130184
_cell_length_b 27.227619
_cell_length_c 16.980229
_cell_angle_alpha 90.000000
_cell_angle_beta 126.098148
_cell_angle_gamma 90.000000
_cell_volume 1916.471253
_symmetry_space_group_name_H-M "C 2"
_symmetry_group_IT_number 5
_symmetry_cell_setting 'monoclinic'
loop_
_space_group_symop_operation_xyz
x,y,z
-x,y,-z
1/2+x,1/2+y,z
1/2-x,1/2+y,-z
loop_
_atom_site_type_symbol
_atom_site_label
_atom_site_fract_x
_atom_site_fract_y
_atom_site_fract_z
Si Si1 0.648047 0.772440 0.613021
Si Si2 0.237967 0.611803 0.618119
Si Si3 0.684762 0.839422 0.110955
Si Si4 0.684504 0.271948 0.110511
Si Si5 0.195186 0.883754 0.309765
Si Si6 0.309927 0.720474 0.695733
Si Si7 0.737211 0.550711 0.617761
Si Si8 0.159881 0.938264 0.615377
O O1 0.500000 0.768881 0.500000
O O2 0.729063 0.828722 0.647138
O O3 0.402385 0.751180 0.633801
O O4 0.976553 0.740983 0.671382
O O5 0.277967 0.664007 0.666364
O O6 0.570505 0.588711 0.647204
O O7 0.000000 0.618180 0.500000
O O8 0.069426 0.572496 0.645272
O O9 0.424588 0.815058 0.123079
O O10 0.924301 0.796464 0.122387
O O11 0.904588 0.878142 0.195809
O O12 0.500000 0.857875 0.000000
O O13 0.901387 0.232093 0.192641
O O14 0.500000 0.253600 0.000000
O O15 0.515650 0.906277 0.329089
O O16 0.082526 0.916574 0.363227
O O17 0.500000 0.549429 0.500000
O O18 0.744937 0.494912 0.648265
O O19 0.000000 0.935537 0.500000
#
# Coordination Sequence:
#
# PCOD9121290 Si02
#       8
#     4   4   4   4   4   4   4   4
#     4  12  23  33  47  73 114 146 169 196 246 312
#     4  10  19  32  51  72 100 134 172 211 254 301
#     4  10  20  36  54  73 100 135 175 219 252 290
#     4  10  19  35  54  73 100 136 175 217 252 290
#     4  12  21  35  52  77 104 142 174 207 255 306
#     4  12  21  35  51  77 105 141 174 208 254 306
#     4   9  19  35  51  71  97 131 174 221 253 286
#     4  11  22  35  53  76 106 139 176 213 253 305
#
# _framework density 16.697355999999999
#
# number of rings (size 3 to 8) (size 9 to 14) (size 15 to 20)
#    0.000    1.250    2.500    5.250    0.000    3.000 
#    0.000    0.000    0.000    0.000    0.000    5.250 
#    0.000    0.000    0.000    0.000    0.000    0.000 
#
# Total GULP energy -89384.034633 kJ/mol
# GULP energy per Si atom -5586.502165 kJ/mol
# Density = 1.665935 g / cm^3
# Si number density = 16.697356 Si / 1000 Ang^3
#
#
#
# Elastic Constant Matrix: (Units=GPa)
#
#
# Indices 1 2 3 4 5 6 
#
# 1 48.5720 -8.6510 -18.5865 0.0000 -0.5224 0.0000
# 2 -8.6510 74.9374 2.2215 0.0000 -3.5093 0.0000
# 3 -18.5865 2.2215 70.2890 0.0000 7.6995 0.0000
# 4 0.0000 0.0000 0.0000 3.5940 0.0000 6.1118
# 5 -0.5224 -3.5093 7.6995 0.0000 21.2927 0.0000
# 6 0.0000 0.0000 0.0000 6.1118 0.0000 18.0169
#
#
#
# Elastic Compliance Matrix: (Units=1/GPa)
#
#
# Indices 1 2 3 4 5 6 
#
# 1 0.023404 0.002456 0.006251 0.000000 -0.001281 0.000000
# 2 0.002456 0.013739 -0.000041 0.000000 0.002339 0.000000
# 3 0.006251 -0.000041 0.016520 0.000000 -0.005827 0.000000
# 4 0.000000 0.000000 0.000000 0.657556 0.000000 -0.223059
# 5 -0.001281 0.002339 -0.005827 0.000000 0.049426 0.000000
# 6 0.000000 0.000000 0.000000 -0.223059 0.000000 0.131170
#
#
# Mechanical properties :
#
#
# Convention : Reuss Voigt Hill
#
# Bulk Modulus (GPa) = 14.08523 15.97403 15.02963
# Shear Modulus (GPa) = 5.56702 23.16837 14.36770
#
# Velocity S-wave (km/s) = 1.82793 3.72902 2.93657
# Velocity P-wave (km/s) = 3.59291 5.30362 4.52976
#
# Compressibility (1/GPa) = 0.07099634
#
# Stress axis : x y z
#
# Youngs Moduli (GPa) = 42.72795 72.78645 60.53414
#
# Poissons Ratio (x) = -0.17880 -0.37842
# Poissons Ratio (y) = -0.10496 0.00248
# Poissons Ratio (z) = -0.26711 0.00298
#
# Static dielectric constant tensor:
#      x y z
#    x 1.563500 0.000000 -0.003600 
#    y 0.000000 1.531370 0.000000 
#    z -0.003600 0.000000 1.571400 
# 
# From -- ./inp_files/49621.got.cif
#   From: 2010.05.17/outbox.cif.g08.bks.cpg/sg5_25_cif.got.tgz:49621.got - 2010.06.03 18:56:24.
