data_PCOD9121877
_publ_section_title
;
Structure prediction by ZEFSAII (Michael W. Deem and Ramdas Pophale) SiO2 
 PCOD9121877
Probable space group: C 2
;
_chemical_formula_sum "Si O2"
_cell_formula_units_Z 28
_cell_length_a 28.192604
_cell_length_b 8.155989
_cell_length_c 8.614398
_cell_angle_alpha 90.000000
_cell_angle_beta 143.976180
_cell_angle_gamma 90.000000
_cell_volume 1164.940761
_symmetry_space_group_name_H-M "C 2"
_symmetry_group_IT_number 5
_symmetry_cell_setting 'monoclinic'
loop_
_space_group_symop_operation_xyz
x,y,z
-x,y,-z
1/2+x,1/2+y,z
1/2-x,1/2+y,-z
loop_
_atom_site_type_symbol
_atom_site_label
_atom_site_fract_x
_atom_site_fract_y
_atom_site_fract_z
Si Si1 0.834343 0.261380 0.765033
Si Si2 0.598028 0.327104 0.422770
Si Si3 0.949248 0.757009 0.204289
Si Si4 0.514295 0.881858 0.719538
Si Si5 0.861402 0.464426 0.521628
Si Si6 0.299509 0.320979 0.987398
Si Si7 0.273442 0.522723 0.378181
O O1 0.851706 0.364705 0.653988
O O2 0.782716 0.365700 0.750541
O O3 0.780478 0.113235 0.561604
O O4 0.923487 0.240968 0.067771
O O5 0.505329 0.340223 0.225096
O O6 0.636551 0.469819 0.426052
O O7 0.612828 0.151183 0.383718
O O8 0.651491 0.321588 0.723174
O O9 0.943955 0.562880 0.149468
O O10 0.000000 0.759335 0.500000
O O11 0.864639 0.839156 0.020696
O O12 0.500000 0.865507 0.500000
O O13 0.431806 0.889245 0.598701
O O14 0.773922 0.447622 0.209828
O O15 0.260749 0.145134 0.841762
#
# Coordination Sequence:
#
# PCOD9121877 Si02
#       7
#     4   4   4   4   4   4   4
#     4  11  23  41  65  97 141 174 229 272 343 405
#     4  10  20  36  65  99 132 174 232 272 332 396
#     4   8  16  33  61  97 129 169 214 272 331 387
#     4  10  20  38  70  98 130 180 225 278 327 401
#     4  10  22  37  64  99 131 178 224 275 340 397
#     4  10  19  36  66  97 136 171 225 283 331 398
#     4  11  23  39  68  97 134 185 216 284 335 402
#
# _framework density 24.035557000000001
#
# number of rings (size 3 to 8) (size 9 to 14) (size 15 to 20)
#    0.000    2.000    1.429    3.000    2.000    0.000 
#    0.000    0.000   34.571    3.429    0.000    4.000 
#    0.000    0.000    0.000    0.000    0.000    0.000 
#
# Total GULP energy -78331.967130 kJ/mol
# GULP energy per Si atom -5595.140509 kJ/mol
# Density = 2.398085 g / cm^3
# Si number density = 24.035557 Si / 1000 Ang^3
#
#
#
# Elastic Constant Matrix: (Units=GPa)
#
#
# Indices 1 2 3 4 5 6 
#
# 1 82.8701 13.1836 4.9892 0.0000 22.9213 0.0000
# 2 13.1836 34.8041 4.7914 0.0000 7.4410 0.0000
# 3 4.9892 4.7914 75.4488 0.0000 8.3320 0.0000
# 4 0.0000 0.0000 0.0000 27.3587 0.0000 3.9623
# 5 22.9213 7.4410 8.3320 0.0000 44.4162 0.0000
# 6 0.0000 0.0000 0.0000 3.9623 0.0000 35.9967
#
#
#
# Elastic Compliance Matrix: (Units=1/GPa)
#
#
# Indices 1 2 3 4 5 6 
#
# 1 0.014612 -0.004074 0.000051 0.000000 -0.006868 0.000000
# 2 -0.004074 0.031074 -0.001390 0.000000 -0.002843 0.000000
# 3 0.000051 -0.001390 0.013598 0.000000 -0.002344 0.000000
# 4 0.000000 0.000000 0.000000 0.037144 0.000000 -0.004089
# 5 -0.006868 -0.002843 -0.002344 0.000000 0.026974 0.000000
# 6 0.000000 0.000000 0.000000 -0.004089 0.000000 0.028230
#
#
# Mechanical properties :
#
#
# Convention : Reuss Voigt Hill
#
# Bulk Modulus (GPa) = 20.63627 26.56127 23.59877
# Shear Modulus (GPa) = 27.99390 32.89824 30.44607
#
# Velocity S-wave (km/s) = 3.41645 3.70365 3.56295
# Velocity P-wave (km/s) = 4.91602 5.41887 5.17356
#
# Compressibility (1/GPa) = 0.04845838
#
# Stress axis : x y z
#
# Youngs Moduli (GPa) = 68.43893 32.18078 73.54125
#
# Poissons Ratio (x) = 0.13109 -0.00374
# Poissons Ratio (y) = 0.27879 0.10223
# Poissons Ratio (z) = -0.00348 0.04473
#
# Static dielectric constant tensor:
#      x y z
#    x 1.885760 0.000000 -0.011090 
#    y 0.000000 1.941230 0.000000 
#    z -0.011090 0.000000 1.964650 
# 
# From -- ./inp_files/31765.got.cif
#   From: 2010.05.17/outbox.cif.g08.bks.cpg/sg5_16_cif.got.tgz:31765.got - 2010.06.03 18:56:24.
