data_PCOD9121165
_publ_section_title
;
Structure prediction by ZEFSAII (Michael W. Deem and Ramdas Pophale) SiO2 
 PCOD9121165
Probable space group: C 2
;
_chemical_formula_sum "Si O2"
_cell_formula_units_Z 22
_cell_length_a 18.175715
_cell_length_b 7.795896
_cell_length_c 9.209165
_cell_angle_alpha 90.000000
_cell_angle_beta 39.122274
_cell_angle_gamma 90.000000
_cell_volume 823.363546
_symmetry_space_group_name_H-M "C 2"
_symmetry_group_IT_number 5
_symmetry_cell_setting 'monoclinic'
loop_
_space_group_symop_operation_xyz
x,y,z
-x,y,-z
1/2+x,1/2+y,z
1/2-x,1/2+y,-z
loop_
_atom_site_type_symbol
_atom_site_label
_atom_site_fract_x
_atom_site_fract_y
_atom_site_fract_z
Si Si1 0.500000 0.408931 0.500000
Si Si2 0.232480 0.478904 0.586311
Si Si3 0.499169 0.370188 0.838823
Si Si4 0.866265 0.511085 0.749966
Si Si5 0.773689 0.144224 0.797071
Si Si6 0.206278 0.137617 0.778087
O O1 0.483422 0.321406 0.688080
O O2 0.387939 0.531408 0.652034
O O3 0.369047 0.434483 0.367141
O O4 0.236409 0.640444 0.687312
O O5 0.204592 0.540107 0.468837
O O6 0.172641 0.314148 0.749893
O O7 0.500000 0.276181 0.000000
O O8 0.404721 0.523693 0.007079
O O9 0.804771 0.334061 0.798072
O O10 0.790272 0.659616 0.786987
O O11 0.000000 0.502844 0.500000
O O12 0.834254 0.546587 0.963853
#
# Coordination Sequence:
#
# PCOD9121165 Si02
#       6
#     2   4   4   4   4   4
#     4  10  18  40  68  96 132 186 226 284 350 426
#     4  10  23  41  73 102 132 184 231 294 358 425
#     4   9  20  38  68 101 132 183 232 286 358 420
#     4  12  26  44  67 101 141 185 231 289 348 429
#     4  11  23  42  67  99 137 179 235 285 354 417
#     4  11  22  45  68 102 142 176 238 293 356 427
#
# _framework density 26.719667999999999
#
# number of rings (size 3 to 8) (size 9 to 14) (size 15 to 20)
#    0.000    1.455    2.727    2.182    0.000    1.455 
#    8.182    2.727    0.000    0.000    0.000    0.000 
#    0.000    0.000    0.000    0.000    0.000    0.000 
#
# Total GULP energy -61412.629217 kJ/mol
# GULP energy per Si atom -5582.966292 kJ/mol
# Density = 2.665885 g / cm^3
# Si number density = 26.719668 Si / 1000 Ang^3
#
#
#
# Elastic Constant Matrix: (Units=GPa)
#
#
# Indices 1 2 3 4 5 6 
#
# 1 102.5761 5.2187 47.4629 0.0000 14.3446 0.0000
# 2 5.2187 120.9366 46.3661 0.0000 0.2297 0.0000
# 3 47.4629 46.3661 148.2714 0.0000 8.9092 0.0000
# 4 0.0000 0.0000 0.0000 21.1116 0.0000 2.4449
# 5 14.3446 0.2297 8.9092 0.0000 79.3622 0.0000
# 6 0.0000 0.0000 0.0000 2.4449 0.0000 23.2762
#
#
#
# Elastic Compliance Matrix: (Units=1/GPa)
#
#
# Indices 1 2 3 4 5 6 
#
# 1 0.011778 0.001024 -0.003989 0.000000 -0.001684 0.000000
# 2 0.001024 0.009492 -0.003306 0.000000 0.000158 0.000000
# 3 -0.003989 -0.003306 0.009072 0.000000 -0.000288 0.000000
# 4 0.000000 0.000000 0.000000 0.047951 0.000000 -0.005037
# 5 -0.001684 0.000158 -0.000288 0.000000 0.012937 0.000000
# 6 0.000000 0.000000 0.000000 -0.005037 0.000000 0.043491
#
#
# Mechanical properties :
#
#
# Convention : Reuss Voigt Hill
#
# Bulk Modulus (GPa) = 56.17641 63.31995 59.74818
# Shear Modulus (GPa) = 32.63799 42.93243 37.78521
#
# Velocity S-wave (km/s) = 3.49878 4.01281 3.76458
# Velocity P-wave (km/s) = 6.11490 6.72454 6.42695
#
# Compressibility (1/GPa) = 0.01780107
#
# Stress axis : x y z
#
# Youngs Moduli (GPa) = 84.90259 105.35605 110.22395
#
# Poissons Ratio (x) = -0.10793 0.43974
# Poissons Ratio (y) = -0.08698 0.36436
# Poissons Ratio (z) = 0.33872 0.34826
#
# Static dielectric constant tensor:
#      x y z
#    x 2.072630 0.000000 0.101770 
#    y 0.000000 2.164640 0.000000 
#    z 0.101770 0.000000 2.137080 
# 
# From -- ./inp_files/28856.got.cif
#   From: 2010.05.17/outbox.cif.g08.bks.cpg/sg5_15_cif.got.tgz:28856.got - 2010.06.03 18:56:24.
