data_PCOD9121151
_publ_section_title
;
Structure prediction by ZEFSAII (Michael W. Deem and Ramdas Pophale) SiO2 
 PCOD9121151
Probable space group: C 2
;
_chemical_formula_sum "Si O2"
_cell_formula_units_Z 18
_cell_length_a 18.803709
_cell_length_b 5.010790
_cell_length_c 9.198757
_cell_angle_alpha 90.000000
_cell_angle_beta 131.644403
_cell_angle_gamma 90.000000
_cell_volume 647.685491
_symmetry_space_group_name_H-M "C 2"
_symmetry_group_IT_number 5
_symmetry_cell_setting 'monoclinic'
loop_
_space_group_symop_operation_xyz
x,y,z
-x,y,-z
1/2+x,1/2+y,z
1/2-x,1/2+y,-z
loop_
_atom_site_type_symbol
_atom_site_label
_atom_site_fract_x
_atom_site_fract_y
_atom_site_fract_z
Si Si1 0.500000 0.630920 0.500000
Si Si2 0.827781 0.237059 0.430589
Si Si3 0.872654 0.943198 0.766533
Si Si4 0.281557 0.928261 0.952203
Si Si5 0.534586 0.269021 0.827492
O O1 0.412671 0.811767 0.436941
O O2 0.526293 0.431734 0.667389
O O3 0.737471 0.410650 0.346153
O O4 0.776926 0.988646 0.275175
O O5 0.875060 0.161826 0.646159
O O6 0.931295 0.711988 0.758801
O O7 0.921457 0.962849 0.988441
O O8 0.237702 0.137904 0.010205
O O9 0.390231 0.027984 0.080591
#
# Coordination Sequence:
#
# PCOD9121151 Si02
#       5
#     2   4   4   4   4
#     4  10  18  40  66 102 138 186 238 292 346 422
#     4  10  21  39  65  98 140 182 236 283 356 412
#     4   9  20  39  62  94 142 185 232 288 359 425
#     4  11  23  43  71 106 140 183 236 300 347 417
#     4   9  19  40  66  95 142 185 236 287 356 420
#
# _framework density 27.791267999999999
#
# number of rings (size 3 to 8) (size 9 to 14) (size 15 to 20)
#    0.000    2.222    2.222    0.000    0.000    3.556 
#    4.000    0.000    0.000    8.000    0.000    0.000 
#    0.000    0.000    0.000    0.000    0.000    0.000 
#
# Total GULP energy -50396.504754 kJ/mol
# GULP energy per Si atom -5599.611639 kJ/mol
# Density = 2.772801 g / cm^3
# Si number density = 27.791268 Si / 1000 Ang^3
#
#
#
# Elastic Constant Matrix: (Units=GPa)
#
#
# Indices 1 2 3 4 5 6 
#
# 1 276.7193 54.1573 57.9058 0.0000 14.7570 0.0000
# 2 54.1573 74.5172 43.9881 0.0000 -8.2313 0.0000
# 3 57.9058 43.9881 126.4235 0.0000 -27.4792 0.0000
# 4 0.0000 0.0000 0.0000 16.8836 0.0000 0.0370
# 5 14.7570 -8.2313 -27.4792 0.0000 63.8751 0.0000
# 6 0.0000 0.0000 0.0000 0.0370 0.0000 15.7096
#
#
#
# Elastic Compliance Matrix: (Units=1/GPa)
#
#
# Indices 1 2 3 4 5 6 
#
# 1 0.004578 -0.002582 -0.001655 0.000000 -0.002102 0.000000
# 2 -0.002582 0.018354 -0.005030 0.000000 0.000798 0.000000
# 3 -0.001655 -0.005030 0.011429 0.000000 0.004651 0.000000
# 4 0.000000 0.000000 0.000000 0.059229 0.000000 -0.000140
# 5 -0.002102 0.000798 0.004651 0.000000 0.018245 0.000000
# 6 0.000000 0.000000 0.000000 -0.000140 0.000000 0.063655
#
#
# Mechanical properties :
#
#
# Convention : Reuss Voigt Hill
#
# Bulk Modulus (GPa) = 63.18747 87.75137 75.46942
# Shear Modulus (GPa) = 25.08783 40.73426 32.91105
#
# Velocity S-wave (km/s) = 3.00780 3.83263 3.44499
# Velocity P-wave (km/s) = 5.90324 7.15745 6.56039
#
# Compressibility (1/GPa) = 0.01582592
#
# Stress axis : x y z
#
# Youngs Moduli (GPa) = 218.45547 54.48521 87.49548
#
# Poissons Ratio (x) = 0.14068 0.14483
# Poissons Ratio (y) = 0.56405 0.44010
# Poissons Ratio (z) = 0.36160 0.27406
#
# Static dielectric constant tensor:
#      x y z
#    x 2.192540 0.000000 0.091010 
#    y 0.000000 2.159930 0.000000 
#    z 0.091010 0.000000 2.205060 
# 
# From -- ./inp_files/26033.got.cif
#   From: 2010.05.17/outbox.cif.g08.bks.cpg/sg5_14_cif.got.tgz:26033.got - 2010.06.03 18:56:24.
