data_PCOD9121974
_publ_section_title
;
Structure prediction by ZEFSAII (Michael W. Deem and Ramdas Pophale) SiO2 
 PCOD9121974
Probable space group: C 2
;
_chemical_formula_sum "Si O2"
_cell_formula_units_Z 26
_cell_length_a 9.389554
_cell_length_b 14.742540
_cell_length_c 16.362064
_cell_angle_alpha 90.000000
_cell_angle_beta 36.208462
_cell_angle_gamma 90.000000
_cell_volume 1337.952206
_symmetry_space_group_name_H-M "C 2"
_symmetry_group_IT_number 5
_symmetry_cell_setting 'monoclinic'
loop_
_space_group_symop_operation_xyz
x,y,z
-x,y,-z
1/2+x,1/2+y,z
1/2-x,1/2+y,-z
loop_
_atom_site_type_symbol
_atom_site_label
_atom_site_fract_x
_atom_site_fract_y
_atom_site_fract_z
Si Si1 0.506058 0.417140 0.291208
Si Si2 0.260580 0.427624 0.227649
Si Si3 0.500000 0.281794 0.000000
Si Si4 0.000000 0.368054 0.000000
Si Si5 0.855438 0.554755 0.480472
Si Si6 0.000000 0.066406 0.000000
Si Si7 0.835615 0.714429 0.916268
Si Si8 0.222566 0.730809 0.599582
O O1 0.384301 0.411798 0.257568
O O2 0.398663 0.507207 0.381214
O O3 0.402016 0.323166 0.378509
O O4 0.795803 0.418902 0.147237
O O5 0.315662 0.343785 0.140130
O O6 0.002931 0.473679 0.365898
O O7 0.401929 0.506849 0.117764
O O8 0.628593 0.218198 0.004951
O O9 0.166370 0.301352 0.976400
O O10 0.820339 0.645223 0.441702
O O11 0.000000 0.572309 0.500000
O O12 0.201301 0.128379 0.945072
O O13 0.075798 0.716161 0.751334
O O14 0.500000 0.743586 0.500000
#
# Coordination Sequence:
#
# PCOD9121974 Si02
#       8
#     4   4   2   2   4   2   4   4
#     4  10  21  41  68  91 124 171 207 268 312 381
#     4  10  19  37  63  91 119 167 215 251 317 383
#     4  11  20  37  63  95 118 168 218 253 318 380
#     4   9  18  39  63  90 127 160 214 263 314 360
#     4  10  22  42  65  93 125 169 215 253 323 383
#     4  10  20  38  62  85 129 162 206 270 316 368
#     4  10  21  39  63  93 122 167 209 265 315 374
#     4  11  21  42  63  90 130 162 208 267 315 371
#
# _framework density 19.432680999999999
#
# number of rings (size 3 to 8) (size 9 to 14) (size 15 to 20)
#    0.000    1.846    4.615    1.385    0.000    0.000 
#   11.077    0.769    0.000    0.000    0.000    0.000 
#    0.000    0.000    0.000    0.000    0.000    0.000 
#
# Total GULP energy -72381.338892 kJ/mol
# GULP energy per Si atom -5567.795299 kJ/mol
# Density = 1.938845 g / cm^3
# Si number density = 19.432681 Si / 1000 Ang^3
#
#
#
# Elastic Constant Matrix: (Units=GPa)
#
#
# Indices 1 2 3 4 5 6 
#
# 1 33.7536 14.7887 31.6080 -0.0028 -6.1582 0.0019
# 2 14.7887 85.7902 42.5991 -0.0079 -0.1811 0.0016
# 3 31.6080 42.5991 118.0702 -0.0115 -20.4553 0.0019
# 4 -0.0028 -0.0079 -0.0115 0.5728 0.0019 -8.2960
# 5 -6.1582 -0.1811 -20.4553 0.0019 38.0949 0.0002
# 6 0.0019 0.0016 0.0019 -8.2960 0.0002 25.5071
#
#
#
# Elastic Compliance Matrix: (Units=1/GPa)
#
#
# Indices 1 2 3 4 5 6 
#
# 1 0.039844 -0.002039 -0.009721 0.000017 0.001212 0.000003
# 2 -0.002039 0.014614 -0.005261 -0.000025 -0.003085 -0.000008
# 3 -0.009721 -0.005261 0.013995 -0.000038 0.005919 -0.000012
# 4 0.000017 -0.000025 -0.000038 -0.470489 0.000007 -0.153023
# 5 0.001212 -0.003085 0.005919 0.000007 0.029609 0.000002
# 6 0.000003 -0.000008 -0.000012 -0.153023 0.000002 -0.010565
#
#
# Mechanical properties :
#
#
# Convention : Reuss Voigt Hill
#
# Bulk Modulus (GPa) = 29.06048 46.17838 37.61943
# Shear Modulus (GPa) = -14.81573 22.74282 3.96355
#
# Velocity S-wave (km/s) = -2.76418 3.42473 1.42971
# Velocity P-wave (km/s) = 2.19074 6.28118 4.70386
#
# Compressibility (1/GPa) = 0.03441100
#
# Stress axis : x y z
#
# Youngs Moduli (GPa) = 25.09799 68.42859 71.45184
#
# Poissons Ratio (x) = 0.13952 0.69457
# Poissons Ratio (y) = 0.05117 0.37592
# Poissons Ratio (z) = 0.24397 0.36002
#
# Static dielectric constant tensor:
#      x y z
#    x 1.646700 0.000000 -0.000060 
#    y 0.000000 1.711230 0.000000 
#    z -0.000060 0.000000 1.735920 
# 
# From -- ./inp_files/50864.got.cif
#   From: 2010.05.17/outbox.cif.g08.bks.cpg/sg5_26_cif.got.tgz:50864.got - 2010.06.03 18:56:24.
