data_PCOD9121329
_publ_section_title
;
Structure prediction by ZEFSAII (Michael W. Deem and Ramdas Pophale) SiO2 
 PCOD9121329
Probable space group: C 2
;
_chemical_formula_sum "Si O2"
_cell_formula_units_Z 20
_cell_length_a 18.342982
_cell_length_b 5.279657
_cell_length_c 20.970829
_cell_angle_alpha 90.000000
_cell_angle_beta 158.028130
_cell_angle_gamma 90.000000
_cell_volume 759.868689
_symmetry_space_group_name_H-M "C 2"
_symmetry_group_IT_number 5
_symmetry_cell_setting 'monoclinic'
loop_
_space_group_symop_operation_xyz
x,y,z
-x,y,-z
1/2+x,1/2+y,z
1/2-x,1/2+y,-z
loop_
_atom_site_type_symbol
_atom_site_label
_atom_site_fract_x
_atom_site_fract_y
_atom_site_fract_z
Si Si1 0.469103 0.110690 0.670517
Si Si2 0.920964 0.783975 0.758973
Si Si3 0.347042 0.601816 0.133516
Si Si4 0.794961 0.766820 0.799743
Si Si5 0.565908 0.261362 0.625854
O O1 0.331363 0.173452 0.619825
O O2 0.404667 0.165875 0.546312
O O3 0.571299 0.844544 0.764147
O O4 0.731557 0.047228 0.769111
O O5 0.809707 0.768536 0.734522
O O6 0.000000 0.707712 0.000000
O O7 0.123261 0.630495 0.934295
O O8 0.377205 0.341070 0.195852
O O9 0.484623 0.553753 0.183589
O O10 0.643676 0.546355 0.694751
O O11 0.500000 0.232873 0.500000
#
# Coordination Sequence:
#
# PCOD9121329 Si02
#       5
#     4   4   4   4   4
#     4  10  20  37  62  87 124 184 220 257 337 419
#     4  10  21  35  63  97 129 174 217 290 322 413
#     4  10  19  32  64  92 134 162 222 267 361 379
#     4  12  27  42  73 109 140 168 245 294 340 394
#     4  12  27  48  67  98 147 193 219 281 364 425
#
# _framework density 26.320340000000002
#
# number of rings (size 3 to 8) (size 9 to 14) (size 15 to 20)
#    1.200    0.000    2.000    4.800    2.800    0.000 
#    0.000    2.000    0.000    0.000    0.000    0.000 
#    0.000    0.000    0.000    0.000    0.000    0.000 
#
# Total GULP energy -55912.612992 kJ/mol
# GULP energy per Si atom -5591.261299 kJ/mol
# Density = 2.626043 g / cm^3
# Si number density = 26.320340 Si / 1000 Ang^3
#
#
#
# Elastic Constant Matrix: (Units=GPa)
#
#
# Indices 1 2 3 4 5 6 
#
# 1 153.6661 48.8383 14.1653 0.0005 -36.8229 -0.0001
# 2 48.8383 181.9045 26.2313 -0.0006 -4.7162 0.0060
# 3 14.1653 26.2313 73.5587 0.0006 -2.7349 0.0011
# 4 0.0005 -0.0006 0.0006 32.4281 -0.0001 -0.2484
# 5 -36.8229 -4.7162 -2.7349 -0.0001 46.4101 0.0003
# 6 -0.0001 0.0060 0.0011 -0.2484 0.0003 46.2434
#
#
#
# Elastic Compliance Matrix: (Units=1/GPa)
#
#
# Indices 1 2 3 4 5 6 
#
# 1 0.008865 -0.002103 -0.000705 0.000000 0.006779 0.000000
# 2 -0.002103 0.006304 -0.001886 0.000000 -0.001139 -0.000001
# 3 -0.000705 -0.001886 0.014406 0.000000 0.000098 0.000000
# 4 0.000000 0.000000 0.000000 0.030839 0.000000 0.000166
# 5 0.006779 -0.001139 0.000098 0.000000 0.026815 0.000000
# 6 0.000000 -0.000001 0.000000 0.000166 0.000000 0.021626
#
#
# Mechanical properties :
#
#
# Convention : Reuss Voigt Hill
#
# Bulk Modulus (GPa) = 49.53232 65.28877 57.41054
# Shear Modulus (GPa) = 40.00873 46.34260 43.17567
#
# Velocity S-wave (km/s) = 3.90304 4.20064 4.05457
# Velocity P-wave (km/s) = 6.25871 6.95604 6.61657
#
# Compressibility (1/GPa) = 0.02018884
#
# Stress axis : x y z
#
# Youngs Moduli (GPa) = 112.79929 158.62153 69.41338
#
# Poissons Ratio (x) = 0.33354 0.04896
# Poissons Ratio (y) = 0.23719 0.13088
# Poissons Ratio (z) = 0.07956 0.29909
#
# Static dielectric constant tensor:
#      x y z
#    x 2.228960 0.000000 -0.116280 
#    y 0.000000 2.015190 0.000000 
#    z -0.116280 0.000000 2.114530 
# 
# From -- ./inp_files/62072.got.cif
#   From: 2010.05.17/outbox.cif.g08.bks.cpg/sg5_32_cif.got.tgz:62072.got - 2010.06.03 18:56:24.
