data_PCOD9121619
_publ_section_title
;
Structure prediction by ZEFSAII (Michael W. Deem and Ramdas Pophale) SiO2 
 PCOD9121619
Probable space group: C 2
;
_chemical_formula_sum "Si O2"
_cell_formula_units_Z 32
_cell_length_a 26.126627
_cell_length_b 5.154556
_cell_length_c 11.951085
_cell_angle_alpha 90.000000
_cell_angle_beta 110.708155
_cell_angle_gamma 90.000000
_cell_volume 1505.484845
_symmetry_space_group_name_H-M "C 2"
_symmetry_group_IT_number 5
_symmetry_cell_setting 'monoclinic'
loop_
_space_group_symop_operation_xyz
x,y,z
-x,y,-z
1/2+x,1/2+y,z
1/2-x,1/2+y,-z
loop_
_atom_site_type_symbol
_atom_site_label
_atom_site_fract_x
_atom_site_fract_y
_atom_site_fract_z
Si Si1 0.547175 0.059090 0.442751
Si Si2 0.723957 0.152366 0.028432
Si Si3 0.592921 0.558747 0.382919
Si Si4 0.800466 0.267064 0.270103
Si Si5 0.146278 0.767891 0.787947
Si Si6 0.284485 0.575932 0.506594
Si Si7 0.992583 0.072633 0.123496
Si Si8 0.542661 0.072005 0.805619
O O1 0.500000 0.049981 0.500000
O O2 0.582952 0.316242 0.458955
O O3 0.514457 0.062701 0.301651
O O4 0.582976 0.803214 0.457501
O O5 0.741169 0.220661 0.166490
O O6 0.762524 0.352902 0.987243
O O7 0.665866 0.220827 0.931639
O O8 0.655658 0.553096 0.389914
O O9 0.547969 0.565437 0.245526
O O10 0.820434 0.557021 0.259156
O O11 0.796660 0.190661 0.394080
O O12 0.839839 0.056772 0.239213
O O13 0.084408 0.677952 0.745226
O O14 0.255288 0.296251 0.472927
O O15 0.950749 0.282285 0.144928
O O16 0.964911 0.790523 0.107220
O O17 0.000000 0.146191 0.000000
#
# Coordination Sequence:
#
# PCOD9121619 Si02
#       8
#     4   4   4   4   4   4   4   4
#     4  10  21  36  61  92 123 151 187 238 306 371
#     4   8  16  32  51  77 109 141 177 225 279 344
#     4  10  23  41  61  87 121 157 198 252 296 343
#     4  10  21  36  59  78 116 155 185 243 308 336
#     4  10  19  35  58  88 115 144 188 238 301 357
#     4  12  26  44  61  87 119 160 216 251 285 358
#     4  10  21  42  59  83 121 158 192 239 296 347
#     4  10  21  34  58  93 116 144 197 238 281 370
#
# _framework density 21.255609
#
# number of rings (size 3 to 8) (size 9 to 14) (size 15 to 20)
#    0.000    2.000    0.000    3.000    3.500    0.000 
#    4.500    0.000    0.000    0.000    0.000    0.000 
#    0.000    0.000    0.000    0.000    0.000    0.000 
#
# Total GULP energy -89166.206842 kJ/mol
# GULP energy per Si atom -5572.887928 kJ/mol
# Density = 2.120723 g / cm^3
# Si number density = 21.255609 Si / 1000 Ang^3
#
#
#
# Elastic Constant Matrix: (Units=GPa)
#
#
# Indices 1 2 3 4 5 6 
#
# 1 71.0028 26.5992 2.7757 0.0000 8.3205 0.0000
# 2 26.5992 120.1102 -2.7248 0.0000 2.6032 0.0000
# 3 2.7757 -2.7248 50.7260 0.0000 -3.3454 0.0000
# 4 0.0000 0.0000 0.0000 13.0407 0.0000 -8.4569
# 5 8.3205 2.6032 -3.3454 0.0000 24.4005 0.0000
# 6 0.0000 0.0000 0.0000 -8.4569 0.0000 29.9292
#
#
#
# Elastic Compliance Matrix: (Units=1/GPa)
#
#
# Indices 1 2 3 4 5 6 
#
# 1 0.016062 -0.003474 -0.001415 0.000000 -0.005300 0.000000
# 2 -0.003474 0.009104 0.000700 0.000000 0.000309 0.000000
# 3 -0.001415 0.000700 0.020037 0.000000 0.003155 0.000000
# 4 0.000000 0.000000 0.000000 0.093887 0.000000 0.026529
# 5 -0.005300 0.000309 0.003155 0.000000 0.043190 0.000000
# 6 0.000000 0.000000 0.000000 0.026529 0.000000 0.040908
#
#
# Mechanical properties :
#
#
# Convention : Reuss Voigt Hill
#
# Bulk Modulus (GPa) = 27.15661 32.79325 29.97493
# Shear Modulus (GPa) = 20.50511 27.82002 24.16257
#
# Velocity S-wave (km/s) = 3.10932 3.62170 3.37525
# Velocity P-wave (km/s) = 5.06897 5.74025 5.41502
#
# Compressibility (1/GPa) = 0.03682345
#
# Stress axis : x y z
#
# Youngs Moduli (GPa) = 62.25904 109.83890 49.90811
#
# Poissons Ratio (x) = 0.38161 0.07062
# Poissons Ratio (y) = 0.21630 -0.03491
# Poissons Ratio (z) = 0.08810 -0.07684
#
# Static dielectric constant tensor:
#      x y z
#    x 1.785810 0.000000 0.055870 
#    y 0.000000 1.812600 0.000000 
#    z 0.055870 0.000000 1.823410 
# 
# From -- ./inp_files/47051.got.cif
#   From: 2010.05.17/outbox.cif.g08.bks.cpg/sg5_24_cif.got.tgz:47051.got - 2010.06.03 18:56:24.
