data_PCOD9121467
_publ_section_title
;
Structure prediction by ZEFSAII (Michael W. Deem and Ramdas Pophale) SiO2 
 PCOD9121467
Probable space group: C 2
;
_chemical_formula_sum "Si O2"
_cell_formula_units_Z 28
_cell_length_a 9.363746
_cell_length_b 31.419320
_cell_length_c 5.108021
_cell_angle_alpha 90.000000
_cell_angle_beta 65.810386
_cell_angle_gamma 90.000000
_cell_volume 1370.839108
_symmetry_space_group_name_H-M "C 2"
_symmetry_group_IT_number 5
_symmetry_cell_setting 'monoclinic'
loop_
_space_group_symop_operation_xyz
x,y,z
-x,y,-z
1/2+x,1/2+y,z
1/2-x,1/2+y,-z
loop_
_atom_site_type_symbol
_atom_site_label
_atom_site_fract_x
_atom_site_fract_y
_atom_site_fract_z
Si Si1 0.323969 0.171470 0.655030
Si Si2 0.810968 0.396251 0.644121
Si Si3 0.691013 0.538993 0.353404
Si Si4 0.894941 0.765452 0.815995
Si Si5 0.688091 0.843170 0.864322
Si Si6 0.321049 0.635153 0.730826
Si Si7 0.188877 0.988756 0.848926
O O1 0.500000 0.153527 0.500000
O O2 0.341525 0.218791 0.760606
O O3 0.260754 0.167981 0.407891
O O4 0.212630 0.147431 0.944302
O O5 0.762260 0.363803 0.449920
O O6 0.747636 0.443994 0.693015
O O7 0.000000 0.398230 0.500000
O O8 0.759570 0.376581 0.956888
O O9 0.500000 0.539123 0.500000
O O10 0.740875 0.587142 0.259654
O O11 0.740149 0.524201 0.602271
O O12 0.741491 0.504981 0.094983
O O13 0.752031 0.798133 0.918516
O O14 0.000000 0.782675 0.500000
O O15 0.000000 0.763558 0.000000
O O16 0.500000 0.840684 0.000000
O O17 0.500000 0.635206 0.500000
O O18 0.000000 0.986947 0.000000
#
# Coordination Sequence:
#
# PCOD9121467 Si02
#       7
#     4   4   4   4   4   4   4
#     4  11  23  41  60  87 126 159 190 246 312 358
#     4  10  21  37  55  81 116 150 184 235 293 343
#     4   9  19  35  55  81 113 146 190 245 290 328
#     4  11  23  41  62  86 117 155 194 240 295 353
#     4  10  22  39  59  83 115 151 190 238 291 343
#     4  11  22  39  64  90 117 158 207 249 291 355
#     4  10  19  34  56  80 109 149 191 235 285 342
#
# _framework density 20.425446999999998
#
# number of rings (size 3 to 8) (size 9 to 14) (size 15 to 20)
#    0.000    1.714    0.000    5.143    0.000    5.143 
#    0.000    5.714    0.000    0.000    0.000    0.000 
#    0.000    0.000    0.000    0.000    0.000    0.000 
#
# Total GULP energy -78093.640742 kJ/mol
# GULP energy per Si atom -5578.117196 kJ/mol
# Density = 2.037896 g / cm^3
# Si number density = 20.425447 Si / 1000 Ang^3
#
#
#
# Elastic Constant Matrix: (Units=GPa)
#
#
# Indices 1 2 3 4 5 6 
#
# 1 36.1069 15.1666 11.7516 0.0000 19.7742 0.0000
# 2 15.1666 81.6946 2.8322 0.0000 4.1632 0.0000
# 3 11.7516 2.8322 64.6441 0.0000 17.8628 0.0000
# 4 0.0000 0.0000 0.0000 30.1243 0.0000 13.7680
# 5 19.7742 4.1632 17.8628 0.0000 29.2116 0.0000
# 6 0.0000 0.0000 0.0000 13.7680 0.0000 40.2937
#
#
#
# Elastic Compliance Matrix: (Units=1/GPa)
#
#
# Indices 1 2 3 4 5 6 
#
# 1 0.047989 -0.007308 0.000343 0.000000 -0.031653 0.000000
# 2 -0.007308 0.013443 -0.000118 0.000000 0.003103 0.000000
# 3 0.000343 -0.000118 0.018617 0.000000 -0.011600 0.000000
# 4 0.000000 0.000000 0.000000 0.039339 0.000000 -0.013442
# 5 -0.031653 0.003103 -0.011600 0.000000 0.062311 0.000000
# 6 0.000000 0.000000 0.000000 -0.013442 0.000000 0.029411
#
#
# Mechanical properties :
#
#
# Convention : Reuss Voigt Hill
#
# Bulk Modulus (GPa) = 15.17833 26.88294 21.03063
# Shear Modulus (GPa) = 20.22349 30.10561 25.16455
#
# Velocity S-wave (km/s) = 3.15002 3.84334 3.51382
# Velocity P-wave (km/s) = 4.54724 5.73455 5.17506
#
# Compressibility (1/GPa) = 0.06588342
#
# Stress axis : x y z
#
# Youngs Moduli (GPa) = 20.83829 74.38603 53.71298
#
# Poissons Ratio (x) = 0.54361 -0.01842
# Poissons Ratio (y) = 0.15229 0.00634
# Poissons Ratio (z) = -0.00715 0.00878
#
# Static dielectric constant tensor:
#      x y z
#    x 1.743110 0.000000 -0.036270 
#    y 0.000000 1.710180 0.000000 
#    z -0.036270 0.000000 1.719990 
# 
# From -- ./inp_files/3876.got.cif
#   From: 2010.05.17/outbox.cif.g08.bks.cpg/sg5_2_cif.got.tgz:3876.got - 2010.06.03 18:56:24.
