data_PCOD9121531
_publ_section_title
;
Structure prediction by ZEFSAII (Michael W. Deem and Ramdas Pophale) SiO2 
 PCOD9121531
Probable space group: C 2
;
_chemical_formula_sum "Si O2"
_cell_formula_units_Z 30
_cell_length_a 7.186214
_cell_length_b 16.251178
_cell_length_c 11.357898
_cell_angle_alpha 90.000000
_cell_angle_beta 114.680012
_cell_angle_gamma 90.000000
_cell_volume 1205.261964
_symmetry_space_group_name_H-M "C 2"
_symmetry_group_IT_number 5
_symmetry_cell_setting 'monoclinic'
loop_
_space_group_symop_operation_xyz
x,y,z
-x,y,-z
1/2+x,1/2+y,z
1/2-x,1/2+y,-z
loop_
_atom_site_type_symbol
_atom_site_label
_atom_site_fract_x
_atom_site_fract_y
_atom_site_fract_z
Si Si1 0.944105 0.471070 0.661203
Si Si2 0.000000 0.847904 0.000000
Si Si3 0.818614 0.704986 0.818326
Si Si4 0.262476 0.642179 0.457264
Si Si5 0.409197 0.419033 0.723600
Si Si6 0.033640 0.073942 0.823827
Si Si7 0.348113 0.071197 0.107077
Si Si8 0.778239 0.311469 0.510223
O O1 0.858880 0.555052 0.575773
O O2 0.813234 0.388408 0.609080
O O3 0.169678 0.443263 0.676450
O O4 0.993700 0.502804 0.805974
O O5 0.829222 0.785652 0.901627
O O6 0.010994 0.897901 0.878982
O O7 0.805157 0.696203 0.674267
O O8 0.613830 0.659346 0.800732
O O9 0.027192 0.652845 0.888824
O O10 0.500000 0.622225 0.500000
O O11 0.239287 0.717694 0.545081
O O12 0.512731 0.505247 0.718310
O O13 0.396207 0.348898 0.623217
O O14 0.819710 0.083394 0.834736
O O15 0.211906 0.048025 0.960945
O O16 0.000000 0.305609 0.500000
#
# Coordination Sequence:
#
# PCOD9121531 Si02
#       8
#     4   2   4   4   4   4   4   4
#     4   9  19  35  58  82 121 164 209 260 315 369
#     4  12  20  36  60  94 124 164 206 266 326 388
#     4  11  21  36  63  91 124 161 212 262 317 379
#     4  10  21  37  60  92 121 165 219 264 318 380
#     4  10  20  34  56  89 119 161 211 253 317 385
#     4  10  19  34  60  88 119 163 211 253 311 383
#     4   9  18  35  56  91 121 159 211 263 303 380
#     4   9  18  34  54  85 115 157 213 256 305 381
#
# _framework density 24.890854999999998
#
# number of rings (size 3 to 8) (size 9 to 14) (size 15 to 20)
#    0.000    2.133    2.667    1.600    1.867    0.000 
#    0.000    0.000    0.000   20.000    0.000    0.000 
#    0.000    0.000    0.000    0.000    0.000    0.000 
#
# Total GULP energy -83503.226009 kJ/mol
# GULP energy per Si atom -5566.881734 kJ/mol
# Density = 2.483420 g / cm^3
# Si number density = 24.890855 Si / 1000 Ang^3
#
#
#
# Elastic Constant Matrix: (Units=GPa)
#
#
# Indices 1 2 3 4 5 6 
#
# 1 70.8328 31.0919 23.1553 0.0000 19.6916 0.0000
# 2 31.0919 126.1565 32.8538 0.0000 5.1936 0.0000
# 3 23.1553 32.8538 101.9898 0.0000 8.4523 0.0000
# 4 0.0000 0.0000 0.0000 40.4891 0.0000 9.3463
# 5 19.6916 5.1936 8.4523 0.0000 21.5273 0.0000
# 6 0.0000 0.0000 0.0000 9.3463 0.0000 -9.9515
#
#
#
# Elastic Compliance Matrix: (Units=1/GPa)
#
#
# Indices 1 2 3 4 5 6 
#
# 1 0.021556 -0.004025 -0.002113 0.000000 -0.017918 0.000000
# 2 -0.004025 0.009426 -0.002315 0.000000 0.002316 0.000000
# 3 -0.002113 -0.002315 0.011188 0.000000 -0.001902 0.000000
# 4 0.000000 0.000000 0.000000 0.020298 0.000000 0.019063
# 5 -0.017918 0.002316 -0.001902 0.000000 0.063030 0.000000
# 6 0.000000 0.000000 0.000000 0.019063 0.000000 -0.082583
#
#
# Mechanical properties :
#
#
# Convention : Reuss Voigt Hill
#
# Bulk Modulus (GPa) = 39.57905 52.57568 46.07737
# Shear Modulus (GPa) = 73.27037 24.53818 48.90428
#
# Velocity S-wave (km/s) = 5.43144 3.14320 4.43736
# Velocity P-wave (km/s) = 7.43436 5.86014 6.69369
#
# Compressibility (1/GPa) = 0.02526589
#
# Stress axis : x y z
#
# Youngs Moduli (GPa) = 46.39043 106.08948 89.38357
#
# Poissons Ratio (x) = 0.42699 0.18883
# Poissons Ratio (y) = 0.18671 0.20688
# Poissons Ratio (z) = 0.09801 0.24555
#
# Static dielectric constant tensor:
#      x y z
#    x 2.166650 0.000000 -0.279970 
#    y 0.000000 2.090640 0.000000 
#    z -0.279970 0.000000 2.361850 
# 
# From -- ./inp_files/51296.got.cif
#   From: 2010.05.17/outbox.cif.g08.bks.cpg/sg5_26_cif.got.tgz:51296.got - 2010.06.03 18:56:24.
