data_PCOD9121817
_publ_section_title
;
Structure prediction by ZEFSAII (Michael W. Deem and Ramdas Pophale) SiO2 
 PCOD9121817
Probable space group: C 2
;
_chemical_formula_sum "Si O2"
_cell_formula_units_Z 26
_cell_length_a 9.803219
_cell_length_b 16.967613
_cell_length_c 5.547607
_cell_angle_alpha 90.000000
_cell_angle_beta 91.951686
_cell_angle_gamma 90.000000
_cell_volume 922.238259
_symmetry_space_group_name_H-M "C 2"
_symmetry_group_IT_number 5
_symmetry_cell_setting 'monoclinic'
loop_
_space_group_symop_operation_xyz
x,y,z
-x,y,-z
1/2+x,1/2+y,z
1/2-x,1/2+y,-z
loop_
_atom_site_type_symbol
_atom_site_label
_atom_site_fract_x
_atom_site_fract_y
_atom_site_fract_z
Si Si1 0.359907 0.628150 0.555262
Si Si2 0.926605 0.380574 0.742035
Si Si3 0.000000 0.846335 0.500000
Si Si4 0.475817 0.048660 0.249709
Si Si5 0.678414 0.466149 0.254086
Si Si6 0.830068 0.820829 0.078324
Si Si7 0.333966 0.684102 0.050800
O O1 0.500000 0.673859 0.500000
O O2 0.401923 0.545481 0.684948
O O3 0.304055 0.625832 0.276936
O O4 0.277314 0.662033 0.778481
O O5 0.916087 0.475604 0.743183
O O6 0.000000 0.361103 0.500000
O O7 0.000000 0.363396 0.000000
O O8 0.794876 0.328320 0.743970
O O9 0.875097 0.905165 0.550939
O O10 0.961253 0.801931 0.250483
O O11 0.500000 0.093274 0.500000
O O12 0.332330 0.000208 0.253508
O O13 0.500000 0.091439 0.000000
O O14 0.656632 0.410530 0.021718
O O15 0.756273 0.761005 0.889420
O O16 0.500000 0.688955 0.000000
#
# Coordination Sequence:
#
# PCOD9121817 Si02
#       7
#     4   4   2   4   4   4   4
#     4  10  24  48  73 107 153 201 261 312 388 468
#     4  10  19  36  61  99 149 186 230 316 370 444
#     4  12  28  42  70 114 160 210 250 316 386 472
#     4  10  20  37  61 100 143 179 234 309 367 440
#     4  12  25  44  75 109 158 200 257 325 388 462
#     4  12  26  43  72 116 157 203 259 320 393 460
#     4  10  25  46  77 110 150 205 255 329 390 448
#
# _framework density 28.192281999999999
#
# number of rings (size 3 to 8) (size 9 to 14) (size 15 to 20)
#    0.000    1.231    3.846    2.769    4.308    3.077 
#    0.000    0.000    1.692    1.846    0.000    0.000 
#    0.000    0.000    0.000    0.000    0.000    0.000 
#
# Total GULP energy -72436.816158 kJ/mol
# GULP energy per Si atom -5572.062781 kJ/mol
# Density = 2.812812 g / cm^3
# Si number density = 28.192282 Si / 1000 Ang^3
#
#
#
# Elastic Constant Matrix: (Units=GPa)
#
#
# Indices 1 2 3 4 5 6 
#
# 1 87.4782 23.5584 34.6572 0.0000 12.7963 0.0000
# 2 23.5584 100.9691 31.4657 0.0000 9.4191 0.0000
# 3 34.6572 31.4657 236.4753 0.0000 24.6735 0.0000
# 4 0.0000 0.0000 0.0000 -236.9738 0.0000 -15.9343
# 5 12.7963 9.4191 24.6735 0.0000 50.4071 0.0000
# 6 0.0000 0.0000 0.0000 -15.9343 0.0000 17.9563
#
#
#
# Elastic Compliance Matrix: (Units=1/GPa)
#
#
# Indices 1 2 3 4 5 6 
#
# 1 0.012929 -0.002393 -0.001349 0.000000 -0.002174 0.000000
# 2 -0.002393 0.010860 -0.000997 0.000000 -0.000934 0.000000
# 3 -0.001349 -0.000997 0.004746 0.000000 -0.001794 0.000000
# 4 0.000000 0.000000 0.000000 -0.003982 0.000000 -0.003534
# 5 -0.002174 -0.000934 -0.001794 0.000000 0.021443 0.000000
# 6 0.000000 0.000000 0.000000 -0.003534 0.000000 0.052555
#
#
# Mechanical properties :
#
#
# Convention : Reuss Voigt Hill
#
# Bulk Modulus (GPa) = 52.47651 67.14279 59.80965
# Shear Modulus (GPa) = 43.71309 -11.37266 16.17021
#
# Velocity S-wave (km/s) = 3.94195 -2.01065 2.39753
# Velocity P-wave (km/s) = 6.27478 4.29854 5.37821
#
# Compressibility (1/GPa) = 0.01905615
#
# Stress axis : x y z
#
# Youngs Moduli (GPa) = 77.34785 92.07947 210.68485
#
# Poissons Ratio (x) = 0.22036 0.28432
# Poissons Ratio (y) = 0.18511 0.21003
# Poissons Ratio (z) = 0.10438 0.09179
#
# Static dielectric constant tensor:
#      x y z
#    x 2.881820 0.000000 -0.342520 
#    y 0.000000 2.196860 0.000000 
#    z -0.342520 0.000000 2.571950 
# 
# From -- ./inp_files/5579.got.cif
#   From: 2010.05.17/outbox.cif.g08.bks.cpg/sg5_3_cif.got.tgz:5579.got - 2010.06.03 18:56:24.
