data_PCOD9121599
_publ_section_title
;
Structure prediction by ZEFSAII (Michael W. Deem and Ramdas Pophale) SiO2 
 PCOD9121599
Probable space group: C 2
;
_chemical_formula_sum "Si O2"
_cell_formula_units_Z 28
_cell_length_a 8.569307
_cell_length_b 13.946242
_cell_length_c 12.835441
_cell_angle_alpha 90.000000
_cell_angle_beta 121.297650
_cell_angle_gamma 90.000000
_cell_volume 1310.737322
_symmetry_space_group_name_H-M "C 2"
_symmetry_group_IT_number 5
_symmetry_cell_setting 'monoclinic'
loop_
_space_group_symop_operation_xyz
x,y,z
-x,y,-z
1/2+x,1/2+y,z
1/2-x,1/2+y,-z
loop_
_atom_site_type_symbol
_atom_site_label
_atom_site_fract_x
_atom_site_fract_y
_atom_site_fract_z
Si Si1 0.088489 0.167100 0.296091
Si Si2 0.339601 0.159703 0.857603
Si Si3 0.660204 0.777254 0.124262
Si Si4 0.510980 0.351819 0.125877
Si Si5 0.118909 0.358396 0.439247
Si Si6 0.065736 0.963689 0.348193
Si Si7 0.642005 0.965290 0.247569
O O1 0.196795 0.204998 0.232183
O O2 0.102217 0.254829 0.381153
O O3 0.874859 0.147188 0.188936
O O4 0.148557 0.070099 0.374335
O O5 0.344451 0.266016 0.811857
O O6 0.400554 0.071153 0.806872
O O7 0.500000 0.162996 0.000000
O O8 0.591976 0.878288 0.151591
O O9 0.824885 0.804554 0.105406
O O10 0.500000 0.734612 0.000000
O O11 0.554070 0.434281 0.222577
O O12 0.500000 0.379388 0.000000
O O13 0.319454 0.387180 0.547846
O O14 0.065023 0.435179 0.331908
O O15 0.000000 0.365298 0.500000
O O16 0.862727 0.963415 0.324662
#
# Coordination Sequence:
#
# PCOD9121599 Si02
#       7
#     4   4   4   4   4   4   4
#     4  10  23  40  59  88 118 155 203 245 294 355
#     4  10  19  37  63  90 120 155 194 241 299 356
#     4  10  19  35  57  84 119 155 193 242 294 352
#     4  10  21  36  57  87 121 156 196 245 298 355
#     4  11  23  39  60  86 119 154 199 253 297 347
#     4  10  22  41  61  84 117 161 201 245 300 351
#     4   9  21  38  59  85 116 156 202 241 292 356
#
# _framework density 21.362022
#
# number of rings (size 3 to 8) (size 9 to 14) (size 15 to 20)
#    0.000    2.000    0.000    3.429    0.000    6.286 
#    0.000    5.714    0.000    0.000    0.000    0.000 
#    0.000    0.000    0.000    0.000    0.000    0.000 
#
# Total GULP energy -78115.104140 kJ/mol
# GULP energy per Si atom -5579.650296 kJ/mol
# Density = 2.131340 g / cm^3
# Si number density = 21.362022 Si / 1000 Ang^3
#
#
#
# Elastic Constant Matrix: (Units=GPa)
#
#
# Indices 1 2 3 4 5 6 
#
# 1 60.2564 12.8838 41.2201 0.0000 -25.6335 0.0000
# 2 12.8838 107.8355 34.1811 0.0000 -11.5914 0.0000
# 3 41.2201 34.1811 79.4658 0.0000 -20.4629 0.0000
# 4 0.0000 0.0000 0.0000 22.9906 0.0000 5.5391
# 5 -25.6335 -11.5914 -20.4629 0.0000 42.8144 0.0000
# 6 0.0000 0.0000 0.0000 5.5391 0.0000 20.9401
#
#
#
# Elastic Compliance Matrix: (Units=1/GPa)
#
#
# Indices 1 2 3 4 5 6 
#
# 1 0.030784 0.001975 -0.013609 0.000000 0.012461 0.000000
# 2 0.001975 0.010888 -0.005296 0.000000 0.001599 0.000000
# 3 -0.013609 -0.005296 0.022184 0.000000 0.001021 0.000000
# 4 0.000000 0.000000 0.000000 0.046457 0.000000 -0.012289
# 5 0.012461 0.001599 0.001021 0.000000 0.031738 0.000000
# 6 0.000000 0.000000 0.000000 -0.012289 0.000000 0.051006
#
#
# Mechanical properties :
#
#
# Convention : Reuss Voigt Hill
#
# Bulk Modulus (GPa) = 33.33714 47.12527 40.23121
# Shear Modulus (GPa) = 21.10456 27.96719 24.53587
#
# Velocity S-wave (km/s) = 3.14657 3.62221 3.39274
# Velocity P-wave (km/s) = 5.37037 6.29302 5.84992
#
# Compressibility (1/GPa) = 0.02999658
#
# Stress axis : x y z
#
# Youngs Moduli (GPa) = 32.48435 91.84415 45.07720
#
# Poissons Ratio (x) = -0.18141 0.61345
# Poissons Ratio (y) = -0.06416 0.23873
# Poissons Ratio (z) = 0.44208 0.48642
#
# Static dielectric constant tensor:
#      x y z
#    x 1.806070 0.000000 0.027970 
#    y 0.000000 1.763230 0.000000 
#    z 0.027970 0.000000 1.804970 
# 
# From -- ./inp_files/36085.got.cif
#   From: 2010.05.17/outbox.cif.g08.bks.cpg/sg5_19_cif.got.tgz:36085.got - 2010.06.03 18:56:24.
