data_PCOD9121767
_publ_section_title
;
Structure prediction by ZEFSAII (Michael W. Deem and Ramdas Pophale) SiO2 
 PCOD9121767
Probable space group: C 2
;
_chemical_formula_sum "Si O2"
_cell_formula_units_Z 32
_cell_length_a 18.312864
_cell_length_b 14.060679
_cell_length_c 21.185654
_cell_angle_alpha 90.000000
_cell_angle_beta 161.875646
_cell_angle_gamma 90.000000
_cell_volume 1696.981560
_symmetry_space_group_name_H-M "C 2"
_symmetry_group_IT_number 5
_symmetry_cell_setting 'monoclinic'
loop_
_space_group_symop_operation_xyz
x,y,z
-x,y,-z
1/2+x,1/2+y,z
1/2-x,1/2+y,-z
loop_
_atom_site_type_symbol
_atom_site_label
_atom_site_fract_x
_atom_site_fract_y
_atom_site_fract_z
Si Si1 0.790552 0.179520 0.514228
Si Si2 0.175368 0.420202 0.959574
Si Si3 0.794137 0.739060 0.121690
Si Si4 0.935373 0.476093 0.645466
Si Si5 0.437147 0.560631 0.019777
Si Si6 0.792435 0.642685 0.981921
Si Si7 0.168888 0.924746 0.300358
Si Si8 0.275442 0.724073 0.353916
O O1 0.573442 0.238273 0.367467
O O2 0.710403 0.069947 0.456314
O O3 0.810991 0.206868 0.457784
O O4 0.049754 0.182745 0.755600
O O5 0.970165 0.416375 0.738404
O O6 0.178165 0.341346 0.016049
O O7 0.199045 0.528222 0.003996
O O8 0.414664 0.397373 0.118727
O O9 0.631788 0.671089 0.030280
O O10 0.801411 0.685154 0.059881
O O11 0.824694 0.434322 0.491114
O O12 0.196659 0.508371 0.841377
O O13 0.630976 0.520485 0.228250
O O14 0.500000 0.537340 0.000000
O O15 0.022987 0.676290 0.133482
O O16 0.251049 0.837453 0.325205
O O17 0.500000 0.688267 0.500000
#
# Coordination Sequence:
#
# PCOD9121767 Si02
#       8
#     4   4   4   4   4   4   4   4
#     4  10  19  36  60  82 115 158 197 247 303 359
#     4  11  19  36  62  89 115 150 207 260 299 349
#     4  10  20  36  57  93 117 152 207 257 300 361
#     4  10  20  36  60  88 115 153 203 251 303 353
#     4  10  22  38  57  85 126 163 192 244 312 369
#     4  11  20  39  60  88 119 157 203 257 307 353
#     4  11  21  37  58  91 120 149 200 252 301 369
#     4  11  25  39  54  90 131 158 196 243 309 388
#
# _framework density 18.857011
#
# number of rings (size 3 to 8) (size 9 to 14) (size 15 to 20)
#    0.000    1.500    8.750    0.000    3.500    0.500 
#    0.000    0.000    2.750    0.000    0.000    0.000 
#    0.000    0.000    0.000    0.000    0.000    0.000 
#
# Total GULP energy -89179.668712 kJ/mol
# GULP energy per Si atom -5573.729294 kJ/mol
# Density = 1.881409 g / cm^3
# Si number density = 18.857011 Si / 1000 Ang^3
#
#
#
# Elastic Constant Matrix: (Units=GPa)
#
#
# Indices 1 2 3 4 5 6 
#
# 1 40.8803 13.7652 21.6467 0.0250 6.4450 -0.0015
# 2 13.7652 79.7553 23.5644 -0.0621 1.7311 0.0927
# 3 21.6467 23.5644 121.1539 -0.0966 -9.5705 0.0627
# 4 0.0250 -0.0621 -0.0966 17.3945 0.0088 -4.9595
# 5 6.4450 1.7311 -9.5705 0.0088 27.5543 -0.0107
# 6 -0.0015 0.0927 0.0627 -4.9595 -0.0107 16.5859
#
#
#
# Elastic Compliance Matrix: (Units=1/GPa)
#
#
# Indices 1 2 3 4 5 6 
#
# 1 0.029787 -0.003375 -0.005346 -0.000076 -0.008612 0.000013
# 2 -0.003375 0.013771 -0.002140 0.000025 -0.000819 -0.000062
# 3 -0.005346 -0.002140 0.010009 0.000051 0.004861 -0.000008
# 4 -0.000076 0.000025 0.000051 0.062848 0.000021 0.018793
# 5 -0.008612 -0.000819 0.004861 0.000021 0.040046 0.000018
# 6 0.000013 -0.000062 -0.000008 0.018793 0.000018 0.065912
#
#
# Mechanical properties :
#
#
# Convention : Reuss Voigt Hill
#
# Bulk Modulus (GPa) = 31.40162 39.97133 35.68647
# Shear Modulus (GPa) = 19.63018 24.49449 22.06233
#
# Velocity S-wave (km/s) = 3.22996 3.60802 3.42421
# Velocity P-wave (km/s) = 5.53162 6.21290 5.88213
#
# Compressibility (1/GPa) = 0.03184549
#
# Stress axis : x y z
#
# Youngs Moduli (GPa) = 33.57226 72.61646 99.90530
#
# Poissons Ratio (x) = 0.24505 0.53409
# Poissons Ratio (y) = 0.11329 0.21381
# Poissons Ratio (z) = 0.17948 0.15541
#
# Static dielectric constant tensor:
#      x y z
#    x 1.620890 0.000040 -0.026050 
#    y 0.000040 1.728290 -0.000040 
#    z -0.026050 -0.000040 1.713170 
# 
# From -- ./inp_files/66808.got.cif
#   From: 2010.05.17/outbox.cif.g08.bks.cpg/sg5_34_cif.got.tgz:66808.got - 2010.06.03 18:56:24.
