data_PCOD9121219
_publ_section_title
;
Structure prediction by ZEFSAII (Michael W. Deem and Ramdas Pophale) SiO2 
 PCOD9121219
Probable space group: C 2
;
_chemical_formula_sum "Si O2"
_cell_formula_units_Z 18
_cell_length_a 10.792352
_cell_length_b 8.937125
_cell_length_c 14.405419
_cell_angle_alpha 90.000000
_cell_angle_beta 147.460522
_cell_angle_gamma 90.000000
_cell_volume 747.352868
_symmetry_space_group_name_H-M "C 2"
_symmetry_group_IT_number 5
_symmetry_cell_setting 'monoclinic'
loop_
_space_group_symop_operation_xyz
x,y,z
-x,y,-z
1/2+x,1/2+y,z
1/2-x,1/2+y,-z
loop_
_atom_site_type_symbol
_atom_site_label
_atom_site_fract_x
_atom_site_fract_y
_atom_site_fract_z
Si Si1 0.165928 0.881360 0.868079
Si Si2 0.671794 0.775370 0.230930
Si Si3 0.267689 0.924513 0.295097
Si Si4 0.500000 0.493870 0.500000
Si Si5 0.728710 0.666030 0.816596
O O1 0.198353 0.825728 0.782805
O O2 0.941903 0.837158 0.784960
O O3 0.136150 0.060999 0.839392
O O4 0.407544 0.828082 0.062439
O O5 0.711364 0.599025 0.253223
O O6 0.794076 0.874195 0.388157
O O7 0.500000 0.912219 0.500000
O O8 0.294868 0.842869 0.212956
O O9 0.598789 0.599370 0.643553
O O10 0.000000 0.634495 0.000000
#
# Coordination Sequence:
#
# PCOD9121219 Si02
#       5
#     4   4   4   2   4
#     4  10  24  45  70  99 142 191 225 289 361 406
#     4  10  22  45  69 105 139 182 242 286 348 422
#     4  12  27  44  70 108 142 181 241 292 346 421
#     4  10  18  44  72  94 146 180 226 290 340 420
#     4  11  23  45  68 103 140 184 235 279 351 422
#
# _framework density 24.085006
#
# number of rings (size 3 to 8) (size 9 to 14) (size 15 to 20)
#    0.000    1.333    6.667    0.000    6.222    1.778 
#    0.000    2.222    0.000    0.000    0.000    0.000 
#    0.000    0.000    0.000    0.000    0.000    0.000 
#
# Total GULP energy -50174.454371 kJ/mol
# GULP energy per Si atom -5574.939375 kJ/mol
# Density = 2.403019 g / cm^3
# Si number density = 24.085006 Si / 1000 Ang^3
#
#
#
# Elastic Constant Matrix: (Units=GPa)
#
#
# Indices 1 2 3 4 5 6 
#
# 1 87.6658 31.8102 39.3178 0.0002 21.0857 -0.0001
# 2 31.8102 169.8716 55.4905 0.0013 3.9419 0.0007
# 3 39.3178 55.4905 171.6652 0.0034 -4.8436 0.0022
# 4 0.0002 0.0013 0.0034 8.6455 0.0012 -12.0181
# 5 21.0857 3.9419 -4.8436 0.0012 23.9095 0.0005
# 6 -0.0001 0.0007 0.0022 -12.0181 0.0005 25.6674
#
#
#
# Elastic Compliance Matrix: (Units=1/GPa)
#
#
# Indices 1 2 3 4 5 6 
#
# 1 0.017654 -0.001636 -0.003969 0.000014 -0.016103 0.000007
# 2 -0.001636 0.006789 -0.001821 -0.000001 -0.000046 0.000000
# 3 -0.003969 -0.001821 0.007473 -0.000013 0.005314 -0.000007
# 4 0.000014 -0.000001 -0.000013 0.331313 -0.000035 0.155129
# 5 -0.016103 -0.000046 0.005314 -0.000035 0.057110 -0.000018
# 6 0.000007 0.000000 -0.000007 0.155129 -0.000018 0.111595
#
#
# Mechanical properties :
#
#
# Convention : Reuss Voigt Hill
#
# Bulk Modulus (GPa) = 58.60272 75.82663 67.21467
# Shear Modulus (GPa) = 9.05022 31.81675 20.43349
#
# Velocity S-wave (km/s) = 1.94056 3.63853 2.91587
# Velocity P-wave (km/s) = 5.42268 7.01449 6.26931
#
# Compressibility (1/GPa) = 0.01706406
#
# Stress axis : x y z
#
# Youngs Moduli (GPa) = 56.64521 147.29549 133.81502
#
# Poissons Ratio (x) = 0.24092 0.53111
# Poissons Ratio (y) = 0.09265 0.24371
# Poissons Ratio (z) = 0.22483 0.26826
#
# Static dielectric constant tensor:
#      x y z
#    x 2.046620 0.000000 -0.041690 
#    y 0.000000 2.019790 0.000000 
#    z -0.041690 0.000000 1.913840 
# 
# From -- ./inp_files/26380.got.cif
#   From: 2010.05.17/outbox.cif.g08.bks.cpg/sg5_14_cif.got.tgz:26380.got - 2010.06.03 18:56:24.
