data_PCOD9121550
_publ_section_title
;
Structure prediction by ZEFSAII (Michael W. Deem and Ramdas Pophale) SiO2 
 PCOD9121550
Probable space group: C 2
;
_chemical_formula_sum "Si O2"
_cell_formula_units_Z 28
_cell_length_a 25.888426
_cell_length_b 11.795288
_cell_length_c 20.323948
_cell_angle_alpha 90.000000
_cell_angle_beta 169.203875
_cell_angle_gamma 90.000000
_cell_volume 1162.504253
_symmetry_space_group_name_H-M "C 2"
_symmetry_group_IT_number 5
_symmetry_cell_setting 'monoclinic'
loop_
_space_group_symop_operation_xyz
x,y,z
-x,y,-z
1/2+x,1/2+y,z
1/2-x,1/2+y,-z
loop_
_atom_site_type_symbol
_atom_site_label
_atom_site_fract_x
_atom_site_fract_y
_atom_site_fract_z
Si Si1 0.068814 0.923670 0.465531
Si Si2 0.666458 0.064385 0.867046
Si Si3 0.695186 0.240372 0.523529
Si Si4 0.071956 0.282880 0.875577
Si Si5 0.209443 0.139949 0.702013
Si Si6 0.950470 0.834974 0.861869
Si Si7 0.322210 0.847471 0.201286
O O1 0.222144 0.824920 0.618374
O O2 0.831985 0.864025 0.212137
O O3 0.252133 0.014717 0.730816
O O4 0.886753 0.004592 0.189958
O O5 0.404252 0.117165 0.576990
O O6 0.594099 0.967145 0.724327
O O7 0.812325 0.172953 0.016955
O O8 0.942454 0.243608 0.782031
O O9 0.443258 0.297120 0.168189
O O10 0.842780 0.347205 0.542518
O O11 0.000000 0.124326 0.500000
O O12 0.040722 0.246061 0.458285
O O13 0.503221 0.197903 0.080772
O O14 0.000000 0.874921 0.000000
O O15 0.200053 0.867605 0.122706
#
# Coordination Sequence:
#
# PCOD9121550 Si02
#       7
#     4   4   4   4   4   4   4
#     4  10  20  36  62  86 124 169 200 250 320 374
#     4  10  19  34  63  83 124 163 206 254 312 364
#     4   9  19  35  57  88 121 156 213 258 303 367
#     4  10  22  39  59  98 124 155 215 261 305 376
#     4  10  20  39  59  87 126 158 200 252 322 370
#     4  10  21  35  57  89 135 152 198 266 316 368
#     4   9  19  36  53  90 121 162 200 253 310 379
#
# _framework density 24.085933000000001
#
# number of rings (size 3 to 8) (size 9 to 14) (size 15 to 20)
#    0.000    2.286    1.429    0.857    4.000    3.429 
#    5.143    0.000    0.000   10.286    0.000    4.000 
#    0.000    0.000    0.000    0.000    0.000    0.000 
#
# Total GULP energy -78132.739465 kJ/mol
# GULP energy per Si atom -5580.909962 kJ/mol
# Density = 2.403111 g / cm^3
# Si number density = 24.085933 Si / 1000 Ang^3
#
#
#
# Elastic Constant Matrix: (Units=GPa)
#
#
# Indices 1 2 3 4 5 6 
#
# 1 110.8828 37.1254 24.8731 0.0307 37.2948 -0.0224
# 2 37.1254 113.3354 11.4563 0.0327 15.3625 -0.0088
# 3 24.8731 11.4563 69.5337 0.0769 26.8840 -0.0312
# 4 0.0307 0.0327 0.0769 9.3912 -0.0077 -4.6385
# 5 37.2948 15.3625 26.8840 -0.0077 34.4861 -0.0041
# 6 -0.0224 -0.0088 -0.0312 -4.6385 -0.0041 35.6235
#
#
#
# Elastic Compliance Matrix: (Units=1/GPa)
#
#
# Indices 1 2 3 4 5 6 
#
# 1 0.015094 -0.002901 0.001274 -0.000063 -0.016024 0.000000
# 2 -0.002901 0.009948 -0.000144 -0.000027 -0.001182 -0.000003
# 3 0.001274 -0.000144 0.020695 -0.000192 -0.017447 -0.000008
# 4 -0.000063 -0.000027 -0.000192 0.113804 0.000256 0.014818
# 5 -0.016024 -0.001182 -0.017447 0.000256 0.060454 0.000015
# 6 0.000000 -0.000003 -0.000008 0.014818 0.000015 0.030001
#
#
# Mechanical properties :
#
#
# Convention : Reuss Voigt Hill
#
# Bulk Modulus (GPa) = 23.69940 48.96239 36.33089
# Shear Modulus (GPa) = 18.68437 30.58663 24.63550
#
# Velocity S-wave (km/s) = 2.78823 3.56743 3.20162
# Velocity P-wave (km/s) = 4.49739 6.11073 5.36505
#
# Compressibility (1/GPa) = 0.04219516
#
# Stress axis : x y z
#
# Youngs Moduli (GPa) = 66.25342 100.51804 48.32019
#
# Poissons Ratio (x) = 0.29160 -0.06157
# Poissons Ratio (y) = 0.19220 0.00698
# Poissons Ratio (z) = -0.08442 0.01451
#
# Static dielectric constant tensor:
#      x y z
#    x 2.082010 -0.000040 -0.027630 
#    y -0.000040 1.881390 0.000000 
#    z -0.027630 0.000000 2.064410 
# 
# From -- ./inp_files/70041.got.cif
#   From: 2010.05.17/outbox.cif.g08.bks.cpg/sg5_36_cif.got.tgz:70041.got - 2010.06.03 18:56:24.
