data_PCOD9121837
_publ_section_title
;
Structure prediction by ZEFSAII (Michael W. Deem and Ramdas Pophale) SiO2 
 PCOD9121837
Probable space group: C 2
;
_chemical_formula_sum "Si O2"
_cell_formula_units_Z 26
_cell_length_a 11.718342
_cell_length_b 11.935056
_cell_length_c 8.527543
_cell_angle_alpha 90.000000
_cell_angle_beta 76.454956
_cell_angle_gamma 90.000000
_cell_volume 1159.481843
_symmetry_space_group_name_H-M "C 2"
_symmetry_group_IT_number 5
_symmetry_cell_setting 'monoclinic'
loop_
_space_group_symop_operation_xyz
x,y,z
-x,y,-z
1/2+x,1/2+y,z
1/2-x,1/2+y,-z
loop_
_atom_site_type_symbol
_atom_site_label
_atom_site_fract_x
_atom_site_fract_y
_atom_site_fract_z
Si Si1 0.891146 0.146090 0.320046
Si Si2 0.263527 0.254998 0.201935
Si Si3 0.191250 0.013460 0.369612
Si Si4 0.225611 0.642540 0.099075
Si Si5 0.920079 0.999192 0.895166
Si Si6 0.500000 0.195299 0.000000
Si Si7 0.121293 0.378668 0.507362
O O1 0.878714 0.049277 0.453221
O O2 0.770393 0.157980 0.260640
O O3 0.914711 0.262339 0.397395
O O4 0.998196 0.105955 0.177715
O O5 0.227429 0.133497 0.283741
O O6 0.201079 0.346173 0.330368
O O7 0.231542 0.246062 0.027168
O O8 0.404669 0.253421 0.146692
O O9 0.119280 0.948535 0.258014
O O10 0.302703 0.947199 0.394286
O O11 0.300449 0.535938 0.017492
O O12 0.090708 0.631984 0.089091
O O13 0.000000 0.940935 0.000000
O O14 0.000000 0.436992 0.500000
#
# Coordination Sequence:
#
# PCOD9121837 Si02
#       7
#     4   4   4   4   4   2   4
#     4  10  19  36  63  86 120 160 206 256 309 364
#     4   8  18  38  61  84 123 165 199 253 310 365
#     4  10  20  35  57  94 123 154 208 255 317 359
#     4   8  16  32  60  84 112 160 206 245 305 358
#     4   9  17  35  63  85 113 164 207 248 303 370
#     4   8  16  34  62  80 124 158 210 240 306 370
#     4  11  22  37  60  92 125 159 207 260 310 368
#
# _framework density 22.42381
#
# number of rings (size 3 to 8) (size 9 to 14) (size 15 to 20)
#    0.923    1.846    0.000    3.231    0.000    1.231 
#    0.000   10.000   11.846    0.000    0.000    0.000 
#    0.000    0.000    0.000    0.000    0.000    0.000 
#
# Total GULP energy -72385.490521 kJ/mol
# GULP energy per Si atom -5568.114655 kJ/mol
# Density = 2.237277 g / cm^3
# Si number density = 22.423810 Si / 1000 Ang^3
#
#
#
# Elastic Constant Matrix: (Units=GPa)
#
#
# Indices 1 2 3 4 5 6 
#
# 1 180.4445 19.8319 59.7574 0.0000 33.4836 0.0000
# 2 19.8319 28.1145 8.9049 0.0000 7.0752 0.0000
# 3 59.7574 8.9049 116.0174 0.0000 31.8051 0.0000
# 4 0.0000 0.0000 0.0000 8.6284 0.0000 4.7957
# 5 33.4836 7.0752 31.8051 0.0000 63.2577 0.0000
# 6 0.0000 0.0000 0.0000 4.7957 0.0000 12.1455
#
#
#
# Elastic Compliance Matrix: (Units=1/GPa)
#
#
# Indices 1 2 3 4 5 6 
#
# 1 0.007285 -0.003716 -0.002927 0.000000 -0.001969 0.000000
# 2 -0.003716 0.038882 -0.000484 0.000000 -0.002138 0.000000
# 3 -0.002927 -0.000484 0.011279 0.000000 -0.004067 0.000000
# 4 0.000000 0.000000 0.000000 0.148483 0.000000 -0.058629
# 5 -0.001969 -0.002138 -0.004067 0.000000 0.019135 0.000000
# 6 0.000000 0.000000 0.000000 -0.058629 0.000000 0.105485
#
#
# Mechanical properties :
#
#
# Convention : Reuss Voigt Hill
#
# Bulk Modulus (GPa) = 23.15305 55.72941 39.44123
# Shear Modulus (GPa) = 13.91981 32.54513 23.23247
#
# Velocity S-wave (km/s) = 2.49421 3.81381 3.22228
# Velocity P-wave (km/s) = 4.31768 6.65585 5.60993
#
# Compressibility (1/GPa) = 0.04319085
#
# Stress axis : x y z
#
# Youngs Moduli (GPa) = 137.26689 25.71906 88.65687
#
# Poissons Ratio (x) = 0.09558 0.25954
# Poissons Ratio (y) = 0.51012 0.04291
# Poissons Ratio (z) = 0.40184 0.01245
#
# Static dielectric constant tensor:
#      x y z
#    x 1.872010 0.000000 0.019260 
#    y 0.000000 1.859560 0.000000 
#    z 0.019260 0.000000 1.902180 
# 
# From -- ./inp_files/20095.got.cif
#   From: 2010.05.17/outbox.cif.g08.bks.cpg/sg5_11_cif.got.tgz:20095.got - 2010.06.03 18:56:24.
