data_PCOD9121901
_publ_section_title
;
Structure prediction by ZEFSAII (Michael W. Deem and Ramdas Pophale) SiO2 
 PCOD9121901
Probable space group: C 2
;
_chemical_formula_sum "Si O2"
_cell_formula_units_Z 24
_cell_length_a 10.166975
_cell_length_b 10.147760
_cell_length_c 19.184009
_cell_angle_alpha 90.000000
_cell_angle_beta 147.417111
_cell_angle_gamma 90.000000
_cell_volume 1065.865681
_symmetry_space_group_name_H-M "C 2"
_symmetry_group_IT_number 5
_symmetry_cell_setting 'monoclinic'
loop_
_space_group_symop_operation_xyz
x,y,z
-x,y,-z
1/2+x,1/2+y,z
1/2-x,1/2+y,-z
loop_
_atom_site_type_symbol
_atom_site_label
_atom_site_fract_x
_atom_site_fract_y
_atom_site_fract_z
Si Si1 0.836878 0.383850 0.073482
Si Si2 0.154367 0.746565 0.179612
Si Si3 0.000000 0.341940 0.000000
Si Si4 0.000000 0.513304 0.500000
Si Si5 0.580582 0.128226 0.796700
Si Si6 0.061676 0.440861 0.381315
Si Si7 0.112962 0.223421 0.301449
O O1 0.792801 0.505044 0.105889
O O2 0.055982 0.302828 0.206477
O O3 0.607805 0.285325 0.967061
O O4 0.909033 0.421341 0.027018
O O5 0.349576 0.679399 0.215504
O O6 0.121212 0.671766 0.237084
O O7 0.285426 0.884974 0.254741
O O8 0.776643 0.245020 0.878040
O O9 0.127112 0.443126 0.491423
O O10 0.796379 0.606004 0.374964
O O11 0.453958 0.074826 0.670029
O O12 0.203391 0.330164 0.399671
#
# Coordination Sequence:
#
# PCOD9121901 Si02
#       7
#     4   4   2   2   4   4   4
#     4  10  19  38  61  89 126 148 198 247 301 360
#     4   9  20  40  59  94 118 154 201 244 303 359
#     4  10  20  32  54  90 116 160 184 234 292 370
#     4  12  22  44  60  86 120 166 206 240 302 346
#     4  10  19  37  58  82 123 159 186 242 306 343
#     4   9  22  39  59  85 115 160 199 253 290 341
#     4   9  22  40  60  90 116 161 199 249 292 355
#
# _framework density 22.516908999999998
#
# number of rings (size 3 to 8) (size 9 to 14) (size 15 to 20)
#    1.000    1.333    0.000    2.500    0.000    2.667 
#   18.000    0.000    0.000    0.000    0.000    0.000 
#    0.000    0.000    0.000    0.000    0.000    0.000 
#
# Total GULP energy -66903.117658 kJ/mol
# GULP energy per Si atom -5575.259805 kJ/mol
# Density = 2.246566 g / cm^3
# Si number density = 22.516909 Si / 1000 Ang^3
#
#
#
# Elastic Constant Matrix: (Units=GPa)
#
#
# Indices 1 2 3 4 5 6 
#
# 1 97.8014 5.5974 9.1453 0.0002 -20.6099 0.0000
# 2 5.5974 20.0920 2.4084 0.0000 -8.1709 0.0000
# 3 9.1453 2.4084 14.3130 0.0001 -11.4914 0.0000
# 4 0.0002 0.0000 0.0001 15.1225 0.0002 -2.7975
# 5 -20.6099 -8.1709 -11.4914 0.0002 34.5385 0.0000
# 6 0.0000 0.0000 0.0000 -2.7975 0.0000 37.4953
#
#
#
# Elastic Compliance Matrix: (Units=1/GPa)
#
#
# Indices 1 2 3 4 5 6 
#
# 1 0.011769 -0.000512 -0.002582 0.000000 0.006043 0.000000
# 2 -0.000512 0.055119 0.001741 0.000000 0.013314 0.000000
# 3 -0.002582 0.001741 0.095947 -0.000001 0.030794 0.000000
# 4 0.000000 0.000000 -0.000001 0.067052 -0.000001 0.005003
# 5 0.006043 0.013314 0.030794 -0.000001 0.045954 0.000000
# 6 0.000000 0.000000 0.000000 0.005003 0.000000 0.027043
#
#
# Mechanical properties :
#
#
# Convention : Reuss Voigt Hill
#
# Bulk Modulus (GPa) = 6.24495 18.50096 12.37296
# Shear Modulus (GPa) = 13.92890 25.10162 19.51526
#
# Velocity S-wave (km/s) = 2.48986 3.34247 2.94716
# Velocity P-wave (km/s) = 3.32345 4.80941 4.13375
#
# Compressibility (1/GPa) = 0.16012930
#
# Stress axis : x y z
#
# Youngs Moduli (GPa) = 84.96960 18.14250 10.42247
#
# Poissons Ratio (x) = 0.00928 0.02691
# Poissons Ratio (y) = 0.04349 -0.01815
# Poissons Ratio (z) = 0.21942 -0.03159
#
# Static dielectric constant tensor:
#      x y z
#    x 1.690970 0.000000 -0.003990 
#    y 0.000000 1.868980 0.000000 
#    z -0.003990 0.000000 1.824340 
# 
# From -- ./inp_files/38757.got.cif
#   From: 2010.05.17/outbox.cif.g08.bks.cpg/sg5_20_cif.got.tgz:38757.got - 2010.06.03 18:56:24.
