data_PCOD9121168
_publ_section_title
;
Structure prediction by ZEFSAII (Michael W. Deem and Ramdas Pophale) SiO2 
 PCOD9121168
Probable space group: C 2
;
_chemical_formula_sum "Si O2"
_cell_formula_units_Z 18
_cell_length_a 13.659532
_cell_length_b 4.813350
_cell_length_c 19.018069
_cell_angle_alpha 90.000000
_cell_angle_beta 147.831378
_cell_angle_gamma 90.000000
_cell_volume 665.730036
_symmetry_space_group_name_H-M "C 2"
_symmetry_group_IT_number 5
_symmetry_cell_setting 'monoclinic'
loop_
_space_group_symop_operation_xyz
x,y,z
-x,y,-z
1/2+x,1/2+y,z
1/2-x,1/2+y,-z
loop_
_atom_site_type_symbol
_atom_site_label
_atom_site_fract_x
_atom_site_fract_y
_atom_site_fract_z
Si Si1 0.017289 0.830920 0.225177
Si Si2 0.000000 0.017573 0.000000
Si Si3 0.977701 0.336967 0.118086
Si Si4 0.221551 0.208597 0.726608
Si Si5 0.373348 0.979009 0.578106
O O1 0.914723 0.638210 0.104772
O O2 0.221686 0.822915 0.315421
O O3 0.025064 0.669315 0.301888
O O4 0.956564 0.139782 0.172615
O O5 0.906023 0.210183 0.002349
O O6 0.146033 0.834414 0.131708
O O7 0.196523 0.395956 0.231857
O O8 0.019853 0.301999 0.623265
O O9 0.246127 0.726115 0.530875
#
# Coordination Sequence:
#
# PCOD9121168 Si02
#       5
#     4   2   4   4   4
#     4   9  21  42  63  98 142 183 242 294 358 428
#     4  10  18  40  70 102 134 192 236 290 360 442
#     4   9  19  38  68  97 138 180 231 290 354 431
#     4   9  23  42  70 102 144 188 240 293 365 437
#     4  12  27  44  70 106 146 193 246 305 364 434
#
# _framework density 27.037987999999999
#
# number of rings (size 3 to 8) (size 9 to 14) (size 15 to 20)
#    1.333    0.889    0.000    2.000    6.222    0.889 
#    0.000    6.667    0.000    0.000    0.000    0.000 
#    0.000    0.000    0.000    0.000    0.000    0.000 
#
# Total GULP energy -50184.895886 kJ/mol
# GULP energy per Si atom -5576.099543 kJ/mol
# Density = 2.697645 g / cm^3
# Si number density = 27.037988 Si / 1000 Ang^3
#
#
#
# Elastic Constant Matrix: (Units=GPa)
#
#
# Indices 1 2 3 4 5 6 
#
# 1 85.1232 13.0430 28.9656 0.0003 20.4130 -0.0001
# 2 13.0430 154.2424 24.9784 -0.0001 1.6116 0.0036
# 3 28.9656 24.9784 116.0073 0.0007 2.4118 0.0003
# 4 0.0003 -0.0001 0.0007 19.9466 0.0002 -8.0734
# 5 20.4130 1.6116 2.4118 0.0002 37.2998 -0.0002
# 6 -0.0001 0.0036 0.0003 -8.0734 -0.0002 33.0129
#
#
#
# Elastic Compliance Matrix: (Units=1/GPa)
#
#
# Indices 1 2 3 4 5 6 
#
# 1 0.014904 -0.000623 -0.003423 0.000000 -0.007908 0.000000
# 2 -0.000623 0.006745 -0.001299 0.000000 0.000134 -0.000001
# 3 -0.003423 -0.001299 0.009728 0.000000 0.001300 0.000000
# 4 0.000000 0.000000 0.000000 0.055641 0.000000 0.013607
# 5 -0.007908 0.000134 0.001300 0.000000 0.031048 0.000000
# 6 0.000000 -0.000001 0.000000 0.013607 0.000000 0.033619
#
#
# Mechanical properties :
#
#
# Convention : Reuss Voigt Hill
#
# Bulk Modulus (GPa) = 48.34263 54.37187 51.35725
# Shear Modulus (GPa) = 29.53831 37.27759 33.40795
#
# Velocity S-wave (km/s) = 3.30885 3.71713 3.51891
# Velocity P-wave (km/s) = 5.70231 6.21094 5.96205
#
# Compressibility (1/GPa) = 0.02068568
#
# Stress axis : x y z
#
# Youngs Moduli (GPa) = 67.09423 148.25668 102.80090
#
# Poissons Ratio (x) = 0.09243 0.35187
# Poissons Ratio (y) = 0.04183 0.13358
# Poissons Ratio (z) = 0.22965 0.19265
#
# Static dielectric constant tensor:
#      x y z
#    x 2.173460 0.000000 0.107010 
#    y 0.000000 2.115040 0.000000 
#    z 0.107010 0.000000 2.252400 
# 
# From -- ./inp_files/65749.got.cif
#   From: 2010.05.17/outbox.cif.g08.bks.cpg/sg5_33_cif.got.tgz:65749.got - 2010.06.03 18:56:24.
