data_PCOD9121287
_publ_section_title
;
Structure prediction by ZEFSAII (Michael W. Deem and Ramdas Pophale) SiO2 
 PCOD9121287
Probable space group: C 2
;
_chemical_formula_sum "Si O2"
_cell_formula_units_Z 26
_cell_length_a 26.830167
_cell_length_b 7.249684
_cell_length_c 6.106490
_cell_angle_alpha 90.000000
_cell_angle_beta 96.109239
_cell_angle_gamma 90.000000
_cell_volume 1181.029174
_symmetry_space_group_name_H-M "C 2"
_symmetry_group_IT_number 5
_symmetry_cell_setting 'monoclinic'
loop_
_space_group_symop_operation_xyz
x,y,z
-x,y,-z
1/2+x,1/2+y,z
1/2-x,1/2+y,-z
loop_
_atom_site_type_symbol
_atom_site_label
_atom_site_fract_x
_atom_site_fract_y
_atom_site_fract_z
Si Si1 0.202109 0.289650 0.486171
Si Si2 0.953367 0.448636 0.094173
Si Si3 0.948895 0.061389 0.859266
Si Si4 0.250649 0.034129 0.854830
Si Si5 0.652476 0.968568 0.836776
Si Si6 0.343495 0.574377 0.912141
Si Si7 0.500000 0.704937 0.500000
O O1 0.235021 0.204883 0.695350
O O2 0.236121 0.377133 0.314222
O O3 0.165829 0.437323 0.588053
O O4 0.171124 0.134959 0.341200
O O5 0.901931 0.549101 0.131692
O O6 0.971151 0.338077 0.318631
O O7 0.943499 0.279606 0.920315
O O8 0.000000 0.551964 0.000000
O O9 0.897063 0.975672 0.916090
O O10 0.961015 0.073754 0.609109
O O11 0.000000 0.997845 0.000000
O O12 0.203922 0.986336 0.988836
O O13 0.300410 0.060963 0.021880
O O14 0.649971 0.761988 0.941046
#
# Coordination Sequence:
#
# PCOD9121287 Si02
#       7
#     4   4   4   4   4   4   2
#     4  10  19  32  50  71  98 133 163 196 242 286
#     4   8  14  23  37  60  89 122 153 186 231 283
#     4   8  14  23  37  60  89 122 153 186 231 283
#     4  10  20  32  48  70 100 132 164 200 238 282
#     4   9  17  29  44  65  96 128 160 196 236 285
#     4   9  17  29  44  65  96 128 160 196 236 285
#     4   8  12  20  36  58  84 120 156 182 228 292
#
# _framework density 22.014697000000002
#
# number of rings (size 3 to 8) (size 9 to 14) (size 15 to 20)
#    0.000    3.385    0.000    1.846    0.000    2.462 
#    0.000    0.000    0.000    0.000    0.000    0.000 
#    0.000   50.462    0.000    0.000    0.000    0.000 
#
# Total GULP energy -72406.491531 kJ/mol
# GULP energy per Si atom -5569.730118 kJ/mol
# Density = 2.196459 g / cm^3
# Si number density = 22.014697 Si / 1000 Ang^3
#
#
#
# Elastic Constant Matrix: (Units=GPa)
#
#
# Indices 1 2 3 4 5 6 
#
# 1 231.7591 19.2436 71.4869 0.0000 -41.1276 0.0000
# 2 19.2436 30.8440 5.0011 0.0000 -6.6361 0.0000
# 3 71.4869 5.0011 112.1508 0.0000 -27.8103 0.0000
# 4 0.0000 0.0000 0.0000 19.8736 0.0000 -1.8145
# 5 -41.1276 -6.6361 -27.8103 0.0000 22.2315 0.0000
# 6 0.0000 0.0000 0.0000 -1.8145 0.0000 11.5761
#
#
#
# Elastic Compliance Matrix: (Units=1/GPa)
#
#
# Indices 1 2 3 4 5 6 
#
# 1 0.006741 -0.001836 -0.001824 0.000000 0.009640 0.000000
# 2 -0.001836 0.035316 0.001982 0.000000 0.009625 0.000000
# 3 -0.001824 0.001982 0.013483 0.000000 0.014084 0.000000
# 4 0.000000 0.000000 0.000000 0.051048 0.000000 0.008002
# 5 0.009640 0.009625 0.014084 0.000000 0.083306 0.000000
# 6 0.000000 0.000000 0.000000 0.008002 0.000000 0.087639
#
#
# Mechanical properties :
#
#
# Convention : Reuss Voigt Hill
#
# Bulk Modulus (GPa) = 19.16286 62.91302 41.03794
# Shear Modulus (GPa) = 16.76252 29.33771 23.05012
#
# Velocity S-wave (km/s) = 2.76238 3.65450 3.23930
# Velocity P-wave (km/s) = 4.34716 6.81520 5.71598
#
# Compressibility (1/GPa) = 0.05218427
#
# Stress axis : x y z
#
# Youngs Moduli (GPa) = 148.35347 28.31575 74.16532
#
# Poissons Ratio (x) = 0.05198 0.13530
# Poissons Ratio (y) = 0.27233 -0.14700
# Poissons Ratio (z) = 0.27064 -0.05612
#
# Static dielectric constant tensor:
#      x y z
#    x 1.936490 0.000000 -0.022700 
#    y 0.000000 1.891420 0.000000 
#    z -0.022700 0.000000 1.826570 
# 
# From -- ./inp_files/10263.got.cif
#   From: 2010.05.17/outbox.cif.g08.bks.cpg/sg5_6_cif.got.tgz:10263.got - 2010.06.03 18:56:24.
