data_PCOD9121277
_publ_section_title
;
Structure prediction by ZEFSAII (Michael W. Deem and Ramdas Pophale) SiO2 
 PCOD9121277
Probable space group: C 2
;
_chemical_formula_sum "Si O2"
_cell_formula_units_Z 32
_cell_length_a 21.788353
_cell_length_b 10.018467
_cell_length_c 9.305499
_cell_angle_alpha 90.000000
_cell_angle_beta 140.236908
_cell_angle_gamma 90.000000
_cell_volume 1299.223160
_symmetry_space_group_name_H-M "C 2"
_symmetry_group_IT_number 5
_symmetry_cell_setting 'monoclinic'
loop_
_space_group_symop_operation_xyz
x,y,z
-x,y,-z
1/2+x,1/2+y,z
1/2-x,1/2+y,-z
loop_
_atom_site_type_symbol
_atom_site_label
_atom_site_fract_x
_atom_site_fract_y
_atom_site_fract_z
Si Si1 0.369096 0.174880 0.228459
Si Si2 0.361938 0.098034 0.902079
Si Si3 0.910998 0.429925 0.441429
Si Si4 0.680648 0.456128 0.551421
Si Si5 0.033002 0.951191 0.701147
Si Si6 0.809237 0.292349 0.010491
Si Si7 0.524361 0.833988 0.897009
Si Si8 0.601855 0.398136 0.115751
O O1 0.408963 0.091322 0.433999
O O2 0.416331 0.318479 0.279903
O O3 0.385326 0.092180 0.113106
O O4 0.255510 0.173572 0.049667
O O5 0.397781 0.239145 0.911562
O O6 0.246935 0.087948 0.678488
O O7 0.417098 0.967036 0.945803
O O8 0.826194 0.373030 0.189857
O O9 0.000000 0.392126 0.500000
O O10 0.931789 0.373674 0.635717
O O11 0.571299 0.445567 0.408536
O O12 0.678970 0.423156 0.378962
O O13 0.739484 0.362356 0.767616
O O14 0.000000 0.035185 0.500000
O O15 0.104969 0.970082 0.966156
O O16 0.904298 0.265391 0.089171
O O17 0.500000 0.758450 0.000000
O O18 0.500000 0.435024 0.000000
#
# Coordination Sequence:
#
# PCOD9121277 Si02
#       8
#     4   4   4   4   4   4   4   4
#     4  11  19  34  63  95 118 148 206 258 295 355
#     4  10  20  36  60  93 120 154 201 256 295 350
#     4  10  19  37  62  90 117 156 201 249 301 355
#     4  10  19  37  55  89 126 150 188 254 302 352
#     4  10  19  31  59  87 116 152 190 240 303 347
#     4  10  21  35  59  93 121 155 196 254 300 354
#     4  10  21  38  59  89 125 159 198 246 307 356
#     4   9  20  34  58  90 117 152 193 244 306 357
#
# _framework density 24.630103999999999
#
# number of rings (size 3 to 8) (size 9 to 14) (size 15 to 20)
#    0.000    2.000    5.000    0.750    1.750    1.000 
#    9.000    0.000    2.750    6.750   29.250    0.000 
#    0.000    0.000    0.000    0.000    0.000    0.000 
#
# Total GULP energy -89086.751371 kJ/mol
# GULP energy per Si atom -5567.921961 kJ/mol
# Density = 2.457404 g / cm^3
# Si number density = 24.630104 Si / 1000 Ang^3
#
#
#
# Elastic Constant Matrix: (Units=GPa)
#
#
# Indices 1 2 3 4 5 6 
#
# 1 108.7408 22.7476 41.5724 0.0000 -14.8828 0.0000
# 2 22.7476 62.3433 21.2369 0.0000 -0.1401 0.0000
# 3 41.5724 21.2369 156.1695 0.0000 -35.7217 0.0000
# 4 0.0000 0.0000 0.0000 24.1913 0.0000 4.4950
# 5 -14.8828 -0.1401 -35.7217 0.0000 42.5978 0.0000
# 6 0.0000 0.0000 0.0000 4.4950 0.0000 11.0656
#
#
#
# Elastic Compliance Matrix: (Units=1/GPa)
#
#
# Indices 1 2 3 4 5 6 
#
# 1 0.010937 -0.003316 -0.001966 0.000000 0.002162 0.000000
# 2 -0.003316 0.018010 -0.002249 0.000000 -0.002985 0.000000
# 3 -0.001966 -0.002249 0.008753 0.000000 0.006645 0.000000
# 4 0.000000 0.000000 0.000000 0.044712 0.000000 -0.018163
# 5 0.002162 -0.002985 0.006645 0.000000 0.029794 0.000000
# 6 0.000000 0.000000 0.000000 -0.018163 0.000000 0.097748
#
#
# Mechanical properties :
#
#
# Convention : Reuss Voigt Hill
#
# Bulk Modulus (GPa) = 44.17616 55.37416 49.77516
# Shear Modulus (GPa) = 21.49965 31.68407 26.59186
#
# Velocity S-wave (km/s) = 2.95770 3.59053 3.28937
# Velocity P-wave (km/s) = 5.44415 6.30240 5.88893
#
# Compressibility (1/GPa) = 0.02263665
#
# Stress axis : x y z
#
# Youngs Moduli (GPa) = 91.42931 55.52572 114.25176
#
# Poissons Ratio (x) = 0.18413 0.22464
# Poissons Ratio (y) = 0.30320 0.25697
# Poissons Ratio (z) = 0.17976 0.12489
#
# Static dielectric constant tensor:
#      x y z
#    x 2.012260 0.000000 0.030150 
#    y 0.000000 2.038070 0.000000 
#    z 0.030150 0.000000 2.052110 
# 
# From -- ./inp_files/29863.got.cif
#   From: 2010.05.17/outbox.cif.g08.bks.cpg/sg5_15_cif.got.tgz:29863.got - 2010.06.03 18:56:24.
