data_PCOD9121026
_publ_section_title
;
Structure prediction by ZEFSAII (Michael W. Deem and Ramdas Pophale) SiO2 
 PCOD9121026
Probable space group: C 2
;
_chemical_formula_sum "Si O2"
_cell_formula_units_Z 30
_cell_length_a 16.023915
_cell_length_b 11.980343
_cell_length_c 9.880613
_cell_angle_alpha 90.000000
_cell_angle_beta 132.542825
_cell_angle_gamma 90.000000
_cell_volume 1397.510201
_symmetry_space_group_name_H-M "C 2"
_symmetry_group_IT_number 5
_symmetry_cell_setting 'monoclinic'
loop_
_space_group_symop_operation_xyz
x,y,z
-x,y,-z
1/2+x,1/2+y,z
1/2-x,1/2+y,-z
loop_
_atom_site_type_symbol
_atom_site_label
_atom_site_fract_x
_atom_site_fract_y
_atom_site_fract_z
Si Si1 0.510647 0.627600 0.174326
Si Si2 0.770711 0.012661 0.641577
Si Si3 0.972759 0.789620 0.124620
Si Si4 0.430938 0.037692 0.142229
Si Si5 0.177080 0.752630 0.552251
Si Si6 0.113270 0.359771 0.301231
Si Si7 0.000000 0.635080 0.500000
Si Si8 0.694471 0.484509 0.001858
O O1 0.603106 0.528351 0.278556
O O2 0.554838 0.744259 0.280331
O O3 0.500000 0.648331 0.000000
O O4 0.397040 0.583511 0.118171
O O5 0.695366 0.914083 0.502272
O O6 0.770832 0.001993 0.802985
O O7 0.718993 0.132458 0.544173
O O8 0.933509 0.660012 0.078381
O O9 0.083720 0.793548 0.342338
O O10 0.875085 0.869183 0.076466
O O11 0.000000 0.824167 0.000000
O O12 0.515294 0.949038 0.166144
O O13 0.303886 0.993892 0.027472
O O14 0.482939 0.060687 0.349453
O O15 0.289386 0.825053 0.700510
O O16 0.107158 0.717258 0.607109
#
# Coordination Sequence:
#
# PCOD9121026 Si02
#       8
#     4   4   4   4   4   4   2   4
#     4   9  21  35  59  89 119 156 204 249 299 353
#     4  10  18  38  62  90 113 160 209 248 285 363
#     4  11  23  40  61  89 125 164 194 248 315 363
#     4  11  23  37  62  91 123 158 204 250 306 357
#     4  10  20  37  64  90 118 157 210 250 291 360
#     4  11  20  35  59  93 121 153 198 254 300 354
#     4  10  18  40  60  92 114 160 210 250 284 358
#     4  11  21  39  63  87 121 159 210 247 292 361
#
# _framework density 21.466749
#
# number of rings (size 3 to 8) (size 9 to 14) (size 15 to 20)
#    0.000    1.600    4.000    2.800    1.867    0.533 
#    0.000    2.667    0.000    0.000    0.000    0.000 
#    0.000    0.000    0.000    0.000    0.000    0.000 
#
# Total GULP energy -83680.129551 kJ/mol
# GULP energy per Si atom -5578.675303 kJ/mol
# Density = 2.141789 g / cm^3
# Si number density = 21.466749 Si / 1000 Ang^3
#
#
#
# Elastic Constant Matrix: (Units=GPa)
#
#
# Indices 1 2 3 4 5 6 
#
# 1 101.6687 44.4620 36.9105 0.0000 46.0642 0.0000
# 2 44.4620 149.9792 52.9855 0.0000 26.9620 0.0000
# 3 36.9105 52.9855 80.9900 0.0000 23.4966 0.0000
# 4 0.0000 0.0000 0.0000 32.9363 0.0000 21.4732
# 5 46.0642 26.9620 23.4966 0.0000 45.1098 0.0000
# 6 0.0000 0.0000 0.0000 21.4732 0.0000 38.7023
#
#
#
# Elastic Compliance Matrix: (Units=1/GPa)
#
#
# Indices 1 2 3 4 5 6 
#
# 1 0.019464 -0.001674 -0.002709 0.000000 -0.017465 0.000000
# 2 -0.001674 0.009088 -0.004833 0.000000 -0.001205 0.000000
# 3 -0.002709 -0.004833 0.017792 0.000000 -0.003612 0.000000
# 4 0.000000 0.000000 0.000000 0.047568 0.000000 -0.026392
# 5 -0.017465 -0.001205 -0.003612 0.000000 0.042604 0.000000
# 6 0.000000 0.000000 0.000000 -0.026392 0.000000 0.040482
#
#
# Mechanical properties :
#
#
# Convention : Reuss Voigt Hill
#
# Bulk Modulus (GPa) = 35.82619 66.81710 51.32164
# Shear Modulus (GPa) = 24.42203 36.56834 30.49519
#
# Velocity S-wave (km/s) = 3.37659 4.13181 3.77314
# Velocity P-wave (km/s) = 5.65042 7.34547 6.55298
#
# Compressibility (1/GPa) = 0.02791254
#
# Stress axis : x y z
#
# Youngs Moduli (GPa) = 51.37665 110.03667 56.20606
#
# Poissons Ratio (x) = 0.18415 0.15226
# Poissons Ratio (y) = 0.08598 0.27165
# Poissons Ratio (z) = 0.13917 0.53182
#
# Static dielectric constant tensor:
#      x y z
#    x 1.812390 0.000000 0.054300 
#    y 0.000000 1.813460 0.000000 
#    z 0.054300 0.000000 1.808590 
# 
# From -- ./inp_files/44707.got.cif
#   From: 2010.05.17/outbox.cif.g08.bks.cpg/sg5_23_cif.got.tgz:44707.got - 2010.06.03 18:56:24.
