data_PCOD9121058
_publ_section_title
;
Structure prediction by ZEFSAII (Michael W. Deem and Ramdas Pophale) SiO2 
 PCOD9121058
Probable space group: C 2
;
_chemical_formula_sum "Si O2"
_cell_formula_units_Z 30
_cell_length_a 19.923021
_cell_length_b 11.507942
_cell_length_c 15.109417
_cell_angle_alpha 90.000000
_cell_angle_beta 27.676684
_cell_angle_gamma 90.000000
_cell_volume 1609.048654
_symmetry_space_group_name_H-M "C 2"
_symmetry_group_IT_number 5
_symmetry_cell_setting 'monoclinic'
loop_
_space_group_symop_operation_xyz
x,y,z
-x,y,-z
1/2+x,1/2+y,z
1/2-x,1/2+y,-z
loop_
_atom_site_type_symbol
_atom_site_label
_atom_site_fract_x
_atom_site_fract_y
_atom_site_fract_z
Si Si1 0.365637 0.326070 0.050551
Si Si2 0.997614 0.424696 0.794035
Si Si3 0.500000 0.536175 0.000000
Si Si4 0.124661 0.678492 0.662673
Si Si5 0.171116 0.245201 0.715470
Si Si6 0.441586 0.841800 0.662752
Si Si7 0.185099 0.168152 0.394875
Si Si8 0.157632 0.452780 0.858061
O O1 0.416551 0.448659 0.031335
O O2 0.230534 0.337486 0.142523
O O3 0.294602 0.251450 0.212668
O O4 0.497029 0.254742 0.854240
O O5 0.083506 0.544461 0.702585
O O6 0.075808 0.320915 0.757065
O O7 0.980988 0.400231 0.709886
O O8 0.856703 0.447946 0.019598
O O9 0.398967 0.622919 0.174770
O O10 0.175638 0.726815 0.509461
O O11 0.262696 0.679906 0.565992
O O12 0.180299 0.326042 0.790872
O O13 0.500000 0.893694 0.500000
O O14 0.525018 0.717887 0.569384
O O15 0.221371 0.040750 0.317024
O O16 0.000000 0.492235 0.000000
#
# Coordination Sequence:
#
# PCOD9121058 Si02
#       8
#     4   4   2   4   4   4   4   4
#     4  11  24  42  62  95 129 174 218 266 316 392
#     4  11  21  42  65  90 135 168 209 272 331 378
#     4  12  24  40  66  92 140 166 220 264 324 382
#     4  12  22  37  70  96 122 165 224 268 319 377
#     4  11  24  36  62 107 124 163 214 273 324 379
#     4  10  25  42  63  95 132 171 217 260 332 386
#     4  11  18  39  68  95 117 164 217 274 312 380
#     4  10  18  38  64  96 132 157 209 275 327 369
#
# _framework density 18.644558
#
# number of rings (size 3 to 8) (size 9 to 14) (size 15 to 20)
#    0.000    1.067    8.667    0.000    5.600    0.000 
#    2.400    0.000    0.000    0.000    0.000    0.000 
#    0.000    0.000    0.000    0.000    0.000    0.000 
#
# Total GULP energy -83622.974844 kJ/mol
# GULP energy per Si atom -5574.864990 kJ/mol
# Density = 1.860212 g / cm^3
# Si number density = 18.644558 Si / 1000 Ang^3
#
#
#
# Elastic Constant Matrix: (Units=GPa)
#
#
# Indices 1 2 3 4 5 6 
#
# 1 93.7414 37.4269 29.8392 0.0000 7.9773 0.0000
# 2 37.4269 111.8233 32.3257 0.0000 -11.8379 0.0000
# 3 29.8392 32.3257 58.7178 0.0000 0.3822 0.0000
# 4 0.0000 0.0000 0.0000 32.7736 0.0000 9.7400
# 5 7.9773 -11.8379 0.3822 0.0000 32.8613 0.0000
# 6 0.0000 0.0000 0.0000 9.7400 0.0000 15.4116
#
#
#
# Elastic Compliance Matrix: (Units=1/GPa)
#
#
# Indices 1 2 3 4 5 6 
#
# 1 0.014208 -0.003782 -0.005107 0.000000 -0.004752 0.000000
# 2 -0.003782 0.012166 -0.004811 0.000000 0.005357 0.000000
# 3 -0.005107 -0.004811 0.022279 0.000000 -0.000752 0.000000
# 4 0.000000 0.000000 0.000000 0.037569 0.000000 -0.023743
# 5 -0.004752 0.005357 -0.000752 0.000000 0.033523 0.000000
# 6 0.000000 0.000000 0.000000 -0.023743 0.000000 0.079891
#
#
# Mechanical properties :
#
#
# Convention : Reuss Voigt Hill
#
# Bulk Modulus (GPa) = 47.05087 51.49623 49.27355
# Shear Modulus (GPa) = 21.35654 27.18867 24.27260
#
# Velocity S-wave (km/s) = 3.38813 3.82286 3.61204
# Velocity P-wave (km/s) = 6.37153 6.86773 6.62428
#
# Compressibility (1/GPa) = 0.02125359
#
# Stress axis : x y z
#
# Youngs Moduli (GPa) = 70.38450 82.19424 44.88474
#
# Poissons Ratio (x) = 0.31086 0.22923
# Poissons Ratio (y) = 0.26619 0.21593
# Poissons Ratio (z) = 0.35945 0.39542
#
# Static dielectric constant tensor:
#      x y z
#    x 1.680490 0.000000 0.007780 
#    y 0.000000 1.643610 0.000000 
#    z 0.007780 0.000000 1.677130 
# 
# From -- ./inp_files/57003.got.cif
#   From: 2010.05.17/outbox.cif.g08.bks.cpg/sg5_29_cif.got.tgz:57003.got - 2010.06.03 18:56:24.
