data_PCOD9121983
_publ_section_title
;
Structure prediction by ZEFSAII (Michael W. Deem and Ramdas Pophale) SiO2 
 PCOD9121983
Probable space group: C 2
;
_chemical_formula_sum "Si O2"
_cell_formula_units_Z 28
_cell_length_a 12.612878
_cell_length_b 11.805682
_cell_length_c 9.296252
_cell_angle_alpha 90.000000
_cell_angle_beta 57.812968
_cell_angle_gamma 90.000000
_cell_volume 1171.506121
_symmetry_space_group_name_H-M "C 2"
_symmetry_group_IT_number 5
_symmetry_cell_setting 'monoclinic'
loop_
_space_group_symop_operation_xyz
x,y,z
-x,y,-z
1/2+x,1/2+y,z
1/2-x,1/2+y,-z
loop_
_atom_site_type_symbol
_atom_site_label
_atom_site_fract_x
_atom_site_fract_y
_atom_site_fract_z
Si Si1 0.407025 0.920390 0.755517
Si Si2 0.353137 0.265042 0.620079
Si Si3 0.746197 0.035515 0.355951
Si Si4 0.669755 0.307035 0.692645
Si Si5 0.722069 0.469979 0.129745
Si Si6 0.111941 0.575215 0.745252
Si Si7 0.404115 0.685107 0.688706
O O1 0.462561 0.794471 0.722584
O O2 0.370235 0.963556 0.623945
O O3 0.498469 0.006379 0.764504
O O4 0.279496 0.927126 0.940412
O O5 0.500000 0.230520 0.500000
O O6 0.266228 0.155628 0.715171
O O7 0.310001 0.308368 0.494100
O O8 0.341477 0.365484 0.742079
O O9 0.718358 0.065016 0.542286
O O10 0.852231 0.939548 0.258223
O O11 0.570822 0.206493 0.789915
O O12 0.784720 0.246187 0.696709
O O13 0.832896 0.516570 0.153942
O O14 0.635197 0.580948 0.184478
O O15 0.500000 0.641884 0.500000
#
# Coordination Sequence:
#
# PCOD9121983 Si02
#       7
#     4   4   4   4   4   4   4
#     4  11  22  37  64  93 127 164 216 263 330 379
#     4  11  22  38  63  93 125 166 216 264 313 385
#     4  10  19  37  64  88 121 161 209 254 312 394
#     4   9  19  37  63  96 117 154 220 263 303 378
#     4  11  24  38  59  95 133 162 211 278 325 365
#     4  10  19  38  62  93 121 168 210 263 313 394
#     4  10  22  41  66  91 127 178 215 259 322 403
#
# _framework density 23.900856999999998
#
# number of rings (size 3 to 8) (size 9 to 14) (size 15 to 20)
#    0.000    1.714    1.429    4.714    2.000    0.571 
#    0.000    0.000    0.000    0.000    0.000    0.000 
#    0.000    0.000    0.000    0.000    0.000    0.000 
#
# Total GULP energy -78101.295159 kJ/mol
# GULP energy per Si atom -5578.663940 kJ/mol
# Density = 2.384646 g / cm^3
# Si number density = 23.900857 Si / 1000 Ang^3
#
#
#
# Elastic Constant Matrix: (Units=GPa)
#
#
# Indices 1 2 3 4 5 6 
#
# 1 22.5675 13.5396 -5.7058 0.0000 8.2115 0.0000
# 2 13.5396 181.2172 11.2272 0.0000 -2.4789 0.0000
# 3 -5.7058 11.2272 71.4723 0.0000 5.0912 0.0000
# 4 0.0000 0.0000 0.0000 16.0184 0.0000 -7.3600
# 5 8.2115 -2.4789 5.0912 0.0000 19.4647 0.0000
# 6 0.0000 0.0000 0.0000 -7.3600 0.0000 30.9947
#
#
#
# Elastic Compliance Matrix: (Units=1/GPa)
#
#
# Indices 1 2 3 4 5 6 
#
# 1 0.059495 -0.005293 0.007558 0.000000 -0.027750 0.000000
# 2 -0.005293 0.006061 -0.001619 0.000000 0.003428 0.000000
# 3 0.007558 -0.001619 0.015377 0.000000 -0.007417 0.000000
# 4 0.000000 0.000000 0.000000 0.070074 0.000000 0.016640
# 5 -0.027750 0.003428 -0.007417 0.000000 0.065458 0.000000
# 6 0.000000 0.000000 0.000000 0.016640 0.000000 0.036215
#
#
# Mechanical properties :
#
#
# Convention : Reuss Voigt Hill
#
# Bulk Modulus (GPa) = 12.16168 34.81990 23.49079
# Shear Modulus (GPa) = 17.93422 30.37533 24.15477
#
# Velocity S-wave (km/s) = 2.74224 3.56882 3.18248
# Velocity P-wave (km/s) = 3.88921 5.61979 4.83260
#
# Compressibility (1/GPa) = 0.08222545
#
# Stress axis : x y z
#
# Youngs Moduli (GPa) = 16.80809 164.99223 65.03051
#
# Poissons Ratio (x) = 0.87330 -0.49149
# Poissons Ratio (y) = 0.08897 0.10527
# Poissons Ratio (z) = -0.12703 0.26709
#
# Static dielectric constant tensor:
#      x y z
#    x 2.049060 0.000000 -0.030440 
#    y 0.000000 1.986900 0.000000 
#    z -0.030440 0.000000 1.924130 
# 
# From -- ./inp_files/23537.got.cif
#   From: 2010.05.17/outbox.cif.g08.bks.cpg/sg5_12_cif.got.tgz:23537.got - 2010.06.03 18:56:24.
