data_PCOD9121875
_publ_section_title
;
Structure prediction by ZEFSAII (Michael W. Deem and Ramdas Pophale) SiO2 
 PCOD9121875
Probable space group: C 2
;
_chemical_formula_sum "Si O2"
_cell_formula_units_Z 28
_cell_length_a 9.161425
_cell_length_b 20.608459
_cell_length_c 6.631372
_cell_angle_alpha 90.000000
_cell_angle_beta 101.006159
_cell_angle_gamma 90.000000
_cell_volume 1228.993086
_symmetry_space_group_name_H-M "C 2"
_symmetry_group_IT_number 5
_symmetry_cell_setting 'monoclinic'
loop_
_space_group_symop_operation_xyz
x,y,z
-x,y,-z
1/2+x,1/2+y,z
1/2-x,1/2+y,-z
loop_
_atom_site_type_symbol
_atom_site_label
_atom_site_fract_x
_atom_site_fract_y
_atom_site_fract_z
Si Si1 0.500000 0.722360 0.000000
Si Si2 0.873373 0.775624 0.670419
Si Si3 0.350326 0.916149 0.031143
Si Si4 0.000000 0.986297 0.000000
Si Si5 0.211415 0.920021 0.380537
Si Si6 0.345060 0.661579 0.345687
Si Si7 0.770871 0.022986 0.253695
Si Si8 0.199918 0.793640 0.872888
O O1 0.408988 0.682735 0.144416
O O2 0.639894 0.761941 0.134469
O O3 0.826428 0.846348 0.571144
O O4 0.760522 0.717455 0.587205
O O5 0.945910 0.769898 0.287889
O O6 0.837908 0.779953 0.902150
O O7 0.224282 0.871392 0.892797
O O8 0.341104 0.986080 0.924583
O O9 0.500000 0.883738 0.000000
O O10 0.355826 0.917945 0.274892
O O11 0.911367 0.027351 0.140285
O O12 0.100488 0.942804 0.172760
O O13 0.208418 0.973669 0.553232
O O14 0.500000 0.649013 0.500000
O O15 0.247232 0.596033 0.315839
#
# Coordination Sequence:
#
# PCOD9121875 Si02
#       8
#     2   4   4   2   4   4   4   4
#     4  10  21  40  66  92 123 178 204 264 329 384
#     4   9  19  37  62 100 128 168 215 270 321 388
#     4  10  21  39  64  97 127 165 218 278 330 391
#     4  10  19  36  66  96 121 158 222 272 317 394
#     4  10  20  37  63  96 127 167 219 275 326 382
#     4  11  24  41  61  93 135 172 218 261 319 397
#     4  11  23  39  63  91 130 173 217 268 328 390
#     4   9  17  37  67  94 129 161 214 267 327 383
#
# _framework density 22.782879000000001
#
# number of rings (size 3 to 8) (size 9 to 14) (size 15 to 20)
#    0.000    2.000    0.714    4.286    0.000    2.857 
#    5.143    2.143    3.143    0.000    0.000    0.000 
#    0.000    0.000    0.000    0.000    0.000    0.000 
#
# Total GULP energy -77989.047089 kJ/mol
# GULP energy per Si atom -5570.646221 kJ/mol
# Density = 2.273102 g / cm^3
# Si number density = 22.782879 Si / 1000 Ang^3
#
#
#
# Elastic Constant Matrix: (Units=GPa)
#
#
# Indices 1 2 3 4 5 6 
#
# 1 95.1490 44.4715 25.8992 0.0000 -12.1871 0.0000
# 2 44.4715 151.3142 42.0256 0.0000 0.8676 0.0000
# 3 25.8992 42.0256 100.4142 0.0000 -16.8442 0.0000
# 4 0.0000 0.0000 0.0000 21.1331 0.0000 14.5619
# 5 -12.1871 0.8676 -16.8442 0.0000 24.8073 0.0000
# 6 0.0000 0.0000 0.0000 14.5619 0.0000 -38.6678
#
#
#
# Elastic Compliance Matrix: (Units=1/GPa)
#
#
# Indices 1 2 3 4 5 6 
#
# 1 0.013242 -0.003689 -0.000856 0.000000 0.006053 0.000000
# 2 -0.003689 0.008669 -0.003421 0.000000 -0.004438 0.000000
# 3 -0.000856 -0.003421 0.013047 0.000000 0.008558 0.000000
# 4 0.000000 0.000000 0.000000 0.037570 0.000000 0.014149
# 5 0.006053 -0.004438 0.008558 0.000000 0.049251 0.000000
# 6 0.000000 0.000000 0.000000 0.014149 0.000000 -0.020533
#
#
# Mechanical properties :
#
#
# Convention : Reuss Voigt Hill
#
# Bulk Modulus (GPa) = 52.56090 63.51889 58.03990
# Shear Modulus (GPa) = 40.47947 17.08659 28.78303
#
# Velocity S-wave (km/s) = 4.21972 2.74154 3.55824
# Velocity P-wave (km/s) = 6.84557 6.16133 6.51244
#
# Compressibility (1/GPa) = 0.01902555
#
# Stress axis : x y z
#
# Youngs Moduli (GPa) = 75.51536 115.35993 76.64627
#
# Poissons Ratio (x) = 0.42554 0.06563
# Poissons Ratio (y) = 0.27856 0.26221
# Poissons Ratio (z) = 0.06466 0.39465
#
# Static dielectric constant tensor:
#      x y z
#    x 2.049350 0.000000 -0.115170 
#    y 0.000000 1.840600 0.000000 
#    z -0.115170 0.000000 2.112620 
# 
# From -- ./inp_files/5485.got.cif
#   From: 2010.05.17/outbox.cif.g08.bks.cpg/sg5_3_cif.got.tgz:5485.got - 2010.06.03 18:56:24.
