data_PCOD9121846
_publ_section_title
;
Structure prediction by ZEFSAII (Michael W. Deem and Ramdas Pophale) SiO2 
 PCOD9121846
Probable space group: C 2
;
_chemical_formula_sum "Si O2"
_cell_formula_units_Z 16
_cell_length_a 23.273240
_cell_length_b 4.959067
_cell_length_c 7.862957
_cell_angle_alpha 90.000000
_cell_angle_beta 40.231384
_cell_angle_gamma 90.000000
_cell_volume 586.127161
_symmetry_space_group_name_H-M "C 2"
_symmetry_group_IT_number 5
_symmetry_cell_setting 'monoclinic'
loop_
_space_group_symop_operation_xyz
x,y,z
-x,y,-z
1/2+x,1/2+y,z
1/2-x,1/2+y,-z
loop_
_atom_site_type_symbol
_atom_site_label
_atom_site_fract_x
_atom_site_fract_y
_atom_site_fract_z
Si Si1 0.395698 0.604130 0.283484
Si Si2 0.363568 0.103748 0.159459
Si Si3 0.798850 0.417603 0.949961
Si Si4 0.454837 0.231839 0.436403
O O1 0.347902 0.405359 0.257747
O O2 0.399338 0.444289 0.451528
O O3 0.359476 0.900148 0.327731
O O4 0.500000 0.614556 0.000000
O O5 0.306137 0.006313 0.130012
O O6 0.465482 0.112354 0.857863
O O7 0.892264 0.499037 0.652517
O O8 0.770559 0.111137 0.991108
O O9 0.500000 0.365828 0.500000
#
# Coordination Sequence:
#
# PCOD9121846 Si02
#       4
#     4   4   4   4
#     4  10  19  36  63  95 123 155 204 263 313 365
#     4  10  21  39  64  93 124 160 206 260 314 370
#     4  11  24  42  63  92 130 171 212 259 312 375
#     4   9  21  41  68  96 125 166 214 260 313 376
#
# _framework density 27.297832
#
# number of rings (size 3 to 8) (size 9 to 14) (size 15 to 20)
#    0.000    2.000    0.000    3.750    0.000    6.000 
#    0.000   25.000    0.000    3.000    0.000    0.000 
#    0.000    0.000    0.000    0.000    0.000    0.000 
#
# Total GULP energy -44893.441817 kJ/mol
# GULP energy per Si atom -5611.680227 kJ/mol
# Density = 2.723570 g / cm^3
# Si number density = 27.297832 Si / 1000 Ang^3
#
#
#
# Elastic Constant Matrix: (Units=GPa)
#
#
# Indices 1 2 3 4 5 6 
#
# 1 153.5574 19.0173 16.1540 0.0000 14.1449 0.0000
# 2 19.0173 100.5132 5.0307 0.0000 13.4767 0.0000
# 3 16.1540 5.0307 99.5844 0.0000 -8.1131 0.0000
# 4 0.0000 0.0000 0.0000 28.4932 0.0000 6.1827
# 5 14.1449 13.4767 -8.1131 0.0000 43.8650 0.0000
# 6 0.0000 0.0000 0.0000 6.1827 0.0000 41.5638
#
#
#
# Elastic Compliance Matrix: (Units=1/GPa)
#
#
# Indices 1 2 3 4 5 6 
#
# 1 0.006965 -0.000962 -0.001259 0.000000 -0.002183 0.000000
# 2 -0.000962 0.010572 -0.000627 0.000000 -0.003054 0.000000
# 3 -0.001259 -0.000627 0.010484 0.000000 0.002538 0.000000
# 4 0.000000 0.000000 0.000000 0.036267 0.000000 -0.005395
# 5 -0.002183 -0.003054 0.002538 0.000000 0.024909 0.000000
# 6 0.000000 0.000000 0.000000 -0.005395 0.000000 0.024862
#
#
# Mechanical properties :
#
#
# Convention : Reuss Voigt Hill
#
# Bulk Modulus (GPa) = 44.79225 48.22879 46.51052
# Shear Modulus (GPa) = 39.30940 43.68125 41.49532
#
# Velocity S-wave (km/s) = 3.79888 4.00456 3.90307
# Velocity P-wave (km/s) = 5.97380 6.25203 6.11450
#
# Compressibility (1/GPa) = 0.02232529
#
# Stress axis : x y z
#
# Youngs Moduli (GPa) = 143.57643 94.59157 95.37990
#
# Poissons Ratio (x) = 0.09100 0.12009
# Poissons Ratio (y) = 0.13813 0.05978
# Poissons Ratio (z) = 0.18077 0.05929
#
# Static dielectric constant tensor:
#      x y z
#    x 2.116950 0.000000 -0.021920 
#    y 0.000000 2.004440 0.000000 
#    z -0.021920 0.000000 2.177890 
# 
# From -- ./inp_files/25745.got.cif
#   From: 2010.05.17/outbox.cif.g08.bks.cpg/sg5_13_cif.got.tgz:25745.got - 2010.06.03 18:56:24.
