data_PCOD9121154
_publ_section_title
;
Structure prediction by ZEFSAII (Michael W. Deem and Ramdas Pophale) SiO2 
 PCOD9121154
Probable space group: C 2
;
_chemical_formula_sum "Si O2"
_cell_formula_units_Z 20
_cell_length_a 11.627240
_cell_length_b 14.540142
_cell_length_c 9.667377
_cell_angle_alpha 90.000000
_cell_angle_beta 38.383941
_cell_angle_gamma 90.000000
_cell_volume 1014.834574
_symmetry_space_group_name_H-M "C 2"
_symmetry_group_IT_number 5
_symmetry_cell_setting 'monoclinic'
loop_
_space_group_symop_operation_xyz
x,y,z
-x,y,-z
1/2+x,1/2+y,z
1/2-x,1/2+y,-z
loop_
_atom_site_type_symbol
_atom_site_label
_atom_site_fract_x
_atom_site_fract_y
_atom_site_fract_z
Si Si1 0.725145 0.682050 0.393058
Si Si2 0.440436 0.411453 0.831694
Si Si3 0.949088 0.706613 0.706973
Si Si4 0.708082 0.895844 0.332632
Si Si5 0.171169 0.104928 0.155129
O O1 0.693394 0.789667 0.392237
O O2 0.769531 0.635102 0.204497
O O3 0.535454 0.643108 0.631739
O O4 0.886298 0.671095 0.350825
O O5 0.434826 0.315823 0.753858
O O6 0.650185 0.436290 0.685647
O O7 0.348944 0.496033 0.838832
O O8 0.320083 0.397642 0.083789
O O9 0.000000 0.692308 0.500000
O O10 0.769759 0.652107 0.931289
O O11 0.500000 0.932642 0.500000
#
# Coordination Sequence:
#
# PCOD9121154 Si02
#       5
#     4   4   4   4   4
#     4  10  21  41  69  88 124 178 211 246 315 390
#     4  10  23  36  64 100 127 162 216 266 311 373
#     4  11  24  41  64  94 136 163 207 269 323 363
#     4  10  18  40  66  90 127 173 209 250 317 384
#     4  11  22  41  66  93 126 168 218 254 312 381
#
# _framework density 19.707643999999998
#
# number of rings (size 3 to 8) (size 9 to 14) (size 15 to 20)
#    0.000    1.600    4.000    0.600    2.800    6.400 
#    0.000    0.000    4.400    0.000    0.000    0.000 
#    0.000    0.000    0.000    0.000    0.000    0.000 
#
# Total GULP energy -55832.465974 kJ/mol
# GULP energy per Si atom -5583.246597 kJ/mol
# Density = 1.966279 g / cm^3
# Si number density = 19.707644 Si / 1000 Ang^3
#
#
#
# Elastic Constant Matrix: (Units=GPa)
#
#
# Indices 1 2 3 4 5 6 
#
# 1 45.3830 31.9535 40.4200 0.0006 8.9272 -0.0004
# 2 31.9535 75.2733 31.9296 0.0000 9.6247 -0.0001
# 3 40.4200 31.9296 124.7120 -0.0001 8.4774 0.0000
# 4 0.0006 0.0000 -0.0001 15.0371 0.0001 -14.0522
# 5 8.9272 9.6247 8.4774 0.0001 34.5849 0.0000
# 6 -0.0004 -0.0001 0.0000 -14.0522 0.0000 32.1473
#
#
#
# Elastic Compliance Matrix: (Units=1/GPa)
#
#
# Indices 1 2 3 4 5 6 
#
# 1 0.040168 -0.012425 -0.009526 -0.000002 -0.004575 0.000000
# 2 -0.012425 0.019119 -0.000736 0.000001 -0.001933 0.000000
# 3 -0.009526 -0.000736 0.011302 0.000001 -0.000106 0.000000
# 4 -0.000002 0.000001 0.000001 0.112428 0.000000 0.049145
# 5 -0.004575 -0.001933 -0.000106 0.000000 0.030659 0.000000
# 6 0.000000 0.000000 0.000000 0.049145 0.000000 0.052589
#
#
# Mechanical properties :
#
#
# Convention : Reuss Voigt Hill
#
# Bulk Modulus (GPa) = 39.66323 50.44161 45.05242
# Shear Modulus (GPa) = 15.62276 25.75819 20.69048
#
# Velocity S-wave (km/s) = 2.81859 3.61919 3.24369
# Velocity P-wave (km/s) = 5.54636 6.56622 6.07772
#
# Compressibility (1/GPa) = 0.02521227
#
# Stress axis : x y z
#
# Youngs Moduli (GPa) = 24.89559 52.30405 88.48116
#
# Poissons Ratio (x) = 0.64989 0.84291
# Poissons Ratio (y) = 0.30933 0.06516
# Poissons Ratio (z) = 0.23717 0.03852
#
# Static dielectric constant tensor:
#      x y z
#    x 1.716690 0.000000 -0.026300 
#    y 0.000000 1.705550 0.000000 
#    z -0.026300 0.000000 1.662920 
# 
# From -- ./inp_files/21126.got.cif
#   From: 2010.05.17/outbox.cif.g08.bks.cpg/sg5_11_cif.got.tgz:21126.got - 2010.06.03 18:56:24.
