data_PCOD9121673
_publ_section_title
;
Structure prediction by ZEFSAII (Michael W. Deem and Ramdas Pophale) SiO2 
 PCOD9121673
Probable space group: C 2
;
_chemical_formula_sum "Si O2"
_cell_formula_units_Z 32
_cell_length_a 15.758904
_cell_length_b 12.587312
_cell_length_c 14.034488
_cell_angle_alpha 90.000000
_cell_angle_beta 34.445730
_cell_angle_gamma 90.000000
_cell_volume 1574.651560
_symmetry_space_group_name_H-M "C 2"
_symmetry_group_IT_number 5
_symmetry_cell_setting 'monoclinic'
loop_
_space_group_symop_operation_xyz
x,y,z
-x,y,-z
1/2+x,1/2+y,z
1/2-x,1/2+y,-z
loop_
_atom_site_type_symbol
_atom_site_label
_atom_site_fract_x
_atom_site_fract_y
_atom_site_fract_z
Si Si1 0.858735 0.622490 0.203593
Si Si2 0.967456 0.430147 0.732933
Si Si3 0.392628 0.160374 0.740265
Si Si4 0.920984 0.389169 0.175099
Si Si5 0.268155 0.811469 0.776549
Si Si6 0.266452 0.181889 0.652893
Si Si7 0.470653 0.289228 0.836684
Si Si8 0.704760 0.455751 0.650488
O O1 0.830120 0.500790 0.254810
O O2 0.732952 0.694630 0.269676
O O3 0.918069 0.691785 0.237861
O O4 0.000000 0.618097 0.000000
O O5 0.958048 0.400758 0.852110
O O6 0.142951 0.446519 0.549880
O O7 0.883806 0.540769 0.788393
O O8 0.907925 0.345440 0.711320
O O9 0.286214 0.173400 0.748481
O O10 0.564631 0.175891 0.544961
O O11 0.371439 0.246423 0.842417
O O12 0.815139 0.290419 0.295895
O O13 0.000000 0.373041 0.000000
O O14 0.238139 0.895260 0.719855
O O15 0.129203 0.813142 0.978524
O O16 0.178606 0.079072 0.696033
O O17 0.570687 0.392226 0.725239
#
# Coordination Sequence:
#
# PCOD9121673 Si02
#       8
#     4   4   4   4   4   4   4   4
#     4   8  17  35  55  81 113 152 185 231 290 344
#     4  11  21  38  63  87 114 155 201 240 288 353
#     4  10  20  39  61  82 112 164 198 230 291 364
#     4  11  23  38  57  85 124 159 190 236 298 356
#     4  10  20  35  63  93 112 146 203 248 285 338
#     4  10  22  38  58  83 120 156 196 239 293 347
#     4  10  19  35  62  86 115 149 197 239 291 346
#     4  10  20  38  62  89 117 150 196 250 293 340
#
# _framework density 20.321956
#
# number of rings (size 3 to 8) (size 9 to 14) (size 15 to 20)
#    0.000    2.000    2.500    2.250    1.750    1.000 
#    0.000    1.250   11.000    0.000    0.000    0.000 
#    0.000    0.000    0.000    0.000    0.000    0.000 
#
# Total GULP energy -89333.660577 kJ/mol
# GULP energy per Si atom -5583.353786 kJ/mol
# Density = 2.027570 g / cm^3
# Si number density = 20.321956 Si / 1000 Ang^3
#
#
#
# Elastic Constant Matrix: (Units=GPa)
#
#
# Indices 1 2 3 4 5 6 
#
# 1 83.0161 34.6402 1.1490 0.0000 15.0663 0.0000
# 2 34.6402 157.1837 11.3890 0.0000 -10.3284 0.0000
# 3 1.1490 11.3890 23.2287 0.0000 9.7867 0.0000
# 4 0.0000 0.0000 0.0000 9.0895 0.0000 -5.5852
# 5 15.0663 -10.3284 9.7867 0.0000 25.4201 0.0000
# 6 0.0000 0.0000 0.0000 -5.5852 0.0000 18.1183
#
#
#
# Elastic Compliance Matrix: (Units=1/GPa)
#
#
# Indices 1 2 3 4 5 6 
#
# 1 0.016961 -0.005351 0.008279 0.000000 -0.015414 0.000000
# 2 -0.005351 0.008787 -0.008217 0.000000 0.009905 0.000000
# 3 0.008279 -0.008217 0.059852 0.000000 -0.031288 0.000000
# 4 0.000000 0.000000 0.000000 0.135726 0.000000 0.041840
# 5 -0.015414 0.009905 -0.031288 0.000000 0.064545 0.000000
# 6 0.000000 0.000000 0.000000 0.041840 0.000000 0.068091
#
#
# Mechanical properties :
#
#
# Convention : Reuss Voigt Hill
#
# Bulk Modulus (GPa) = 13.32935 39.75388 26.54162
# Shear Modulus (GPa) = 12.83541 24.94227 18.88884
#
# Velocity S-wave (km/s) = 2.51590 3.50716 3.05204
# Velocity P-wave (km/s) = 3.87466 6.00040 5.05063
#
# Compressibility (1/GPa) = 0.07502242
#
# Stress axis : x y z
#
# Youngs Moduli (GPa) = 58.95743 113.79947 16.70799
#
# Poissons Ratio (x) = 0.60890 -0.13832
# Poissons Ratio (y) = 0.31546 0.13729
# Poissons Ratio (z) = -0.48809 0.93509
#
# Static dielectric constant tensor:
#      x y z
#    x 1.734060 0.000000 0.021020 
#    y 0.000000 1.721260 0.000000 
#    z 0.021020 0.000000 1.724300 
# 
# From -- ./inp_files/54583.got.cif
#   From: 2010.05.17/outbox.cif.g08.bks.cpg/sg5_28_cif.got.tgz:54583.got - 2010.06.03 18:56:24.
