data_PCOD9121962
_publ_section_title
;
Structure prediction by ZEFSAII (Michael W. Deem and Ramdas Pophale) SiO2 
 PCOD9121962
Probable space group: C 2
;
_chemical_formula_sum "Si O2"
_cell_formula_units_Z 32
_cell_length_a 8.550011
_cell_length_b 21.709045
_cell_length_c 14.807823
_cell_angle_alpha 90.000000
_cell_angle_beta 148.807590
_cell_angle_gamma 90.000000
_cell_volume 1423.495182
_symmetry_space_group_name_H-M "C 2"
_symmetry_group_IT_number 5
_symmetry_cell_setting 'monoclinic'
loop_
_space_group_symop_operation_xyz
x,y,z
-x,y,-z
1/2+x,1/2+y,z
1/2-x,1/2+y,-z
loop_
_atom_site_type_symbol
_atom_site_label
_atom_site_fract_x
_atom_site_fract_y
_atom_site_fract_z
Si Si1 0.168577 0.916490 0.989959
Si Si2 0.653379 0.620824 0.333025
Si Si3 0.378546 0.816088 0.837521
Si Si4 0.549469 0.025112 0.230628
Si Si5 0.242973 0.163581 0.694039
Si Si6 0.685747 0.497080 0.452695
Si Si7 0.251466 0.206947 0.957166
Si Si8 0.315714 0.367521 0.637757
O O1 0.476175 0.877459 0.133060
O O2 0.273742 0.988035 0.048979
O O3 0.000000 0.901678 0.000000
O O4 0.979629 0.892175 0.810321
O O5 0.468533 0.651903 0.323531
O O6 0.670214 0.548766 0.366890
O O7 0.442221 0.643818 0.146871
O O8 0.000000 0.642188 0.500000
O O9 0.506810 0.760299 0.842533
O O10 0.027473 0.826255 0.679543
O O11 0.500000 0.809274 0.000000
O O12 0.591524 0.098100 0.241443
O O13 0.574761 0.012892 0.350444
O O14 0.855926 0.999538 0.335735
O O15 0.000000 0.179309 0.500000
O O16 0.521300 0.209166 0.845866
O O17 0.752359 0.430260 0.449144
O O18 0.500000 0.212710 0.000000
O O19 0.000000 0.335365 0.500000
#
# Coordination Sequence:
#
# PCOD9121962 Si02
#       8
#     4   4   4   4   4   4   4   4
#     4  11  23  40  65  95 133 178 227 272 349 401
#     4  10  21  38  61  95 135 172 225 275 333 405
#     4  10  23  45  65  94 133 178 228 289 330 402
#     4  10  19  37  62  98 138 178 211 277 341 406
#     4  10  20  41  65  93 134 177 225 280 338 404
#     4  10  19  37  63  95 143 172 214 272 340 411
#     4  10  23  43  69  96 131 180 236 279 343 395
#     4  11  23  41  67  98 135 178 224 281 342 408
#
# _framework density 22.479879
#
# number of rings (size 3 to 8) (size 9 to 14) (size 15 to 20)
#    0.000    1.750    3.750    1.500    1.750    1.000 
#    0.000   10.000    0.000    3.000    0.000    0.000 
#    0.000    0.000    0.000    0.000    0.000    0.000 
#
# Total GULP energy -89279.418925 kJ/mol
# GULP energy per Si atom -5579.963683 kJ/mol
# Density = 2.242871 g / cm^3
# Si number density = 22.479879 Si / 1000 Ang^3
#
#
#
# Elastic Constant Matrix: (Units=GPa)
#
#
# Indices 1 2 3 4 5 6 
#
# 1 82.0747 33.4152 36.4802 0.0126 29.1075 0.0261
# 2 33.4152 71.7508 35.7597 -0.0010 20.3678 -0.0021
# 3 36.4802 35.7597 120.0307 0.0094 20.1821 0.0251
# 4 0.0126 -0.0010 0.0094 72.4847 0.0124 136.3865
# 5 29.1075 20.3678 20.1821 0.0124 31.1879 0.0273
# 6 0.0261 -0.0021 0.0251 136.3865 0.0273 289.5687
#
#
#
# Elastic Compliance Matrix: (Units=1/GPa)
#
#
# Indices 1 2 3 4 5 6 
#
# 1 0.020051 -0.003990 -0.002465 -0.000002 -0.014513 0.000001
# 2 -0.003990 0.019422 -0.003441 -0.000001 -0.006733 0.000002
# 3 -0.002465 -0.003441 0.010481 0.000003 -0.002234 -0.000002
# 4 -0.000002 -0.000001 0.000003 0.121258 0.000003 -0.057112
# 5 -0.014513 -0.006733 -0.002234 0.000003 0.051451 -0.000005
# 6 0.000001 0.000002 -0.000002 -0.057112 -0.000005 0.030353
#
#
# Mechanical properties :
#
#
# Convention : Reuss Voigt Hill
#
# Bulk Modulus (GPa) = 33.15500 53.90741 43.53120
# Shear Modulus (GPa) = 17.67639 89.86167 53.76903
#
# Velocity S-wave (km/s) = 2.80718 6.32938 4.89598
# Velocity P-wave (km/s) = 5.02870 8.80040 7.16711
#
# Compressibility (1/GPa) = 0.03016136
#
# Stress axis : x y z
#
# Youngs Moduli (GPa) = 49.87305 51.48897 95.40700
#
# Poissons Ratio (x) = 0.20542 0.23519
# Poissons Ratio (y) = 0.19898 0.32834
# Poissons Ratio (z) = 0.12295 0.17720
#
# Static dielectric constant tensor:
#      x y z
#    x 1.778170 0.000000 0.012190 
#    y 0.000000 1.830680 0.000000 
#    z 0.012190 0.000000 1.865110 
# 
# From -- ./inp_files/51713.got.cif
#   From: 2010.05.17/outbox.cif.g08.bks.cpg/sg5_26_cif.got.tgz:51713.got - 2010.06.03 18:56:24.
