data_PCOD9121040
_publ_section_title
;
Structure prediction by ZEFSAII (Michael W. Deem and Ramdas Pophale) SiO2 
 PCOD9121040
Probable space group: C 2
;
_chemical_formula_sum "Si O2"
_cell_formula_units_Z 32
_cell_length_a 22.497572
_cell_length_b 14.741672
_cell_length_c 7.840818
_cell_angle_alpha 90.000000
_cell_angle_beta 147.144010
_cell_angle_gamma 90.000000
_cell_volume 1410.805079
_symmetry_space_group_name_H-M "C 2"
_symmetry_group_IT_number 5
_symmetry_cell_setting 'monoclinic'
loop_
_space_group_symop_operation_xyz
x,y,z
-x,y,-z
1/2+x,1/2+y,z
1/2-x,1/2+y,-z
loop_
_atom_site_type_symbol
_atom_site_label
_atom_site_fract_x
_atom_site_fract_y
_atom_site_fract_z
Si Si1 0.019324 0.988920 0.853738
Si Si2 0.560696 0.284850 0.357747
Si Si3 0.277478 0.871265 0.974942
Si Si4 0.665550 0.763617 0.576271
Si Si5 0.150217 0.709224 0.217474
Si Si6 0.560125 0.748523 0.825827
Si Si7 0.694391 0.566661 0.810656
Si Si8 0.723895 0.583650 0.268969
O O1 0.992827 0.883549 0.782345
O O2 0.935043 0.039412 0.522323
O O3 0.000000 0.023286 0.000000
O O4 0.146770 0.999847 0.123863
O O5 0.669494 0.306805 0.724759
O O6 0.611641 0.254469 0.301006
O O7 0.460754 0.217420 0.163003
O O8 0.248776 0.975138 0.867000
O O9 0.321286 0.850921 0.269496
O O10 0.362876 0.832310 0.043110
O O11 0.748263 0.764355 0.617625
O O12 0.533872 0.758372 0.260527
O O13 0.701742 0.664973 0.742285
O O14 0.188039 0.610142 0.375841
O O15 0.500000 0.726156 0.500000
O O16 0.638986 0.667736 0.069143
O O17 0.748441 0.576573 0.127930
#
# Coordination Sequence:
#
# PCOD9121040 Si02
#       8
#     4   4   4   4   4   4   4   4
#     4  11  21  35  62  99 129 157 220 292 329 382
#     4  10  22  43  62  93 133 178 214 277 351 389
#     4  10  22  40  70  94 138 174 223 284 341 396
#     4  11  22  40  64 101 128 177 234 273 340 411
#     4  11  23  39  64  93 133 179 214 272 335 413
#     4  10  18  38  63  91 131 166 213 278 336 387
#     4  11  22  38  65 101 130 174 227 281 335 393
#     4  12  21  37  62  97 131 171 215 278 337 387
#
# _framework density 22.682084
#
# number of rings (size 3 to 8) (size 9 to 14) (size 15 to 20)
#    0.000    1.250    6.250    1.125    1.750    0.500 
#    0.000    0.000   24.750    0.000    0.000    0.000 
#    0.000    0.000    0.000    0.000    0.000    0.000 
#
# Total GULP energy -89145.091933 kJ/mol
# GULP energy per Si atom -5571.568246 kJ/mol
# Density = 2.263046 g / cm^3
# Si number density = 22.682084 Si / 1000 Ang^3
#
#
#
# Elastic Constant Matrix: (Units=GPa)
#
#
# Indices 1 2 3 4 5 6 
#
# 1 83.9863 12.0633 22.4602 0.0000 27.4676 0.0000
# 2 12.0633 80.9549 23.3540 0.0000 17.5696 0.0000
# 3 22.4602 23.3540 65.1633 0.0000 12.0173 0.0000
# 4 0.0000 0.0000 0.0000 29.7130 0.0000 13.0147
# 5 27.4676 17.5696 12.0173 0.0000 33.8196 0.0000
# 6 0.0000 0.0000 0.0000 13.0147 0.0000 22.6922
#
#
#
# Elastic Compliance Matrix: (Units=1/GPa)
#
#
# Indices 1 2 3 4 5 6 
#
# 1 0.017085 0.001472 -0.003977 0.000000 -0.013228 0.000000
# 2 0.001472 0.015048 -0.004536 0.000000 -0.007402 0.000000
# 3 -0.003977 -0.004536 0.018526 0.000000 -0.000997 0.000000
# 4 0.000000 0.000000 0.000000 0.044946 0.000000 -0.025778
# 5 -0.013228 -0.007402 -0.000997 0.000000 0.044511 0.000000
# 6 0.000000 0.000000 0.000000 -0.025778 0.000000 0.058852
#
#
# Mechanical properties :
#
#
# Convention : Reuss Voigt Hill
#
# Bulk Modulus (GPa) = 27.33846 38.42883 32.88365
# Shear Modulus (GPa) = 22.19831 28.72678 25.46254
#
# Velocity S-wave (km/s) = 3.13177 3.56265 3.35413
# Velocity P-wave (km/s) = 5.01561 5.82258 5.43409
#
# Compressibility (1/GPa) = 0.03657850
#
# Stress axis : x y z
#
# Youngs Moduli (GPa) = 58.53134 66.45418 53.97783
#
# Poissons Ratio (x) = -0.09783 0.21467
# Poissons Ratio (y) = -0.08617 0.24482
# Poissons Ratio (z) = 0.23278 0.30140
#
# Static dielectric constant tensor:
#      x y z
#    x 1.930510 0.000000 -0.011770 
#    y 0.000000 1.835020 0.000000 
#    z -0.011770 0.000000 2.018470 
# 
# From -- ./inp_files/31080.got.cif
#   From: 2010.05.17/outbox.cif.g08.bks.cpg/sg5_16_cif.got.tgz:31080.got - 2010.06.03 18:56:24.
