data_PCOD9121688
_publ_section_title
;
Structure prediction by ZEFSAII (Michael W. Deem and Ramdas Pophale) SiO2 
 PCOD9121688
Probable space group: C 2
;
_chemical_formula_sum "Si O2"
_cell_formula_units_Z 32
_cell_length_a 12.530711
_cell_length_b 15.694893
_cell_length_c 7.076212
_cell_angle_alpha 90.000000
_cell_angle_beta 96.922047
_cell_angle_gamma 90.000000
_cell_volume 1381.521859
_symmetry_space_group_name_H-M "C 2"
_symmetry_group_IT_number 5
_symmetry_cell_setting 'monoclinic'
loop_
_space_group_symop_operation_xyz
x,y,z
-x,y,-z
1/2+x,1/2+y,z
1/2-x,1/2+y,-z
loop_
_atom_site_type_symbol
_atom_site_label
_atom_site_fract_x
_atom_site_fract_y
_atom_site_fract_z
Si Si1 0.103454 0.257630 0.395903
Si Si2 0.757508 0.100962 0.040717
Si Si3 0.380872 0.945516 0.049322
Si Si4 0.276811 0.773254 0.913342
Si Si5 0.465842 0.505318 0.208519
Si Si6 0.813968 0.086512 0.608083
Si Si7 0.111096 0.838460 0.581101
Si Si8 0.200144 0.425476 0.554049
O O1 0.112536 0.244888 0.171785
O O2 0.180244 0.180030 0.478841
O O3 0.133467 0.356864 0.422765
O O4 0.000000 0.245647 0.500000
O O5 0.865606 0.069045 0.164212
O O6 0.744714 0.202463 0.058153
O O7 0.773452 0.092219 0.815876
O O8 0.662725 0.033133 0.050867
O O9 0.367991 0.943926 0.273126
O O10 0.500000 0.929042 0.000000
O O11 0.300241 0.867898 0.986196
O O12 0.184847 0.782391 0.734628
O O13 0.565849 0.549039 0.337175
O O14 0.426480 0.421220 0.307311
O O15 0.500000 0.484220 0.000000
O O16 0.737950 0.017778 0.491281
O O17 0.184769 0.873713 0.422935
O O18 0.000000 0.794714 0.500000
#
# Coordination Sequence:
#
# PCOD9121688 Si02
#       8
#     4   4   4   4   4   4   4   4
#     4  10  21  36  58  90 124 169 212 264 320 384
#     4   9  20  39  61  91 124 157 212 270 313 373
#     4  11  22  41  66  89 126 176 215 263 320 382
#     4  10  22  40  61  93 131 168 213 270 314 391
#     4  10  19  35  63  94 121 159 212 265 322 373
#     4   9  19  35  61  89 127 158 204 265 323 378
#     4  11  21  36  63  95 134 165 206 263 336 376
#     4  10  22  38  57  93 129 165 211 267 320 385
#
# _framework density 23.162863999999999
#
# number of rings (size 3 to 8) (size 9 to 14) (size 15 to 20)
#    0.000    2.000    2.500    0.750    1.750    3.500 
#    0.000    1.875    0.000   21.000    0.000    0.000 
#    0.000    0.000    0.000    0.000    0.000    0.000 
#
# Total GULP energy -89196.304429 kJ/mol
# GULP energy per Si atom -5574.769027 kJ/mol
# Density = 2.311014 g / cm^3
# Si number density = 23.162864 Si / 1000 Ang^3
#
#
#
# Elastic Constant Matrix: (Units=GPa)
#
#
# Indices 1 2 3 4 5 6 
#
# 1 79.6951 32.9619 15.6685 0.0000 9.4790 0.0000
# 2 32.9619 143.8580 17.3062 0.0000 19.2297 0.0000
# 3 15.6685 17.3062 62.7216 0.0000 -1.2751 0.0000
# 4 0.0000 0.0000 0.0000 28.7425 0.0000 -0.3635
# 5 9.4790 19.2297 -1.2751 0.0000 26.2593 0.0000
# 6 0.0000 0.0000 0.0000 -0.3635 0.0000 25.9532
#
#
#
# Elastic Compliance Matrix: (Units=1/GPa)
#
#
# Indices 1 2 3 4 5 6 
#
# 1 0.014605 -0.002502 -0.003031 0.000000 -0.003587 0.000000
# 2 -0.002502 0.008463 -0.001819 0.000000 -0.005382 0.000000
# 3 -0.003031 -0.001819 0.017269 0.000000 0.003265 0.000000
# 4 0.000000 0.000000 0.000000 0.034798 0.000000 0.000487
# 5 -0.003587 -0.005382 0.003265 0.000000 0.043477 0.000000
# 6 0.000000 0.000000 0.000000 0.000487 0.000000 0.038538
#
#
# Mechanical properties :
#
#
# Convention : Reuss Voigt Hill
#
# Bulk Modulus (GPa) = 39.01414 46.46087 42.73751
# Shear Modulus (GPa) = 27.71630 30.88021 29.29825
#
# Velocity S-wave (km/s) = 3.46292 3.65523 3.56037
# Velocity P-wave (km/s) = 5.73315 6.15761 5.94917
#
# Compressibility (1/GPa) = 0.02563173
#
# Stress axis : x y z
#
# Youngs Moduli (GPa) = 68.46805 118.16098 57.90708
#
# Poissons Ratio (x) = 0.29569 0.17552
# Poissons Ratio (y) = 0.17133 0.10536
# Poissons Ratio (z) = 0.20753 0.21498
#
# Static dielectric constant tensor:
#      x y z
#    x 1.904700 0.000000 -0.000800 
#    y 0.000000 1.938910 0.000000 
#    z -0.000800 0.000000 1.974490 
# 
# From -- ./inp_files/20645.got.cif
#   From: 2010.05.17/outbox.cif.g08.bks.cpg/sg5_11_cif.got.tgz:20645.got - 2010.06.03 18:56:24.
