data_PCOD9121358
_publ_section_title
;
Structure prediction by ZEFSAII (Michael W. Deem and Ramdas Pophale) SiO2 
 PCOD9121358
Probable space group: C 2
;
_chemical_formula_sum "Si O2"
_cell_formula_units_Z 24
_cell_length_a 19.435404
_cell_length_b 8.087721
_cell_length_c 25.587360
_cell_angle_alpha 90.000000
_cell_angle_beta 17.850823
_cell_angle_gamma 90.000000
_cell_volume 1232.911811
_symmetry_space_group_name_H-M "C 2"
_symmetry_group_IT_number 5
_symmetry_cell_setting 'monoclinic'
loop_
_space_group_symop_operation_xyz
x,y,z
-x,y,-z
1/2+x,1/2+y,z
1/2-x,1/2+y,-z
loop_
_atom_site_type_symbol
_atom_site_label
_atom_site_fract_x
_atom_site_fract_y
_atom_site_fract_z
Si Si1 0.282527 0.852830 0.904865
Si Si2 0.065364 0.673982 0.153719
Si Si3 0.788884 0.740264 0.533367
Si Si4 0.566567 0.428089 0.671306
Si Si5 0.254145 0.665133 0.827039
Si Si6 0.056770 0.044009 0.519505
O O1 0.538212 0.796081 0.729358
O O2 0.240574 0.829452 0.873297
O O3 0.276777 0.036199 0.933355
O O4 0.131018 0.727506 0.047991
O O5 0.069830 0.838589 0.185168
O O6 0.809420 0.611845 0.342316
O O7 0.767321 0.542542 0.548676
O O8 0.836054 0.794840 0.439673
O O9 0.946487 0.855768 0.454969
O O10 0.398023 0.541532 0.759625
O O11 0.391499 0.657892 0.673679
O O12 0.000000 0.610915 0.000000
O O13 0.000000 0.043361 0.500000
#
# Coordination Sequence:
#
# PCOD9121358 Si02
#       6
#     4   4   4   4   4   4
#     4  10  19  33  54  80 109 143 185 228 271 325
#     4  11  21  35  58  84 112 145 187 232 276 329
#     4   9  18  33  55  79 108 144 186 226 269 325
#     4  10  19  35  58  83 109 146 188 229 276 328
#     4  10  20  36  57  82 115 149 185 226 275 330
#     4  10  21  36  56  82 115 151 185 227 277 327
#
# _framework density 19.466111999999999
#
# number of rings (size 3 to 8) (size 9 to 14) (size 15 to 20)
#    0.000    2.000    0.000    7.000    0.000    1.333 
#    0.000    1.667    0.000   14.000    0.000    0.000 
#    0.000    0.000    0.000    0.000    0.000    0.000 
#
# Total GULP energy -66851.270800 kJ/mol
# GULP energy per Si atom -5570.939233 kJ/mol
# Density = 1.942181 g / cm^3
# Si number density = 19.466112 Si / 1000 Ang^3
#
#
#
# Elastic Constant Matrix: (Units=GPa)
#
#
# Indices 1 2 3 4 5 6 
#
# 1 111.2635 36.3817 25.8988 0.0044 23.9321 -0.0025
# 2 36.3817 65.3840 8.0923 0.0142 7.9578 -0.0051
# 3 25.8988 8.0923 87.4006 0.0334 15.8079 0.0105
# 4 0.0044 0.0142 0.0334 24.7364 0.0038 9.1162
# 5 23.9321 7.9578 15.8079 0.0038 32.7853 -0.0042
# 6 -0.0025 -0.0051 0.0105 9.1162 -0.0042 11.4688
#
#
#
# Elastic Compliance Matrix: (Units=1/GPa)
#
#
# Indices 1 2 3 4 5 6 
#
# 1 0.012961 -0.006110 -0.002007 0.000007 -0.007010 -0.000006
# 2 -0.006110 0.018697 0.000102 -0.000017 -0.000128 0.000021
# 3 -0.002007 0.000102 0.012890 -0.000016 -0.004775 -0.000001
# 4 0.000007 -0.000017 -0.000016 0.057175 -0.000006 -0.045446
# 5 -0.007010 -0.000128 -0.004775 -0.000006 0.037952 0.000021
# 6 -0.000006 0.000021 -0.000001 -0.045446 0.000021 0.123316
#
#
# Mechanical properties :
#
#
# Convention : Reuss Voigt Hill
#
# Bulk Modulus (GPa) = 35.06439 44.97708 40.02074
# Shear Modulus (GPa) = 17.32944 26.70979 22.01961
#
# Velocity S-wave (km/s) = 2.98692 3.70823 3.36695
# Velocity P-wave (km/s) = 5.47245 6.44128 5.97653
#
# Compressibility (1/GPa) = 0.02851896
#
# Stress axis : x y z
#
# Youngs Moduli (GPa) = 77.15726 53.48468 77.57679
#
# Poissons Ratio (x) = 0.32680 0.15569
# Poissons Ratio (y) = 0.47144 -0.00795
# Poissons Ratio (z) = 0.15485 -0.00548
#
# Static dielectric constant tensor:
#      x y z
#    x 1.686340 0.000000 0.025880 
#    y 0.000000 1.778730 0.000010 
#    z 0.025880 0.000010 1.687120 
# 
# From -- ./inp_files/28650.got.cif
#   From: 2010.05.17/outbox.cif.g08.bks.cpg/sg5_15_cif.got.tgz:28650.got - 2010.06.03 18:56:24.
