data_PCOD9121925
_publ_section_title
;
Structure prediction by ZEFSAII (Michael W. Deem and Ramdas Pophale) SiO2 
 PCOD9121925
Probable space group: C 2
;
_chemical_formula_sum "Si O2"
_cell_formula_units_Z 32
_cell_length_a 15.381465
_cell_length_b 7.407981
_cell_length_c 23.017435
_cell_angle_alpha 90.000000
_cell_angle_beta 148.730961
_cell_angle_gamma 90.000000
_cell_volume 1361.350011
_symmetry_space_group_name_H-M "C 2"
_symmetry_group_IT_number 5
_symmetry_cell_setting 'monoclinic'
loop_
_space_group_symop_operation_xyz
x,y,z
-x,y,-z
1/2+x,1/2+y,z
1/2-x,1/2+y,-z
loop_
_atom_site_type_symbol
_atom_site_label
_atom_site_fract_x
_atom_site_fract_y
_atom_site_fract_z
Si Si1 0.037716 0.671020 0.953273
Si Si2 0.731687 0.992927 0.965740
Si Si3 0.190899 0.205059 0.687929
Si Si4 0.048419 0.191292 0.350823
Si Si5 0.094851 0.610006 0.406211
Si Si6 0.370068 0.122598 0.375946
Si Si7 0.994683 0.096663 0.801151
Si Si8 0.069714 0.684888 0.265522
O O1 0.161081 0.838598 0.006596
O O2 0.855788 0.716092 0.822510
O O3 0.121172 0.504994 0.963821
O O4 0.000000 0.642711 0.000000
O O5 0.879227 0.125768 0.073706
O O6 0.593344 0.066144 0.841586
O O7 0.132646 0.403302 0.633278
O O8 0.265617 0.111243 0.673340
O O9 0.049290 0.122571 0.648001
O O10 0.060734 0.405765 0.367045
O O11 0.237228 0.117790 0.460036
O O12 0.962013 0.153452 0.239776
O O13 0.941798 0.686090 0.355764
O O14 0.113194 0.714049 0.356862
O O15 0.500000 0.171042 0.500000
O O16 0.183919 0.178987 0.285166
O O17 0.975471 0.880672 0.785860
#
# Coordination Sequence:
#
# PCOD9121925 Si02
#       8
#     4   4   4   4   4   4   4   4
#     4  11  23  42  70  97 137 177 235 278 344 412
#     4  11  22  41  68  97 135 177 228 284 337 403
#     4   9  21  39  61  92 117 176 210 257 327 402
#     4  11  23  39  67  90 127 171 214 272 326 399
#     4  11  24  38  63  95 123 167 219 258 335 394
#     4  10  19  37  60  86 120 163 212 254 314 396
#     4  11  21  42  65  89 127 170 211 271 330 389
#     4  10  23  40  61  92 128 163 216 271 320 402
#
# _framework density 23.506079
#
# number of rings (size 3 to 8) (size 9 to 14) (size 15 to 20)
#    0.000    1.500    5.000    1.500   10.500    0.000 
#    0.000    4.375    5.500    0.000    0.000    0.000 
#    0.000    0.000    0.000    0.000    0.000    0.000 
#
# Total GULP energy -89250.423484 kJ/mol
# GULP energy per Si atom -5578.151468 kJ/mol
# Density = 2.345258 g / cm^3
# Si number density = 23.506079 Si / 1000 Ang^3
#
#
#
# Elastic Constant Matrix: (Units=GPa)
#
#
# Indices 1 2 3 4 5 6 
#
# 1 136.6619 16.2391 26.1695 0.0000 -0.0297 0.0000
# 2 16.2391 53.2732 -13.5642 0.0000 -0.8470 0.0000
# 3 26.1695 -13.5642 63.0015 0.0001 -4.5869 0.0000
# 4 0.0000 0.0000 0.0001 29.8466 0.0000 -3.5929
# 5 -0.0297 -0.8470 -4.5869 0.0000 45.0241 0.0000
# 6 0.0000 0.0000 0.0000 -3.5929 0.0000 14.8459
#
#
#
# Elastic Compliance Matrix: (Units=1/GPa)
#
#
# Indices 1 2 3 4 5 6 
#
# 1 0.008611 -0.003759 -0.004424 0.000000 -0.000516 0.000000
# 2 -0.003759 0.021531 0.006273 0.000000 0.001042 0.000000
# 3 -0.004424 0.006273 0.019212 0.000000 0.002072 0.000000
# 4 0.000000 0.000000 0.000000 0.034510 0.000000 0.008352
# 5 -0.000516 0.001042 0.002072 0.000000 0.022441 0.000000
# 6 0.000000 0.000000 0.000000 0.008352 0.000000 0.069380
#
#
# Mechanical properties :
#
#
# Convention : Reuss Voigt Hill
#
# Bulk Modulus (GPa) = 21.96201 34.51393 28.23797
# Shear Modulus (GPa) = 25.68287 32.88280 29.28284
#
# Velocity S-wave (km/s) = 3.30904 3.74425 3.53336
# Velocity P-wave (km/s) = 4.89521 5.77992 5.35586
#
# Compressibility (1/GPa) = 0.04553318
#
# Stress axis : x y z
#
# Youngs Moduli (GPa) = 116.12974 46.44482 52.05174
#
# Poissons Ratio (x) = 0.17461 0.23027
# Poissons Ratio (y) = 0.43658 -0.32652
# Poissons Ratio (z) = 0.51374 -0.29135
#
# Static dielectric constant tensor:
#      x y z
#    x 1.931730 0.000000 0.043910 
#    y 0.000000 1.986760 0.000000 
#    z 0.043910 0.000000 1.885010 
# 
# From -- ./inp_files/68787.got.cif
#   From: 2010.05.17/outbox.cif.g08.bks.cpg/sg5_35_cif.got.tgz:68787.got - 2010.06.03 18:56:24.
