data_PCOD9121028
_publ_section_title
;
Structure prediction by ZEFSAII (Michael W. Deem and Ramdas Pophale) SiO2 
 PCOD9121028
Probable space group: C 2
;
_chemical_formula_sum "Si O2"
_cell_formula_units_Z 32
_cell_length_a 11.023334
_cell_length_b 17.103626
_cell_length_c 15.660981
_cell_angle_alpha 90.000000
_cell_angle_beta 146.670816
_cell_angle_gamma 90.000000
_cell_volume 1622.359476
_symmetry_space_group_name_H-M "C 2"
_symmetry_group_IT_number 5
_symmetry_cell_setting 'monoclinic'
loop_
_space_group_symop_operation_xyz
x,y,z
-x,y,-z
1/2+x,1/2+y,z
1/2-x,1/2+y,-z
loop_
_atom_site_type_symbol
_atom_site_label
_atom_site_fract_x
_atom_site_fract_y
_atom_site_fract_z
Si Si1 0.319329 0.136000 0.816820
Si Si2 0.513478 0.296380 0.903843
Si Si3 0.506294 0.564263 0.754513
Si Si4 0.256723 0.934688 0.337683
Si Si5 0.014054 0.316634 0.905751
Si Si6 0.246819 0.550834 0.824072
Si Si7 0.069847 0.496233 0.895453
Si Si8 0.292601 0.180540 0.316058
O O1 0.365724 0.218950 0.800948
O O2 0.383173 0.060375 0.801033
O O3 0.086216 0.115553 0.721911
O O4 0.500000 0.139084 0.000000
O O5 0.408965 0.367946 0.790162
O O6 0.500000 0.311508 0.000000
O O7 0.761988 0.287386 0.011843
O O8 0.339154 0.491598 0.644576
O O9 0.398224 0.626203 0.755226
O O10 0.720524 0.523727 0.923865
O O11 0.500000 0.904041 0.500000
O O12 0.274159 0.993913 0.268576
O O13 0.003464 0.408913 0.880469
O O14 0.808867 0.265893 0.752257
O O15 0.000000 0.305795 0.000000
O O16 0.138357 0.506207 0.838525
O O17 0.153911 0.635385 0.741034
O O18 0.500000 0.563062 0.000000
O O19 0.500000 0.178131 0.500000
#
# Coordination Sequence:
#
# PCOD9121028 Si02
#       8
#     4   4   4   4   4   4   4   4
#     4   9  20  34  61  89 124 161 207 266 331 376
#     4  11  22  41  67  97 127 174 224 280 327 395
#     4  10  18  38  62  91 125 166 212 265 326 391
#     4  11  22  37  64  95 129 166 220 274 335 392
#     4  12  24  39  67 102 138 170 230 281 331 400
#     4  11  19  36  67  94 121 165 224 272 317 392
#     4  11  20  36  65  96 124 161 221 276 320 383
#     4  11  24  40  65  96 133 173 221 278 342 392
#
# _framework density 19.724357000000001
#
# number of rings (size 3 to 8) (size 9 to 14) (size 15 to 20)
#    0.000    1.250    3.750    6.375    1.750    0.000 
#    0.000    3.750    5.500    0.000    0.000    0.000 
#    0.000    0.000    0.000    0.000    0.000    0.000 
#
# Total GULP energy -89223.120482 kJ/mol
# GULP energy per Si atom -5576.445030 kJ/mol
# Density = 1.967946 g / cm^3
# Si number density = 19.724357 Si / 1000 Ang^3
#
#
#
# Elastic Constant Matrix: (Units=GPa)
#
#
# Indices 1 2 3 4 5 6 
#
# 1 63.5494 7.3590 -4.3941 -0.0003 -6.5904 -0.0003
# 2 7.3590 112.6143 8.7101 0.0010 -0.1704 0.0005
# 3 -4.3941 8.7101 52.6352 0.0024 -3.7245 0.0011
# 4 -0.0003 0.0010 0.0024 7.8693 0.0007 1.9209
# 5 -6.5904 -0.1704 -3.7245 0.0007 10.4960 0.0001
# 6 -0.0003 0.0005 0.0011 1.9209 0.0001 31.5987
#
#
#
# Elastic Compliance Matrix: (Units=1/GPa)
#
#
# Indices 1 2 3 4 5 6 
#
# 1 0.017273 -0.001303 0.002486 -0.000001 0.011706 0.000000
# 2 -0.001303 0.009095 -0.001704 -0.000001 -0.001275 0.000000
# 3 0.002486 -0.001704 0.020101 -0.000007 0.008666 0.000000
# 4 -0.000001 -0.000001 -0.000007 0.128990 -0.000012 -0.007842
# 5 0.011706 -0.001275 0.008666 -0.000012 0.105679 0.000000
# 6 0.000000 0.000000 0.000000 -0.007842 0.000000 0.032124
#
#
# Mechanical properties :
#
#
# Convention : Reuss Voigt Hill
#
# Bulk Modulus (GPa) = 22.01370 28.01653 25.01512
# Shear Modulus (GPa) = 15.17697 24.46774 19.82235
#
# Velocity S-wave (km/s) = 2.77691 3.52587 3.17356
# Velocity P-wave (km/s) = 4.63320 5.55072 5.11259
#
# Compressibility (1/GPa) = 0.04542625
#
# Stress axis : x y z
#
# Youngs Moduli (GPa) = 57.89509 109.95167 49.74766
#
# Poissons Ratio (x) = 0.14330 -0.12367
# Poissons Ratio (y) = 0.07545 0.08477
# Poissons Ratio (z) = -0.14393 0.18736
#
# Static dielectric constant tensor:
#      x y z
#    x 1.843560 0.000000 0.000150 
#    y 0.000000 1.706270 0.000000 
#    z 0.000150 0.000000 1.676320 
# 
# From -- ./inp_files/53484.got.cif
#   From: 2010.05.17/outbox.cif.g08.bks.cpg/sg5_27_cif.got.tgz:53484.got - 2010.06.03 18:56:24.
