data_PCOD9121665
_publ_section_title
;
Structure prediction by ZEFSAII (Michael W. Deem and Ramdas Pophale) SiO2 
 PCOD9121665
Probable space group: C 2
;
_chemical_formula_sum "Si O2"
_cell_formula_units_Z 30
_cell_length_a 23.269421
_cell_length_b 8.990768
_cell_length_c 10.924365
_cell_angle_alpha 90.000000
_cell_angle_beta 136.723322
_cell_angle_gamma 90.000000
_cell_volume 1566.751088
_symmetry_space_group_name_H-M "C 2"
_symmetry_group_IT_number 5
_symmetry_cell_setting 'monoclinic'
loop_
_space_group_symop_operation_xyz
x,y,z
-x,y,-z
1/2+x,1/2+y,z
1/2-x,1/2+y,-z
loop_
_atom_site_type_symbol
_atom_site_label
_atom_site_fract_x
_atom_site_fract_y
_atom_site_fract_z
Si Si1 0.500000 0.143790 0.000000
Si Si2 0.555056 0.012840 0.828819
Si Si3 0.226161 0.360291 0.160895
Si Si4 0.121812 0.441815 0.554435
Si Si5 0.329215 0.164676 0.152240
Si Si6 0.230293 0.173861 0.761827
Si Si7 0.757496 0.116898 0.611957
Si Si8 0.832776 0.816306 0.722276
O O1 0.528797 0.048859 0.927107
O O2 0.423092 0.247462 0.841963
O O3 0.589864 0.158210 0.810404
O O4 0.475060 0.955904 0.630533
O O5 0.636885 0.905765 0.962859
O O6 0.299459 0.306235 0.183107
O O7 0.259484 0.509879 0.278449
O O8 0.213900 0.224506 0.234414
O O9 0.150774 0.533413 0.719908
O O10 0.148325 0.270778 0.613163
O O11 0.176672 0.521355 0.532685
O O12 0.252190 0.145461 0.937832
O O13 0.301855 0.277739 0.811688
O O14 0.730949 0.224421 0.461788
O O15 0.824929 0.990763 0.686830
#
# Coordination Sequence:
#
# PCOD9121665 Si02
#       8
#     2   4   4   4   4   4   4   4
#     4  12  22  40  62  96 128 164 200 280 318 372
#     4  11  22  39  66  95 128 165 210 262 326 369
#     4  10  21  39  62  92 123 165 218 258 312 380
#     4  10  21  37  63  92 123 162 214 264 317 374
#     4  10  20  36  60  88 125 166 210 251 310 381
#     4  10  19  35  61  92 118 164 206 263 309 372
#     4  10  22  38  61  92 119 173 209 254 315 388
#     4  11  21  38  62  87 129 160 216 255 319 383
#
# _framework density 19.147905000000002
#
# number of rings (size 3 to 8) (size 9 to 14) (size 15 to 20)
#    0.000    1.600    4.000    2.800    0.000    0.000 
#    0.000    4.667    0.000   11.200    3.467    0.000 
#    0.000    0.000    0.000    0.000    0.000    0.000 
#
# Total GULP energy -83560.646300 kJ/mol
# GULP energy per Si atom -5570.709753 kJ/mol
# Density = 1.910432 g / cm^3
# Si number density = 19.147905 Si / 1000 Ang^3
#
#
#
# Elastic Constant Matrix: (Units=GPa)
#
#
# Indices 1 2 3 4 5 6 
#
# 1 63.0769 15.8255 30.8093 0.0000 3.3597 0.0000
# 2 15.8255 116.8066 56.2583 0.0000 9.0608 0.0000
# 3 30.8093 56.2583 110.8908 0.0000 14.8332 0.0000
# 4 0.0000 0.0000 0.0000 31.4564 0.0000 3.3700
# 5 3.3597 9.0608 14.8332 0.0000 31.3810 0.0000
# 6 0.0000 0.0000 0.0000 3.3700 0.0000 30.8547
#
#
#
# Elastic Compliance Matrix: (Units=1/GPa)
#
#
# Indices 1 2 3 4 5 6 
#
# 1 0.018350 -0.000049 -0.005137 0.000000 0.000478 0.000000
# 2 -0.000049 0.011340 -0.005660 0.000000 -0.000594 0.000000
# 3 -0.005137 -0.005660 0.013904 0.000000 -0.004388 0.000000
# 4 0.000000 0.000000 0.000000 0.032166 0.000000 -0.003513
# 5 0.000478 -0.000594 -0.004388 0.000000 0.034061 0.000000
# 6 0.000000 0.000000 0.000000 -0.003513 0.000000 0.032794
#
#
# Mechanical properties :
#
#
# Convention : Reuss Voigt Hill
#
# Bulk Modulus (GPa) = 45.66055 55.17338 50.41696
# Shear Modulus (GPa) = 29.13635 31.26385 30.20010
#
# Velocity S-wave (km/s) = 3.90506 4.04512 3.97571
# Velocity P-wave (km/s) = 6.65061 7.11999 6.88930
#
# Compressibility (1/GPa) = 0.02190074
#
# Stress axis : x y z
#
# Youngs Moduli (GPa) = 54.49667 88.18378 71.92334
#
# Poissons Ratio (x) = 0.00431 0.36949
# Poissons Ratio (y) = 0.00266 0.40710
# Poissons Ratio (z) = 0.27997 0.49913
#
# Static dielectric constant tensor:
#      x y z
#    x 1.727670 0.000000 -0.037950 
#    y 0.000000 1.687340 0.000000 
#    z -0.037950 0.000000 1.671640 
# 
# From -- ./inp_files/47320.got.cif
#   From: 2010.05.17/outbox.cif.g08.bks.cpg/sg5_24_cif.got.tgz:47320.got - 2010.06.03 18:56:24.
