data_PCOD9121892
_publ_section_title
;
Structure prediction by ZEFSAII (Michael W. Deem and Ramdas Pophale) SiO2 
 PCOD9121892
Probable space group: C 2
;
_chemical_formula_sum "Si O2"
_cell_formula_units_Z 24
_cell_length_a 21.736847
_cell_length_b 8.451573
_cell_length_c 11.298796
_cell_angle_alpha 90.000000
_cell_angle_beta 150.534888
_cell_angle_gamma 90.000000
_cell_volume 1021.027283
_symmetry_space_group_name_H-M "C 2"
_symmetry_group_IT_number 5
_symmetry_cell_setting 'monoclinic'
loop_
_space_group_symop_operation_xyz
x,y,z
-x,y,-z
1/2+x,1/2+y,z
1/2-x,1/2+y,-z
loop_
_atom_site_type_symbol
_atom_site_label
_atom_site_fract_x
_atom_site_fract_y
_atom_site_fract_z
Si Si1 0.929194 0.133130 0.550475
Si Si2 0.283526 0.352788 0.221933
Si Si3 0.067902 0.528637 0.000017
Si Si4 0.181041 0.614468 0.539606
Si Si5 0.255643 0.769558 0.434077
Si Si6 0.127886 0.327245 0.752283
O O1 0.883314 0.184291 0.602480
O O2 0.838053 0.236410 0.310468
O O3 0.062320 0.198064 0.731362
O O4 0.900544 0.954717 0.466023
O O5 0.164003 0.421679 0.091153
O O6 0.301497 0.174697 0.298310
O O7 0.246681 0.382869 0.024160
O O8 0.144538 0.671898 0.186597
O O9 0.000000 0.450107 0.000000
O O10 0.963427 0.587433 0.734376
O O11 0.233302 0.745882 0.535646
O O12 0.243621 0.449520 0.607043
O O13 0.000000 0.422951 0.500000
#
# Coordination Sequence:
#
# PCOD9121892 Si02
#       6
#     4   4   4   4   4   4
#     4   8  19  37  58  77 113 145 183 229 269 323
#     4  11  20  37  60  82 108 150 184 228 279 323
#     4   9  20  37  54  84 121 140 178 228 270 332
#     4  11  22  34  59  86 111 147 185 220 280 332
#     4  10  19  37  56  84 116 148 179 226 274 329
#     4   8  20  38  54  81 111 143 184 234 271 322
#
# _framework density 23.505737
#
# number of rings (size 3 to 8) (size 9 to 14) (size 15 to 20)
#    1.000    1.333    0.000    4.000    0.000    2.667 
#    0.000   12.500    0.000    4.000    0.000    0.000 
#    0.000    0.000    0.000    0.000    0.000    0.000 
#
# Total GULP energy -66915.717908 kJ/mol
# GULP energy per Si atom -5576.309826 kJ/mol
# Density = 2.345224 g / cm^3
# Si number density = 23.505737 Si / 1000 Ang^3
#
#
#
# Elastic Constant Matrix: (Units=GPa)
#
#
# Indices 1 2 3 4 5 6 
#
# 1 42.7616 -7.3021 15.1316 0.0000 2.7541 0.0000
# 2 -7.3021 64.7538 6.0550 0.0000 -7.7324 0.0000
# 3 15.1316 6.0550 69.5878 0.0000 -18.8249 0.0000
# 4 0.0000 0.0000 0.0000 23.5294 0.0000 -2.0372
# 5 2.7541 -7.7324 -18.8249 0.0000 37.5711 0.0000
# 6 0.0000 0.0000 0.0000 -2.0372 0.0000 26.0021
#
#
#
# Elastic Compliance Matrix: (Units=1/GPa)
#
#
# Indices 1 2 3 4 5 6 
#
# 1 0.026900 0.003127 -0.007497 0.000000 -0.005084 0.000000
# 2 0.003127 0.016216 -0.001446 0.000000 0.002383 0.000000
# 3 -0.007497 -0.001446 0.018734 0.000000 0.009638 0.000000
# 4 0.000000 0.000000 0.000000 0.042790 0.000000 0.003352
# 5 -0.005084 0.002383 0.009638 0.000000 0.032309 0.000000
# 6 0.000000 0.000000 0.000000 0.003352 0.000000 0.038721
#
#
# Mechanical properties :
#
#
# Convention : Reuss Voigt Hill
#
# Bulk Modulus (GPa) = 19.91333 22.76355 21.33844
# Shear Modulus (GPa) = 24.50503 28.30178 26.40341
#
# Velocity S-wave (km/s) = 3.23230 3.47369 3.35517
# Velocity P-wave (km/s) = 4.73502 5.07878 4.90991
#
# Compressibility (1/GPa) = 0.05021761
#
# Stress axis : x y z
#
# Youngs Moduli (GPa) = 37.17505 61.66896 53.37980
#
# Poissons Ratio (x) = -0.19286 0.40018
# Poissons Ratio (y) = -0.11626 0.07720
# Poissons Ratio (z) = 0.27869 0.08919
#
# Static dielectric constant tensor:
#      x y z
#    x 1.936320 0.000000 -0.039500 
#    y 0.000000 1.943650 0.000000 
#    z -0.039500 0.000000 1.935500 
# 
# From -- ./inp_files/47359.got.cif
#   From: 2010.05.17/outbox.cif.g08.bks.cpg/sg5_24_cif.got.tgz:47359.got - 2010.06.03 18:56:24.
