data_PCOD9121876
_publ_section_title
;
Structure prediction by ZEFSAII (Michael W. Deem and Ramdas Pophale) SiO2 
 PCOD9121876
Probable space group: C 2
;
_chemical_formula_sum "Si O2"
_cell_formula_units_Z 28
_cell_length_a 20.170655
_cell_length_b 14.015841
_cell_length_c 8.551523
_cell_angle_alpha 90.000000
_cell_angle_beta 146.276740
_cell_angle_gamma 90.000000
_cell_volume 1342.202694
_symmetry_space_group_name_H-M "C 2"
_symmetry_group_IT_number 5
_symmetry_cell_setting 'monoclinic'
loop_
_space_group_symop_operation_xyz
x,y,z
-x,y,-z
1/2+x,1/2+y,z
1/2-x,1/2+y,-z
loop_
_atom_site_type_symbol
_atom_site_label
_atom_site_fract_x
_atom_site_fract_y
_atom_site_fract_z
Si Si1 0.701940 0.164260 0.625465
Si Si2 0.134259 0.485799 0.706452
Si Si3 0.012309 0.812300 0.343628
Si Si4 0.651787 0.508803 0.662140
Si Si5 0.241047 0.306853 0.744500
Si Si6 0.135128 0.147749 0.332145
Si Si7 0.629016 0.693415 0.792792
O O1 0.654562 0.084009 0.651776
O O2 0.598821 0.242998 0.415541
O O3 0.759646 0.121575 0.583004
O O4 0.819138 0.211518 0.936299
O O5 0.178075 0.403479 0.674819
O O6 0.000000 0.476603 0.500000
O O7 0.216702 0.478893 0.023404
O O8 0.000000 0.775875 0.500000
O O9 0.072668 0.915704 0.482903
O O10 0.882855 0.820460 0.009657
O O11 0.641104 0.574070 0.488125
O O12 0.619545 0.580401 0.741894
O O13 0.174750 0.251771 0.474999
O O14 0.223031 0.236098 0.856657
O O15 0.000000 0.146929 0.000000
O O16 0.500000 0.735237 0.500000
#
# Coordination Sequence:
#
# PCOD9121876 Si02
#       7
#     4   4   4   4   4   4   4
#     4  11  24  40  64  99 141 180 213 280 346 403
#     4  11  24  42  71 103 137 174 236 288 340 390
#     4  12  22  42  71 104 133 170 237 289 332 400
#     4  10  23  41  70 100 133 177 233 284 334 393
#     4  11  24  42  70  99 134 179 230 283 339 394
#     4  11  27  47  67  99 145 183 224 272 348 420
#     4  10  19  36  66  96 129 175 231 282 327 385
#
# _framework density 20.861229999999999
#
# number of rings (size 3 to 8) (size 9 to 14) (size 15 to 20)
#    0.000    1.143    2.857    3.000    8.000    2.857 
#    0.000    0.000    0.000    0.000    0.000    0.000 
#    0.000    0.000    0.000    0.000    0.000    0.000 
#
# Total GULP energy -78149.038147 kJ/mol
# GULP energy per Si atom -5582.074153 kJ/mol
# Density = 2.081375 g / cm^3
# Si number density = 20.861230 Si / 1000 Ang^3
#
#
#
# Elastic Constant Matrix: (Units=GPa)
#
#
# Indices 1 2 3 4 5 6 
#
# 1 65.4048 20.3323 58.1244 0.0000 20.4205 0.0000
# 2 20.3323 100.1605 47.0977 0.0000 20.5385 0.0000
# 3 58.1244 47.0977 141.9006 0.0000 31.8968 0.0000
# 4 0.0000 0.0000 0.0000 24.2082 0.0000 -0.0784
# 5 20.4205 20.5385 31.8968 0.0000 36.9280 0.0000
# 6 0.0000 0.0000 0.0000 -0.0784 0.0000 29.5273
#
#
#
# Elastic Compliance Matrix: (Units=1/GPa)
#
#
# Indices 1 2 3 4 5 6 
#
# 1 0.025155 0.000440 -0.009019 0.000000 -0.006364 0.000000
# 2 0.000440 0.012323 -0.003319 0.000000 -0.004230 0.000000
# 3 -0.009019 -0.003319 0.012791 0.000000 -0.004214 0.000000
# 4 0.000000 0.000000 0.000000 0.041309 0.000000 0.000110
# 5 -0.006364 -0.004230 -0.004214 0.000000 0.036592 0.000000
# 6 0.000000 0.000000 0.000000 0.000110 0.000000 0.033867
#
#
# Mechanical properties :
#
#
# Convention : Reuss Voigt Hill
#
# Bulk Modulus (GPa) = 37.77749 62.06386 49.92067
# Shear Modulus (GPa) = 25.68615 30.26015 27.97315
#
# Velocity S-wave (km/s) = 3.51278 3.81273 3.66582
# Velocity P-wave (km/s) = 5.88227 7.01413 6.47298
#
# Compressibility (1/GPa) = 0.02647079
#
# Stress axis : x y z
#
# Youngs Moduli (GPa) = 39.75355 81.14982 78.18250
#
# Poissons Ratio (x) = -0.03568 0.70514
# Poissons Ratio (y) = -0.01748 0.25952
# Poissons Ratio (z) = 0.35854 0.26937
#
# Static dielectric constant tensor:
#      x y z
#    x 1.767080 0.000000 0.009430 
#    y 0.000000 1.768140 0.000000 
#    z 0.009430 0.000000 1.796800 
# 
# From -- ./inp_files/29925.got.cif
#   From: 2010.05.17/outbox.cif.g08.bks.cpg/sg5_15_cif.got.tgz:29925.got - 2010.06.03 18:56:24.
