data_PCOD9121978
_publ_section_title
;
Structure prediction by ZEFSAII (Michael W. Deem and Ramdas Pophale) SiO2 
 PCOD9121978
Probable space group: C 2
;
_chemical_formula_sum "Si O2"
_cell_formula_units_Z 26
_cell_length_a 15.531604
_cell_length_b 8.656753
_cell_length_c 11.255871
_cell_angle_alpha 90.000000
_cell_angle_beta 56.358164
_cell_angle_gamma 90.000000
_cell_volume 1259.921609
_symmetry_space_group_name_H-M "C 2"
_symmetry_group_IT_number 5
_symmetry_cell_setting 'monoclinic'
loop_
_space_group_symop_operation_xyz
x,y,z
-x,y,-z
1/2+x,1/2+y,z
1/2-x,1/2+y,-z
loop_
_atom_site_type_symbol
_atom_site_label
_atom_site_fract_x
_atom_site_fract_y
_atom_site_fract_z
Si Si1 0.000000 0.268450 0.000000
Si Si2 0.055776 0.026442 0.775285
Si Si3 0.292935 0.952148 0.209497
Si Si4 0.610058 0.023183 0.376687
Si Si5 0.433683 0.339626 0.673729
Si Si6 0.792440 0.801847 0.247580
Si Si7 0.252812 0.723903 0.445353
O O1 0.006453 0.158240 0.109648
O O2 0.894734 0.365723 0.085769
O O3 0.145844 0.117561 0.636040
O O4 0.113186 0.920678 0.829525
O O5 0.994326 0.918741 0.733357
O O6 0.181518 0.908715 0.241256
O O7 0.278570 0.881143 0.353682
O O8 0.308568 0.133839 0.182849
O O9 0.500000 0.955394 0.500000
O O10 0.581741 0.155059 0.303135
O O11 0.666530 0.126026 0.437595
O O12 0.690981 0.892106 0.280426
O O13 0.500000 0.364481 0.500000
O O14 0.777754 0.767447 0.399395
#
# Coordination Sequence:
#
# PCOD9121978 Si02
#       7
#     2   4   4   4   4   4   4
#     4  10  24  46  58  78 116 172 212 238 284 348
#     4  10  21  38  62  83 117 159 202 244 288 358
#     4  10  21  37  59  85 122 155 199 247 290 357
#     4   9  18  30  49  84 127 151 180 233 300 366
#     4  10  19  37  63  93 120 148 186 251 314 346
#     4  11  19  32  58  90 118 155 196 247 305 353
#     4   9  18  34  57  88 121 156 193 241 303 356
#
# _framework density 20.636202999999998
#
# number of rings (size 3 to 8) (size 9 to 14) (size 15 to 20)
#    0.000    2.154    0.000    6.462    0.000    2.462 
#    0.000    4.615    0.000    3.692    0.000    0.000 
#    0.000    0.000    0.000    0.000    0.000    0.000 
#
# Total GULP energy -72565.177271 kJ/mol
# GULP energy per Si atom -5581.936713 kJ/mol
# Density = 2.058923 g / cm^3
# Si number density = 20.636203 Si / 1000 Ang^3
#
#
#
# Elastic Constant Matrix: (Units=GPa)
#
#
# Indices 1 2 3 4 5 6 
#
# 1 106.5298 53.5001 35.4949 0.0000 -28.4179 0.0000
# 2 53.5001 141.9057 32.5975 0.0000 -19.7021 0.0000
# 3 35.4949 32.5975 57.9049 0.0000 -26.4690 0.0000
# 4 0.0000 0.0000 0.0000 21.2185 0.0000 -0.8804
# 5 -28.4179 -19.7021 -26.4690 0.0000 22.9513 0.0000
# 6 0.0000 0.0000 0.0000 -0.8804 0.0000 22.8843
#
#
#
# Elastic Compliance Matrix: (Units=1/GPa)
#
#
# Indices 1 2 3 4 5 6 
#
# 1 0.015490 -0.003587 -0.000246 0.000000 0.015816 0.000000
# 2 -0.003587 0.009066 -0.002914 0.000000 -0.000020 0.000000
# 3 -0.000246 -0.002914 0.037600 0.000000 0.040557 0.000000
# 4 0.000000 0.000000 0.000000 0.047204 0.000000 0.001816
# 5 0.015816 -0.000020 0.040557 0.000000 0.109911 0.000000
# 6 0.000000 0.000000 0.000000 0.001816 0.000000 0.043768
#
#
# Mechanical properties :
#
#
# Convention : Reuss Voigt Hill
#
# Bulk Modulus (GPa) = 20.54989 61.05838 40.80414
# Shear Modulus (GPa) = 17.07931 25.72734 21.40332
#
# Velocity S-wave (km/s) = 2.87999 3.53471 3.22401
# Velocity P-wave (km/s) = 4.58682 6.80523 5.80302
#
# Compressibility (1/GPa) = 0.04866205
#
# Stress axis : x y z
#
# Youngs Moduli (GPa) = 64.55919 110.30198 26.59600
#
# Poissons Ratio (x) = 0.39570 0.00653
# Poissons Ratio (y) = 0.23160 0.07749
# Poissons Ratio (z) = 0.01586 0.32137
#
# Static dielectric constant tensor:
#      x y z
#    x 1.746470 0.000000 -0.004080 
#    y 0.000000 1.756770 0.000000 
#    z -0.004080 0.000000 1.758070 
# 
# From -- ./inp_files/41622.got.cif
#   From: 2010.05.17/outbox.cif.g08.bks.cpg/sg5_21_cif.got.tgz:41622.got - 2010.06.03 18:56:24.
