data_PCOD9121576
_publ_section_title
;
Structure prediction by ZEFSAII (Michael W. Deem and Ramdas Pophale) SiO2 
 PCOD9121576
Probable space group: C 2
;
_chemical_formula_sum "Si O2"
_cell_formula_units_Z 32
_cell_length_a 8.658545
_cell_length_b 14.604614
_cell_length_c 16.928749
_cell_angle_alpha 90.000000
_cell_angle_beta 59.238212
_cell_angle_gamma 90.000000
_cell_volume 1839.523268
_symmetry_space_group_name_H-M "C 2"
_symmetry_group_IT_number 5
_symmetry_cell_setting 'monoclinic'
loop_
_space_group_symop_operation_xyz
x,y,z
-x,y,-z
1/2+x,1/2+y,z
1/2-x,1/2+y,-z
loop_
_atom_site_type_symbol
_atom_site_label
_atom_site_fract_x
_atom_site_fract_y
_atom_site_fract_z
Si Si1 0.460414 0.300860 0.854291
Si Si2 0.536881 0.303402 0.649779
Si Si3 0.685979 0.451485 0.500000
Si Si4 0.668996 0.800860 0.145709
Si Si5 0.314019 0.155112 0.500000
Si Si6 0.314140 0.660850 1.000000
Si Si7 0.812648 0.951345 1.000000
Si Si8 0.336438 0.803402 0.350221
O O1 0.506916 0.302988 0.750409
O O2 0.642807 0.295667 0.857193
O O3 0.335287 0.215772 0.911396
O O4 0.355098 0.391859 0.911078
O O5 0.643444 0.391937 0.589233
O O6 0.643085 0.214785 0.589189
O O7 0.343575 0.303344 0.656425
O O8 0.500000 0.454640 0.500000
O O9 0.749778 0.553347 0.500000
O O10 0.821911 0.391937 0.410767
O O11 0.677254 0.891859 0.088922
O O12 0.507733 0.802988 0.249591
O O13 0.658078 0.715772 0.088605
O O14 0.500000 0.151489 0.500000
O O15 0.178536 0.214786 0.589189
O O16 0.259293 0.555740 1.000000
O O17 0.500000 0.662478 0.000000
O O18 0.000000 0.953976 0.000000
#
# Coordination Sequence:
#
# PCOD9121576 Si02
#       8
#     4   4   4   4   4   4   4   4
#     4  10  20  35  53  77 105 132 168 215 254 295
#     4   9  19  36  53  73 103 139 171 205 254 310
#     4   9  19  35  54  76 104 133 171 217 254 294
#     4  10  20  35  53  77 105 132 168 215 254 295
#     4   9  19  35  54  74 102 137 173 209 252 306
#     4  10  19  35  56  75 100 137 171 204 252 310
#     4   8  18  35  52  71 100 133 165 202 250 302
#     4   9  19  36  53  73 103 139 171 205 254 310
#
# _framework density 17.395813
#
# number of rings (size 3 to 8) (size 9 to 14) (size 15 to 20)
#    0.000    2.750    0.000    3.375    0.000    4.000 
#    0.000   17.500    0.000    0.000    0.000    0.000 
#    0.000    0.000    0.000    0.000    0.000    0.000 
#
# Total GULP energy -89227.320706 kJ/mol
# GULP energy per Si atom -5576.707544 kJ/mol
# Density = 1.735622 g / cm^3
# Si number density = 17.395813 Si / 1000 Ang^3
#
#
#
# Elastic Constant Matrix: (Units=GPa)
#
#
# Indices 1 2 3 4 5 6 
#
# 1 36.2275 41.3464 45.5018 0.0000 -3.6246 0.0000
# 2 41.3464 202.2580 109.7903 0.0000 -3.6627 0.0000
# 3 45.5018 109.7903 195.6745 0.0000 -4.9079 0.0000
# 4 0.0000 0.0000 0.0000 6.1503 0.0000 1.3087
# 5 -3.6246 -3.6627 -4.9079 0.0000 29.2985 0.0000
# 6 0.0000 0.0000 0.0000 1.3087 0.0000 30.6057
#
#
#
# Elastic Compliance Matrix: (Units=1/GPa)
#
#
# Indices 1 2 3 4 5 6 
#
# 1 0.042241 -0.004727 -0.007084 0.000000 0.003448 0.000000
# 2 -0.004727 0.007640 -0.003192 0.000000 -0.000164 0.000000
# 3 -0.007084 -0.003192 0.008552 0.000000 0.000157 0.000000
# 4 0.000000 0.000000 0.000000 0.164087 0.000000 -0.007016
# 5 0.003448 -0.000164 0.000157 0.000000 0.034564 0.000000
# 6 0.000000 0.000000 0.000000 -0.007016 0.000000 0.032974
#
#
# Mechanical properties :
#
#
# Convention : Reuss Voigt Hill
#
# Bulk Modulus (GPa) = 35.17656 91.93742 63.55699
# Shear Modulus (GPa) = 15.17272 29.04566 22.10919
#
# Velocity S-wave (km/s) = 2.95652 4.09062 3.56890
# Velocity P-wave (km/s) = 5.64976 8.67617 7.32106
#
# Compressibility (1/GPa) = 0.02842802
#
# Stress axis : x y z
#
# Youngs Moduli (GPa) = 23.67386 130.88923 116.92614
#
# Poissons Ratio (x) = 0.61877 0.82826
# Poissons Ratio (y) = 0.11192 0.37317
# Poissons Ratio (z) = 0.16770 0.41774
#
# Static dielectric constant tensor:
#      x y z
#    x 1.591460 0.000000 0.001380 
#    y 0.000000 1.582160 0.000000 
#    z 0.001380 0.000000 1.565570 
# 
# From -- ./inp_files/50732.got.cif
#   From: 2010.05.17/outbox.cif.g08.bks.cpg/sg5_26_cif.got.tgz:50732.got - 2010.06.03 18:56:24.
