data_PCOD9121627
_publ_section_title
;
Structure prediction by ZEFSAII (Michael W. Deem and Ramdas Pophale) SiO2 
 PCOD9121627
Probable space group: C 2
;
_chemical_formula_sum "Si O2"
_cell_formula_units_Z 32
_cell_length_a 20.746256
_cell_length_b 11.729186
_cell_length_c 10.416723
_cell_angle_alpha 90.000000
_cell_angle_beta 134.352378
_cell_angle_gamma 90.000000
_cell_volume 1812.498021
_symmetry_space_group_name_H-M "C 2"
_symmetry_group_IT_number 5
_symmetry_cell_setting 'monoclinic'
loop_
_space_group_symop_operation_xyz
x,y,z
-x,y,-z
1/2+x,1/2+y,z
1/2-x,1/2+y,-z
loop_
_atom_site_type_symbol
_atom_site_label
_atom_site_fract_x
_atom_site_fract_y
_atom_site_fract_z
Si Si1 0.745767 0.228930 0.815633
Si Si2 0.460845 0.567871 0.739411
Si Si3 0.241068 0.110203 0.886989
Si Si4 0.359821 0.918531 0.078348
Si Si5 0.600360 0.424775 0.585940
Si Si6 0.464118 0.805158 0.593008
Si Si7 0.278962 0.855852 0.241905
Si Si8 0.855529 0.038044 0.858192
O O1 0.657140 0.306446 0.670292
O O2 0.777100 0.133106 0.760748
O O3 0.749654 0.162153 0.957224
O O4 0.824834 0.322205 0.933888
O O5 0.418683 0.478212 0.580324
O O6 0.456007 0.692411 0.667286
O O7 0.404494 0.554528 0.791312
O O8 0.565833 0.550475 0.924706
O O9 0.231561 0.220280 0.785517
O O10 0.159301 0.020700 0.746404
O O11 0.331894 0.040290 0.987533
O O12 0.461530 0.891550 0.251310
O O13 0.301940 0.901991 0.130236
O O14 0.500000 0.408641 0.500000
O O15 0.500000 0.770011 0.500000
O O16 0.370197 0.869686 0.448516
O O17 0.194712 0.919346 0.184960
#
# Coordination Sequence:
#
# PCOD9121627 Si02
#       8
#     4   4   4   4   4   4   4   4
#     4  10  20  36  58  88 118 147 184 248 289 342
#     4  11  23  38  60  83 112 164 196 243 273 350
#     4  10  19  35  59  87 112 153 182 236 302 335
#     4   9  18  32  59  86 114 139 188 240 290 338
#     4  11  23  37  60  91 117 147 199 243 291 346
#     4  10  19  35  59  90 111 141 195 243 285 343
#     4  10  20  33  57  85 115 153 182 240 288 349
#     4  11  23  40  57  83 120 154 204 229 294 352
#
# _framework density 17.655190999999999
#
# number of rings (size 3 to 8) (size 9 to 14) (size 15 to 20)
#    0.000    1.750    3.750    1.125    5.250    1.000 
#    2.250    0.000    0.000    0.000    0.000    0.000 
#    0.000    0.000    0.000    0.000    0.000    0.000 
#
# Total GULP energy -89166.954736 kJ/mol
# GULP energy per Si atom -5572.934671 kJ/mol
# Density = 1.761501 g / cm^3
# Si number density = 17.655191 Si / 1000 Ang^3
#
#
#
# Elastic Constant Matrix: (Units=GPa)
#
#
# Indices 1 2 3 4 5 6 
#
# 1 54.4777 26.8176 34.4754 0.0000 12.7534 0.0000
# 2 26.8176 83.8681 40.9909 0.0000 21.9567 0.0000
# 3 34.4754 40.9909 109.1490 0.0000 15.0337 0.0000
# 4 0.0000 0.0000 0.0000 24.6508 0.0000 7.2235
# 5 12.7534 21.9567 15.0337 0.0000 22.9365 0.0000
# 6 0.0000 0.0000 0.0000 7.2235 0.0000 17.1704
#
#
#
# Elastic Compliance Matrix: (Units=1/GPa)
#
#
# Indices 1 2 3 4 5 6 
#
# 1 0.025331 -0.003461 -0.005735 0.000000 -0.007013 0.000000
# 2 -0.003461 0.018418 -0.004024 0.000000 -0.013070 0.000000
# 3 -0.005735 -0.004024 0.012657 0.000000 -0.001255 0.000000
# 4 0.000000 0.000000 0.000000 0.046271 0.000000 -0.019466
# 5 -0.007013 -0.013070 -0.001255 0.000000 0.060833 0.000000
# 6 0.000000 0.000000 0.000000 -0.019466 0.000000 0.066429
#
#
# Mechanical properties :
#
#
# Convention : Reuss Voigt Hill
#
# Bulk Modulus (GPa) = 33.36987 50.22916 41.79952
# Shear Modulus (GPa) = 18.77105 22.63227 20.70166
#
# Velocity S-wave (km/s) = 3.26422 3.58425 3.42797
# Velocity P-wave (km/s) = 5.75749 6.75581 6.27653
#
# Compressibility (1/GPa) = 0.02996715
#
# Stress axis : x y z
#
# Youngs Moduli (GPa) = 39.47736 54.29336 79.00537
#
# Poissons Ratio (x) = 0.18789 0.45313
# Poissons Ratio (y) = 0.13662 0.31790
# Poissons Ratio (z) = 0.22642 0.21846
#
# Static dielectric constant tensor:
#      x y z
#    x 1.606590 0.000000 -0.012080 
#    y 0.000000 1.623860 0.000000 
#    z -0.012080 0.000000 1.625780 
# 
# From -- ./inp_files/46342.got.cif
#   From: 2010.05.17/outbox.cif.g08.bks.cpg/sg5_24_cif.got.tgz:46342.got - 2010.06.03 18:56:24.
