data_PCOD9121111
_publ_section_title
;
Structure prediction by ZEFSAII (Michael W. Deem and Ramdas Pophale) SiO2 
 PCOD9121111
Probable space group: C 2
;
_chemical_formula_sum "Si O2"
_cell_formula_units_Z 32
_cell_length_a 15.106328
_cell_length_b 11.540877
_cell_length_c 18.528656
_cell_angle_alpha 90.000000
_cell_angle_beta 147.980311
_cell_angle_gamma 90.000000
_cell_volume 1712.734680
_symmetry_space_group_name_H-M "C 2"
_symmetry_group_IT_number 5
_symmetry_cell_setting 'monoclinic'
loop_
_space_group_symop_operation_xyz
x,y,z
-x,y,-z
1/2+x,1/2+y,z
1/2-x,1/2+y,-z
loop_
_atom_site_type_symbol
_atom_site_label
_atom_site_fract_x
_atom_site_fract_y
_atom_site_fract_z
Si Si1 0.177371 0.746810 0.858916
Si Si2 0.692202 0.980024 0.114803
Si Si3 0.885606 0.144507 0.135847
Si Si4 0.498964 0.797650 0.654948
Si Si5 0.256829 0.541178 0.654816
Si Si6 0.051123 0.564419 0.655035
Si Si7 0.812885 0.784511 0.653215
Si Si8 0.841360 0.116582 0.345021
O O1 0.276899 0.847907 0.886716
O O2 0.111710 0.648291 0.759493
O O3 0.005910 0.801047 0.770402
O O4 0.284957 0.693094 0.998085
O O5 0.769117 0.060639 0.104379
O O6 0.782910 0.016668 0.251478
O O7 0.500000 0.003492 0.000000
O O8 0.947765 0.247509 0.231372
O O9 0.054494 0.080388 0.227541
O O10 0.305433 0.775642 0.499147
O O11 0.598794 0.722629 0.664412
O O12 0.542235 0.932218 0.676673
O O13 0.180414 0.576602 0.678395
O O14 0.246937 0.401468 0.645049
O O15 0.131996 0.587110 0.506061
O O16 0.786306 0.673344 0.686184
O O17 0.000000 0.076455 0.500000
#
# Coordination Sequence:
#
# PCOD9121111 Si02
#       8
#     4   4   4   4   4   4   4   4
#     4  12  26  39  59  87 126 163 197 242 297 357
#     4  11  25  44  56  85 125 161 198 244 296 350
#     4  11  24  41  63  85 121 162 202 246 288 359
#     4   9  19  37  67  92 116 148 199 252 301 348
#     4  10  20  41  64  91 119 150 200 248 299 353
#     4  10  22  39  64  92 120 153 192 248 306 358
#     4  10  18  39  66  92 115 149 202 253 291 353
#     4   9  18  39  68  91 111 151 202 250 299 350
#
# _framework density 18.683571000000001
#
# number of rings (size 3 to 8) (size 9 to 14) (size 15 to 20)
#    0.000    1.750    2.500    1.500    3.500    0.000 
#    2.250    0.000    0.000    0.000    0.000    0.000 
#    0.000    0.000    0.000    0.000    0.000    0.000 
#
# Total GULP energy -89291.481219 kJ/mol
# GULP energy per Si atom -5580.717576 kJ/mol
# Density = 1.864105 g / cm^3
# Si number density = 18.683571 Si / 1000 Ang^3
#
#
#
# Elastic Constant Matrix: (Units=GPa)
#
#
# Indices 1 2 3 4 5 6 
#
# 1 73.8114 30.1992 60.0685 0.0000 2.5584 0.0001
# 2 30.1992 74.8641 52.6058 0.0001 -18.5112 -0.0002
# 3 60.0685 52.6058 122.5861 0.0004 -17.2245 -0.0005
# 4 0.0000 0.0001 0.0004 20.7031 0.0000 -1.6549
# 5 2.5584 -18.5112 -17.2245 0.0000 41.3252 -0.0003
# 6 0.0001 -0.0002 -0.0005 -1.6549 -0.0003 17.2725
#
#
#
# Elastic Compliance Matrix: (Units=1/GPa)
#
#
# Indices 1 2 3 4 5 6 
#
# 1 0.024936 -0.003841 -0.011715 0.000000 -0.008147 -0.000001
# 2 -0.003841 0.020954 -0.006116 0.000000 0.007075 0.000000
# 3 -0.011715 -0.006116 0.017250 0.000000 0.005176 0.000001
# 4 0.000000 0.000000 0.000000 0.048675 0.000000 0.004663
# 5 -0.008147 0.007075 0.005176 0.000000 0.030029 0.000001
# 6 -0.000001 0.000000 0.000001 0.004663 0.000001 0.058342
#
#
# Mechanical properties :
#
#
# Convention : Reuss Voigt Hill
#
# Bulk Modulus (GPa) = 50.51725 61.88985 56.20355
# Shear Modulus (GPa) = 19.98972 24.41936 22.20454
#
# Velocity S-wave (km/s) = 3.27449 3.61916 3.45113
# Velocity P-wave (km/s) = 6.43377 7.11770 6.78436
#
# Compressibility (1/GPa) = 0.01979522
#
# Stress axis : x y z
#
# Youngs Moduli (GPa) = 40.10248 47.72410 57.97165
#
# Poissons Ratio (x) = 0.18332 0.67916
# Poissons Ratio (y) = 0.15405 0.35453
# Poissons Ratio (z) = 0.46981 0.29186
#
# Static dielectric constant tensor:
#      x y z
#    x 1.638650 0.000000 0.009760 
#    y 0.000000 1.629390 0.000000 
#    z 0.009760 0.000000 1.649980 
# 
# From -- ./inp_files/23647.got.cif
#   From: 2010.05.17/outbox.cif.g08.bks.cpg/sg5_12_cif.got.tgz:23647.got - 2010.06.03 18:56:24.
