data_PCOD9121481
_publ_section_title
;
Structure prediction by ZEFSAII (Michael W. Deem and Ramdas Pophale) SiO2 
 PCOD9121481
Probable space group: C 2
;
_chemical_formula_sum "Si O2"
_cell_formula_units_Z 32
_cell_length_a 20.738829
_cell_length_b 7.372567
_cell_length_c 14.735248
_cell_angle_alpha 90.000000
_cell_angle_beta 140.186960
_cell_angle_gamma 90.000000
_cell_volume 1442.558460
_symmetry_space_group_name_H-M "C 2"
_symmetry_group_IT_number 5
_symmetry_cell_setting 'monoclinic'
loop_
_space_group_symop_operation_xyz
x,y,z
-x,y,-z
1/2+x,1/2+y,z
1/2-x,1/2+y,-z
loop_
_atom_site_type_symbol
_atom_site_label
_atom_site_fract_x
_atom_site_fract_y
_atom_site_fract_z
Si Si1 0.161547 0.491630 0.308583
Si Si2 0.382079 0.734652 0.373081
Si Si3 0.314300 0.273438 0.169166
Si Si4 0.474819 0.413068 0.678905
Si Si5 0.326283 0.320325 0.373392
Si Si6 0.991709 0.765595 0.090201
Si Si7 0.152298 0.260603 0.474943
Si Si8 0.722152 0.142992 0.064842
O O1 0.216552 0.356234 0.297399
O O2 0.139116 0.393479 0.378123
O O3 0.246769 0.641154 0.424376
O O4 0.064092 0.589921 0.163913
O O5 0.500000 0.771930 0.500000
O O6 0.365058 0.519613 0.379490
O O7 0.340388 0.839871 0.415993
O O8 0.316411 0.750170 0.211301
O O9 0.415574 0.370715 0.241874
O O10 0.332574 0.198147 0.290132
O O11 0.232460 0.430345 0.095751
O O12 0.281142 0.156093 0.047661
O O13 0.399617 0.287432 0.537943
O O14 0.468955 0.373886 0.779310
O O15 0.440395 0.619113 0.627626
O O16 0.877878 0.716239 0.994801
O O17 0.000000 0.854949 0.000000
#
# Coordination Sequence:
#
# PCOD9121481 Si02
#       8
#     4   4   4   4   4   4   4   4
#     4  10  20  34  54  80 107 140 179 220 269 318
#     4   9  17  33  56  78  99 134 181 220 262 317
#     4  10  19  35  52  76 106 135 176 222 269 321
#     4   9  19  34  57  79 100 138 182 224 269 313
#     4   9  16  31  55  77  99 135 178 217 255 309
#     4  11  21  36  53  76 111 147 180 218 270 326
#     4  10  19  34  57  81 106 137 181 230 265 311
#     4  10  21  33  53  77 105 142 173 217 275 325
#
# _framework density 22.18281
#
# number of rings (size 3 to 8) (size 9 to 14) (size 15 to 20)
#    0.000    2.500    0.000    7.125    0.000    2.000 
#    0.000    5.625    0.000    0.000    0.000    0.000 
#    0.000    0.000    0.000    0.000    0.000    0.000 
#
# Total GULP energy -89263.652504 kJ/mol
# GULP energy per Si atom -5578.978282 kJ/mol
# Density = 2.213232 g / cm^3
# Si number density = 22.182810 Si / 1000 Ang^3
#
#
#
# Elastic Constant Matrix: (Units=GPa)
#
#
# Indices 1 2 3 4 5 6 
#
# 1 71.5647 5.8397 39.4111 0.0000 -44.4347 0.0000
# 2 5.8397 12.3024 10.3414 0.0000 -11.1244 0.0000
# 3 39.4111 10.3414 114.9968 0.0000 -26.9474 0.0000
# 4 0.0000 0.0000 0.0000 23.1377 0.0000 -14.6720
# 5 -44.4347 -11.1244 -26.9474 0.0000 54.7673 0.0000
# 6 0.0000 0.0000 0.0000 -14.6720 0.0000 21.2208
#
#
#
# Elastic Compliance Matrix: (Units=1/GPa)
#
#
# Indices 1 2 3 4 5 6 
#
# 1 0.032431 0.013308 -0.006230 0.000000 0.025950 0.000000
# 2 0.013308 0.107399 -0.007434 0.000000 0.028955 0.000000
# 3 -0.006230 -0.007434 0.011259 0.000000 -0.001025 0.000000
# 4 0.000000 0.000000 0.000000 0.076961 0.000000 0.053210
# 5 0.025950 0.028955 -0.001025 0.000000 0.044690 0.000000
# 6 0.000000 0.000000 0.000000 0.053210 0.000000 0.083913
#
#
# Mechanical properties :
#
#
# Convention : Reuss Voigt Hill
#
# Bulk Modulus (GPa) = 6.64996 34.44981 20.54989
# Shear Modulus (GPa) = 12.27018 29.37662 20.82340
#
# Velocity S-wave (km/s) = 2.35444 3.64304 3.06717
# Velocity P-wave (km/s) = 3.22421 5.76709 4.67198
#
# Compressibility (1/GPa) = 0.15037683
#
# Stress axis : x y z
#
# Youngs Moduli (GPa) = 30.83474 9.31107 88.81390
#
# Poissons Ratio (x) = -0.12391 0.55335
# Poissons Ratio (y) = -0.41035 0.66024
# Poissons Ratio (z) = 0.19211 0.06922
#
# Static dielectric constant tensor:
#      x y z
#    x 1.847180 0.000000 -0.051860 
#    y 0.000000 1.875080 0.000000 
#    z -0.051860 0.000000 1.890830 
# 
# From -- ./inp_files/56831.got.cif
#   From: 2010.05.17/outbox.cif.g08.bks.cpg/sg5_29_cif.got.tgz:56831.got - 2010.06.03 18:56:24.
