data_PCOD9121594
_publ_section_title
;
Structure prediction by ZEFSAII (Michael W. Deem and Ramdas Pophale) SiO2 
 PCOD9121594
Probable space group: C 2
;
_chemical_formula_sum "Si O2"
_cell_formula_units_Z 24
_cell_length_a 15.604518
_cell_length_b 16.538796
_cell_length_c 7.744595
_cell_angle_alpha 90.000000
_cell_angle_beta 31.463350
_cell_angle_gamma 90.000000
_cell_volume 1043.240418
_symmetry_space_group_name_H-M "C 2"
_symmetry_group_IT_number 5
_symmetry_cell_setting 'monoclinic'
loop_
_space_group_symop_operation_xyz
x,y,z
-x,y,-z
1/2+x,1/2+y,z
1/2-x,1/2+y,-z
loop_
_atom_site_type_symbol
_atom_site_label
_atom_site_fract_x
_atom_site_fract_y
_atom_site_fract_z
Si Si1 0.187892 0.146800 0.110295
Si Si2 0.306487 0.264773 0.339934
Si Si3 0.695927 0.818325 0.147981
Si Si4 0.311874 0.987044 0.765448
Si Si5 0.187943 0.597247 0.739735
Si Si6 0.689367 0.929533 0.627667
O O1 0.230762 0.238000 0.975084
O O2 0.300323 0.123737 0.082043
O O3 0.000000 0.149227 0.500000
O O4 0.214826 0.070784 0.941467
O O5 0.250737 0.291114 0.244562
O O6 0.237562 0.174391 0.490917
O O7 0.268986 0.342281 0.520818
O O8 0.500000 0.254224 0.000000
O O9 0.500000 0.827828 0.500000
O O10 0.755123 0.909605 0.008920
O O11 0.500000 0.002427 0.500000
O O12 0.307145 0.955409 0.578455
O O13 0.263762 0.508152 0.593333
O O14 0.000000 0.586587 0.000000
O O15 0.500000 0.917841 0.000000
#
# Coordination Sequence:
#
# PCOD9121594 Si02
#       6
#     4   4   4   4   4   4
#     4  10  20  36  57  80 107 140 180 228 270 309
#     4   9  18  33  54  77 104 139 178 222 266 306
#     4   8  17  34  54  74 106 143 173 212 268 323
#     4  10  19  35  57  80 108 146 181 215 267 328
#     4   9  18  35  55  76 107 145 177 216 270 324
#     4  10  20  35  54  79 110 147 181 215 263 326
#
# _framework density 23.005241999999999
#
# number of rings (size 3 to 8) (size 9 to 14) (size 15 to 20)
#    0.000    2.667    0.000    2.000    0.000    2.667 
#    0.000   13.333    0.000    0.000    0.000    0.000 
#    0.000    0.000    0.000    0.000    0.000    0.000 
#
# Total GULP energy -66861.193023 kJ/mol
# GULP energy per Si atom -5571.766085 kJ/mol
# Density = 2.295288 g / cm^3
# Si number density = 23.005242 Si / 1000 Ang^3
#
#
#
# Elastic Constant Matrix: (Units=GPa)
#
#
# Indices 1 2 3 4 5 6 
#
# 1 50.7030 -27.7682 -4.5260 -0.0018 -10.2622 0.0001
# 2 -27.7682 252.2118 41.2820 0.0005 25.4157 -0.0001
# 3 -4.5260 41.2820 21.0394 -0.0016 3.7842 0.0002
# 4 -0.0018 0.0005 -0.0016 395.3226 0.0023 -10.6100
# 5 -10.2622 25.4157 3.7842 0.0023 18.5143 -0.0002
# 6 0.0001 -0.0001 0.0002 -10.6100 -0.0002 38.3354
#
#
#
# Elastic Compliance Matrix: (Units=1/GPa)
#
#
# Indices 1 2 3 4 5 6 
#
# 1 0.022649 0.001384 0.000249 0.000000 0.010603 0.000000
# 2 0.001384 0.006618 -0.011618 0.000000 -0.005943 0.000000
# 3 0.000249 -0.011618 0.070062 0.000000 0.001767 0.000000
# 4 0.000000 0.000000 0.000000 0.002549 0.000000 0.000705
# 5 0.010603 -0.005943 0.001767 0.000000 0.067686 0.000000
# 6 0.000000 0.000000 0.000000 0.000705 0.000000 0.026281
#
#
# Mechanical properties :
#
#
# Convention : Reuss Voigt Hill
#
# Bulk Modulus (GPa) = 12.60099 37.99221 25.29660
# Shear Modulus (GPa) = 20.63831 111.43222 66.03526
#
# Velocity S-wave (km/s) = 2.99843 6.96727 5.36346
# Velocity P-wave (km/s) = 4.18053 9.01523 7.02677
#
# Compressibility (1/GPa) = 0.07935886
#
# Stress axis : x y z
#
# Youngs Moduli (GPa) = 44.15196 151.10517 14.27298
#
# Poissons Ratio (x) = -0.20920 -0.00355
# Poissons Ratio (y) = -0.06113 0.16583
# Poissons Ratio (z) = -0.01098 1.75561
#
# Static dielectric constant tensor:
#      x y z
#    x 1.825540 0.000000 0.055080 
#    y 0.000000 2.047280 0.000000 
#    z 0.055080 0.000000 1.852370 
# 
# From -- ./inp_files/15838.got.cif
#   From: 2010.05.17/outbox.cif.g08.bks.cpg/sg5_8_cif.got.tgz:15838.got - 2010.06.03 18:56:24.
