data_PCOD9121232
_publ_section_title
;
Structure prediction by ZEFSAII (Michael W. Deem and Ramdas Pophale) SiO2 
 PCOD9121232
Probable space group: C 2
;
_chemical_formula_sum "Si O2"
_cell_formula_units_Z 30
_cell_length_a 15.189981
_cell_length_b 5.728027
_cell_length_c 16.822723
_cell_angle_alpha 90.000000
_cell_angle_beta 53.267058
_cell_angle_gamma 90.000000
_cell_volume 1173.073465
_symmetry_space_group_name_H-M "C 2"
_symmetry_group_IT_number 5
_symmetry_cell_setting 'monoclinic'
loop_
_space_group_symop_operation_xyz
x,y,z
-x,y,-z
1/2+x,1/2+y,z
1/2-x,1/2+y,-z
loop_
_atom_site_type_symbol
_atom_site_label
_atom_site_fract_x
_atom_site_fract_y
_atom_site_fract_z
Si Si1 0.000000 0.304721 0.000000
Si Si2 0.857437 0.674784 0.995279
Si Si3 0.697462 0.546689 0.846976
Si Si4 0.380375 0.015748 0.616765
Si Si5 0.303889 0.519282 0.405453
Si Si6 0.152009 0.921468 0.143896
Si Si7 0.396643 0.522461 0.654315
Si Si8 0.292396 0.018375 0.371385
O O1 0.927561 0.456552 0.981072
O O2 0.916849 0.174218 0.103136
O O3 0.731962 0.592461 0.051274
O O4 0.841923 0.826495 0.082228
O O5 0.913990 0.802711 0.891190
O O6 0.773268 0.498178 0.731640
O O7 0.774476 0.713173 0.858675
O O8 0.321207 0.021727 0.563143
O O9 0.442536 0.773204 0.601365
O O10 0.438632 0.261488 0.607836
O O11 0.352047 0.767901 0.349810
O O12 0.292216 0.519059 0.507127
O O13 0.351477 0.269626 0.350405
O O14 0.104854 0.033261 0.249160
O O15 0.277818 0.514445 0.672386
#
# Coordination Sequence:
#
# PCOD9121232 Si02
#       8
#     2   4   4   4   4   4   4   4
#     4  10  24  34  48  66  94 132 166 204 262 288
#     4  11  19  34  49  68  92 124 167 210 245 296
#     4  10  19  33  46  67  92 125 162 206 242 295
#     4   9  16  26  43  62  89 118 162 191 233 281
#     4   8  13  21  34  56  81 120 151 179 218 288
#     4  10  19  29  50  70  89 121 170 202 243 287
#     4   9  16  26  40  65  89 120 154 197 232 285
#     4   8  13  21  34  53  87 117 150 175 229 280
#
# _framework density 25.573848000000002
#
# number of rings (size 3 to 8) (size 9 to 14) (size 15 to 20)
#    0.000    2.667    2.667    0.400    0.000    0.000 
#    0.000    0.000    0.000    0.000    0.000    0.000 
#    0.000    0.000    0.000    7.200   23.467    1.467 
#
# Total GULP energy -83663.047231 kJ/mol
# GULP energy per Si atom -5577.536482 kJ/mol
# Density = 2.551564 g / cm^3
# Si number density = 25.573848 Si / 1000 Ang^3
#
#
#
# Elastic Constant Matrix: (Units=GPa)
#
#
# Indices 1 2 3 4 5 6 
#
# 1 37.1058 16.2408 32.8721 0.0002 7.8765 0.0002
# 2 16.2408 197.4821 27.0396 0.0013 -3.2399 0.0004
# 3 32.8721 27.0396 143.2113 0.0000 8.6980 -0.0003
# 4 0.0002 0.0013 0.0000 18.9871 -0.0001 26.5665
# 5 7.8765 -3.2399 8.6980 -0.0001 29.2542 0.0001
# 6 0.0002 0.0004 -0.0003 26.5665 0.0001 0.0301
#
#
#
# Elastic Compliance Matrix: (Units=1/GPa)
#
#
# Indices 1 2 3 4 5 6 
#
# 1 0.036073 -0.002078 -0.007418 0.000000 -0.007737 0.000000
# 2 -0.002078 0.005340 -0.000612 0.000000 0.001333 0.000000
# 3 -0.007418 -0.000612 0.008843 0.000000 -0.000700 0.000000
# 4 0.000000 0.000000 0.000000 -0.000043 0.000000 0.037672
# 5 -0.007737 0.001333 -0.000700 0.000000 0.036622 0.000000
# 6 0.000000 0.000000 0.000000 0.037672 0.000000 -0.026924
#
#
# Mechanical properties :
#
#
# Convention : Reuss Voigt Hill
#
# Bulk Modulus (GPa) = 33.28791 58.90046 46.09419
# Shear Modulus (GPa) = 55.46801 29.76407 42.61604
#
# Velocity S-wave (km/s) = 4.66223 3.41522 4.08657
# Velocity P-wave (km/s) = 6.48279 6.21556 6.35058
#
# Compressibility (1/GPa) = 0.03004093
#
# Stress axis : x y z
#
# Youngs Moduli (GPa) = 27.72137 187.25393 113.07775
#
# Poissons Ratio (x) = 0.38910 0.83879
# Poissons Ratio (y) = 0.05760 0.06924
# Poissons Ratio (z) = 0.20563 0.11466
#
# Static dielectric constant tensor:
#      x y z
#    x 1.981280 0.000000 0.041720 
#    y 0.000000 2.158970 0.000000 
#    z 0.041720 0.000000 1.990090 
# 
# From -- ./inp_files/55303.got.cif
#   From: 2010.05.17/outbox.cif.g08.bks.cpg/sg5_28_cif.got.tgz:55303.got - 2010.06.03 18:56:24.
