data_PCOD9121390
_publ_section_title
;
Structure prediction by ZEFSAII (Michael W. Deem and Ramdas Pophale) SiO2 
 PCOD9121390
Probable space group: C 2
;
_chemical_formula_sum "Si O2"
_cell_formula_units_Z 22
_cell_length_a 10.727203
_cell_length_b 16.334891
_cell_length_c 14.216008
_cell_angle_alpha 90.000000
_cell_angle_beta 149.242132
_cell_angle_gamma 90.000000
_cell_volume 1273.944613
_symmetry_space_group_name_H-M "C 2"
_symmetry_group_IT_number 5
_symmetry_cell_setting 'monoclinic'
loop_
_space_group_symop_operation_xyz
x,y,z
-x,y,-z
1/2+x,1/2+y,z
1/2-x,1/2+y,-z
loop_
_atom_site_type_symbol
_atom_site_label
_atom_site_fract_x
_atom_site_fract_y
_atom_site_fract_z
Si Si1 0.120322 0.474120 0.883901
Si Si2 0.124095 0.387601 0.441316
Si Si3 0.219484 0.607375 0.810947
Si Si4 0.180833 0.947143 0.245432
Si Si5 0.035977 0.780420 0.635035
Si Si6 0.000000 0.391192 0.000000
O O1 0.134669 0.567305 0.854954
O O2 0.926214 0.430701 0.690351
O O3 0.061955 0.449357 0.951806
O O4 0.394691 0.440729 0.041555
O O5 0.266160 0.443465 0.609462
O O6 0.295245 0.311357 0.532663
O O7 0.855236 0.378115 0.312790
O O8 0.226675 0.531321 0.742351
O O9 0.073571 0.685090 0.681765
O O10 0.500000 0.634108 0.000000
O O11 0.000000 0.791971 0.500000
O O12 0.268415 0.833722 0.822222
#
# Coordination Sequence:
#
# PCOD9121390 Si02
#       6
#     4   4   4   4   4   2
#     4  10  20  37  59  86 115 153 196 237 279 352
#     4  10  19  33  56  86 111 150 197 231 286 332
#     4   9  20  37  59  85 116 153 196 238 289 333
#     4   9  19  36  60  82 113 154 201 236 266 355
#     4  12  23  35  56  90 124 148 186 249 294 338
#     4  12  22  38  56  90 122 152 190 238 296 340
#
# _framework density 17.269196000000001
#
# number of rings (size 3 to 8) (size 9 to 14) (size 15 to 20)
#    0.000    1.818    4.545    1.636    5.091    0.000 
#    0.000    0.000    0.000   24.000    0.000    0.000 
#    0.000    0.000    0.000    0.000    0.000    0.000 
#
# Total GULP energy -61242.219614 kJ/mol
# GULP energy per Si atom -5567.474510 kJ/mol
# Density = 1.722989 g / cm^3
# Si number density = 17.269196 Si / 1000 Ang^3
#
#
#
# Elastic Constant Matrix: (Units=GPa)
#
#
# Indices 1 2 3 4 5 6 
#
# 1 111.5514 62.5911 42.5451 -0.0072 -14.4144 -0.0030
# 2 62.5911 82.3514 42.3343 -0.0189 0.2946 -0.0090
# 3 42.5451 42.3343 99.6295 -0.0319 -12.6888 -0.0181
# 4 -0.0072 -0.0189 -0.0319 34.4413 -0.0087 -0.0907
# 5 -14.4144 0.2946 -12.6888 -0.0087 38.0461 -0.0031
# 6 -0.0030 -0.0090 -0.0181 -0.0907 -0.0031 17.8988
#
#
#
# Elastic Compliance Matrix: (Units=1/GPa)
#
#
# Indices 1 2 3 4 5 6 
#
# 1 0.017257 -0.012484 -0.001274 -0.000003 0.006210 -0.000004
# 2 -0.012484 0.024785 -0.006086 0.000004 -0.006951 0.000003
# 3 -0.001274 -0.006086 0.013693 0.000010 0.004131 0.000011
# 4 -0.000003 0.000004 0.000010 0.029035 0.000009 0.000147
# 5 0.006210 -0.006951 0.004131 0.000009 0.030068 0.000007
# 6 -0.000004 0.000003 0.000011 0.000147 0.000007 0.055871
#
#
# Mechanical properties :
#
#
# Convention : Reuss Voigt Hill
#
# Bulk Modulus (GPa) = 62.31160 65.38592 63.84876
# Shear Modulus (GPa) = 23.17538 27.81469 25.49504
#
# Velocity S-wave (km/s) = 3.66732 4.01765 3.84647
# Velocity P-wave (km/s) = 7.35480 7.71148 7.53525
#
# Compressibility (1/GPa) = 0.01604838
#
# Stress axis : x y z
#
# Youngs Moduli (GPa) = 57.94612 40.34747 73.02806
#
# Poissons Ratio (x) = 0.50369 0.09304
# Poissons Ratio (y) = 0.72338 0.44443
# Poissons Ratio (z) = 0.07383 0.24555
#
# Static dielectric constant tensor:
#      x y z
#    x 1.613260 0.000000 -0.010680 
#    y 0.000000 1.565740 0.000000 
#    z -0.010680 0.000000 1.636340 
# 
# From -- ./inp_files/39939.got.cif
#   From: 2010.05.17/outbox.cif.g08.bks.cpg/sg5_20_cif.got.tgz:39939.got - 2010.06.03 18:56:24.
