data_PCOD9121718
_publ_section_title
;
Structure prediction by ZEFSAII (Michael W. Deem and Ramdas Pophale) SiO2 
 PCOD9121718
Probable space group: C 2
;
_chemical_formula_sum "Si O2"
_cell_formula_units_Z 28
_cell_length_a 27.123606
_cell_length_b 5.299560
_cell_length_c 24.532929
_cell_angle_alpha 90.000000
_cell_angle_beta 157.416136
_cell_angle_gamma 90.000000
_cell_volume 1354.277916
_symmetry_space_group_name_H-M "C 2"
_symmetry_group_IT_number 5
_symmetry_cell_setting 'monoclinic'
loop_
_space_group_symop_operation_xyz
x,y,z
-x,y,-z
1/2+x,1/2+y,z
1/2-x,1/2+y,-z
loop_
_atom_site_type_symbol
_atom_site_label
_atom_site_fract_x
_atom_site_fract_y
_atom_site_fract_z
Si Si1 0.669319 0.747820 0.616147
Si Si2 0.872850 0.174732 0.302231
Si Si3 0.541222 0.286964 0.691423
Si Si4 0.771242 0.723344 0.384863
Si Si5 0.818818 0.383006 0.592214
Si Si6 0.433658 0.650723 0.187283
Si Si7 0.740173 0.402039 0.063551
O O1 0.515628 0.799454 0.450190
O O2 0.682399 0.699250 0.694026
O O3 0.705360 0.485853 0.623167
O O4 0.752323 0.983886 0.678378
O O5 0.771945 0.275237 0.154171
O O6 0.913507 0.901522 0.320262
O O7 0.408366 0.144242 0.550730
O O8 0.508704 0.498535 0.702986
O O9 0.661814 0.134446 0.834755
O O10 0.685505 0.794683 0.349115
O O11 0.756628 0.656683 0.517068
O O12 0.967231 0.369601 0.725674
O O13 0.298509 0.729686 0.075572
O O14 0.398916 0.490536 0.098016
#
# Coordination Sequence:
#
# PCOD9121718 Si02
#       7
#     4   4   4   4   4   4   4
#     4  10  21  36  58  86 117 152 199 250 301 341
#     4   9  21  32  56  85 115 153 193 248 303 355
#     4  10  19  36  54  84 122 149 192 240 307 357
#     4  11  21  37  58  85 120 154 194 247 293 353
#     4  12  25  40  63  89 124 166 202 244 294 363
#     4  11  23  36  59  91 122 163 195 246 304 365
#     4  11  20  36  58  87 122 154 196 246 307 366
#
# _framework density 20.675224
#
# number of rings (size 3 to 8) (size 9 to 14) (size 15 to 20)
#    0.000    1.429    4.286    1.714    4.000    1.143 
#    0.000    0.000    0.000    0.857    0.000    0.000 
#    0.000    0.000    0.000    0.000    0.000    0.000 
#
# Total GULP energy -77999.771829 kJ/mol
# GULP energy per Si atom -5571.412274 kJ/mol
# Density = 2.062817 g / cm^3
# Si number density = 20.675224 Si / 1000 Ang^3
#
#
#
# Elastic Constant Matrix: (Units=GPa)
#
#
# Indices 1 2 3 4 5 6 
#
# 1 94.1811 15.1114 5.7693 -0.0001 -21.4850 0.0002
# 2 15.1114 52.3243 -1.7518 -0.0004 -9.7799 -0.0001
# 3 5.7693 -1.7518 39.7380 -0.0001 -10.6766 0.0000
# 4 -0.0001 -0.0004 -0.0001 18.6026 0.0000 -0.3227
# 5 -21.4850 -9.7799 -10.6766 0.0000 16.5598 0.0000
# 6 0.0002 -0.0001 0.0000 -0.3227 0.0000 18.8068
#
#
#
# Elastic Compliance Matrix: (Units=1/GPa)
#
#
# Indices 1 2 3 4 5 6 
#
# 1 0.015549 -0.000154 0.003788 0.000000 0.022525 0.000000
# 2 -0.000154 0.022437 0.005465 0.000001 0.016574 0.000000
# 3 0.003788 0.005465 0.032709 0.000000 0.029230 0.000000
# 4 0.000000 0.000001 0.000000 0.053772 0.000001 0.000923
# 5 0.022525 0.016574 0.029230 0.000001 0.118245 0.000000
# 6 0.000000 0.000000 0.000000 0.000923 0.000000 0.053188
#
#
# Mechanical properties :
#
#
# Convention : Reuss Voigt Hill
#
# Bulk Modulus (GPa) = 11.24963 24.94460 18.09712
# Shear Modulus (GPa) = 16.26896 21.93481 19.10188
#
# Velocity S-wave (km/s) = 2.80818 3.26071 3.04287
# Velocity P-wave (km/s) = 3.99593 5.12518 4.59538
#
# Compressibility (1/GPa) = 0.08889179
#
# Stress axis : x y z
#
# Youngs Moduli (GPa) = 64.31321 44.56962 30.57241
#
# Poissons Ratio (x) = 0.00685 -0.11580
# Poissons Ratio (y) = 0.00989 -0.16706
# Poissons Ratio (z) = -0.24359 -0.24355
#
# Static dielectric constant tensor:
#      x y z
#    x 1.751710 0.000000 -0.014040 
#    y 0.000000 1.848410 0.000000 
#    z -0.014040 0.000000 1.781570 
# 
# From -- ./inp_files/67231.got.cif
#   From: 2010.05.17/outbox.cif.g08.bks.cpg/sg5_34_cif.got.tgz:67231.got - 2010.06.03 18:56:24.
