data_PCOD9121244
_publ_section_title
;
Structure prediction by ZEFSAII (Michael W. Deem and Ramdas Pophale) SiO2 
 PCOD9121244
Probable space group: C 2
;
_chemical_formula_sum "Si O2"
_cell_formula_units_Z 28
_cell_length_a 17.313912
_cell_length_b 7.137430
_cell_length_c 11.634726
_cell_angle_alpha 90.000000
_cell_angle_beta 134.367549
_cell_angle_gamma 90.000000
_cell_volume 1027.825987
_symmetry_space_group_name_H-M "C 2"
_symmetry_group_IT_number 5
_symmetry_cell_setting 'monoclinic'
loop_
_space_group_symop_operation_xyz
x,y,z
-x,y,-z
1/2+x,1/2+y,z
1/2-x,1/2+y,-z
loop_
_atom_site_type_symbol
_atom_site_label
_atom_site_fract_x
_atom_site_fract_y
_atom_site_fract_z
Si Si1 0.882860 0.469130 0.976198
Si Si2 0.816741 0.884203 0.922280
Si Si3 0.109301 0.204958 0.827481
Si Si4 0.200019 0.352928 0.584595
Si Si5 0.370216 0.379819 0.301490
Si Si6 0.452092 0.157080 0.603115
Si Si7 0.329287 0.019868 0.679946
O O1 0.887117 0.695102 0.986160
O O2 0.755740 0.406276 0.857732
O O3 0.895173 0.430573 0.852773
O O4 0.942058 0.363502 0.142787
O O5 0.706579 0.812511 0.866091
O O6 0.783434 0.950279 0.759256
O O7 0.863506 0.048068 0.047647
O O8 0.070423 0.068212 0.683978
O O9 0.402153 0.160708 0.678370
O O10 0.230114 0.137335 0.631724
O O11 0.213850 0.385082 0.463175
O O12 0.393983 0.300629 0.453333
O O13 0.423952 0.213648 0.280652
O O14 0.415053 0.952381 0.516542
#
# Coordination Sequence:
#
# PCOD9121244 Si02
#       7
#     4   4   4   4   4   4   4
#     4  10  20  35  60  96 127 168 226 262 322 401
#     4  10  19  30  54  91 122 160 216 268 317 377
#     4  11  20  33  59  90 131 169 217 272 319 394
#     4   9  19  32  58  90 125 171 213 268 327 399
#     4  10  19  35  59  96 131 170 212 274 352 372
#     4   9  20  34  60  95 131 171 210 276 339 397
#     4   9  19  35  60  96 130 168 222 265 331 406
#
# _framework density 27.241962000000001
#
# number of rings (size 3 to 8) (size 9 to 14) (size 15 to 20)
#    0.857    1.429    2.857    1.714    2.000    0.000 
#    0.000    0.000    0.000   80.571    3.714    4.000 
#    0.000    0.000    0.000    0.000    0.000    0.000 
#
# Total GULP energy -78098.836938 kJ/mol
# GULP energy per Si atom -5578.488353 kJ/mol
# Density = 2.717996 g / cm^3
# Si number density = 27.241962 Si / 1000 Ang^3
#
#
#
# Elastic Constant Matrix: (Units=GPa)
#
#
# Indices 1 2 3 4 5 6 
#
# 1 85.2064 28.3488 30.7414 0.0000 -23.5597 0.0000
# 2 28.3488 118.7285 41.6292 0.0000 2.1704 0.0000
# 3 30.7414 41.6292 196.3702 0.0000 -27.4433 0.0000
# 4 0.0000 0.0000 0.0000 59.2386 0.0000 -8.7826
# 5 -23.5597 2.1704 -27.4433 0.0000 53.2542 0.0000
# 6 0.0000 0.0000 0.0000 -8.7826 0.0000 38.3320
#
#
#
# Elastic Compliance Matrix: (Units=1/GPa)
#
#
# Indices 1 2 3 4 5 6 
#
# 1 0.014891 -0.003420 -0.000718 0.000000 0.006357 0.000000
# 2 -0.003420 0.009993 -0.001995 0.000000 -0.002948 0.000000
# 3 -0.000718 -0.001995 0.006029 0.000000 0.002871 0.000000
# 4 0.000000 0.000000 0.000000 0.017474 0.000000 0.004004
# 5 0.006357 -0.002948 0.002871 0.000000 0.023190 0.000000
# 6 0.000000 0.000000 0.000000 0.004004 0.000000 0.027005
#
#
# Mechanical properties :
#
#
# Convention : Reuss Voigt Hill
#
# Bulk Modulus (GPa) = 53.62840 66.86042 60.24441
# Shear Modulus (GPa) = 42.71213 50.13734 46.42473
#
# Velocity S-wave (km/s) = 3.96394 4.29470 4.13263
# Velocity P-wave (km/s) = 6.37802 7.01349 6.70329
#
# Compressibility (1/GPa) = 0.01864684
#
# Stress axis : x y z
#
# Youngs Moduli (GPa) = 67.15558 100.07427 165.86831
#
# Poissons Ratio (x) = 0.34226 0.11904
# Poissons Ratio (y) = 0.22968 0.33091
# Poissons Ratio (z) = 0.04819 0.19965
#
# Static dielectric constant tensor:
#      x y z
#    x 2.261440 0.000000 0.032300 
#    y 0.000000 2.142320 0.000000 
#    z 0.032300 0.000000 2.207900 
# 
# From -- ./inp_files/45894.got.cif
#   From: 2010.05.17/outbox.cif.g08.bks.cpg/sg5_23_cif.got.tgz:45894.got - 2010.06.03 18:56:24.
