data_PCOD9121155
_publ_section_title
;
Structure prediction by ZEFSAII (Michael W. Deem and Ramdas Pophale) SiO2 
 PCOD9121155
Probable space group: C 2
;
_chemical_formula_sum "Si O2"
_cell_formula_units_Z 26
_cell_length_a 12.726720
_cell_length_b 8.038580
_cell_length_c 13.274137
_cell_angle_alpha 90.000000
_cell_angle_beta 110.816557
_cell_angle_gamma 90.000000
_cell_volume 1269.360740
_symmetry_space_group_name_H-M "C 2"
_symmetry_group_IT_number 5
_symmetry_cell_setting 'monoclinic'
loop_
_space_group_symop_operation_xyz
x,y,z
-x,y,-z
1/2+x,1/2+y,z
1/2-x,1/2+y,-z
loop_
_atom_site_type_symbol
_atom_site_label
_atom_site_fract_x
_atom_site_fract_y
_atom_site_fract_z
Si Si1 0.323123 0.850980 0.198712
Si Si2 0.927360 0.995919 0.253485
Si Si3 0.500000 0.403296 0.500000
Si Si4 0.150526 0.649934 0.431724
Si Si5 0.370281 0.827059 0.443868
Si Si6 0.935381 0.920867 0.885050
Si Si7 0.540568 0.155034 0.804496
O O1 0.351806 0.654928 0.200522
O O2 0.351279 0.890450 0.324687
O O3 0.194372 0.896631 0.137751
O O4 0.399508 0.979969 0.163252
O O5 0.882728 0.808794 0.213091
O O6 0.960372 0.992375 0.382444
O O7 0.034670 0.005029 0.213083
O O8 0.600646 0.285395 0.492951
O O9 0.274486 0.693637 0.435658
O O10 0.150639 0.475828 0.486701
O O11 0.062554 0.643301 0.309585
O O12 0.500000 0.780789 0.500000
O O13 0.990081 0.738856 0.886153
O O14 0.000000 0.003753 0.000000
#
# Coordination Sequence:
#
# PCOD9121155 Si02
#       7
#     4   4   2   4   4   4   4
#     4  12  22  43  70  93 134 176 218 271 337 391
#     4   9  23  40  66 101 129 170 220 263 335 397
#     4  10  18  40  66  92 144 170 210 276 328 400
#     4  11  22  40  60  93 140 175 215 267 327 396
#     4  12  24  37  61  95 133 180 213 263 327 404
#     4  10  24  48  67  95 134 169 228 286 322 388
#     4   9  21  45  61  98 129 165 226 270 321 391
#
# _framework density 20.482751
#
# number of rings (size 3 to 8) (size 9 to 14) (size 15 to 20)
#    0.923    0.615    3.846    0.923    3.231    3.692 
#    2.769    0.769    0.000    0.000    0.000    0.000 
#    0.000    0.000    0.000    0.000    0.000    0.000 
#
# Total GULP energy -72444.377097 kJ/mol
# GULP energy per Si atom -5572.644392 kJ/mol
# Density = 2.043613 g / cm^3
# Si number density = 20.482751 Si / 1000 Ang^3
#
#
#
# Elastic Constant Matrix: (Units=GPa)
#
#
# Indices 1 2 3 4 5 6 
#
# 1 167.8829 -32.0390 80.8481 0.0000 -52.0329 0.0000
# 2 -32.0390 116.9375 -50.2551 0.0000 93.1043 0.0000
# 3 80.8481 -50.2551 126.3961 0.0000 -78.4552 0.0000
# 4 0.0000 0.0000 0.0000 1.7784 0.0000 -15.3908
# 5 -52.0329 93.1043 -78.4552 0.0000 145.6545 0.0000
# 6 0.0000 0.0000 0.0000 -15.3908 0.0000 -1.0026
#
#
#
# Elastic Compliance Matrix: (Units=1/GPa)
#
#
# Indices 1 2 3 4 5 6 
#
# 1 0.008613 -0.000193 -0.005407 0.000000 0.000288 0.000000
# 2 -0.000193 0.017419 0.000143 0.000000 -0.011126 0.000000
# 3 -0.005407 0.000143 0.015280 0.000000 0.006207 0.000000
# 4 0.000000 0.000000 0.000000 0.004201 0.000000 -0.064488
# 5 0.000288 -0.011126 0.006207 0.000000 0.017424 0.000000
# 6 0.000000 0.000000 0.000000 -0.064488 0.000000 -0.007451
#
#
# Mechanical properties :
#
#
# Convention : Reuss Voigt Hill
#
# Bulk Modulus (GPa) = 32.89795 45.36938 39.13367
# Shear Modulus (GPa) = 65.33178 56.79690 61.06434
#
# Velocity S-wave (km/s) = 5.65378 5.27156 5.46601
# Velocity P-wave (km/s) = 7.66267 7.69744 7.68007
#
# Compressibility (1/GPa) = 0.03039703
#
# Stress axis : x y z
#
# Youngs Moduli (GPa) = 116.10508 57.40962 65.44380
#
# Poissons Ratio (x) = 0.01109 0.35388
# Poissons Ratio (y) = 0.02242 -0.00936
# Poissons Ratio (z) = 0.62783 -0.00821
#
# Static dielectric constant tensor:
#      x y z
#    x 1.725150 0.000000 0.003710 
#    y 0.000000 1.076840 0.000000 
#    z 0.003710 0.000000 1.724060 
# 
# From -- ./inp_files/52326.got.cif
#   From: 2010.05.17/outbox.cif.g08.bks.cpg/sg5_27_cif.got.tgz:52326.got - 2010.06.03 18:56:24.
