data_PCOD9121970
_publ_section_title
;
Structure prediction by ZEFSAII (Michael W. Deem and Ramdas Pophale) SiO2 
 PCOD9121970
Probable space group: C 2
;
_chemical_formula_sum "Si O2"
_cell_formula_units_Z 20
_cell_length_a 20.556905
_cell_length_b 5.499148
_cell_length_c 7.156598
_cell_angle_alpha 90.000000
_cell_angle_beta 108.901233
_cell_angle_gamma 90.000000
_cell_volume 765.397222
_symmetry_space_group_name_H-M "C 2"
_symmetry_group_IT_number 5
_symmetry_cell_setting 'monoclinic'
loop_
_space_group_symop_operation_xyz
x,y,z
-x,y,-z
1/2+x,1/2+y,z
1/2-x,1/2+y,-z
loop_
_atom_site_type_symbol
_atom_site_label
_atom_site_fract_x
_atom_site_fract_y
_atom_site_fract_z
Si Si1 0.940649 0.214970 0.593250
Si Si2 0.321116 0.681786 0.054406
Si Si3 0.790568 0.181045 0.576236
Si Si4 0.338422 0.181780 0.008637
Si Si5 0.443542 0.214669 0.796496
O O1 0.857821 0.181223 0.506321
O O2 0.946942 0.499478 0.651592
O O3 0.000000 0.170100 0.500000
O O4 0.955040 0.993086 0.751554
O O5 0.309892 0.684547 0.816661
O O6 0.358740 0.429992 0.129882
O O7 0.359234 0.933207 0.128821
O O8 0.244702 0.681619 0.069999
O O9 0.749922 0.430844 0.499036
O O10 0.371321 0.190352 0.836586
O O11 0.500000 0.146216 0.000000
#
# Coordination Sequence:
#
# PCOD9121970 Si02
#       5
#     4   4   4   4   4
#     4  12  27  48  69 101 148 189 230 290 356 421
#     4  10  20  36  61  90 123 161 207 267 337 386
#     4  12  24  41  68  97 132 178 226 275 339 419
#     4  10  19  37  63  89 121 161 208 272 331 389
#     4  12  24  44  73 101 135 185 238 288 345 421
#
# _framework density 26.130223000000001
#
# number of rings (size 3 to 8) (size 9 to 14) (size 15 to 20)
#    0.000    0.800    4.000    3.600    0.000    3.200 
#    0.000    0.000    0.000    0.000    0.000    0.000 
#    0.000    0.000    0.000    0.000    0.000    0.000 
#
# Total GULP energy -55972.533007 kJ/mol
# GULP energy per Si atom -5597.253301 kJ/mol
# Density = 2.607075 g / cm^3
# Si number density = 26.130223 Si / 1000 Ang^3
#
#
#
# Elastic Constant Matrix: (Units=GPa)
#
#
# Indices 1 2 3 4 5 6 
#
# 1 173.4352 33.1623 51.2026 0.0000 -33.7184 0.0000
# 2 33.1623 208.6329 21.3172 0.0000 -0.7392 0.0000
# 3 51.2026 21.3172 59.7677 0.0000 -16.1620 0.0000
# 4 0.0000 0.0000 0.0000 38.5244 0.0000 -17.4156
# 5 -33.7184 -0.7392 -16.1620 0.0000 49.9038 0.0000
# 6 0.0000 0.0000 0.0000 -17.4156 0.0000 50.6900
#
#
#
# Elastic Compliance Matrix: (Units=1/GPa)
#
#
# Indices 1 2 3 4 5 6 
#
# 1 0.008372 -0.000714 -0.005909 0.000000 0.003733 0.000000
# 2 -0.000714 0.005049 -0.001424 0.000000 -0.000869 0.000000
# 3 -0.005909 -0.001424 0.023252 0.000000 0.003517 0.000000
# 4 0.000000 0.000000 0.000000 0.030731 0.000000 0.010558
# 5 0.003733 -0.000869 0.003517 0.000000 0.023687 0.000000
# 6 0.000000 0.000000 0.000000 0.010558 0.000000 0.023355
#
#
# Mechanical properties :
#
#
# Convention : Reuss Voigt Hill
#
# Bulk Modulus (GPa) = 48.58960 72.57777 60.58369
# Shear Modulus (GPa) = 36.39009 50.23387 43.31198
#
# Velocity S-wave (km/s) = 3.73586 4.38932 4.07571
# Velocity P-wave (km/s) = 6.10282 7.31601 6.73678
#
# Compressibility (1/GPa) = 0.02058054
#
# Stress axis : x y z
#
# Youngs Moduli (GPa) = 119.43969 198.05837 43.00634
#
# Poissons Ratio (x) = 0.14139 0.25411
# Poissons Ratio (y) = 0.08526 0.06125
# Poissons Ratio (z) = 0.70572 0.28207
#
# Static dielectric constant tensor:
#      x y z
#    x 1.351320 0.000000 -0.338890 
#    y 0.000000 2.078550 0.000000 
#    z -0.338890 0.000000 1.891980 
# 
# From -- ./inp_files/28182.got.cif
#   From: 2010.05.17/outbox.cif.g08.bks.cpg/sg5_15_cif.got.tgz:28182.got - 2010.06.03 18:56:24.
