data_PCOD9121720
_publ_section_title
;
Structure prediction by ZEFSAII (Michael W. Deem and Ramdas Pophale) SiO2 
 PCOD9121720
Probable space group: C 2
;
_chemical_formula_sum "Si O2"
_cell_formula_units_Z 26
_cell_length_a 12.108560
_cell_length_b 8.415318
_cell_length_c 10.580762
_cell_angle_alpha 90.000000
_cell_angle_beta 90.141660
_cell_angle_gamma 90.000000
_cell_volume 1078.148662
_symmetry_space_group_name_H-M "C 2"
_symmetry_group_IT_number 5
_symmetry_cell_setting 'monoclinic'
loop_
_space_group_symop_operation_xyz
x,y,z
-x,y,-z
1/2+x,1/2+y,z
1/2-x,1/2+y,-z
loop_
_atom_site_type_symbol
_atom_site_label
_atom_site_fract_x
_atom_site_fract_y
_atom_site_fract_z
Si Si1 0.357384 0.101930 0.900043
Si Si2 0.555045 0.163130 0.744408
Si Si3 0.329367 0.478539 0.943424
Si Si4 0.223839 0.478170 0.594286
Si Si5 0.000000 0.500817 0.500000
Si Si6 0.967550 0.031973 0.194616
Si Si7 0.780568 0.145525 0.340962
O O1 0.485688 0.087078 0.859831
O O2 0.287757 0.060008 0.772191
O O3 0.295816 0.015444 0.015809
O O4 0.342102 0.289179 0.930375
O O5 0.554653 0.351394 0.759737
O O6 0.673975 0.092300 0.703169
O O7 0.486373 0.114200 0.619989
O O8 0.400807 0.539492 0.063111
O O9 0.401833 0.552747 0.828967
O O10 0.274325 0.319466 0.649180
O O11 0.281061 0.564653 0.478162
O O12 0.111778 0.410726 0.526346
O O13 0.905441 0.150214 0.287755
#
# Coordination Sequence:
#
# PCOD9121720 Si02
#       7
#     4   4   4   4   2   4   4
#     4  10  19  36  55  73 107 139 170 222 261 303
#     4   9  17  35  56  71 105 142 172 209 269 306
#     4   9  20  34  53  78 104 134 182 212 262 307
#     4  10  20  34  53  79 104 139 175 209 262 318
#     4   8  18  36  52  72 106 138 170 214 254 320
#     4   9  19  35  53  76 104 141 174 219 255 310
#     4  11  20  34  55  79 109 136 172 219 261 307
#
# _framework density 24.115414000000001
#
# number of rings (size 3 to 8) (size 9 to 14) (size 15 to 20)
#    0.923    1.538    1.538    0.923    0.000    2.462 
#    0.000    3.846    0.000    0.000    0.000    0.000 
#    0.000    0.000    0.000    0.000    0.000    0.000 
#
# Total GULP energy -72425.383998 kJ/mol
# GULP energy per Si atom -5571.183384 kJ/mol
# Density = 2.406053 g / cm^3
# Si number density = 24.115414 Si / 1000 Ang^3
#
#
#
# Elastic Constant Matrix: (Units=GPa)
#
#
# Indices 1 2 3 4 5 6 
#
# 1 91.9042 13.0668 42.0542 0.0000 -26.7088 0.0000
# 2 13.0668 46.1825 41.3244 0.0000 -21.1385 0.0000
# 3 42.0542 41.3244 165.6075 0.0000 -47.4740 0.0000
# 4 0.0000 0.0000 0.0000 31.9162 0.0000 -9.1974
# 5 -26.7088 -21.1385 -47.4740 0.0000 44.6194 0.0000
# 6 0.0000 0.0000 0.0000 -9.1974 0.0000 28.9078
#
#
#
# Elastic Compliance Matrix: (Units=1/GPa)
#
#
# Indices 1 2 3 4 5 6 
#
# 1 0.013477 0.000740 -0.001718 0.000000 0.006590 0.000000
# 2 0.000740 0.030265 -0.005040 0.000000 0.009419 0.000000
# 3 -0.001718 -0.005040 0.009717 0.000000 0.006922 0.000000
# 4 0.000000 0.000000 0.000000 0.034495 0.000000 0.010975
# 5 0.006590 0.009419 0.006922 0.000000 0.038184 0.000000
# 6 0.000000 0.000000 0.000000 0.010975 0.000000 0.038085
#
#
# Mechanical properties :
#
#
# Convention : Reuss Voigt Hill
#
# Bulk Modulus (GPa) = 24.14108 55.17613 39.65860
# Shear Modulus (GPa) = 26.30696 34.90527 30.60612
#
# Velocity S-wave (km/s) = 3.30643 3.80863 3.56638
# Velocity P-wave (km/s) = 4.96074 6.50158 5.78271
#
# Compressibility (1/GPa) = 0.04142317
#
# Stress axis : x y z
#
# Youngs Moduli (GPa) = 74.20098 33.04189 102.91636
#
# Poissons Ratio (x) = -0.02447 0.17680
# Poissons Ratio (y) = -0.05494 0.51870
# Poissons Ratio (z) = 0.12747 0.16653
#
# Static dielectric constant tensor:
#      x y z
#    x 2.022170 0.000000 -0.022910 
#    y 0.000000 1.879360 0.000000 
#    z -0.022910 0.000000 1.953960 
# 
# From -- ./inp_files/41449.got.cif
#   From: 2010.05.17/outbox.cif.g08.bks.cpg/sg5_21_cif.got.tgz:41449.got - 2010.06.03 18:56:24.
