data_PCOD9121087
_publ_section_title
;
Structure prediction by ZEFSAII (Michael W. Deem and Ramdas Pophale) SiO2 
 PCOD9121087
Probable space group: C 2
;
_chemical_formula_sum "Si O2"
_cell_formula_units_Z 32
_cell_length_a 14.269493
_cell_length_b 10.696555
_cell_length_c 9.908766
_cell_angle_alpha 90.000000
_cell_angle_beta 91.027754
_cell_angle_gamma 90.000000
_cell_volume 1512.175407
_symmetry_space_group_name_H-M "C 2"
_symmetry_group_IT_number 5
_symmetry_cell_setting 'monoclinic'
loop_
_space_group_symop_operation_xyz
x,y,z
-x,y,-z
1/2+x,1/2+y,z
1/2-x,1/2+y,-z
loop_
_atom_site_type_symbol
_atom_site_label
_atom_site_fract_x
_atom_site_fract_y
_atom_site_fract_z
Si Si1 0.784849 0.315080 0.596404
Si Si2 0.572156 0.392058 0.614179
Si Si3 0.085216 0.187327 0.598408
Si Si4 0.728604 0.940419 0.001880
Si Si5 0.733635 0.183511 0.859344
Si Si6 0.112125 0.511011 0.247082
Si Si7 0.454736 0.822206 0.131258
Si Si8 0.521280 0.222135 0.840215
O O1 0.674921 0.339054 0.589113
O O2 0.822921 0.243223 0.468575
O O3 0.793792 0.230147 0.732589
O O4 0.843096 0.443825 0.621459
O O5 0.500000 0.345269 0.500000
O O6 0.582753 0.539283 0.600101
O O7 0.535127 0.351280 0.760276
O O8 0.072115 0.233062 0.748909
O O9 0.000000 0.231814 0.500000
O O10 0.773335 0.806754 0.043709
O O11 0.695659 0.005281 0.140246
O O12 0.636111 0.896831 0.920061
O O13 0.774647 0.055215 0.921761
O O14 0.623992 0.158763 0.823807
O O15 0.032024 0.417964 0.189233
O O16 0.060285 0.643495 0.237233
O O17 0.500000 0.759732 0.000000
O O18 0.500000 0.227597 0.000000
#
# Coordination Sequence:
#
# PCOD9121087 Si02
#       8
#     4   4   4   4   4   4   4   4
#     4  10  23  42  68  96 131 180 234 273 336 407
#     4  10  26  47  63  97 145 176 220 282 342 417
#     4  11  23  45  66  92 137 176 221 284 341 401
#     4  10  20  36  60  97 136 165 218 282 339 395
#     4  10  21  38  62  98 135 174 220 287 333 407
#     4  10  18  38  69  97 123 168 229 281 322 399
#     4  10  20  37  67  97 123 170 226 280 325 395
#     4  11  20  42  70  95 134 175 223 281 346 391
#
# _framework density 21.161567000000002
#
# number of rings (size 3 to 8) (size 9 to 14) (size 15 to 20)
#    0.000    1.750    3.750    0.375    0.000    5.500 
#    9.000    0.000    0.000    0.000    0.000    0.000 
#    0.000    0.000    0.000    0.000    0.000    0.000 
#
# Total GULP energy -89262.114963 kJ/mol
# GULP energy per Si atom -5578.882185 kJ/mol
# Density = 2.111340 g / cm^3
# Si number density = 21.161567 Si / 1000 Ang^3
#
#
#
# Elastic Constant Matrix: (Units=GPa)
#
#
# Indices 1 2 3 4 5 6 
#
# 1 59.4796 39.7809 26.0146 0.0000 -6.4758 0.0000
# 2 39.7809 89.0333 53.4058 0.0000 -6.5415 0.0000
# 3 26.0146 53.4058 98.9803 0.0000 -18.9527 0.0000
# 4 0.0000 0.0000 0.0000 27.1816 0.0000 0.5561
# 5 -6.4758 -6.5415 -18.9527 0.0000 28.5101 0.0000
# 6 0.0000 0.0000 0.0000 0.5561 0.0000 19.9449
#
#
#
# Elastic Compliance Matrix: (Units=1/GPa)
#
#
# Indices 1 2 3 4 5 6 
#
# 1 0.024240 -0.010548 -0.000102 0.000000 0.003018 0.000000
# 2 -0.010548 0.021348 -0.009473 0.000000 -0.003795 0.000000
# 3 -0.000102 -0.009473 0.016982 0.000000 0.009093 0.000000
# 4 0.000000 0.000000 0.000000 0.036811 0.000000 -0.001026
# 5 0.003018 -0.003795 0.009093 0.000000 0.040935 0.000000
# 6 0.000000 0.000000 0.000000 -0.001026 0.000000 0.050167
#
#
# Mechanical properties :
#
#
# Convention : Reuss Voigt Hill
#
# Bulk Modulus (GPa) = 44.79294 53.98842 49.39068
# Shear Modulus (GPa) = 20.99343 23.68010 22.33676
#
# Velocity S-wave (km/s) = 3.15311 3.34880 3.25242
# Velocity P-wave (km/s) = 5.87105 6.36557 6.12330
#
# Compressibility (1/GPa) = 0.02232494
#
# Stress axis : x y z
#
# Youngs Moduli (GPa) = 41.25365 46.84238 58.88560
#
# Poissons Ratio (x) = 0.49409 0.00599
# Poissons Ratio (y) = 0.43514 0.55783
# Poissons Ratio (z) = 0.00420 0.44374
#
# Static dielectric constant tensor:
#      x y z
#    x 1.781400 0.000000 0.037720 
#    y 0.000000 1.779940 0.000000 
#    z 0.037720 0.000000 1.794230 
# 
# From -- ./inp_files/23888.got.cif
#   From: 2010.05.17/outbox.cif.g08.bks.cpg/sg5_12_cif.got.tgz:23888.got - 2010.06.03 18:56:24.
