data_PCOD9121076
_publ_section_title
;
Structure prediction by ZEFSAII (Michael W. Deem and Ramdas Pophale) SiO2 
 PCOD9121076
Probable space group: C 2
;
_chemical_formula_sum "Si O2"
_cell_formula_units_Z 24
_cell_length_a 7.050655
_cell_length_b 14.618084
_cell_length_c 11.419225
_cell_angle_alpha 90.000000
_cell_angle_beta 79.320921
_cell_angle_gamma 90.000000
_cell_volume 1156.561942
_symmetry_space_group_name_H-M "C 2"
_symmetry_group_IT_number 5
_symmetry_cell_setting 'monoclinic'
loop_
_space_group_symop_operation_xyz
x,y,z
-x,y,-z
1/2+x,1/2+y,z
1/2-x,1/2+y,-z
loop_
_atom_site_type_symbol
_atom_site_label
_atom_site_fract_x
_atom_site_fract_y
_atom_site_fract_z
Si Si1 0.363029 0.228390 0.741613
Si Si2 0.934294 0.091880 0.251547
Si Si3 0.000000 0.008507 0.000000
Si Si4 0.000000 0.823824 0.500000
Si Si5 0.123904 0.557601 0.734178
Si Si6 0.820347 0.392818 0.097753
Si Si7 0.290234 0.500637 0.484021
O O1 0.161718 0.189015 0.716095
O O2 0.481799 0.266170 0.618589
O O3 0.479618 0.140859 0.778144
O O4 0.304877 0.311120 0.832372
O O5 0.922385 0.067675 0.116633
O O6 0.805207 0.022348 0.345082
O O7 0.158203 0.087161 0.257517
O O8 0.173139 0.948706 0.032752
O O9 0.819577 0.893445 0.507171
O O10 0.101482 0.463991 0.811577
O O11 0.134047 0.538341 0.592705
O O12 0.000000 0.359397 0.000000
O O13 0.500000 0.541180 0.500000
#
# Coordination Sequence:
#
# PCOD9121076 Si02
#       7
#     4   4   2   2   4   4   4
#     4  12  23  37  68  99 122 170 220 268 322 394
#     4  10  21  38  64  93 127 165 215 268 316 394
#     4  10  22  44  64  86 128 180 212 260 340 380
#     4  10  18  38  66  94 130 162 214 272 322 384
#     4  10  21  43  66  89 128 172 209 266 335 379
#     4  11  24  44  64  92 133 170 217 274 323 388
#     4   8  16  37  65  84 127 166 198 266 331 366
#
# _framework density 20.751156999999999
#
# number of rings (size 3 to 8) (size 9 to 14) (size 15 to 20)
#    0.500    1.333    1.667    3.000    1.167    1.333 
#    4.500    1.667    3.667    0.000    0.000    0.000 
#    0.000    0.000    0.000    0.000    0.000    0.000 
#
# Total GULP energy -66884.677625 kJ/mol
# GULP energy per Si atom -5573.723135 kJ/mol
# Density = 2.070393 g / cm^3
# Si number density = 20.751157 Si / 1000 Ang^3
#
#
#
# Elastic Constant Matrix: (Units=GPa)
#
#
# Indices 1 2 3 4 5 6 
#
# 1 59.5418 26.8551 37.8945 0.0000 -22.0643 0.0000
# 2 26.8551 91.2169 41.7511 0.0000 -7.3338 0.0000
# 3 37.8945 41.7511 131.6901 0.0000 -7.8803 0.0000
# 4 0.0000 0.0000 0.0000 -5.9976 0.0000 -4.5119
# 5 -22.0643 -7.3338 -7.8803 0.0000 28.8857 0.0000
# 6 0.0000 0.0000 0.0000 -4.5119 0.0000 39.0294
#
#
#
# Elastic Compliance Matrix: (Units=1/GPa)
#
#
# Indices 1 2 3 4 5 6 
#
# 1 0.030176 -0.004487 -0.006048 0.000000 0.020261 0.000000
# 2 -0.004487 0.013628 -0.003078 0.000000 -0.000807 0.000000
# 3 -0.006048 -0.003078 0.010152 0.000000 -0.002632 0.000000
# 4 0.000000 0.000000 0.000000 -0.153394 0.000000 -0.017733
# 5 0.020261 -0.000807 -0.002632 0.000000 0.049172 0.000000
# 6 0.000000 0.000000 0.000000 -0.017733 0.000000 0.023572
#
#
# Mechanical properties :
#
#
# Convention : Reuss Voigt Hill
#
# Bulk Modulus (GPa) = 37.41083 55.05004 46.23043
# Shear Modulus (GPa) = 529.54626 24.11338 276.82982
#
# Velocity S-wave (km/s) = 15.99196 3.41255 11.56262
# Velocity P-wave (km/s) = 18.94882 6.48950 14.16283
#
# Compressibility (1/GPa) = 0.02673023
#
# Stress axis : x y z
#
# Youngs Moduli (GPa) = 33.13894 73.38024 98.49958
#
# Poissons Ratio (x) = 0.32924 0.59577
# Poissons Ratio (y) = 0.14868 0.30315
# Poissons Ratio (z) = 0.20044 0.22584
#
# Static dielectric constant tensor:
#      x y z
#    x 1.791670 0.000000 0.028230 
#    y 0.000000 1.747320 0.000000 
#    z 0.028230 0.000000 1.783720 
# 
# From -- ./inp_files/35361.got.cif
#   From: 2010.05.17/outbox.cif.g08.bks.cpg/sg5_18_cif.got.tgz:35361.got - 2010.06.03 18:56:24.
