data_PCOD9121437
_publ_section_title
;
Structure prediction by ZEFSAII (Michael W. Deem and Ramdas Pophale) SiO2 
 PCOD9121437
Probable space group: C 2
;
_chemical_formula_sum "Si O2"
_cell_formula_units_Z 24
_cell_length_a 7.015687
_cell_length_b 12.222914
_cell_length_c 21.471403
_cell_angle_alpha 90.000000
_cell_angle_beta 35.178535
_cell_angle_gamma 90.000000
_cell_volume 1060.774249
_symmetry_space_group_name_H-M "C 2"
_symmetry_group_IT_number 5
_symmetry_cell_setting 'monoclinic'
loop_
_space_group_symop_operation_xyz
x,y,z
-x,y,-z
1/2+x,1/2+y,z
1/2-x,1/2+y,-z
loop_
_atom_site_type_symbol
_atom_site_label
_atom_site_fract_x
_atom_site_fract_y
_atom_site_fract_z
Si Si1 0.218245 0.306970 0.184387
Si Si2 0.852288 0.156248 0.606704
Si Si3 0.990328 0.862406 0.249220
Si Si4 0.887489 0.231028 0.958634
Si Si5 0.838664 0.549308 0.817199
Si Si6 0.478769 0.604302 0.706128
O O1 0.355288 0.348242 0.215063
O O2 0.121821 0.422772 0.181908
O O3 0.954343 0.211720 0.270473
O O4 0.503693 0.258592 0.064407
O O5 0.730314 0.279903 0.650584
O O6 0.528823 0.081073 0.703347
O O7 0.077235 0.122020 0.607025
O O8 0.000000 0.140090 0.500000
O O9 0.361031 0.810166 0.146271
O O10 0.955080 0.986054 0.282940
O O11 0.985071 0.106755 0.913827
O O12 0.000000 0.245549 0.000000
O O13 0.075028 0.607779 0.805178
#
# Coordination Sequence:
#
# PCOD9121437 Si02
#       6
#     4   4   4   4   4   4
#     4  10  19  34  54  76 110 142 170 215 261 303
#     4   8  17  38  57  74 103 141 170 216 273 306
#     4   9  18  35  55  75 107 135 176 215 256 312
#     4   9  16  32  53  72 106 148 168 206 257 305
#     4   9  19  34  54  76 106 139 175 217 254 308
#     4   9  19  36  52  78 106 135 173 222 255 312
#
# _framework density 22.624984999999999
#
# number of rings (size 3 to 8) (size 9 to 14) (size 15 to 20)
#    1.000    2.000    3.333    0.000    2.333    0.000 
#   12.000    0.000    0.000    1.000    0.000    0.000 
#    0.000    0.000    0.000    0.000    0.000    0.000 
#
# Total GULP energy -66838.292634 kJ/mol
# GULP energy per Si atom -5569.857720 kJ/mol
# Density = 2.257349 g / cm^3
# Si number density = 22.624985 Si / 1000 Ang^3
#
#
#
# Elastic Constant Matrix: (Units=GPa)
#
#
# Indices 1 2 3 4 5 6 
#
# 1 48.1424 34.1252 27.3866 -0.0042 23.3361 0.0054
# 2 34.1252 179.2429 51.9669 -0.0045 29.1804 0.0034
# 3 27.3866 51.9669 100.4676 -0.0091 39.3151 0.0075
# 4 -0.0042 -0.0045 -0.0091 8.8056 0.0035 3.6124
# 5 23.3361 29.1804 39.3151 0.0035 27.9238 -0.0042
# 6 0.0054 0.0034 0.0075 3.6124 -0.0042 37.0618
#
#
#
# Elastic Compliance Matrix: (Units=1/GPa)
#
#
# Indices 1 2 3 4 5 6 
#
# 1 0.036845 -0.002788 0.005139 0.000041 -0.035114 -0.000014
# 2 -0.002788 0.007055 -0.002040 0.000001 -0.002170 0.000000
# 3 0.005139 -0.002040 0.023281 0.000045 -0.034942 -0.000014
# 4 0.000041 0.000001 0.000045 0.118295 -0.000115 -0.011530
# 5 -0.035114 -0.002170 -0.034942 -0.000115 0.116620 0.000037
# 6 -0.000014 0.000000 -0.000014 -0.011530 0.000037 0.028106
#
#
# Mechanical properties :
#
#
# Convention : Reuss Voigt Hill
#
# Bulk Modulus (GPa) = 14.74848 61.64559 38.19704
# Shear Modulus (GPa) = 14.19727 29.04984 21.62355
#
# Velocity S-wave (km/s) = 2.50772 3.58714 3.09485
# Velocity P-wave (km/s) = 3.86234 6.66803 5.44887
#
# Compressibility (1/GPa) = 0.06780359
#
# Stress axis : x y z
#
# Youngs Moduli (GPa) = 27.14038 141.75340 42.95348
#
# Poissons Ratio (x) = 0.39526 -0.22076
# Poissons Ratio (y) = 0.07568 0.08761
# Poissons Ratio (z) = -0.13949 0.28914
#
# Static dielectric constant tensor:
#      x y z
#    x 1.959580 0.000000 -0.004900 
#    y 0.000000 1.850810 0.000010 
#    z -0.004900 0.000010 1.826640 
# 
# From -- ./inp_files/59502.got.cif
#   From: 2010.05.17/outbox.cif.g08.bks.cpg/sg5_30_cif.got.tgz:59502.got - 2010.06.03 18:56:24.
