data_PCOD9121101
_publ_section_title
;
Structure prediction by ZEFSAII (Michael W. Deem and Ramdas Pophale) SiO2 
 PCOD9121101
Probable space group: C 2
;
_chemical_formula_sum "Si O2"
_cell_formula_units_Z 16
_cell_length_a 11.299242
_cell_length_b 8.533520
_cell_length_c 9.419526
_cell_angle_alpha 90.000000
_cell_angle_beta 142.793025
_cell_angle_gamma 90.000000
_cell_volume 549.216684
_symmetry_space_group_name_H-M "C 2"
_symmetry_group_IT_number 5
_symmetry_cell_setting 'monoclinic'
loop_
_space_group_symop_operation_xyz
x,y,z
-x,y,-z
1/2+x,1/2+y,z
1/2-x,1/2+y,-z
loop_
_atom_site_type_symbol
_atom_site_label
_atom_site_fract_x
_atom_site_fract_y
_atom_site_fract_z
Si Si1 0.000000 0.573830 0.000000
Si Si2 0.270985 0.462037 0.794809
Si Si3 0.369852 0.640896 0.233293
Si Si4 0.248737 0.259393 0.522043
Si Si5 0.000000 0.732913 0.500000
O O1 0.191810 0.517850 0.090642
O O2 0.116611 0.662448 0.238775
O O3 0.231262 0.312128 0.855548
O O4 0.190602 0.409041 0.562611
O O5 0.159428 0.618937 0.727846
O O6 0.500000 0.478532 0.000000
O O7 0.500000 0.624973 0.500000
O O8 0.548740 0.666066 0.294074
O O9 0.375467 0.308667 0.507576
#
# Coordination Sequence:
#
# PCOD9121101 Si02
#       5
#     2   4   4   4   2
#     4   8  14  32  60  78 108 162 182 224 302 336
#     4  10  18  39  63  81 118 162 190 239 298 350
#     4   8  13  29  59  79 103 152 186 226 283 333
#     4  10  19  34  61  85 121 153 194 245 292 342
#     4  12  24  34  62  96 112 154 202 240 294 350
#
# _framework density 29.132401000000002
#
# number of rings (size 3 to 8) (size 9 to 14) (size 15 to 20)
#    0.000    3.000    8.750    0.000    0.000    2.000 
#    0.000    0.000   19.250    0.000    0.000    0.000 
#    0.000    0.000    0.000    0.000    0.000    0.000 
#
# Total GULP energy -44614.717512 kJ/mol
# GULP energy per Si atom -5576.839689 kJ/mol
# Density = 2.906609 g / cm^3
# Si number density = 29.132401 Si / 1000 Ang^3
#
#
#
# Elastic Constant Matrix: (Units=GPa)
#
#
# Indices 1 2 3 4 5 6 
#
# 1 219.9156 50.8599 48.2919 0.0003 24.0496 0.0002
# 2 50.8599 72.1901 19.5543 0.0001 -7.6880 0.0000
# 3 48.2919 19.5543 136.5112 0.0001 54.4141 0.0004
# 4 0.0003 0.0001 0.0001 -6.6039 0.0002 -17.3468
# 5 24.0496 -7.6880 54.4141 0.0002 76.1444 0.0004
# 6 0.0002 0.0000 0.0004 -17.3468 0.0004 53.6135
#
#
#
# Elastic Compliance Matrix: (Units=1/GPa)
#
#
# Indices 1 2 3 4 5 6 
#
# 1 0.005854 -0.004081 -0.000818 0.000000 -0.001676 0.000000
# 2 -0.004081 0.018233 -0.003378 0.000000 0.005544 0.000000
# 3 -0.000818 -0.003378 0.011370 0.000000 -0.008208 0.000000
# 4 0.000000 0.000000 0.000000 -0.081856 0.000000 -0.026485
# 5 -0.001676 0.005544 -0.008208 0.000000 0.020088 0.000000
# 6 0.000000 0.000000 0.000000 -0.026485 0.000000 0.010083
#
#
# Mechanical properties :
#
#
# Convention : Reuss Voigt Hill
#
# Bulk Modulus (GPa) = 52.90064 74.00324 63.45194
# Shear Modulus (GPa) = 754.44060 45.29151 399.86606
#
# Velocity S-wave (km/s) = 16.10999 3.94722 11.72843
# Velocity P-wave (km/s) = 19.08509 6.79938 14.32606
#
# Compressibility (1/GPa) = 0.01890336
#
# Stress axis : x y z
#
# Youngs Moduli (GPa) = 170.82189 54.84561 87.94709
#
# Poissons Ratio (x) = 0.22384 0.07195
# Poissons Ratio (y) = 0.69717 0.29706
# Poissons Ratio (z) = 0.13975 0.18525
#
# Static dielectric constant tensor:
#      x y z
#    x 2.434310 0.000000 -0.070200 
#    y 0.000000 2.394730 0.000000 
#    z -0.070200 0.000000 2.276390 
# 
# From -- ./inp_files/38513.got.cif
#   From: 2010.05.17/outbox.cif.g08.bks.cpg/sg5_20_cif.got.tgz:38513.got - 2010.06.03 18:56:24.
