data_PCOD9121849
_publ_section_title
;
Structure prediction by ZEFSAII (Michael W. Deem and Ramdas Pophale) SiO2 
 PCOD9121849
Probable space group: C 2
;
_chemical_formula_sum "Si O2"
_cell_formula_units_Z 28
_cell_length_a 20.915825
_cell_length_b 5.416491
_cell_length_c 10.889056
_cell_angle_alpha 90.000000
_cell_angle_beta 64.003671
_cell_angle_gamma 90.000000
_cell_volume 1108.809693
_symmetry_space_group_name_H-M "C 2"
_symmetry_group_IT_number 5
_symmetry_cell_setting 'monoclinic'
loop_
_space_group_symop_operation_xyz
x,y,z
-x,y,-z
1/2+x,1/2+y,z
1/2-x,1/2+y,-z
loop_
_atom_site_type_symbol
_atom_site_label
_atom_site_fract_x
_atom_site_fract_y
_atom_site_fract_z
Si Si1 0.167775 0.399160 0.407085
Si Si2 0.550886 0.158008 0.365167
Si Si3 0.576915 0.297473 0.937636
Si Si4 0.125344 0.438807 0.722507
Si Si5 0.762250 0.899934 0.758709
Si Si6 0.352717 0.486065 0.893575
Si Si7 0.525131 0.872784 0.164119
O O1 0.091216 0.449153 0.409377
O O2 0.161134 0.416351 0.559767
O O3 0.209166 0.636407 0.315961
O O4 0.200353 0.135838 0.340047
O O5 0.500000 0.305267 0.500000
O O6 0.504801 0.034211 0.299574
O O7 0.605754 0.314962 0.239713
O O8 0.639004 0.402101 0.972497
O O9 0.553637 0.053593 0.035350
O O10 0.500000 0.433389 0.000000
O O11 0.601817 0.215489 0.783046
O O12 0.181582 0.387569 0.782475
O O13 0.054292 0.273277 0.794834
O O14 0.776018 0.966468 0.892025
O O15 0.405889 0.719083 0.853410
#
# Coordination Sequence:
#
# PCOD9121849 Si02
#       7
#     4   4   4   4   4   4   4
#     4  11  23  44  70 100 146 176 231 285 355 418
#     4  10  19  36  63  98 128 176 226 280 349 412
#     4   9  22  44  63  95 132 173 228 285 343 406
#     4  11  23  43  68  99 138 183 230 285 357 420
#     4  11  25  46  68 104 139 188 227 289 348 424
#     4  10  22  41  67  91 140 179 229 294 344 409
#     4  10  20  41  65  94 131 171 230 288 335 406
#
# _framework density 25.252303000000001
#
# number of rings (size 3 to 8) (size 9 to 14) (size 15 to 20)
#    0.000    1.714    2.857    0.857    0.000    4.571 
#   15.429    0.000    0.000    0.000    0.000    0.000 
#    0.000    0.000    0.000    0.000    0.000    0.000 
#
# Total GULP energy -78044.641373 kJ/mol
# GULP energy per Si atom -5574.617241 kJ/mol
# Density = 2.519483 g / cm^3
# Si number density = 25.252303 Si / 1000 Ang^3
#
#
#
# Elastic Constant Matrix: (Units=GPa)
#
#
# Indices 1 2 3 4 5 6 
#
# 1 135.4347 -5.9968 13.5762 0.0000 43.1974 0.0000
# 2 -5.9968 72.0007 24.5276 0.0000 8.6550 0.0000
# 3 13.5762 24.5276 87.7998 0.0000 24.5348 0.0000
# 4 0.0000 0.0000 0.0000 28.0009 0.0000 30.1868
# 5 43.1974 8.6550 24.5348 0.0000 37.8362 0.0000
# 6 0.0000 0.0000 0.0000 30.1868 0.0000 -74.6900
#
#
#
# Elastic Compliance Matrix: (Units=1/GPa)
#
#
# Indices 1 2 3 4 5 6 
#
# 1 0.012350 0.002294 0.001876 0.000000 -0.015841 0.000000
# 2 0.002294 0.015800 -0.003697 0.000000 -0.003836 0.000000
# 3 0.001876 -0.003697 0.015260 0.000000 -0.011191 0.000000
# 4 0.000000 0.000000 0.000000 0.024875 0.000000 0.010053
# 5 -0.015841 -0.003836 -0.011191 0.000000 0.052650 0.000000
# 6 0.000000 0.000000 0.000000 0.010053 0.000000 -0.009325
#
#
# Mechanical properties :
#
#
# Convention : Reuss Voigt Hill
#
# Bulk Modulus (GPa) = 22.54515 39.93882 31.24198
# Shear Modulus (GPa) = 39.85743 15.77128 27.81435
#
# Velocity S-wave (km/s) = 3.97718 2.50181 3.32242
# Velocity P-wave (km/s) = 5.48069 4.91891 5.20738
#
# Compressibility (1/GPa) = 0.04435545
#
# Stress axis : x y z
#
# Youngs Moduli (GPa) = 80.97448 63.29046 65.53293
#
# Poissons Ratio (x) = -0.14516 -0.12296
# Poissons Ratio (y) = -0.18572 0.24226
# Poissons Ratio (z) = -0.15193 0.23397
#
# Static dielectric constant tensor:
#      x y z
#    x 2.390310 0.000000 -0.092740 
#    y 0.000000 2.099080 0.000000 
#    z -0.092740 0.000000 2.011190 
# 
# From -- ./inp_files/45654.got.cif
#   From: 2010.05.17/outbox.cif.g08.bks.cpg/sg5_23_cif.got.tgz:45654.got - 2010.06.03 18:56:24.
