data_PCOD9121267
_publ_section_title
;
Structure prediction by ZEFSAII (Michael W. Deem and Ramdas Pophale) SiO2 
 PCOD9121267
Probable space group: C 2
;
_chemical_formula_sum "Si O2"
_cell_formula_units_Z 24
_cell_length_a 8.089829
_cell_length_b 14.848601
_cell_length_c 9.066571
_cell_angle_alpha 90.000000
_cell_angle_beta 128.899493
_cell_angle_gamma 90.000000
_cell_volume 847.591032
_symmetry_space_group_name_H-M "C 2"
_symmetry_group_IT_number 5
_symmetry_cell_setting 'monoclinic'
loop_
_space_group_symop_operation_xyz
x,y,z
-x,y,-z
1/2+x,1/2+y,z
1/2-x,1/2+y,-z
loop_
_atom_site_type_symbol
_atom_site_label
_atom_site_fract_x
_atom_site_fract_y
_atom_site_fract_z
Si Si1 0.071167 0.455250 0.242095
Si Si2 0.934925 0.287403 0.295501
Si Si3 0.797183 0.171139 0.782509
Si Si4 0.412943 0.340155 0.283258
Si Si5 0.697216 0.608389 0.733471
Si Si6 0.645732 0.490598 0.307328
O O1 0.897383 0.383381 0.197792
O O2 0.197414 0.396912 0.188577
O O3 0.091671 0.555997 0.194450
O O4 0.210636 0.471464 0.469221
O O5 0.126898 0.230797 0.318992
O O6 0.000000 0.305814 0.500000
O O7 0.761840 0.209830 0.198344
O O8 0.621261 0.234903 0.755549
O O9 0.736100 0.066861 0.722280
O O10 0.000000 0.173226 0.000000
O O11 0.500000 0.350952 0.500000
O O12 0.550752 0.390550 0.236888
O O13 0.500000 0.610983 0.500000
O O14 0.569759 0.548721 0.781672
#
# Coordination Sequence:
#
# PCOD9121267 Si02
#       6
#     4   4   4   4   4   4
#     4   8  13  24  45  70  93 121 166 214 249 292
#     4   9  16  27  45  70  98 130 170 212 253 305
#     4  10  19  31  51  80 110 140 175 220 276 326
#     4   8  15  30  53  76 101 140 183 219 262 319
#     4   7  11  21  39  62  87 117 155 198 244 289
#     4   8  14  27  46  68  97 134 172 209 255 313
#
# _framework density 28.315543999999999
#
# number of rings (size 3 to 8) (size 9 to 14) (size 15 to 20)
#    0.000    3.667    0.000    3.000    0.000    0.667 
#    0.000    2.500    0.000    4.000    0.000    0.000 
#    0.000    0.000    0.000    0.000    0.000    0.000 
#
# Total GULP energy -66862.332730 kJ/mol
# GULP energy per Si atom -5571.861061 kJ/mol
# Density = 2.825110 g / cm^3
# Si number density = 28.315544 Si / 1000 Ang^3
#
#
#
# Elastic Constant Matrix: (Units=GPa)
#
#
# Indices 1 2 3 4 5 6 
#
# 1 107.8846 80.1092 25.3963 0.0000 -8.2893 0.0000
# 2 80.1092 307.5771 23.6114 0.0000 -0.1628 0.0000
# 3 25.3963 23.6114 107.7356 0.0000 -1.8453 0.0000
# 4 0.0000 0.0000 0.0000 -56.3153 0.0000 16.9285
# 5 -8.2893 -0.1628 -1.8453 0.0000 24.1820 0.0000
# 6 0.0000 0.0000 0.0000 16.9285 0.0000 64.9530
#
#
#
# Elastic Compliance Matrix: (Units=1/GPa)
#
#
# Indices 1 2 3 4 5 6 
#
# 1 0.012356 -0.003049 -0.002175 0.000000 0.004049 0.000000
# 2 -0.003049 0.004059 -0.000189 0.000000 -0.001032 0.000000
# 3 -0.002175 -0.000189 0.009836 0.000000 0.000004 0.000000
# 4 0.000000 0.000000 0.000000 -0.016467 0.000000 0.004292
# 5 0.004049 -0.001032 0.000004 0.000000 0.042734 0.000000
# 6 0.000000 0.000000 0.000000 0.004292 0.000000 0.014277
#
#
# Mechanical properties :
#
#
# Convention : Reuss Voigt Hill
#
# Bulk Modulus (GPa) = 64.82494 86.82569 75.82531
# Shear Modulus (GPa) = 60.41264 32.83597 46.62430
#
# Velocity S-wave (km/s) = 4.62405 3.40905 4.06223
# Velocity P-wave (km/s) = 7.17304 6.79895 6.98850
#
# Compressibility (1/GPa) = 0.01542616
#
# Stress axis : x y z
#
# Youngs Moduli (GPa) = 80.92949 246.34778 101.66614
#
# Poissons Ratio (x) = 0.75115 0.22114
# Poissons Ratio (y) = 0.24677 0.01917
# Poissons Ratio (z) = 0.17603 0.04645
#
# Static dielectric constant tensor:
#      x y z
#    x 2.336630 0.000000 -0.037610 
#    y 0.000000 2.246620 0.000000 
#    z -0.037610 0.000000 2.219890 
# 
# From -- ./inp_files/39677.got.cif
#   From: 2010.05.17/outbox.cif.g08.bks.cpg/sg5_20_cif.got.tgz:39677.got - 2010.06.03 18:56:24.
