data_PCOD9121424
_publ_section_title
;
Structure prediction by ZEFSAII (Michael W. Deem and Ramdas Pophale) SiO2 
 PCOD9121424
Probable space group: C 2
;
_chemical_formula_sum "Si O2"
_cell_formula_units_Z 28
_cell_length_a 22.171737
_cell_length_b 7.688269
_cell_length_c 19.372091
_cell_angle_alpha 90.000000
_cell_angle_beta 160.505870
_cell_angle_gamma 90.000000
_cell_volume 1101.981690
_symmetry_space_group_name_H-M "C 2"
_symmetry_group_IT_number 5
_symmetry_cell_setting 'monoclinic'
loop_
_space_group_symop_operation_xyz
x,y,z
-x,y,-z
1/2+x,1/2+y,z
1/2-x,1/2+y,-z
loop_
_atom_site_type_symbol
_atom_site_label
_atom_site_fract_x
_atom_site_fract_y
_atom_site_fract_z
Si Si1 0.368608 0.583640 0.915454
Si Si2 0.855033 0.952849 0.209706
Si Si3 0.472639 0.076473 0.371738
Si Si4 0.306953 0.787902 0.092256
Si Si5 0.698365 0.501717 0.351740
Si Si6 0.916866 0.486697 0.978535
Si Si7 0.908908 0.647526 0.709579
O O1 0.493292 0.558603 0.118097
O O2 0.367449 0.791027 0.904376
O O3 0.500000 0.500029 0.000000
O O4 0.164341 0.534745 0.713579
O O5 0.968352 0.786275 0.355432
O O6 0.919499 0.112381 0.231422
O O7 0.708182 0.852823 0.002494
O O8 0.768186 0.045514 0.183486
O O9 0.383651 0.952155 0.216739
O O10 0.682742 0.037181 0.588113
O O11 0.101844 0.730532 0.892499
O O12 0.797421 0.590099 0.523032
O O13 0.694727 0.300400 0.364200
O O14 0.056524 0.506759 0.192640
O O15 0.000000 0.572865 0.000000
#
# Coordination Sequence:
#
# PCOD9121424 Si02
#       7
#     4   4   4   4   4   4   4
#     4  10  23  44  70  94 133 185 223 283 347 407
#     4  10  19  33  63  94 125 176 220 272 330 404
#     4  11  22  41  64  96 135 175 226 276 342 414
#     4  11  19  37  61  95 133 176 218 273 351 392
#     4  12  24  41  65 103 133 173 231 284 345 404
#     4   9  20  41  66  94 132 183 224 268 345 411
#     4  11  23  39  61 102 136 171 226 291 333 407
#
# _framework density 25.408771999999999
#
# number of rings (size 3 to 8) (size 9 to 14) (size 15 to 20)
#    0.000    1.429    4.286    1.714    0.000    3.429 
#    2.571    0.000    0.000    0.000    0.000    0.000 
#    0.000    0.000    0.000    0.000    0.000    0.000 
#
# Total GULP energy -78102.246987 kJ/mol
# GULP energy per Si atom -5578.731928 kJ/mol
# Density = 2.535094 g / cm^3
# Si number density = 25.408772 Si / 1000 Ang^3
#
#
#
# Elastic Constant Matrix: (Units=GPa)
#
#
# Indices 1 2 3 4 5 6 
#
# 1 141.2817 24.6284 26.5735 0.0003 19.3434 0.0001
# 2 24.6284 90.3867 7.6043 0.0006 20.7874 0.0006
# 3 26.5735 7.6043 115.0942 0.0009 24.0401 0.0010
# 4 0.0003 0.0006 0.0009 14.9744 0.0005 14.5057
# 5 19.3434 20.7874 24.0401 0.0005 25.1757 0.0004
# 6 0.0001 0.0006 0.0010 14.5057 0.0004 11.6810
#
#
#
# Elastic Compliance Matrix: (Units=1/GPa)
#
#
# Indices 1 2 3 4 5 6 
#
# 1 0.008040 -0.001093 -0.000852 0.000000 -0.004461 0.000000
# 2 -0.001093 0.014116 0.001972 -0.000001 -0.012699 0.000000
# 3 -0.000852 0.001972 0.011190 -0.000001 -0.011659 0.000001
# 4 0.000000 -0.000001 -0.000001 -0.329061 0.000001 0.408632
# 5 -0.004461 -0.012699 -0.011659 0.000001 0.064767 -0.000002
# 6 0.000000 0.000000 0.000001 0.408632 -0.000002 -0.421837
#
#
# Mechanical properties :
#
#
# Convention : Reuss Voigt Hill
#
# Bulk Modulus (GPa) = 29.94035 51.59724 40.76879
# Shear Modulus (GPa) = -7.79174 29.56332 10.88579
#
# Velocity S-wave (km/s) = -1.75306 3.41472 2.07209
# Velocity P-wave (km/s) = 2.77695 5.99150 4.66956
#
# Compressibility (1/GPa) = 0.03339974
#
# Stress axis : x y z
#
# Youngs Moduli (GPa) = 124.38363 70.84149 89.36326
#
# Poissons Ratio (x) = 0.07743 0.07616
# Poissons Ratio (y) = 0.13595 -0.17624
# Poissons Ratio (z) = 0.10601 -0.13971
#
# Static dielectric constant tensor:
#      x y z
#    x 2.145200 0.000000 -0.052060 
#    y 0.000000 1.979570 0.000000 
#    z -0.052060 0.000000 2.097680 
# 
# From -- ./inp_files/67387.got.cif
#   From: 2010.05.17/outbox.cif.g08.bks.cpg/sg5_34_cif.got.tgz:67387.got - 2010.06.03 18:56:24.
