data_PCOD9121721
_publ_section_title
;
Structure prediction by ZEFSAII (Michael W. Deem and Ramdas Pophale) SiO2 
 PCOD9121721
Probable space group: C 2
;
_chemical_formula_sum "Si O2"
_cell_formula_units_Z 30
_cell_length_a 12.236604
_cell_length_b 13.797570
_cell_length_c 13.820444
_cell_angle_alpha 90.000000
_cell_angle_beta 30.473249
_cell_angle_gamma 90.000000
_cell_volume 1183.341143
_symmetry_space_group_name_H-M "C 2"
_symmetry_group_IT_number 5
_symmetry_cell_setting 'monoclinic'
loop_
_space_group_symop_operation_xyz
x,y,z
-x,y,-z
1/2+x,1/2+y,z
1/2-x,1/2+y,-z
loop_
_atom_site_type_symbol
_atom_site_label
_atom_site_fract_x
_atom_site_fract_y
_atom_site_fract_z
Si Si1 0.569594 0.798190 0.657897
Si Si2 0.410408 0.022463 0.328801
Si Si3 0.083452 0.975530 0.832597
Si Si4 0.425663 0.303348 0.768576
Si Si5 0.303750 0.173626 0.010909
Si Si6 0.643767 0.141432 0.307210
Si Si7 0.000000 0.346825 0.500000
Si Si8 0.413351 0.512047 0.750787
O O1 0.825994 0.787166 0.452013
O O2 0.443316 0.715674 0.812204
O O3 0.476419 0.792373 0.619527
O O4 0.533230 0.908397 0.724021
O O5 0.498094 0.059746 0.365325
O O6 0.151532 0.030815 0.526688
O O7 0.532882 0.097506 0.166012
O O8 0.164336 0.082493 0.795446
O O9 0.938708 0.993621 0.848676
O O10 0.287121 0.911252 0.647920
O O11 0.000000 0.937797 0.000000
O O12 0.291858 0.217827 0.821835
O O13 0.347822 0.402299 0.778421
O O14 0.413714 0.276567 0.892899
O O15 0.245277 0.101281 0.145604
O O16 0.500000 0.188449 0.500000
#
# Coordination Sequence:
#
# PCOD9121721 Si02
#       8
#     4   4   4   4   4   4   2   4
#     4  11  22  38  60  89 125 163 206 257 318 374
#     4  10  19  36  55  86 125 154 199 258 315 367
#     4  12  21  33  62  92 126 155 195 256 326 369
#     4  10  23  37  56  92 125 159 206 255 314 374
#     4  11  22  34  60  87 120 164 211 250 303 386
#     4  11  18  36  59  88 124 153 197 258 310 365
#     4  12  22  38  58  90 126 160 202 262 314 366
#     4  11  21  39  58  87 125 165 200 258 323 364
#
# _framework density 25.351945000000001
#
# number of rings (size 3 to 8) (size 9 to 14) (size 15 to 20)
#    0.000    1.067    6.000    4.000    1.867    0.000 
#    0.000    0.000    1.467    0.000    3.467    0.000 
#    0.000    0.000    0.000    0.000    0.000    0.000 
#
# Total GULP energy -83534.232563 kJ/mol
# GULP energy per Si atom -5568.948838 kJ/mol
# Density = 2.529424 g / cm^3
# Si number density = 25.351945 Si / 1000 Ang^3
#
#
#
# Elastic Constant Matrix: (Units=GPa)
#
#
# Indices 1 2 3 4 5 6 
#
# 1 26.8393 -10.9100 -8.7993 -0.0074 4.9083 -0.0029
# 2 -10.9100 126.1921 42.6591 -0.0240 -11.1457 -0.0042
# 3 -8.7993 42.6591 130.3501 -0.0205 -1.8116 -0.0023
# 4 -0.0074 -0.0240 -0.0205 50.2331 0.0109 -10.8520
# 5 4.9083 -11.1457 -1.8116 0.0109 21.5662 -0.0024
# 6 -0.0029 -0.0042 -0.0023 -10.8520 -0.0024 -7.4982
#
#
#
# Elastic Compliance Matrix: (Units=1/GPa)
#
#
# Indices 1 2 3 4 5 6 
#
# 1 0.040193 0.002134 0.001905 0.000005 -0.007884 -0.000022
# 2 0.002134 0.009454 -0.002892 0.000001 0.004157 -0.000008
# 3 0.001905 -0.002892 0.008730 0.000002 -0.001195 -0.000004
# 4 0.000005 0.000001 0.000002 0.015166 -0.000010 -0.021949
# 5 -0.007884 0.004157 -0.001195 -0.000010 0.050211 0.000000
# 6 -0.000022 -0.000008 -0.000004 -0.021949 0.000000 -0.101599
#
#
# Mechanical properties :
#
#
# Convention : Reuss Voigt Hill
#
# Bulk Modulus (GPa) = 16.48208 36.58681 26.53445
# Shear Modulus (GPa) = 124.74018 30.22232 77.48125
#
# Velocity S-wave (km/s) = 7.02212 3.45644 5.53431
# Velocity P-wave (km/s) = 8.50073 5.51291 7.16431
#
# Compressibility (1/GPa) = 0.06067195
#
# Stress axis : x y z
#
# Youngs Moduli (GPa) = 24.87999 105.77776 114.54615
#
# Poissons Ratio (x) = -0.22578 -0.21822
# Poissons Ratio (y) = -0.05311 0.33127
# Poissons Ratio (z) = -0.04740 0.30591
#
# Static dielectric constant tensor:
#      x y z
#    x 2.367990 -0.000030 0.233890 
#    y -0.000030 2.073890 -0.000010 
#    z 0.233890 -0.000010 2.175690 
# 
# From -- ./inp_files/54782.got.cif
#   From: 2010.05.17/outbox.cif.g08.bks.cpg/sg5_28_cif.got.tgz:54782.got - 2010.06.03 18:56:24.
