data_PCOD9121635
_publ_section_title
;
Structure prediction by ZEFSAII (Michael W. Deem and Ramdas Pophale) SiO2 
 PCOD9121635
Probable space group: C 2
;
_chemical_formula_sum "Si O2"
_cell_formula_units_Z 28
_cell_length_a 19.491977
_cell_length_b 15.118460
_cell_length_c 9.181573
_cell_angle_alpha 90.000000
_cell_angle_beta 150.429125
_cell_angle_gamma 90.000000
_cell_volume 1335.265202
_symmetry_space_group_name_H-M "C 2"
_symmetry_group_IT_number 5
_symmetry_cell_setting 'monoclinic'
loop_
_space_group_symop_operation_xyz
x,y,z
-x,y,-z
1/2+x,1/2+y,z
1/2-x,1/2+y,-z
loop_
_atom_site_type_symbol
_atom_site_label
_atom_site_fract_x
_atom_site_fract_y
_atom_site_fract_z
Si Si1 0.748080 0.290860 0.950476
Si Si2 0.914214 0.615608 0.973127
Si Si3 0.158150 0.118294 0.310313
Si Si4 0.306701 0.603419 0.950170
Si Si5 0.685007 0.984644 0.969751
Si Si6 0.484793 0.292463 0.243922
Si Si7 0.062219 0.981404 0.340024
O O1 0.822917 0.197373 0.060977
O O2 0.840343 0.380072 0.105715
O O3 0.619202 0.289626 0.597677
O O4 0.661277 0.291760 0.939455
O O5 0.763743 0.647730 0.631815
O O6 0.905185 0.546275 0.089232
O O7 0.987351 0.705489 0.154067
O O8 0.000000 0.572878 0.000000
O O9 0.230787 0.120764 0.287950
O O10 0.130652 0.019552 0.320456
O O11 0.000000 0.157327 0.000000
O O12 0.207875 0.540471 0.864233
O O13 0.448368 0.549645 0.188819
O O14 0.827849 0.978636 0.325878
O O15 0.497792 0.386538 0.192297
#
# Coordination Sequence:
#
# PCOD9121635 Si02
#       7
#     4   4   4   4   4   4   4
#     4  10  20  34  58  91 118 154 203 251 307 355
#     4  11  22  38  60  93 126 160 201 251 310 360
#     4   9  21  38  59  89 121 162 201 248 302 357
#     4  11  18  34  58  84 115 154 194 249 297 353
#     4  10  20  37  59  84 119 159 202 249 299 362
#     4  10  19  35  59  90 118 153 203 261 296 353
#     4   9  19  36  61  86 115 152 209 254 294 351
#
# _framework density 20.969615999999998
#
# number of rings (size 3 to 8) (size 9 to 14) (size 15 to 20)
#    0.000    2.000    2.857    1.286    0.000    1.714 
#    0.000    5.000    0.000   17.143    0.000    0.000 
#    0.000    0.000    0.000    0.000    0.000    0.000 
#
# Total GULP energy -77989.073371 kJ/mol
# GULP energy per Si atom -5570.648098 kJ/mol
# Density = 2.092189 g / cm^3
# Si number density = 20.969616 Si / 1000 Ang^3
#
#
#
# Elastic Constant Matrix: (Units=GPa)
#
#
# Indices 1 2 3 4 5 6 
#
# 1 124.3505 58.7897 1.0357 0.0000 -6.4904 0.0000
# 2 58.7897 162.4526 5.9380 0.0000 9.2579 0.0000
# 3 1.0357 5.9380 49.6912 0.0000 0.1090 0.0000
# 4 0.0000 0.0000 0.0000 -43.0380 0.0000 -49.1457
# 5 -6.4904 9.2579 0.1090 0.0000 19.8909 0.0000
# 6 0.0000 0.0000 0.0000 -49.1457 0.0000 -13.0238
#
#
#
# Elastic Compliance Matrix: (Units=1/GPa)
#
#
# Indices 1 2 3 4 5 6 
#
# 1 0.010200 -0.003996 0.000254 0.000000 0.005187 0.000000
# 2 -0.003996 0.007917 -0.000852 0.000000 -0.004984 0.000000
# 3 0.000254 -0.000852 0.020220 0.000000 0.000368 0.000000
# 4 0.000000 0.000000 0.000000 0.007022 0.000000 -0.026497
# 5 0.005187 -0.004984 0.000368 0.000000 0.054284 0.000000
# 6 0.000000 0.000000 0.000000 -0.026497 0.000000 0.023204
#
#
# Mechanical properties :
#
#
# Convention : Reuss Voigt Hill
#
# Bulk Modulus (GPa) = 34.30768 52.00233 43.15501
# Shear Modulus (GPa) = 35.27318 10.81455 23.04386
#
# Velocity S-wave (km/s) = 4.10580 2.27342 3.31859
# Velocity P-wave (km/s) = 6.23482 5.63418 5.94209
#
# Compressibility (1/GPa) = 0.02914799
#
# Stress axis : x y z
#
# Youngs Moduli (GPa) = 98.04346 126.31230 49.45598
#
# Poissons Ratio (x) = 0.50474 -0.01254
# Poissons Ratio (y) = 0.39178 0.04213
# Poissons Ratio (z) = -0.02486 0.10760
#
# Static dielectric constant tensor:
#      x y z
#    x 1.797090 0.000000 -0.009800 
#    y 0.000000 1.745050 0.000000 
#    z -0.009800 0.000000 1.850270 
# 
# From -- ./inp_files/27737.got.cif
#   From: 2010.05.17/outbox.cif.g08.bks.cpg/sg5_14_cif.got.tgz:27737.got - 2010.06.03 18:56:24.
