data_PCOD9121468
_publ_section_title
;
Structure prediction by ZEFSAII (Michael W. Deem and Ramdas Pophale) SiO2 
 PCOD9121468
Probable space group: C 2
;
_chemical_formula_sum "Si O2"
_cell_formula_units_Z 26
_cell_length_a 12.720594
_cell_length_b 23.443997
_cell_length_c 6.467100
_cell_angle_alpha 90.000000
_cell_angle_beta 49.129498
_cell_angle_gamma 90.000000
_cell_volume 1458.410612
_symmetry_space_group_name_H-M "C 2"
_symmetry_group_IT_number 5
_symmetry_cell_setting 'monoclinic'
loop_
_space_group_symop_operation_xyz
x,y,z
-x,y,-z
1/2+x,1/2+y,z
1/2-x,1/2+y,-z
loop_
_atom_site_type_symbol
_atom_site_label
_atom_site_fract_x
_atom_site_fract_y
_atom_site_fract_z
Si Si1 0.000000 0.146930 0.000000
Si Si2 0.350461 0.602365 0.805559
Si Si3 0.380031 0.823337 0.315081
Si Si4 0.000000 0.412306 0.500000
Si Si5 0.235565 0.982995 0.000224
Si Si6 0.139634 0.211452 0.450043
Si Si7 0.870202 0.887536 0.549489
Si Si8 0.000000 0.950433 0.000000
O O1 0.094175 0.182809 0.722709
O O2 0.895621 0.114210 0.982482
O O3 0.500000 0.590473 0.500000
O O4 0.291959 0.660395 0.773373
O O5 0.254504 0.546823 0.922872
O O6 0.444270 0.871380 0.386200
O O7 0.310777 0.773828 0.546104
O O8 0.261133 0.848796 0.323224
O O9 0.500000 0.803195 0.000000
O O10 0.874517 0.452866 0.738395
O O11 0.117789 0.984489 0.972807
O O12 0.174854 0.941285 0.253576
O O13 0.000000 0.224010 0.500000
O O14 0.000000 0.859154 0.500000
O O15 0.922554 0.911093 0.264527
#
# Coordination Sequence:
#
# PCOD9121468 Si02
#       8
#     2   4   4   2   4   4   4   2
#     4   8  15  30  50  84 102 144 191 236 296 310
#     4   9  18  32  52  84 113 145 197 248 283 337
#     4  12  21  37  59  87 122 153 197 246 298 356
#     4  12  24  36  56  94 120 162 186 240 308 360
#     4  11  21  36  55  86 122 152 196 239 301 353
#     4   9  18  31  54  85 112 144 194 249 288 329
#     4  10  22  36  55  87 117 156 195 239 290 358
#     4  10  19  34  56  80 116 158 193 234 288 348
#
# _framework density 17.827628000000001
#
# number of rings (size 3 to 8) (size 9 to 14) (size 15 to 20)
#    0.000    2.154    4.615    1.846    0.000    1.231 
#    0.000    0.000    0.000    0.000    6.000    2.154 
#    0.000    0.000    0.000    0.000    0.000    0.000 
#
# Total GULP energy -72367.327560 kJ/mol
# GULP energy per Si atom -5566.717505 kJ/mol
# Density = 1.778705 g / cm^3
# Si number density = 17.827628 Si / 1000 Ang^3
#
#
#
# Elastic Constant Matrix: (Units=GPa)
#
#
# Indices 1 2 3 4 5 6 
#
# 1 83.1736 49.6524 26.0613 0.0000 11.5313 0.0000
# 2 49.6524 117.9171 23.8766 0.0000 2.7492 0.0000
# 3 26.0613 23.8766 80.6569 0.0000 8.9423 0.0000
# 4 0.0000 0.0000 0.0000 9.0783 0.0000 -10.7727
# 5 11.5313 2.7492 8.9423 0.0000 27.9686 0.0000
# 6 0.0000 0.0000 0.0000 -10.7727 0.0000 5.4274
#
#
#
# Elastic Compliance Matrix: (Units=1/GPa)
#
#
# Indices 1 2 3 4 5 6 
#
# 1 0.017812 -0.006733 -0.003132 0.000000 -0.005680 0.000000
# 2 -0.006733 0.011567 -0.001483 0.000000 0.002113 0.000000
# 3 -0.003132 -0.001483 0.014193 0.000000 -0.003101 0.000000
# 4 0.000000 0.000000 0.000000 -0.081274 0.000000 -0.161319
# 5 -0.005680 0.002113 -0.003101 0.000000 0.038880 0.000000
# 6 0.000000 0.000000 0.000000 -0.161319 0.000000 -0.135946
#
#
# Mechanical properties :
#
#
# Convention : Reuss Voigt Hill
#
# Bulk Modulus (GPa) = 47.90461 53.43644 50.67053
# Shear Modulus (GPa) = -47.56732 20.63868 -13.46432
#
# Velocity S-wave (km/s) = -5.17105 3.40616 -2.75116
# Velocity P-wave (km/s) = 2.95358 6.74598 4.28863
#
# Compressibility (1/GPa) = 0.02087482
#
# Stress axis : x y z
#
# Youngs Moduli (GPa) = 56.14286 86.45416 70.45762
#
# Poissons Ratio (x) = 0.58214 0.22068
# Poissons Ratio (y) = 0.37804 0.10447
# Poissons Ratio (z) = 0.17585 0.12819
#
# Static dielectric constant tensor:
#      x y z
#    x 1.612850 0.000000 0.019790 
#    y 0.000000 1.656220 0.000000 
#    z 0.019790 0.000000 1.621960 
# 
# From -- ./inp_files/5786.got.cif
#   From: 2010.05.17/outbox.cif.g08.bks.cpg/sg5_3_cif.got.tgz:5786.got - 2010.06.03 18:56:24.
