data_PCOD9121662
_publ_section_title
;
Structure prediction by ZEFSAII (Michael W. Deem and Ramdas Pophale) SiO2 
 PCOD9121662
Probable space group: C 2
;
_chemical_formula_sum "Si O2"
_cell_formula_units_Z 32
_cell_length_a 13.542916
_cell_length_b 19.721248
_cell_length_c 9.247195
_cell_angle_alpha 90.000000
_cell_angle_beta 46.210863
_cell_angle_gamma 90.000000
_cell_volume 1782.906172
_symmetry_space_group_name_H-M "C 2"
_symmetry_group_IT_number 5
_symmetry_cell_setting 'monoclinic'
loop_
_space_group_symop_operation_xyz
x,y,z
-x,y,-z
1/2+x,1/2+y,z
1/2-x,1/2+y,-z
loop_
_atom_site_type_symbol
_atom_site_label
_atom_site_fract_x
_atom_site_fract_y
_atom_site_fract_z
Si Si1 0.758516 0.694660 0.514854
Si Si2 0.845120 0.799270 0.678242
Si Si3 0.656272 0.588562 0.851213
Si Si4 0.990892 0.278326 0.352021
Si Si5 0.898001 0.498912 0.727167
Si Si6 0.010665 0.611353 0.146480
Si Si7 0.741815 0.693660 0.008956
Si Si8 0.098464 0.390295 0.027641
O O1 0.808603 0.750518 0.580691
O O2 0.695100 0.631118 0.668388
O O3 0.644010 0.733841 0.538924
O O4 0.886609 0.663046 0.300588
O O5 0.828392 0.749833 0.833471
O O6 0.000000 0.823672 0.500000
O O7 0.733386 0.857550 0.818698
O O8 0.764573 0.530466 0.784393
O O9 0.672541 0.644151 0.961857
O O10 0.500000 0.564712 0.000000
O O11 0.016242 0.330478 0.195151
O O12 0.000000 0.312131 0.500000
O O13 0.120872 0.228822 0.216099
O O14 0.865956 0.444654 0.884583
O O15 0.000000 0.473087 0.500000
O O16 0.975934 0.559765 0.733290
O O17 0.152844 0.651769 0.003841
O O18 0.000000 0.578100 0.000000
O O19 0.000000 0.416124 0.000000
#
# Coordination Sequence:
#
# PCOD9121662 Si02
#       8
#     4   4   4   4   4   4   4   4
#     4  11  19  34  62  96 120 154 198 252 318 360
#     4  10  19  35  61  87 117 155 200 249 304 365
#     4  10  19  35  61  87 117 155 200 249 304 365
#     4  11  21  35  57  91 125 154 195 250 310 362
#     4  11  23  41  62  86 117 166 210 249 291 363
#     4  11  21  35  57  91 125 154 195 250 310 362
#     4   9  19  30  54  88 120 146 188 252 304 358
#     4  11  23  41  62  86 117 166 210 249 291 363
#
# _framework density 17.948224
#
# number of rings (size 3 to 8) (size 9 to 14) (size 15 to 20)
#    0.000    1.500    5.000    1.500    0.000    0.000 
#    0.000    1.250    0.000    0.000    0.000    0.000 
#    0.000    0.000    0.000    0.000    0.000    0.000 
#
# Total GULP energy -89230.848882 kJ/mol
# GULP energy per Si atom -5576.928055 kJ/mol
# Density = 1.790737 g / cm^3
# Si number density = 17.948224 Si / 1000 Ang^3
#
#
#
# Elastic Constant Matrix: (Units=GPa)
#
#
# Indices 1 2 3 4 5 6 
#
# 1 102.4325 30.4873 42.6771 0.0000 -6.9692 0.0000
# 2 30.4873 66.2719 18.3871 0.0000 -11.4468 0.0000
# 3 42.6771 18.3871 52.0462 0.0000 -13.3881 0.0000
# 4 0.0000 0.0000 0.0000 21.4104 0.0000 5.1778
# 5 -6.9692 -11.4468 -13.3881 0.0000 27.3055 0.0000
# 6 0.0000 0.0000 0.0000 5.1778 0.0000 17.3923
#
#
#
# Elastic Compliance Matrix: (Units=1/GPa)
#
#
# Indices 1 2 3 4 5 6 
#
# 1 0.016119 -0.004605 -0.012620 0.000000 -0.004004 0.000000
# 2 -0.004605 0.018591 -0.001246 0.000000 0.006007 0.000000
# 3 -0.012620 -0.001246 0.033231 0.000000 0.012550 0.000000
# 4 0.000000 0.000000 0.000000 0.050330 0.000000 -0.014983
# 5 -0.004004 0.006007 0.012550 0.000000 0.044272 0.000000
# 6 0.000000 0.000000 0.000000 -0.014983 0.000000 0.061957
#
#
# Mechanical properties :
#
#
# Convention : Reuss Voigt Hill
#
# Bulk Modulus (GPa) = 32.26147 44.87262 38.56704
# Shear Modulus (GPa) = 18.39746 21.83492 20.11619
#
# Velocity S-wave (km/s) = 3.20508 3.49169 3.35145
# Velocity P-wave (km/s) = 5.63121 6.42739 6.04242
#
# Compressibility (1/GPa) = 0.03099673
#
# Stress axis : x y z
#
# Youngs Moduli (GPa) = 62.03905 53.78829 30.09261
#
# Poissons Ratio (x) = 0.24772 0.37978
# Poissons Ratio (y) = 0.28571 0.03751
# Poissons Ratio (z) = 0.78295 0.06704
#
# Static dielectric constant tensor:
#      x y z
#    x 1.608890 0.000000 0.019160 
#    y 0.000000 1.606090 0.000000 
#    z 0.019160 0.000000 1.613350 
# 
# From -- ./inp_files/21942.got.cif
#   From: 2010.05.17/outbox.cif.g08.bks.cpg/sg5_11_cif.got.tgz:21942.got - 2010.06.03 18:56:24.
