data_PCOD9121590
_publ_section_title
;
Structure prediction by ZEFSAII (Michael W. Deem and Ramdas Pophale) SiO2 
 PCOD9121590
Probable space group: C 2
;
_chemical_formula_sum "Si O2"
_cell_formula_units_Z 32
_cell_length_a 15.165594
_cell_length_b 11.987497
_cell_length_c 15.617919
_cell_angle_alpha 90.000000
_cell_angle_beta 36.548670
_cell_angle_gamma 90.000000
_cell_volume 1690.817810
_symmetry_space_group_name_H-M "C 2"
_symmetry_group_IT_number 5
_symmetry_cell_setting 'monoclinic'
loop_
_space_group_symop_operation_xyz
x,y,z
-x,y,-z
1/2+x,1/2+y,z
1/2-x,1/2+y,-z
loop_
_atom_site_type_symbol
_atom_site_label
_atom_site_fract_x
_atom_site_fract_y
_atom_site_fract_z
Si Si1 0.712902 0.051160 0.834900
Si Si2 0.493426 0.131998 0.862753
Si Si3 0.148845 0.496300 0.596389
Si Si4 0.515297 0.549684 0.663974
Si Si5 0.553614 0.304765 0.233893
Si Si6 0.076464 0.267721 0.725069
Si Si7 0.376585 0.806747 0.038088
Si Si8 0.115582 0.677718 0.486737
O O1 0.623665 0.111092 0.829430
O O2 0.888700 0.061920 0.691130
O O3 0.661338 0.922109 0.882227
O O4 0.655036 0.101772 0.970047
O O5 0.482859 0.253182 0.829399
O O6 0.533184 0.053568 0.751490
O O7 0.316238 0.526056 0.495775
O O8 0.122446 0.364997 0.623315
O O9 0.131921 0.556054 0.517818
O O10 0.460236 0.437996 0.755768
O O11 0.518746 0.659515 0.719839
O O12 0.714807 0.262635 0.139906
O O13 0.442868 0.257086 0.391546
O O14 0.223350 0.226597 0.661026
O O15 0.959689 0.318176 0.882686
O O16 0.500000 0.745569 0.000000
O O17 0.000000 0.678903 0.500000
#
# Coordination Sequence:
#
# PCOD9121590 Si02
#       8
#     4   4   4   4   4   4   4   4
#     4  10  19  35  56  87 112 137 195 232 273 323
#     4  10  19  36  58  81 111 147 180 236 283 327
#     4  10  20  37  57  80 110 147 185 227 290 328
#     4  10  22  36  54  84 112 149 188 233 273 338
#     4  10  21  36  57  81 115 148 188 227 288 328
#     4  11  20  37  59  79 116 149 188 226 284 335
#     4  11  19  33  57  86 111 143 187 239 270 326
#     4  10  21  37  59  83 109 145 189 233 276 336
#
# _framework density 18.925751999999999
#
# number of rings (size 3 to 8) (size 9 to 14) (size 15 to 20)
#    0.000    1.750    3.750    1.500    0.000    1.500 
#    0.000    2.500    2.750    0.000    0.000    0.000 
#    0.000    0.000    0.000    0.000    0.000    0.000 
#
# Total GULP energy -89176.444200 kJ/mol
# GULP energy per Si atom -5573.527762 kJ/mol
# Density = 1.888268 g / cm^3
# Si number density = 18.925752 Si / 1000 Ang^3
#
#
#
# Elastic Constant Matrix: (Units=GPa)
#
#
# Indices 1 2 3 4 5 6 
#
# 1 63.3333 30.2177 5.7869 0.0000 -13.3962 0.0000
# 2 30.2177 87.4239 1.2026 0.0000 0.6262 0.0000
# 3 5.7869 1.2026 50.4032 0.0000 -8.7600 0.0000
# 4 0.0000 0.0000 0.0000 13.1272 0.0000 -1.1893
# 5 -13.3962 0.6262 -8.7600 0.0000 28.3950 0.0000
# 6 0.0000 0.0000 0.0000 -1.1893 0.0000 22.7283
#
#
#
# Elastic Compliance Matrix: (Units=1/GPa)
#
#
# Indices 1 2 3 4 5 6 
#
# 1 0.021583 -0.007526 -0.000528 0.000000 0.010185 0.000000
# 2 -0.007526 0.014070 -0.000151 0.000000 -0.003907 0.000000
# 3 -0.000528 -0.000151 0.020987 0.000000 0.006229 0.000000
# 4 0.000000 0.000000 0.000000 0.076540 0.000000 0.004005
# 5 0.010185 -0.003907 0.006229 0.000000 0.042031 0.000000
# 6 0.000000 0.000000 0.000000 0.004005 0.000000 0.044208
#
#
# Mechanical properties :
#
#
# Convention : Reuss Voigt Hill
#
# Bulk Modulus (GPa) = 24.85698 30.61941 27.73819
# Shear Modulus (GPa) = 20.06120 23.78032 21.92076
#
# Velocity S-wave (km/s) = 3.25929 3.54857 3.40700
# Velocity P-wave (km/s) = 5.22747 5.74488 5.49227
#
# Compressibility (1/GPa) = 0.04023016
#
# Stress axis : x y z
#
# Youngs Moduli (GPa) = 46.33311 71.07421 47.64901
#
# Poissons Ratio (x) = 0.53488 0.02517
# Poissons Ratio (y) = 0.34869 0.00718
# Poissons Ratio (z) = 0.02447 0.01071
#
# Static dielectric constant tensor:
#      x y z
#    x 1.670020 0.000000 -0.025750 
#    y 0.000000 1.673470 0.000000 
#    z -0.025750 0.000000 1.674750 
# 
# From -- ./inp_files/54579.got.cif
#   From: 2010.05.17/outbox.cif.g08.bks.cpg/sg5_28_cif.got.tgz:54579.got - 2010.06.03 18:56:24.
