data_PCOD9121955
_publ_section_title
;
Structure prediction by ZEFSAII (Michael W. Deem and Ramdas Pophale) SiO2 
 PCOD9121955
Probable space group: C 2
;
_chemical_formula_sum "Si O2"
_cell_formula_units_Z 30
_cell_length_a 18.150373
_cell_length_b 13.793059
_cell_length_c 13.926295
_cell_angle_alpha 90.000000
_cell_angle_beta 21.360900
_cell_angle_gamma 90.000000
_cell_volume 1269.904189
_symmetry_space_group_name_H-M "C 2"
_symmetry_group_IT_number 5
_symmetry_cell_setting 'monoclinic'
loop_
_space_group_symop_operation_xyz
x,y,z
-x,y,-z
1/2+x,1/2+y,z
1/2-x,1/2+y,-z
loop_
_atom_site_type_symbol
_atom_site_label
_atom_site_fract_x
_atom_site_fract_y
_atom_site_fract_z
Si Si1 0.203433 0.293540 0.704133
Si Si2 0.735731 0.082025 0.431270
Si Si3 0.000000 0.715549 0.500000
Si Si4 0.926976 0.142101 0.696821
Si Si5 0.784008 0.873904 0.400237
Si Si6 0.321496 0.057711 0.837749
Si Si7 0.867663 0.666220 0.247919
Si Si8 0.900147 0.349783 0.724936
O O1 0.159594 0.183472 0.719484
O O2 0.389022 0.279790 0.553197
O O3 0.255542 0.357051 0.548072
O O4 0.000000 0.330943 0.000000
O O5 0.562422 0.062414 0.564460
O O6 0.618612 0.103822 0.672906
O O7 0.858868 0.982844 0.289327
O O8 0.179960 0.648433 0.233902
O O9 0.804115 0.243947 0.854150
O O10 0.000000 0.117733 0.500000
O O11 0.135457 0.159195 0.499228
O O12 0.799233 0.071019 0.917218
O O13 0.910339 0.780517 0.212582
O O14 0.567666 0.864739 0.605886
O O15 0.275432 0.947857 0.864800
O O16 0.000000 0.629172 0.000000
O O17 0.000000 0.337483 0.500000
#
# Coordination Sequence:
#
# PCOD9121955 Si02
#       8
#     4   4   2   4   4   4   4   4
#     4  10  22  39  65  91 127 166 213 265 322 381
#     4   9  20  38  59  86 120 162 203 257 319 376
#     4  10  22  36  66  96 128 174 218 266 332 384
#     4  10  21  36  60  88 122 165 208 266 326 380
#     4   9  20  38  60  89 122 165 208 263 324 379
#     4  10  19  37  62  88 126 164 216 266 322 388
#     4  10  20  36  58  83 117 162 205 253 313 378
#     4   9  18  36  61  93 123 167 213 264 330 385
#
# _framework density 23.623829000000001
#
# number of rings (size 3 to 8) (size 9 to 14) (size 15 to 20)
#    0.000    2.400    0.667    0.800    5.600    1.067 
#    0.000    8.000    2.933    0.000    0.000    0.000 
#    0.000    0.000    0.000    0.000    0.000    0.000 
#
# Total GULP energy -83693.327212 kJ/mol
# GULP energy per Si atom -5579.555147 kJ/mol
# Density = 2.357006 g / cm^3
# Si number density = 23.623829 Si / 1000 Ang^3
#
#
#
# Elastic Constant Matrix: (Units=GPa)
#
#
# Indices 1 2 3 4 5 6 
#
# 1 109.0896 0.0643 19.1600 -0.0013 7.4008 0.0024
# 2 0.0643 43.8744 -18.1503 -0.0031 -6.8286 0.0014
# 3 19.1600 -18.1503 44.9573 -0.0051 2.9404 0.0048
# 4 -0.0013 -0.0031 -0.0051 6.2992 0.0021 5.2378
# 5 7.4008 -6.8286 2.9404 0.0021 41.9883 -0.0027
# 6 0.0024 0.0014 0.0048 5.2378 -0.0027 23.8152
#
#
#
# Elastic Compliance Matrix: (Units=1/GPa)
#
#
# Indices 1 2 3 4 5 6 
#
# 1 0.010210 -0.002462 -0.005226 -0.000003 -0.001834 0.000001
# 2 -0.002462 0.028538 0.012295 0.000031 0.004214 -0.000010
# 3 -0.005226 0.012295 0.029378 0.000041 0.000863 -0.000015
# 4 -0.000003 0.000031 0.000041 0.194278 -0.000010 -0.042728
# 5 -0.001834 0.004214 0.000863 -0.000010 0.024764 0.000005
# 6 0.000001 -0.000010 -0.000015 -0.042728 0.000005 0.051387
#
#
# Mechanical properties :
#
#
# Convention : Reuss Voigt Hill
#
# Bulk Modulus (GPa) = 12.92970 22.22992 17.57981
# Shear Modulus (GPa) = 14.07971 27.54371 20.81171
#
# Velocity S-wave (km/s) = 2.44395 3.41827 2.97132
# Velocity P-wave (km/s) = 3.66728 5.00099 4.38513
#
# Compressibility (1/GPa) = 0.07734129
#
# Stress axis : x y z
#
# Youngs Moduli (GPa) = 97.93878 35.04079 34.03937
#
# Poissons Ratio (x) = 0.08628 0.17788
# Poissons Ratio (y) = 0.24114 -0.41852
# Poissons Ratio (z) = 0.51179 -0.43083
#
# Static dielectric constant tensor:
#      x y z
#    x 1.941470 0.000000 -0.024450 
#    y 0.000000 1.930340 0.000000 
#    z -0.024450 0.000000 1.862300 
# 
# From -- ./inp_files/20440.got.cif
#   From: 2010.05.17/outbox.cif.g08.bks.cpg/sg5_11_cif.got.tgz:20440.got - 2010.06.03 18:56:24.
