data_PCOD9121511
_publ_section_title
;
Structure prediction by ZEFSAII (Michael W. Deem and Ramdas Pophale) SiO2 
 PCOD9121511
Probable space group: C 2
;
_chemical_formula_sum "Si O2"
_cell_formula_units_Z 28
_cell_length_a 11.670531
_cell_length_b 11.395818
_cell_length_c 10.946371
_cell_angle_alpha 90.000000
_cell_angle_beta 98.262229
_cell_angle_gamma 90.000000
_cell_volume 1440.705029
_symmetry_space_group_name_H-M "C 2"
_symmetry_group_IT_number 5
_symmetry_cell_setting 'monoclinic'
loop_
_space_group_symop_operation_xyz
x,y,z
-x,y,-z
1/2+x,1/2+y,z
1/2-x,1/2+y,-z
loop_
_atom_site_type_symbol
_atom_site_label
_atom_site_fract_x
_atom_site_fract_y
_atom_site_fract_z
Si Si1 0.999797 0.230090 0.857813
Si Si2 0.206092 0.348942 0.743507
Si Si3 0.914790 0.909132 0.374532
Si Si4 0.655089 0.829144 0.356840
Si Si5 0.827922 0.155120 0.456160
Si Si6 0.455654 0.450274 0.853890
Si Si7 0.381334 0.031330 0.461130
O O1 0.119981 0.278571 0.819821
O O2 0.899920 0.307245 0.781104
O O3 0.970767 0.091384 0.837351
O O4 0.000000 0.251308 0.000000
O O5 0.228467 0.251830 0.641337
O O6 0.324050 0.402409 0.817061
O O7 0.138952 0.454746 0.663539
O O8 0.793635 0.840347 0.367941
O O9 0.000000 0.879822 0.500000
O O10 0.972111 0.896272 0.249652
O O11 0.883274 0.047175 0.393082
O O12 0.599426 0.727700 0.433799
O O13 0.616018 0.943525 0.422953
O O14 0.732363 0.103329 0.532024
O O15 0.500000 0.425095 0.000000
O O16 0.500000 0.100313 0.500000
#
# Coordination Sequence:
#
# PCOD9121511 Si02
#       7
#     4   4   4   4   4   4   4
#     4  11  23  41  66  90 120 174 217 259 321 388
#     4  11  22  41  64  94 125 166 214 261 325 387
#     4  11  21  38  62  92 128 167 216 269 326 385
#     4  10  21  36  58  90 120 163 212 264 323 383
#     4  10  21  34  62  90 126 160 209 265 327 382
#     4  11  25  43  65  93 128 167 217 272 318 391
#     4  10  19  34  58  91 125 154 202 265 320 379
#
# _framework density 19.434930000000001
#
# number of rings (size 3 to 8) (size 9 to 14) (size 15 to 20)
#    0.000    1.429    2.857    4.286    2.000    1.714 
#    0.000    0.000    0.000    3.429    0.000    0.000 
#    0.000    0.000    0.000    0.000    0.000    0.000 
#
# Total GULP energy -78018.649017 kJ/mol
# GULP energy per Si atom -5572.760644 kJ/mol
# Density = 1.939069 g / cm^3
# Si number density = 19.434930 Si / 1000 Ang^3
#
#
#
# Elastic Constant Matrix: (Units=GPa)
#
#
# Indices 1 2 3 4 5 6 
#
# 1 116.1206 22.8811 47.5365 0.0000 7.1933 0.0000
# 2 22.8811 64.8425 33.5649 0.0000 0.2965 0.0000
# 3 47.5365 33.5649 131.3823 0.0000 8.2045 0.0000
# 4 0.0000 0.0000 0.0000 3.4250 0.0000 -9.5913
# 5 7.1933 0.2965 8.2045 0.0000 34.5146 0.0000
# 6 0.0000 0.0000 0.0000 -9.5913 0.0000 20.6850
#
#
#
# Elastic Compliance Matrix: (Units=1/GPa)
#
#
# Indices 1 2 3 4 5 6 
#
# 1 0.010389 -0.002027 -0.003154 0.000000 -0.001398 0.000000
# 2 -0.002027 0.018198 -0.003992 0.000000 0.001215 0.000000
# 3 -0.003154 -0.003992 0.009876 0.000000 -0.001656 0.000000
# 4 0.000000 0.000000 0.000000 -0.978186 0.000000 -0.453570
# 5 -0.001398 0.001215 -0.001656 0.000000 0.029648 0.000000
# 6 0.000000 0.000000 0.000000 -0.453570 0.000000 -0.161969
#
#
# Mechanical properties :
#
#
# Convention : Reuss Voigt Hill
#
# Bulk Modulus (GPa) = 49.70749 57.81226 53.75988
# Shear Modulus (GPa) = -4.77558 25.61578 10.42010
#
# Velocity S-wave (km/s) = -1.56925 3.63440 2.31801
# Velocity P-wave (km/s) = 4.72742 6.88644 5.90642
#
# Compressibility (1/GPa) = 0.02011769
#
# Stress axis : x y z
#
# Youngs Moduli (GPa) = 96.25752 54.95144 101.25981
#
# Poissons Ratio (x) = 0.11139 0.31934
# Poissons Ratio (y) = 0.19512 0.40418
# Poissons Ratio (z) = 0.30357 0.21934
#
# Static dielectric constant tensor:
#      x y z
#    x 1.773260 0.000000 0.003680 
#    y 0.000000 1.702240 0.000000 
#    z 0.003680 0.000000 1.673320 
# 
# From -- ./inp_files/38860.got.cif
#   From: 2010.05.17/outbox.cif.g08.bks.cpg/sg5_20_cif.got.tgz:38860.got - 2010.06.03 18:56:24.
