data_PCOD9121217
_publ_section_title
;
Structure prediction by ZEFSAII (Michael W. Deem and Ramdas Pophale) SiO2 
 PCOD9121217
Probable space group: C 2
;
_chemical_formula_sum "Si O2"
_cell_formula_units_Z 26
_cell_length_a 19.610194
_cell_length_b 8.398532
_cell_length_c 14.432776
_cell_angle_alpha 90.000000
_cell_angle_beta 149.094559
_cell_angle_gamma 90.000000
_cell_volume 1220.897997
_symmetry_space_group_name_H-M "C 2"
_symmetry_group_IT_number 5
_symmetry_cell_setting 'monoclinic'
loop_
_space_group_symop_operation_xyz
x,y,z
-x,y,-z
1/2+x,1/2+y,z
1/2-x,1/2+y,-z
loop_
_atom_site_type_symbol
_atom_site_label
_atom_site_fract_x
_atom_site_fract_y
_atom_site_fract_z
Si Si1 0.500000 0.668960 0.000000
Si Si2 0.147595 0.906328 0.271106
Si Si3 0.431195 0.003225 0.603132
Si Si4 0.683479 0.606765 0.836448
Si Si5 0.408146 0.914316 0.039495
Si Si6 0.000000 0.659995 0.000000
Si Si7 0.000000 0.331728 0.500000
Si Si8 0.439613 0.325281 0.189965
O O1 0.385221 0.563641 0.823435
O O2 0.560952 0.763780 0.985511
O O3 0.291017 0.940148 0.480477
O O4 0.128360 0.766980 0.172563
O O5 0.029000 0.871924 0.205061
O O6 0.539741 0.914963 0.794884
O O7 0.434554 0.942182 0.502186
O O8 0.467328 0.191018 0.651015
O O9 0.596727 0.717372 0.670119
O O10 0.600585 0.495150 0.811009
O O11 0.757489 0.469311 0.864139
O O12 0.803163 0.722620 0.013604
O O13 0.483522 0.052213 0.070692
#
# Coordination Sequence:
#
# PCOD9121217 Si02
#       8
#     2   4   4   4   4   2   2   4
#     4  10  26  36  68 104 128 176 218 278 346 402
#     4  11  24  42  68 104 136 175 229 287 346 409
#     4  11  26  45  69  99 143 178 234 282 346 414
#     4  11  24  47  69 100 140 183 244 279 348 417
#     4  10  22  44  68  98 134 182 223 285 342 408
#     4  10  18  44  68  98 130 178 228 274 356 400
#     4  12  28  44  70 106 136 194 226 294 342 420
#     4  11  26  46  74 100 137 196 226 294 349 411
#
# _framework density 21.2958
#
# number of rings (size 3 to 8) (size 9 to 14) (size 15 to 20)
#    0.000    1.231    3.077    2.769    8.615    3.077 
#    2.769    0.000    0.000    0.000    0.000    0.000 
#    0.000    0.000    0.000    0.000    0.000    0.000 
#
# Total GULP energy -72465.685852 kJ/mol
# GULP energy per Si atom -5574.283527 kJ/mol
# Density = 2.124733 g / cm^3
# Si number density = 21.295800 Si / 1000 Ang^3
#
#
#
# Elastic Constant Matrix: (Units=GPa)
#
#
# Indices 1 2 3 4 5 6 
#
# 1 89.5684 39.9599 20.5709 0.0000 -10.9654 0.0000
# 2 39.9599 100.3767 44.6579 0.0000 -10.4178 0.0000
# 3 20.5709 44.6579 90.2478 0.0000 4.7303 0.0000
# 4 0.0000 0.0000 0.0000 157.4813 0.0000 78.2766
# 5 -10.9654 -10.4178 4.7303 0.0000 26.6478 0.0000
# 6 0.0000 0.0000 0.0000 78.2766 0.0000 52.3816
#
#
#
# Elastic Compliance Matrix: (Units=1/GPa)
#
#
# Indices 1 2 3 4 5 6 
#
# 1 0.014001 -0.004652 -0.001106 0.000000 0.004139 0.000000
# 2 -0.004652 0.015413 -0.006846 0.000000 0.005327 0.000000
# 3 -0.001106 -0.006846 0.015024 0.000000 -0.005798 0.000000
# 4 0.000000 0.000000 0.000000 0.024686 0.000000 -0.036890
# 5 0.004139 0.005327 -0.005798 0.000000 0.042341 0.000000
# 6 0.000000 0.000000 0.000000 -0.036890 0.000000 0.074217
#
#
# Mechanical properties :
#
#
# Convention : Reuss Voigt Hill
#
# Bulk Modulus (GPa) = 52.00197 54.50781 53.25489
# Shear Modulus (GPa) = 23.00956 58.96909 40.98932
#
# Velocity S-wave (km/s) = 3.29062 5.26788 4.39197
# Velocity P-wave (km/s) = 6.23775 7.91530 7.12606
#
# Compressibility (1/GPa) = 0.01923004
#
# Stress axis : x y z
#
# Youngs Moduli (GPa) = 71.42410 64.88070 66.55932
#
# Poissons Ratio (x) = 0.30182 0.07364
# Poissons Ratio (y) = 0.33226 0.45564
# Poissons Ratio (z) = 0.07902 0.44415
#
# Static dielectric constant tensor:
#      x y z
#    x 1.838430 0.000000 -0.118970 
#    y 0.000000 1.805230 0.000000 
#    z -0.118970 0.000000 0.981030 
# 
# From -- ./inp_files/45973.got.cif
#   From: 2010.05.17/outbox.cif.g08.bks.cpg/sg5_23_cif.got.tgz:45973.got - 2010.06.03 18:56:24.
