data_PCOD9121988
_publ_section_title
;
Structure prediction by ZEFSAII (Michael W. Deem and Ramdas Pophale) SiO2 
 PCOD9121988
Probable space group: C 2
;
_chemical_formula_sum "Si O2"
_cell_formula_units_Z 28
_cell_length_a 5.199156
_cell_length_b 16.312853
_cell_length_c 15.083210
_cell_angle_alpha 90.000000
_cell_angle_beta 83.720125
_cell_angle_gamma 90.000000
_cell_volume 1271.577070
_symmetry_space_group_name_H-M "C 2"
_symmetry_group_IT_number 5
_symmetry_cell_setting 'monoclinic'
loop_
_space_group_symop_operation_xyz
x,y,z
-x,y,-z
1/2+x,1/2+y,z
1/2-x,1/2+y,-z
loop_
_atom_site_type_symbol
_atom_site_label
_atom_site_fract_x
_atom_site_fract_y
_atom_site_fract_z
Si Si1 0.903362 0.915640 0.630946
Si Si2 0.220777 0.089837 0.388827
Si Si3 0.267348 0.766978 0.576447
Si Si4 0.754841 0.622540 0.716839
Si Si5 0.505210 0.484639 0.818753
Si Si6 0.551760 0.792463 0.736851
Si Si7 0.524626 0.905050 0.102704
O O1 0.653679 0.869957 0.678308
O O2 0.071945 0.843147 0.582341
O O3 0.038605 0.946967 0.717684
O O4 0.812044 0.995494 0.579455
O O5 0.294499 0.170987 0.441993
O O6 0.460138 0.086773 0.310077
O O7 0.934613 0.108035 0.360344
O O8 0.500000 0.786671 0.500000
O O9 0.333223 0.760599 0.678910
O O10 0.597431 0.577633 0.800916
O O11 0.758706 0.719491 0.731836
O O12 0.704256 0.444665 0.879422
O O13 0.214877 0.463818 0.859272
O O14 0.491145 0.823658 0.836374
O O15 0.500000 0.889216 0.000000
#
# Coordination Sequence:
#
# PCOD9121988 Si02
#       7
#     4   4   4   4   4   4   4
#     4  10  20  39  65  89 125 176 213 269 332 398
#     4  10  22  38  61  91 126 166 218 265 327 390
#     4  11  23  42  61  97 134 174 223 287 330 399
#     4  10  19  37  64  91 118 166 212 268 322 395
#     4  10  20  37  62  90 122 166 219 259 328 399
#     4  10  21  39  66  88 130 168 221 269 338 392
#     4  11  22  38  61  93 128 168 217 272 328 400
#
# _framework density 22.019898000000001
#
# number of rings (size 3 to 8) (size 9 to 14) (size 15 to 20)
#    0.000    1.714    2.857    3.000    2.000    0.571 
#    2.571    1.429    0.000    0.000    0.000    0.000 
#    0.000    0.000    0.000    0.000    0.000    0.000 
#
# Total GULP energy -78033.783735 kJ/mol
# GULP energy per Si atom -5573.841695 kJ/mol
# Density = 2.196978 g / cm^3
# Si number density = 22.019898 Si / 1000 Ang^3
#
#
#
# Elastic Constant Matrix: (Units=GPa)
#
#
# Indices 1 2 3 4 5 6 
#
# 1 82.7709 12.2264 27.6259 0.0000 4.7924 0.0000
# 2 12.2264 149.9046 29.1771 0.0000 -4.8228 0.0000
# 3 27.6259 29.1771 105.5005 0.0000 4.7229 0.0000
# 4 0.0000 0.0000 0.0000 41.6215 0.0000 8.7054
# 5 4.7924 -4.8228 4.7229 0.0000 31.3150 0.0000
# 6 0.0000 0.0000 0.0000 8.7054 0.0000 44.6898
#
#
#
# Elastic Compliance Matrix: (Units=1/GPa)
#
#
# Indices 1 2 3 4 5 6 
#
# 1 0.013345 -0.000502 -0.003283 0.000000 -0.001625 0.000000
# 2 -0.000502 0.007130 -0.001906 0.000000 0.001462 0.000000
# 3 -0.003283 -0.001906 0.010930 0.000000 -0.001439 0.000000
# 4 0.000000 0.000000 0.000000 0.025046 0.000000 -0.004879
# 5 -0.001625 0.001462 -0.001439 0.000000 0.032625 0.000000
# 6 0.000000 0.000000 0.000000 -0.004879 0.000000 0.023327
#
#
# Mechanical properties :
#
#
# Convention : Reuss Voigt Hill
#
# Bulk Modulus (GPa) = 49.94077 52.91497 51.42787
# Shear Modulus (GPa) = 38.32618 41.46838 39.89728
#
# Velocity S-wave (km/s) = 4.17649 4.34432 4.26123
# Velocity P-wave (km/s) = 6.78133 7.01761 6.90048
#
# Compressibility (1/GPa) = 0.02002372
#
# Stress axis : x y z
#
# Youngs Moduli (GPa) = 74.93169 140.25565 91.49246
#
# Poissons Ratio (x) = 0.07037 0.30038
# Poissons Ratio (y) = 0.03759 0.17438
# Poissons Ratio (z) = 0.24601 0.26731
#
# Static dielectric constant tensor:
#      x y z
#    x 1.845980 0.000000 0.012960 
#    y 0.000000 1.902170 0.000000 
#    z 0.012960 0.000000 1.806150 
# 
# From -- ./inp_files/49186.got.cif
#   From: 2010.05.17/outbox.cif.g08.bks.cpg/sg5_25_cif.got.tgz:49186.got - 2010.06.03 18:56:24.
