data_PCOD9121524
_publ_section_title
;
Structure prediction by ZEFSAII (Michael W. Deem and Ramdas Pophale) SiO2 
 PCOD9121524
Probable space group: C 2
;
_chemical_formula_sum "Si O2"
_cell_formula_units_Z 28
_cell_length_a 15.340288
_cell_length_b 11.120960
_cell_length_c 18.563414
_cell_angle_alpha 90.000000
_cell_angle_beta 21.783741
_cell_angle_gamma 90.000000
_cell_volume 1175.248423
_symmetry_space_group_name_H-M "C 2"
_symmetry_group_IT_number 5
_symmetry_cell_setting 'monoclinic'
loop_
_space_group_symop_operation_xyz
x,y,z
-x,y,-z
1/2+x,1/2+y,z
1/2-x,1/2+y,-z
loop_
_atom_site_type_symbol
_atom_site_label
_atom_site_fract_x
_atom_site_fract_y
_atom_site_fract_z
Si Si1 0.247939 0.428430 0.239141
Si Si2 0.827042 0.261931 0.813909
Si Si3 0.344407 0.042579 0.975658
Si Si4 0.820345 0.356358 0.333960
Si Si5 0.027047 0.144746 0.088303
Si Si6 0.092917 0.822515 0.242658
Si Si7 0.696625 0.815725 0.427439
O O1 0.364291 0.549385 0.174447
O O2 0.961789 0.438371 0.443913
O O3 0.257527 0.329837 0.297034
O O4 0.688863 0.373952 0.887238
O O5 0.661343 0.159565 0.970420
O O6 0.990945 0.313185 0.750714
O O7 0.007796 0.225496 0.610428
O O8 0.165372 0.076850 0.047868
O O9 0.240360 0.937477 0.105139
O O10 0.589468 0.988049 0.759314
O O11 0.863900 0.254504 0.240966
O O12 0.568921 0.348867 0.564589
O O13 0.234103 0.209456 0.884424
O O14 0.922031 0.804207 0.304370
#
# Coordination Sequence:
#
# PCOD9121524 Si02
#       7
#     4   4   4   4   4   4   4
#     4   9  16  34  62  95 149 182 229 294 367 419
#     4   8  17  33  57  93 142 179 229 296 362 412
#     4  10  19  34  59  91 139 182 237 299 346 422
#     4   9  20  35  56  90 140 183 245 286 357 425
#     4  10  20  34  60  93 143 185 237 300 346 428
#     4  10  19  36  59  92 141 186 247 286 359 425
#     4   8  16  32  61  93 146 180 221 294 362 426
#
# _framework density 23.824749000000001
#
# number of rings (size 3 to 8) (size 9 to 14) (size 15 to 20)
#    0.857    2.000    1.429    0.000    0.000    3.429 
#    0.000    0.714    9.429    0.000    0.000    0.000 
#  180.000    0.000    0.000    0.000    0.000    0.000 
#
# Total GULP energy -78056.419007 kJ/mol
# GULP energy per Si atom -5575.458500 kJ/mol
# Density = 2.377052 g / cm^3
# Si number density = 23.824749 Si / 1000 Ang^3
#
#
#
# Elastic Constant Matrix: (Units=GPa)
#
#
# Indices 1 2 3 4 5 6 
#
# 1 63.8142 44.2175 32.5491 -0.0050 7.5511 0.0030
# 2 44.2175 113.2407 62.3835 -0.0282 6.1636 0.0061
# 3 32.5491 62.3835 138.1379 -0.0368 23.0245 0.0085
# 4 -0.0050 -0.0282 -0.0368 40.1521 0.0116 -5.7671
# 5 7.5511 6.1636 23.0245 0.0116 39.8461 -0.0029
# 6 0.0030 0.0061 0.0085 -5.7671 -0.0029 40.6356
#
#
#
# Elastic Compliance Matrix: (Units=1/GPa)
#
#
# Indices 1 2 3 4 5 6 
#
# 1 0.021958 -0.007729 -0.001316 -0.000003 -0.002205 -0.000001
# 2 -0.007729 0.014545 -0.005109 0.000004 0.002167 0.000000
# 3 -0.001316 -0.005109 0.010715 0.000007 -0.005152 -0.000001
# 4 -0.000003 0.000004 0.000007 0.025424 -0.000011 0.003608
# 5 -0.002205 0.002167 -0.005152 -0.000011 0.028156 0.000001
# 6 -0.000001 0.000000 -0.000001 0.003608 0.000001 0.025121
#
#
# Mechanical properties :
#
#
# Convention : Reuss Voigt Hill
#
# Bulk Modulus (GPa) = 52.87900 65.94366 59.41133
# Shear Modulus (GPa) = 31.14678 35.86293 33.50485
#
# Velocity S-wave (km/s) = 3.61962 3.88400 3.75414
# Velocity P-wave (km/s) = 6.30175 6.91756 6.61683
#
# Compressibility (1/GPa) = 0.01891110
#
# Stress axis : x y z
#
# Youngs Moduli (GPa) = 45.54089 68.75152 93.32766
#
# Poissons Ratio (x) = 0.53139 0.12281
# Poissons Ratio (y) = 0.35199 0.47677
# Poissons Ratio (z) = 0.05993 0.35122
#
# Static dielectric constant tensor:
#      x y z
#    x 1.927020 0.000000 0.014000 
#    y 0.000000 1.888930 0.000010 
#    z 0.014000 0.000010 2.133750 
# 
# From -- ./inp_files/66699.got.cif
#   From: 2010.05.17/outbox.cif.g08.bks.cpg/sg5_34_cif.got.tgz:66699.got - 2010.06.03 18:56:24.
