data_PCOD9121933
_publ_section_title
;
Structure prediction by ZEFSAII (Michael W. Deem and Ramdas Pophale) SiO2 
 PCOD9121933
Probable space group: C 2
;
_chemical_formula_sum "Si O2"
_cell_formula_units_Z 32
_cell_length_a 13.912884
_cell_length_b 22.637354
_cell_length_c 8.778802
_cell_angle_alpha 90.000000
_cell_angle_beta 32.571957
_cell_angle_gamma 90.000000
_cell_volume 1488.502487
_symmetry_space_group_name_H-M "C 2"
_symmetry_group_IT_number 5
_symmetry_cell_setting 'monoclinic'
loop_
_space_group_symop_operation_xyz
x,y,z
-x,y,-z
1/2+x,1/2+y,z
1/2-x,1/2+y,-z
loop_
_atom_site_type_symbol
_atom_site_label
_atom_site_fract_x
_atom_site_fract_y
_atom_site_fract_z
Si Si1 0.312764 0.752950 0.076265
Si Si2 0.610344 0.631810 0.204569
Si Si3 0.358974 0.816997 0.498608
Si Si4 0.389684 0.415304 0.306065
Si Si5 0.494703 0.105609 0.828688
Si Si6 0.865319 0.826778 0.918415
Si Si7 0.852802 0.735756 0.375724
Si Si8 0.864748 0.048672 0.321845
O O1 0.346273 0.688866 0.957081
O O2 0.460354 0.801251 0.830460
O O3 0.154487 0.785424 0.199668
O O4 0.267943 0.743615 0.312088
O O5 0.500000 0.651489 0.500000
O O6 0.471464 0.588952 0.301224
O O7 0.800510 0.602325 0.005886
O O8 0.271403 0.870433 0.517365
O O9 0.273144 0.750731 0.596997
O O10 0.309415 0.832841 0.740202
O O11 0.530010 0.387956 0.239265
O O12 0.336633 0.481699 0.416178
O O13 0.500000 0.416989 0.000000
O O14 0.549202 0.174334 0.753171
O O15 0.671275 0.073269 0.527754
O O16 0.500000 0.087347 0.000000
O O17 0.006814 0.788249 0.822970
O O18 0.000000 0.047538 0.000000
#
# Coordination Sequence:
#
# PCOD9121933 Si02
#       8
#     4   4   4   4   4   4   4   4
#     4  12  23  35  58  98 132 153 205 269 326 382
#     4  12  25  43  66  99 132 170 223 271 328 405
#     4  10  20  38  61  87 119 168 211 250 312 390
#     4   8  19  41  65  87 120 167 215 260 317 385
#     4  12  24  43  69  93 131 180 222 267 333 402
#     4  10  19  37  61  83 122 164 201 246 313 382
#     4  11  22  36  57  89 127 160 196 256 327 383
#     4  11  24  45  69  96 130 170 225 281 329 380
#
# _framework density 21.498117000000001
#
# number of rings (size 3 to 8) (size 9 to 14) (size 15 to 20)
#    0.000    1.250    2.500    5.250    0.000    1.500 
#    2.250    5.000    0.000    0.000    0.000    0.000 
#    0.000    0.000    0.000    0.000    0.000    0.000 
#
# Total GULP energy -89096.011612 kJ/mol
# GULP energy per Si atom -5568.500726 kJ/mol
# Density = 2.144919 g / cm^3
# Si number density = 21.498117 Si / 1000 Ang^3
#
#
#
# Elastic Constant Matrix: (Units=GPa)
#
#
# Indices 1 2 3 4 5 6 
#
# 1 55.8910 30.9995 26.9271 0.0030 -3.6303 0.0036
# 2 30.9995 108.7009 20.9630 -0.0015 -8.8221 -0.0017
# 3 26.9271 20.9630 125.1244 0.0050 -0.9742 0.0064
# 4 0.0030 -0.0015 0.0050 43.7611 -0.0047 33.7418
# 5 -3.6303 -8.8221 -0.9742 -0.0047 35.2730 -0.0059
# 6 0.0036 -0.0017 0.0064 33.7418 -0.0059 69.6338
#
#
#
# Elastic Compliance Matrix: (Units=1/GPa)
#
#
# Indices 1 2 3 4 5 6 
#
# 1 0.023051 -0.005737 -0.003993 -0.000001 0.000827 0.000000
# 2 -0.005737 0.011130 -0.000613 0.000001 0.002176 0.000000
# 3 -0.003993 -0.000613 0.008952 0.000000 -0.000317 0.000000
# 4 -0.000001 0.000001 0.000000 0.036482 0.000002 -0.017678
# 5 0.000827 0.002176 -0.000317 0.000002 0.028971 0.000002
# 6 0.000000 0.000000 0.000000 -0.017678 0.000002 0.022927
#
#
# Mechanical properties :
#
#
# Convention : Reuss Voigt Hill
#
# Bulk Modulus (GPa) = 44.54872 49.72172 47.13522
# Shear Modulus (GPa) = 31.31238 43.78868 37.55053
#
# Velocity S-wave (km/s) = 3.82057 4.51806 4.18388
# Velocity P-wave (km/s) = 6.34267 7.09899 6.73147
#
# Compressibility (1/GPa) = 0.02244734
#
# Stress axis : x y z
#
# Youngs Moduli (GPa) = 43.38152 89.84372 111.71108
#
# Poissons Ratio (x) = 0.51540 0.44608
# Poissons Ratio (y) = 0.24886 0.06851
# Poissons Ratio (z) = 0.17323 0.05510
#
# Static dielectric constant tensor:
#      x y z
#    x 1.203960 -0.000010 0.380220 
#    y -0.000010 1.760420 0.000000 
#    z 0.380220 0.000000 1.579500 
# 
# From -- ./inp_files/25610.got.cif
#   From: 2010.05.17/outbox.cif.g08.bks.cpg/sg5_13_cif.got.tgz:25610.got - 2010.06.03 18:56:24.
