data_PCOD9121561
_publ_section_title
;
Structure prediction by ZEFSAII (Michael W. Deem and Ramdas Pophale) SiO2 
 PCOD9121561
Probable space group: C 2
;
_chemical_formula_sum "Si O2"
_cell_formula_units_Z 24
_cell_length_a 17.417086
_cell_length_b 6.910490
_cell_length_c 24.037048
_cell_angle_alpha 90.000000
_cell_angle_beta 160.851402
_cell_angle_gamma 90.000000
_cell_volume 948.997009
_symmetry_space_group_name_H-M "C 2"
_symmetry_group_IT_number 5
_symmetry_cell_setting 'monoclinic'
loop_
_space_group_symop_operation_xyz
x,y,z
-x,y,-z
1/2+x,1/2+y,z
1/2-x,1/2+y,-z
loop_
_atom_site_type_symbol
_atom_site_label
_atom_site_fract_x
_atom_site_fract_y
_atom_site_fract_z
Si Si1 0.730985 0.650540 0.049424
Si Si2 0.681705 0.069892 0.411897
Si Si3 0.101154 0.128439 0.325942
Si Si4 0.908716 0.266718 0.375383
Si Si5 0.261111 0.166665 0.315463
Si Si6 0.103443 0.700656 0.962902
O O1 0.650298 0.429570 0.003253
O O2 0.937329 0.681687 0.234916
O O3 0.479230 0.759706 0.872518
O O4 0.859198 0.666120 0.077443
O O5 0.748663 0.044051 0.521646
O O6 0.898305 0.180410 0.532686
O O7 0.649804 0.859728 0.362117
O O8 0.166107 0.067811 0.307823
O O9 0.823356 0.098787 0.142554
O O10 0.851329 0.497666 0.336183
O O11 0.000000 0.230815 0.500000
O O12 0.657836 0.166149 0.195891
O O13 0.500000 0.272211 0.500000
#
# Coordination Sequence:
#
# PCOD9121561 Si02
#       6
#     4   4   4   4   4   4
#     4   9  18  35  58  89 115 157 205 247 300 365
#     4  11  23  38  62  93 128 163 200 257 312 365
#     4  10  24  39  61  91 131 160 202 253 318 359
#     4  10  19  34  67  92 115 158 214 245 303 363
#     4   9  20  39  65  88 117 160 211 253 294 368
#     4   9  18  36  57  88 117 159 203 251 295 370
#
# _framework density 25.289859
#
# number of rings (size 3 to 8) (size 9 to 14) (size 15 to 20)
#    0.000    2.333    1.667    0.000    4.667    2.667 
#    3.000    0.833    3.667    0.000    0.000    0.000 
#    0.000    0.000    0.000    0.000    0.000    0.000 
#
# Total GULP energy -67076.128023 kJ/mol
# GULP energy per Si atom -5589.677335 kJ/mol
# Density = 2.523230 g / cm^3
# Si number density = 25.289859 Si / 1000 Ang^3
#
#
#
# Elastic Constant Matrix: (Units=GPa)
#
#
# Indices 1 2 3 4 5 6 
#
# 1 69.8591 15.0560 56.3646 0.0052 13.9034 0.0005
# 2 15.0560 86.6256 25.1334 -0.0081 14.5728 -0.0030
# 3 56.3646 25.1334 275.0646 0.0110 26.4117 -0.0033
# 4 0.0052 -0.0081 0.0110 22.5310 0.0010 -0.6074
# 5 13.9034 14.5728 26.4117 0.0010 47.1938 -0.0023
# 6 0.0005 -0.0030 -0.0033 -0.6074 -0.0023 26.6653
#
#
#
# Elastic Compliance Matrix: (Units=1/GPa)
#
#
# Indices 1 2 3 4 5 6 
#
# 1 0.017863 -0.001674 -0.003225 -0.000003 -0.002941 -0.000001
# 2 -0.001674 0.012500 -0.000503 0.000005 -0.003085 0.000001
# 3 -0.003225 -0.000503 0.004477 -0.000002 -0.001400 0.000000
# 4 -0.000003 0.000005 -0.000002 0.044411 -0.000001 0.001012
# 5 -0.002941 -0.003085 -0.001400 -0.000001 0.023792 0.000002
# 6 -0.000001 0.000001 0.000000 0.001012 0.000002 0.037525
#
#
# Mechanical properties :
#
#
# Convention : Reuss Voigt Hill
#
# Bulk Modulus (GPa) = 41.60590 69.40638 55.50614
# Shear Modulus (GPa) = 31.37114 41.61103 36.49108
#
# Velocity S-wave (km/s) = 3.52584 4.06071 3.80269
# Velocity P-wave (km/s) = 5.75002 7.03490 6.42466
#
# Compressibility (1/GPa) = 0.02403505
#
# Stress axis : x y z
#
# Youngs Moduli (GPa) = 55.98285 80.00108 223.37752
#
# Poissons Ratio (x) = 0.13394 0.72039
# Poissons Ratio (y) = 0.09373 0.11232
# Poissons Ratio (z) = 0.18054 0.04023
#
# Static dielectric constant tensor:
#      x y z
#    x 1.898040 0.000000 0.033920 
#    y 0.000000 2.154140 -0.000010 
#    z 0.033920 -0.000010 2.064150 
# 
# From -- ./inp_files/69172.got.cif
#   From: 2010.05.17/outbox.cif.g08.bks.cpg/sg5_35_cif.got.tgz:69172.got - 2010.06.03 18:56:24.
