data_PCOD9121891
_publ_section_title
;
Structure prediction by ZEFSAII (Michael W. Deem and Ramdas Pophale) SiO2 
 PCOD9121891
Probable space group: C 2
;
_chemical_formula_sum "Si O2"
_cell_formula_units_Z 32
_cell_length_a 7.150419
_cell_length_b 12.264876
_cell_length_c 18.546242
_cell_angle_alpha 90.000000
_cell_angle_beta 49.247079
_cell_angle_gamma 90.000000
_cell_volume 1232.115411
_symmetry_space_group_name_H-M "C 2"
_symmetry_group_IT_number 5
_symmetry_cell_setting 'monoclinic'
loop_
_space_group_symop_operation_xyz
x,y,z
-x,y,-z
1/2+x,1/2+y,z
1/2-x,1/2+y,-z
loop_
_atom_site_type_symbol
_atom_site_label
_atom_site_fract_x
_atom_site_fract_y
_atom_site_fract_z
Si Si1 0.232770 0.646870 0.032004
Si Si2 0.379043 0.355971 0.101584
Si Si3 0.737152 0.741292 0.532585
Si Si4 0.274966 0.071830 0.419660
Si Si5 0.499187 0.120803 0.774911
Si Si6 0.024111 0.166365 0.165008
Si Si7 0.322235 0.547774 0.348387
Si Si8 0.753460 0.351703 0.707349
O O1 0.077646 0.575933 0.127887
O O2 0.083037 0.760221 0.062980
O O3 0.500000 0.669464 0.000000
O O4 0.290862 0.606507 0.937163
O O5 0.310177 0.407190 0.197608
O O6 0.131459 0.288090 0.144157
O O7 0.500000 0.414912 0.000000
O O8 0.755217 0.703017 0.444743
O O9 0.674562 0.621162 0.581992
O O10 0.534768 0.825776 0.611577
O O11 0.000000 0.771205 0.500000
O O12 0.344505 0.049652 0.319177
O O13 0.533786 0.046212 0.394926
O O14 0.000000 0.025283 0.500000
O O15 0.246358 0.157313 0.800050
O O16 0.644987 0.232748 0.745386
O O17 0.994693 0.112456 0.249614
O O18 0.378851 0.421443 0.322216
#
# Coordination Sequence:
#
# PCOD9121891 Si02
#       8
#     4   4   4   4   4   4   4   4
#     4   8  15  28  53  85 106 148 196 224 284 363
#     4   9  17  31  58  83 113 158 194 232 297 360
#     4  10  21  39  58  81 120 158 194 248 306 354
#     4  10  19  37  56  79 111 152 196 244 296 349
#     4   9  18  32  56  81 108 150 195 236 290 362
#     4   9  16  33  56  80 114 151 188 231 297 356
#     4  10  22  36  57  86 118 149 194 252 294 356
#     4  11  20  37  59  86 115 155 199 244 300 360
#
# _framework density 25.971594
#
# number of rings (size 3 to 8) (size 9 to 14) (size 15 to 20)
#    0.000    2.500    2.500    0.000    0.000    0.500 
#    6.750    4.375    0.000   22.500    0.000    0.000 
#    0.000    0.000    0.000    0.000    0.000    0.000 
#
# Total GULP energy -89230.355444 kJ/mol
# GULP energy per Si atom -5576.897215 kJ/mol
# Density = 2.591248 g / cm^3
# Si number density = 25.971594 Si / 1000 Ang^3
#
#
#
# Elastic Constant Matrix: (Units=GPa)
#
#
# Indices 1 2 3 4 5 6 
#
# 1 61.9753 15.4860 22.9355 0.0001 -21.5148 0.0001
# 2 15.4860 74.7993 30.9374 0.0001 -2.3028 0.0000
# 3 22.9355 30.9374 186.0548 0.0001 2.3100 0.0000
# 4 0.0001 0.0001 0.0001 25.7230 -0.0001 -3.3992
# 5 -21.5148 -2.3028 2.3100 -0.0001 53.6739 0.0000
# 6 0.0001 0.0000 0.0000 -3.3992 0.0000 22.0947
#
#
#
# Elastic Compliance Matrix: (Units=1/GPa)
#
#
# Indices 1 2 3 4 5 6 
#
# 1 0.020543 -0.003126 -0.002114 0.000000 0.008191 0.000000
# 2 -0.003126 0.014860 -0.002079 0.000000 -0.000526 0.000000
# 3 -0.002114 -0.002079 0.005996 0.000000 -0.001195 0.000000
# 4 0.000000 0.000000 0.000000 0.039682 0.000000 0.006105
# 5 0.008191 -0.000526 -0.001195 0.000000 0.021943 0.000000
# 6 0.000000 0.000000 0.000000 0.006105 0.000000 0.046199
#
#
# Mechanical properties :
#
#
# Convention : Reuss Voigt Hill
#
# Bulk Modulus (GPa) = 37.37003 51.28304 44.32654
# Shear Modulus (GPa) = 28.93813 37.19634 33.06724
#
# Velocity S-wave (km/s) = 3.34162 3.78854 3.57207
# Velocity P-wave (km/s) = 5.41374 6.23907 5.84100
#
# Compressibility (1/GPa) = 0.02675941
#
# Stress axis : x y z
#
# Youngs Moduli (GPa) = 48.67915 67.29445 166.78017
#
# Poissons Ratio (x) = 0.21039 0.35261
# Poissons Ratio (y) = 0.15219 0.34674
# Poissons Ratio (z) = 0.10292 0.13991
#
# Static dielectric constant tensor:
#      x y z
#    x 2.114910 0.000000 0.093810 
#    y 0.000000 2.024670 0.000000 
#    z 0.093810 0.000000 2.168320 
# 
# From -- ./inp_files/50504.got.cif
#   From: 2010.05.17/outbox.cif.g08.bks.cpg/sg5_26_cif.got.tgz:50504.got - 2010.06.03 18:56:24.
