data_PCOD9121975
_publ_section_title
;
Structure prediction by ZEFSAII (Michael W. Deem and Ramdas Pophale) SiO2 
 PCOD9121975
Probable space group: C 2
;
_chemical_formula_sum "Si O2"
_cell_formula_units_Z 24
_cell_length_a 21.435960
_cell_length_b 7.223368
_cell_length_c 16.425238
_cell_angle_alpha 90.000000
_cell_angle_beta 154.086830
_cell_angle_gamma 90.000000
_cell_volume 1111.435548
_symmetry_space_group_name_H-M "C 2"
_symmetry_group_IT_number 5
_symmetry_cell_setting 'monoclinic'
loop_
_space_group_symop_operation_xyz
x,y,z
-x,y,-z
1/2+x,1/2+y,z
1/2-x,1/2+y,-z
loop_
_atom_site_type_symbol
_atom_site_label
_atom_site_fract_x
_atom_site_fract_y
_atom_site_fract_z
Si Si1 0.094270 0.450580 0.374678
Si Si2 0.828731 0.911225 0.974926
Si Si3 0.284713 0.994743 0.987514
Si Si4 0.377109 0.388406 0.608905
Si Si5 0.868264 0.500785 0.399070
Si Si6 0.517817 0.412074 0.434168
O O1 0.221816 0.396737 0.465054
O O2 0.088389 0.673755 0.365814
O O3 0.129620 0.408608 0.509958
O O4 0.936719 0.391351 0.161343
O O5 0.798437 0.693342 0.958991
O O6 0.769349 0.966819 0.817730
O O7 0.996555 0.951872 0.183026
O O8 0.745977 0.012397 0.951879
O O9 0.144779 0.894494 0.788354
O O10 0.398228 0.487682 0.546379
O O11 0.000000 0.430605 0.500000
O O12 0.901865 0.719508 0.450774
O O13 0.500000 0.512024 0.500000
#
# Coordination Sequence:
#
# PCOD9121975 Si02
#       6
#     4   4   4   4   4   4
#     4  10  20  39  60  86 125 161 199 249 300 366
#     4  10  21  37  63  92 123 161 206 248 305 363
#     4  10  21  38  63  91 122 161 203 246 309 362
#     4   9  21  39  58  89 119 162 200 244 308 361
#     4  10  19  37  63  91 122 154 206 254 299 352
#     4   9  20  39  63  86 122 154 205 255 295 356
#
# _framework density 21.593696000000001
#
# number of rings (size 3 to 8) (size 9 to 14) (size 15 to 20)
#    0.000    2.333    1.667    1.000    4.667    4.000 
#    3.000    0.833    0.000    0.000    0.000    0.000 
#    0.000    0.000    0.000    0.000    0.000    0.000 
#
# Total GULP energy -66957.729434 kJ/mol
# GULP energy per Si atom -5579.810786 kJ/mol
# Density = 2.154455 g / cm^3
# Si number density = 21.593696 Si / 1000 Ang^3
#
#
#
# Elastic Constant Matrix: (Units=GPa)
#
#
# Indices 1 2 3 4 5 6 
#
# 1 140.5259 -6.7153 91.7585 0.0000 -5.1264 0.0000
# 2 -6.7153 72.7897 23.4057 0.0000 -14.7681 0.0000
# 3 91.7585 23.4057 150.9508 0.0000 -2.5084 0.0000
# 4 0.0000 0.0000 0.0000 26.3505 0.0000 -4.9388
# 5 -5.1264 -14.7681 -2.5084 0.0000 45.1173 0.0000
# 6 0.0000 0.0000 0.0000 -4.9388 0.0000 15.7520
#
#
#
# Elastic Compliance Matrix: (Units=1/GPa)
#
#
# Indices 1 2 3 4 5 6 
#
# 1 0.013003 0.004449 -0.008553 0.000000 0.002458 0.000000
# 2 0.004449 0.017008 -0.005245 0.000000 0.005781 0.000000
# 3 -0.008553 -0.005245 0.012604 0.000000 -0.001988 0.000000
# 4 0.000000 0.000000 0.000000 0.040319 0.000000 0.012641
# 5 0.002458 0.005781 -0.001988 0.000000 0.024226 0.000000
# 6 0.000000 0.000000 0.000000 0.012641 0.000000 0.067447
#
#
# Mechanical properties :
#
#
# Convention : Reuss Voigt Hill
#
# Bulk Modulus (GPa) = 41.81319 64.57380 53.19349
# Shear Modulus (GPa) = 24.84100 34.49847 29.66973
#
# Velocity S-wave (km/s) = 3.39541 4.00136 3.71077
# Velocity P-wave (km/s) = 5.89723 7.16357 6.56103
#
# Compressibility (1/GPa) = 0.02391590
#
# Stress axis : x y z
#
# Youngs Moduli (GPa) = 76.90285 58.79514 79.33813
#
# Poissons Ratio (x) = -0.26156 0.67861
# Poissons Ratio (y) = -0.34212 0.41616
# Poissons Ratio (z) = 0.65778 0.30840
#
# Static dielectric constant tensor:
#      x y z
#    x 1.801790 0.000000 -0.017070 
#    y 0.000000 1.887110 0.000000 
#    z -0.017070 0.000000 1.806870 
# 
# From -- ./inp_files/55790.got.cif
#   From: 2010.05.17/outbox.cif.g08.bks.cpg/sg5_28_cif.got.tgz:55790.got - 2010.06.03 18:56:24.
