data_PCOD9121494
_publ_section_title
;
Structure prediction by ZEFSAII (Michael W. Deem and Ramdas Pophale) SiO2 
 PCOD9121494
Probable space group: C 2
;
_chemical_formula_sum "Si O2"
_cell_formula_units_Z 26
_cell_length_a 28.421864
_cell_length_b 4.911921
_cell_length_c 18.537697
_cell_angle_alpha 90.000000
_cell_angle_beta 154.715788
_cell_angle_gamma 90.000000
_cell_volume 1105.345768
_symmetry_space_group_name_H-M "C 2"
_symmetry_group_IT_number 5
_symmetry_cell_setting 'monoclinic'
loop_
_space_group_symop_operation_xyz
x,y,z
-x,y,-z
1/2+x,1/2+y,z
1/2-x,1/2+y,-z
loop_
_atom_site_type_symbol
_atom_site_label
_atom_site_fract_x
_atom_site_fract_y
_atom_site_fract_z
Si Si1 0.920656 0.539420 0.750296
Si Si2 0.000000 0.836853 0.000000
Si Si3 0.746162 0.226201 0.158940
Si Si4 0.196154 0.937208 0.515227
Si Si5 0.897613 0.222725 0.077395
Si Si6 0.749945 0.454632 0.321870
Si Si7 0.321710 0.851557 0.117628
O O1 0.892649 0.788187 0.657953
O O2 0.808512 0.409144 0.624779
O O3 0.996919 0.317957 0.819097
O O4 0.983178 0.654837 0.906275
O O5 0.117224 0.982548 0.149800
O O6 0.773334 0.326446 0.276408
O O7 0.836767 0.283322 0.222334
O O8 0.643832 0.419346 0.992995
O O9 0.701066 0.920467 0.088333
O O10 0.202121 0.748979 0.594696
O O11 0.201819 0.245427 0.551609
O O12 0.911678 0.280654 0.182276
O O13 0.219126 0.658872 0.950221
#
# Coordination Sequence:
#
# PCOD9121494 Si02
#       7
#     4   2   4   4   4   4   4
#     4  11  23  42  58  86 118 159 201 244 291 350
#     4  10  22  34  60  84 110 146 202 252 272 338
#     4  10  19  34  57  88 118 146 190 250 297 349
#     4  11  26  39  56  80 124 163 191 235 298 360
#     4  10  20  33  59  87 114 151 194 248 294 343
#     4  11  23  39  57  86 117 159 192 241 299 348
#     4   8  16  31  51  84 118 142 179 241 309 342
#
# _framework density 23.522053
#
# number of rings (size 3 to 8) (size 9 to 14) (size 15 to 20)
#    0.000    1.846    1.538    2.769    4.308    3.077 
#    0.000    0.000    0.000    0.923    0.000    4.308 
#    0.000    0.000    0.000    0.000    0.000    0.000 
#
# Total GULP energy -72713.190771 kJ/mol
# GULP energy per Si atom -5593.322367 kJ/mol
# Density = 2.346852 g / cm^3
# Si number density = 23.522053 Si / 1000 Ang^3
#
#
#
# Elastic Constant Matrix: (Units=GPa)
#
#
# Indices 1 2 3 4 5 6 
#
# 1 112.6577 -13.7797 7.7927 0.0000 -29.1522 -0.0001
# 2 -13.7797 83.6410 14.8447 0.0001 -4.5487 -0.0002
# 3 7.7927 14.8447 57.9825 -0.0001 -24.4419 -0.0001
# 4 0.0000 0.0001 -0.0001 22.5614 0.0000 -3.8243
# 5 -29.1522 -4.5487 -24.4419 0.0000 24.2655 0.0000
# 6 -0.0001 -0.0002 -0.0001 -3.8243 0.0000 29.3702
#
#
#
# Elastic Compliance Matrix: (Units=1/GPa)
#
#
# Indices 1 2 3 4 5 6 
#
# 1 0.016210 0.002567 0.009691 0.000000 0.029717 0.000000
# 2 0.002567 0.012964 -0.002328 0.000000 0.003168 0.000000
# 3 0.009691 -0.002328 0.036956 0.000000 0.048431 0.000000
# 4 0.000000 0.000000 0.000000 0.045324 0.000000 0.005902
# 5 0.029717 0.003168 0.048431 0.000000 0.126290 0.000000
# 6 0.000000 0.000000 0.000000 0.005902 0.000000 0.034817
#
#
# Mechanical properties :
#
#
# Convention : Reuss Voigt Hill
#
# Bulk Modulus (GPa) = 11.62939 30.22184 20.92561
# Shear Modulus (GPa) = 17.77054 31.60099 24.68576
#
# Velocity S-wave (km/s) = 2.75159 3.66930 3.24307
# Velocity P-wave (km/s) = 3.87940 5.55229 4.78945
#
# Compressibility (1/GPa) = 0.08598906
#
# Stress axis : x y z
#
# Youngs Moduli (GPa) = 61.69064 77.13498 27.05931
#
# Poissons Ratio (x) = -0.19798 -0.26224
# Poissons Ratio (y) = -0.15834 0.06301
# Poissons Ratio (z) = -0.59786 0.17961
#
# Static dielectric constant tensor:
#      x y z
#    x 1.934370 0.000000 -0.003500 
#    y 0.000000 1.863790 0.000000 
#    z -0.003500 0.000000 1.900210 
# 
# From -- ./inp_files/61035.got.cif
#   From: 2010.05.17/outbox.cif.g08.bks.cpg/sg5_31_cif.got.tgz:61035.got - 2010.06.03 18:56:24.
