data_PCOD9121353
_publ_section_title
;
Structure prediction by ZEFSAII (Michael W. Deem and Ramdas Pophale) SiO2 
 PCOD9121353
Probable space group: C 2
;
_chemical_formula_sum "Si O2"
_cell_formula_units_Z 32
_cell_length_a 7.551187
_cell_length_b 22.586316
_cell_length_c 10.709945
_cell_angle_alpha 90.000000
_cell_angle_beta 38.967343
_cell_angle_gamma 90.000000
_cell_volume 1148.719016
_symmetry_space_group_name_H-M "C 2"
_symmetry_group_IT_number 5
_symmetry_cell_setting 'monoclinic'
loop_
_space_group_symop_operation_xyz
x,y,z
-x,y,-z
1/2+x,1/2+y,z
1/2-x,1/2+y,-z
loop_
_atom_site_type_symbol
_atom_site_label
_atom_site_fract_x
_atom_site_fract_y
_atom_site_fract_z
Si Si1 0.176129 0.262190 0.140304
Si Si2 0.139466 0.793394 0.562093
Si Si3 0.267150 0.884354 0.938611
Si Si4 0.635686 0.637594 0.061357
Si Si5 0.693962 0.419866 0.516570
Si Si6 0.323645 0.168408 0.360625
Si Si7 0.272191 0.045216 0.445164
Si Si8 0.217813 0.513840 0.991360
O O1 0.153276 0.318146 0.057218
O O2 0.974711 0.283759 0.361807
O O3 0.500000 0.254530 0.000000
O O4 0.051859 0.198233 0.174241
O O5 0.100072 0.859594 0.638415
O O6 0.046902 0.732049 0.675368
O O7 0.000000 0.795091 0.500000
O O8 0.512622 0.902870 0.708162
O O9 0.211813 0.944031 0.046690
O O10 0.000000 0.874294 0.000000
O O11 0.580755 0.570770 0.136584
O O12 0.975776 0.644353 0.859608
O O13 0.500000 0.641125 0.000000
O O14 0.500000 0.426351 0.500000
O O15 0.718247 0.486195 0.556945
O O16 0.329718 0.113019 0.453780
O O17 0.000000 0.175549 0.500000
O O18 0.548879 0.026793 0.212703
O O19 0.000000 0.049997 0.500000
O O20 0.000000 0.519591 0.000000
#
# Coordination Sequence:
#
# PCOD9121353 Si02
#       8
#     4   4   4   4   4   4   4   4
#     4  10  20  35  55  77 106 141 176 215 262 316
#     4  10  19  33  54  77  99 132 176 216 252 304
#     4   9  18  33  53  78 105 136 173 216 265 312
#     4  11  22  35  52  78 110 140 173 220 268 308
#     4   8  15  30  53  73  95 131 173 205 247 308
#     4  10  20  34  53  75 103 138 172 208 257 315
#     4   8  16  32  52  73  97 131 170 207 251 303
#     4  10  20  34  54  79 105 137 178 219 261 314
#
# _framework density 27.857116000000001
#
# number of rings (size 3 to 8) (size 9 to 14) (size 15 to 20)
#    0.000    2.500    0.000    2.250    0.000    2.500 
#    0.000    3.750    0.000    0.750    0.000    7.000 
#    0.000    0.000    0.000    0.000    0.000    0.000 
#
# Total GULP energy -89374.225778 kJ/mol
# GULP energy per Si atom -5585.889111 kJ/mol
# Density = 2.779371 g / cm^3
# Si number density = 27.857116 Si / 1000 Ang^3
#
#
#
# Elastic Constant Matrix: (Units=GPa)
#
#
# Indices 1 2 3 4 5 6 
#
# 1 70.8392 41.6721 -3.4981 0.0000 -7.9691 0.0000
# 2 41.6721 424.8678 38.9610 0.0000 32.3397 0.0000
# 3 -3.4981 38.9610 79.9602 0.0000 -7.2191 0.0000
# 4 0.0000 0.0000 0.0000 64.1019 0.0000 6.7394
# 5 -7.9691 32.3397 -7.2191 0.0000 28.0175 0.0000
# 6 0.0000 0.0000 0.0000 6.7394 0.0000 36.6899
#
#
#
# Elastic Compliance Matrix: (Units=1/GPa)
#
#
# Indices 1 2 3 4 5 6 
#
# 1 0.016671 -0.002519 0.002711 0.000000 0.008348 0.000000
# 2 -0.002519 0.003167 -0.002097 0.000000 -0.004912 0.000000
# 3 0.002711 -0.002097 0.014266 0.000000 0.006867 0.000000
# 4 0.000000 0.000000 0.000000 0.015907 0.000000 -0.002922
# 5 0.008348 -0.004912 0.006867 0.000000 0.045506 0.000000
# 6 0.000000 0.000000 0.000000 -0.002922 0.000000 0.027792
#
#
# Mechanical properties :
#
#
# Convention : Reuss Voigt Hill
#
# Bulk Modulus (GPa) = 33.00998 81.10415 57.05706
# Shear Modulus (GPa) = 36.43799 58.99733 47.71766
#
# Velocity S-wave (km/s) = 3.62060 4.60701 4.14326
# Velocity P-wave (km/s) = 5.41791 7.58135 6.58903
#
# Compressibility (1/GPa) = 0.03029387
#
# Stress axis : x y z
#
# Youngs Moduli (GPa) = 59.98303 315.76081 70.09434
#
# Poissons Ratio (x) = 0.79545 -0.18999
# Poissons Ratio (y) = 0.15111 0.14698
# Poissons Ratio (z) = -0.16258 0.66210
#
# Static dielectric constant tensor:
#      x y z
#    x 2.107840 0.000000 0.072650 
#    y 0.000000 2.303380 0.000000 
#    z 0.072650 0.000000 2.244810 
# 
# From -- ./inp_files/51502.got.cif
#   From: 2010.05.17/outbox.cif.g08.bks.cpg/sg5_26_cif.got.tgz:51502.got - 2010.06.03 18:56:24.
