data_PCOD9121074
_publ_section_title
;
Structure prediction by ZEFSAII (Michael W. Deem and Ramdas Pophale) SiO2 
 PCOD9121074
Probable space group: C 2
;
_chemical_formula_sum "Si O2"
_cell_formula_units_Z 30
_cell_length_a 12.198882
_cell_length_b 13.072133
_cell_length_c 10.901800
_cell_angle_alpha 90.000000
_cell_angle_beta 126.684677
_cell_angle_gamma 90.000000
_cell_volume 1394.132677
_symmetry_space_group_name_H-M "C 2"
_symmetry_group_IT_number 5
_symmetry_cell_setting 'monoclinic'
loop_
_space_group_symop_operation_xyz
x,y,z
-x,y,-z
1/2+x,1/2+y,z
1/2-x,1/2+y,-z
loop_
_atom_site_type_symbol
_atom_site_label
_atom_site_fract_x
_atom_site_fract_y
_atom_site_fract_z
Si Si1 0.941526 0.978780 0.331134
Si Si2 0.749639 0.837081 0.052476
Si Si3 0.000000 0.468742 0.000000
Si Si4 0.164075 0.137541 0.124939
Si Si5 0.306974 0.040266 0.687826
Si Si6 0.812659 0.424606 0.241914
Si Si7 0.625074 0.878168 0.448184
Si Si8 0.846865 0.153318 0.601759
O O1 0.881693 0.894090 0.198942
O O2 0.000000 0.936590 0.500000
O O3 0.814197 0.046935 0.294525
O O4 0.049214 0.057924 0.344203
O O5 0.620518 0.897444 0.027782
O O6 0.729822 0.721020 0.080235
O O7 0.735781 0.848206 0.897011
O O8 0.054559 0.538727 0.145408
O O9 0.188379 0.170157 0.281444
O O10 0.235294 0.028622 0.158439
O O11 0.000000 0.131940 0.000000
O O12 0.283386 0.122137 0.566687
O O13 0.298381 0.929533 0.614762
O O14 0.792193 0.395120 0.370803
O O15 0.977483 0.432900 0.348276
O O16 0.595396 0.758874 0.411503
#
# Coordination Sequence:
#
# PCOD9121074 Si02
#       8
#     4   4   2   4   4   4   4   4
#     4   9  21  37  64 103 130 167 221 281 318 392
#     4  11  21  42  66  95 131 172 222 271 332 397
#     4  10  18  38  66  94 126 170 212 270 314 388
#     4  12  24  43  71  97 130 178 225 272 343 406
#     4  10  20  39  65  97 134 170 225 273 322 402
#     4  11  25  41  67  99 136 171 222 287 326 404
#     4  11  23  44  67  94 138 177 223 270 338 406
#     4  11  22  42  70  98 129 183 222 270 342 401
#
# _framework density 21.518754999999999
#
# number of rings (size 3 to 8) (size 9 to 14) (size 15 to 20)
#    0.000    1.333    3.333    3.200    5.600    0.000 
#    4.800    1.333    1.467    0.000    0.000    0.000 
#    0.000    0.000    0.000    0.000    0.000    0.000 
#
# Total GULP energy -83786.102881 kJ/mol
# GULP energy per Si atom -5585.740192 kJ/mol
# Density = 2.146978 g / cm^3
# Si number density = 21.518755 Si / 1000 Ang^3
#
#
#
# Elastic Constant Matrix: (Units=GPa)
#
#
# Indices 1 2 3 4 5 6 
#
# 1 35.0509 32.4156 22.3951 0.0000 -7.0579 0.0000
# 2 32.4156 100.5478 59.5863 0.0000 3.7144 0.0000
# 3 22.3951 59.5863 151.0281 0.0000 -25.4593 0.0000
# 4 0.0000 0.0000 0.0000 19.3379 0.0000 3.2730
# 5 -7.0579 3.7144 -25.4593 0.0000 28.7051 0.0000
# 6 0.0000 0.0000 0.0000 3.2730 0.0000 9.4217
#
#
#
# Elastic Compliance Matrix: (Units=1/GPa)
#
#
# Indices 1 2 3 4 5 6 
#
# 1 0.045548 -0.016718 0.002462 0.000000 0.015546 0.000000
# 2 -0.016718 0.020569 -0.007970 0.000000 -0.013841 0.000000
# 3 0.002462 -0.007970 0.011377 0.000000 0.011728 0.000000
# 4 0.000000 0.000000 0.000000 0.054942 0.000000 -0.019087
# 5 0.015546 -0.013841 0.011728 0.000000 0.050852 0.000000
# 6 0.000000 0.000000 0.000000 -0.019087 0.000000 0.112769
#
#
# Mechanical properties :
#
#
# Convention : Reuss Voigt Hill
#
# Bulk Modulus (GPa) = 30.26183 57.26898 43.76540
# Shear Modulus (GPa) = 14.22384 22.97493 18.59939
#
# Velocity S-wave (km/s) = 2.57378 3.27107 2.94314
# Velocity P-wave (km/s) = 4.78811 6.39827 5.65083
#
# Compressibility (1/GPa) = 0.03304493
#
# Stress axis : x y z
#
# Youngs Moduli (GPa) = 21.95489 48.61608 87.89369
#
# Poissons Ratio (x) = 0.81275 -0.21644
# Poissons Ratio (y) = 0.36704 0.70047
# Poissons Ratio (z) = -0.05406 0.38745
#
# Static dielectric constant tensor:
#      x y z
#    x 1.819440 0.000000 0.002270 
#    y 0.000000 1.763940 0.000000 
#    z 0.002270 0.000000 1.814940 
# 
# From -- ./inp_files/42702.got.cif
#   From: 2010.05.17/outbox.cif.g08.bks.cpg/sg5_22_cif.got.tgz:42702.got - 2010.06.03 18:56:24.
