data_PCOD9121813
_publ_section_title
;
Structure prediction by ZEFSAII (Michael W. Deem and Ramdas Pophale) SiO2 
 PCOD9121813
Probable space group: C 2
;
_chemical_formula_sum "Si O2"
_cell_formula_units_Z 32
_cell_length_a 17.396776
_cell_length_b 8.954750
_cell_length_c 11.633510
_cell_angle_alpha 90.000000
_cell_angle_beta 122.341362
_cell_angle_gamma 90.000000
_cell_volume 1531.178800
_symmetry_space_group_name_H-M "C 2"
_symmetry_group_IT_number 5
_symmetry_cell_setting 'monoclinic'
loop_
_space_group_symop_operation_xyz
x,y,z
-x,y,-z
1/2+x,1/2+y,z
1/2-x,1/2+y,-z
loop_
_atom_site_type_symbol
_atom_site_label
_atom_site_fract_x
_atom_site_fract_y
_atom_site_fract_z
Si Si1 0.374463 0.155100 0.027415
Si Si2 0.046980 0.465177 0.217749
Si Si3 0.231097 0.475147 0.220052
Si Si4 0.196787 0.654570 0.782064
Si Si5 0.332235 0.471409 0.525613
Si Si6 0.372758 0.481833 0.944435
Si Si7 0.527718 0.610939 0.202861
Si Si8 0.154053 0.618583 0.494169
O O1 0.359728 0.188346 0.149758
O O2 0.459636 0.043859 0.093996
O O3 0.390309 0.306370 0.970004
O O4 0.284892 0.077017 0.902955
O O5 0.136751 0.491127 0.213638
O O6 0.032683 0.288582 0.213595
O O7 0.073639 0.538625 0.360859
O O8 0.245098 0.303471 0.197772
O O9 0.308917 0.513390 0.375016
O O10 0.266997 0.521002 0.862020
O O11 0.143158 0.618643 0.622569
O O12 0.424754 0.539297 0.648586
O O13 0.248362 0.535555 0.534483
O O14 0.335730 0.291729 0.535259
O O15 0.414263 0.549203 0.860086
O O16 0.426303 0.558991 0.092240
#
# Coordination Sequence:
#
# PCOD9121813 Si02
#       8
#     4   4   4   4   4   4   4   4
#     4  12  26  38  65  94 130 170 220 256 321 399
#     4  11  23  40  64  94 126 164 214 276 319 375
#     4  10  22  39  63  91 131 166 210 266 321 378
#     4  11  22  45  61  91 136 174 202 260 332 395
#     4  10  19  36  61  95 122 161 214 271 317 374
#     4  11  24  37  62  94 124 167 209 263 320 389
#     4  11  22  39  63  90 127 156 211 272 323 362
#     4  10  21  36  65  89 129 166 211 262 328 380
#
# _framework density 20.898931999999999
#
# number of rings (size 3 to 8) (size 9 to 14) (size 15 to 20)
#    0.000    1.250    2.500    4.125    8.750    1.500 
#    0.000    0.000    0.000    6.750    0.000    0.000 
#    0.000    0.000    0.000    0.000    0.000    0.000 
#
# Total GULP energy -89439.704428 kJ/mol
# GULP energy per Si atom -5589.981527 kJ/mol
# Density = 2.085137 g / cm^3
# Si number density = 20.898932 Si / 1000 Ang^3
#
#
#
# Elastic Constant Matrix: (Units=GPa)
#
#
# Indices 1 2 3 4 5 6 
#
# 1 31.2838 15.4838 15.9598 0.0000 -9.3897 0.0000
# 2 15.4838 146.4090 78.3752 0.0000 -1.1577 0.0000
# 3 15.9598 78.3752 159.8793 0.0000 0.6566 0.0000
# 4 0.0000 0.0000 0.0000 37.7903 0.0000 1.8326
# 5 -9.3897 -1.1577 0.6566 0.0000 26.3656 0.0000
# 6 0.0000 0.0000 0.0000 1.8326 0.0000 3.9860
#
#
#
# Elastic Compliance Matrix: (Units=1/GPa)
#
#
# Indices 1 2 3 4 5 6 
#
# 1 0.038717 -0.002558 -0.002667 0.000000 0.013743 0.000000
# 2 -0.002558 0.009436 -0.004369 0.000000 -0.000388 0.000000
# 3 -0.002667 -0.004369 0.008668 0.000000 -0.001358 0.000000
# 4 0.000000 0.000000 0.000000 0.027065 0.000000 -0.012443
# 5 0.013743 -0.000388 -0.001358 0.000000 0.042839 0.000000
# 6 0.000000 0.000000 0.000000 -0.012443 0.000000 0.256598
#
#
# Mechanical properties :
#
#
# Convention : Reuss Voigt Hill
#
# Bulk Modulus (GPa) = 26.57230 61.91217 44.24224
# Shear Modulus (GPa) = 12.04653 28.81193 20.42923
#
# Velocity S-wave (km/s) = 2.40348 3.71702 3.12993
# Velocity P-wave (km/s) = 4.52156 6.93618 5.85470
#
# Compressibility (1/GPa) = 0.03763317
#
# Stress axis : x y z
#
# Youngs Moduli (GPa) = 25.82834 105.97261 115.36339
#
# Poissons Ratio (x) = 0.27109 0.30771
# Poissons Ratio (y) = 0.06607 0.50401
# Poissons Ratio (z) = 0.06889 0.46298
#
# Static dielectric constant tensor:
#      x y z
#    x 1.749290 0.000000 -0.019360 
#    y 0.000000 1.715560 0.000000 
#    z -0.019360 0.000000 1.786290 
# 
# From -- ./inp_files/46156.got.cif
#   From: 2010.05.17/outbox.cif.g08.bks.cpg/sg5_24_cif.got.tgz:46156.got - 2010.06.03 18:56:24.
