data_PCOD9121230
_publ_section_title
;
Structure prediction by ZEFSAII (Michael W. Deem and Ramdas Pophale) SiO2 
 PCOD9121230
Probable space group: C 2
;
_chemical_formula_sum "Si O2"
_cell_formula_units_Z 32
_cell_length_a 5.882143
_cell_length_b 13.923154
_cell_length_c 19.251386
_cell_angle_alpha 90.000000
_cell_angle_beta 50.953280
_cell_angle_gamma 90.000000
_cell_volume 1224.477452
_symmetry_space_group_name_H-M "C 2"
_symmetry_group_IT_number 5
_symmetry_cell_setting 'monoclinic'
loop_
_space_group_symop_operation_xyz
x,y,z
-x,y,-z
1/2+x,1/2+y,z
1/2-x,1/2+y,-z
loop_
_atom_site_type_symbol
_atom_site_label
_atom_site_fract_x
_atom_site_fract_y
_atom_site_fract_z
Si Si1 0.330579 0.570780 0.099603
Si Si2 0.632092 0.000661 0.330957
Si Si3 0.437844 0.502049 0.593628
Si Si4 0.874907 0.764642 0.790047
Si Si5 0.721720 0.828819 0.404816
Si Si6 0.129996 0.264208 0.207662
Si Si7 0.724688 0.175851 0.401254
Si Si8 0.229179 0.042796 0.149953
O O1 0.584116 0.524461 0.101122
O O2 0.203246 0.657924 0.169981
O O3 0.051926 0.516639 0.116973
O O4 0.500000 0.611721 0.000000
O O5 0.398234 0.997791 0.315458
O O6 0.555258 0.907030 0.389677
O O7 0.560057 0.099829 0.383295
O O8 0.972143 0.001365 0.248502
O O9 0.500000 0.505842 0.500000
O O10 0.578421 0.403604 0.592441
O O11 0.574665 0.598297 0.598216
O O12 0.091771 0.765055 0.682527
O O13 0.073758 0.807908 0.815005
O O14 0.573090 0.806538 0.815089
O O15 0.500000 0.779074 0.500000
O O16 0.915051 0.242951 0.314798
O O17 0.220296 0.158723 0.161704
O O18 0.500000 0.219965 0.500000
#
# Coordination Sequence:
#
# PCOD9121230 Si02
#       8
#     4   4   4   4   4   4   4   4
#     4  10  20  40  65  91 119 148 188 244 311 374
#     4  10  20  34  52  80 114 151 196 245 289 344
#     4  11  19  32  54  76 110 156 210 248 284 339
#     4  10  23  39  55  84 114 157 202 241 285 347
#     4  11  23  36  53  80 117 168 215 244 278 334
#     4   9  21  35  52  77 114 143 189 240 298 347
#     4  10  19  29  48  76 105 144 192 245 296 342
#     4   9  20  34  61  91 114 143 183 243 309 369
#
# _framework density 26.133596000000001
#
# number of rings (size 3 to 8) (size 9 to 14) (size 15 to 20)
#    0.000    2.000    2.500    1.125   12.250    1.000 
#    0.000    0.000    0.000    1.500    0.000    0.000 
#    0.000    0.000    0.000    0.000    0.000    0.000 
#
# Total GULP energy -89284.773273 kJ/mol
# GULP energy per Si atom -5580.298330 kJ/mol
# Density = 2.607411 g / cm^3
# Si number density = 26.133596 Si / 1000 Ang^3
#
#
#
# Elastic Constant Matrix: (Units=GPa)
#
#
# Indices 1 2 3 4 5 6 
#
# 1 250.8272 34.4739 20.7507 -0.0001 -6.2843 0.0008
# 2 34.4739 79.3902 29.1658 -0.0003 2.5890 0.0003
# 3 20.7507 29.1658 71.2846 0.0002 11.9130 0.0001
# 4 -0.0001 -0.0003 0.0002 11.4898 -0.0001 0.3321
# 5 -6.2843 2.5890 11.9130 -0.0001 31.6132 -0.0002
# 6 0.0008 0.0003 0.0001 0.3321 -0.0002 26.2113
#
#
#
# Elastic Compliance Matrix: (Units=1/GPa)
#
#
# Indices 1 2 3 4 5 6 
#
# 1 0.004308 -0.001616 -0.000809 0.000000 0.001294 0.000000
# 2 -0.001616 0.015469 -0.005969 0.000000 0.000661 0.000000
# 3 -0.000809 -0.005969 0.017770 -0.000001 -0.006369 0.000000
# 4 0.000000 0.000000 -0.000001 0.087065 0.000001 -0.001103
# 5 0.001294 0.000661 -0.006369 0.000001 0.034235 0.000000
# 6 0.000000 0.000000 0.000000 -0.001103 0.000000 0.038165
#
#
# Mechanical properties :
#
#
# Convention : Reuss Voigt Hill
#
# Bulk Modulus (GPa) = 48.17137 63.36475 55.76806
# Shear Modulus (GPa) = 22.65292 35.00362 28.82827
#
# Velocity S-wave (km/s) = 2.94736 3.66377 3.32492
# Velocity P-wave (km/s) = 5.48228 6.49590 6.01049
#
# Compressibility (1/GPa) = 0.02075922
#
# Stress axis : x y z
#
# Youngs Moduli (GPa) = 232.11389 64.64549 56.27310
#
# Poissons Ratio (x) = 0.10445 0.04554
# Poissons Ratio (y) = 0.37502 0.33591
# Poissons Ratio (z) = 0.18784 0.38589
#
# Static dielectric constant tensor:
#      x y z
#    x 2.256910 0.000000 -0.008290 
#    y 0.000000 1.976950 0.000000 
#    z -0.008290 0.000000 2.018500 
# 
# From -- ./inp_files/59011.got.cif
#   From: 2010.05.17/outbox.cif.g08.bks.cpg/sg5_30_cif.got.tgz:59011.got - 2010.06.03 18:56:24.
