data_PCOD9121968
_publ_section_title
;
Structure prediction by ZEFSAII (Michael W. Deem and Ramdas Pophale) SiO2 
 PCOD9121968
Probable space group: C 2
;
_chemical_formula_sum "Si O2"
_cell_formula_units_Z 32
_cell_length_a 15.645137
_cell_length_b 7.273737
_cell_length_c 25.346806
_cell_angle_alpha 90.000000
_cell_angle_beta 27.107550
_cell_angle_gamma 90.000000
_cell_volume 1314.326354
_symmetry_space_group_name_H-M "C 2"
_symmetry_group_IT_number 5
_symmetry_cell_setting 'monoclinic'
loop_
_space_group_symop_operation_xyz
x,y,z
-x,y,-z
1/2+x,1/2+y,z
1/2-x,1/2+y,-z
loop_
_atom_site_type_symbol
_atom_site_label
_atom_site_fract_x
_atom_site_fract_y
_atom_site_fract_z
Si Si1 0.489077 0.349970 0.172435
Si Si2 0.461619 0.655666 0.407714
Si Si3 0.758178 0.727125 0.765311
Si Si4 0.437295 0.002327 0.590638
Si Si5 0.184719 0.468750 0.723319
Si Si6 0.666857 0.251326 0.170002
Si Si7 0.035513 0.959467 0.034786
Si Si8 0.372246 0.931838 0.365808
O O1 0.278799 0.432190 0.292325
O O2 0.461185 0.132608 0.195976
O O3 0.601062 0.398914 0.163369
O O4 0.588158 0.374222 0.061775
O O5 0.439523 0.829348 0.459658
O O6 0.639730 0.550665 0.338048
O O7 0.460465 0.759695 0.350789
O O8 0.291364 0.516480 0.508153
O O9 0.938082 0.660944 0.633764
O O10 0.780357 0.851318 0.804272
O O11 0.665037 0.545563 0.840477
O O12 0.620766 0.805633 0.796415
O O13 0.500000 0.069439 0.500000
O O14 0.208614 0.400720 0.649849
O O15 0.514766 0.101412 0.275201
O O16 0.831233 0.129425 0.053773
O O17 0.000000 0.848681 0.000000
#
# Coordination Sequence:
#
# PCOD9121968 Si02
#       8
#     4   4   4   4   4   4   4   4
#     4   9  20  39  63  89 119 167 210 257 321 379
#     4  11  23  40  62  91 128 166 215 258 322 377
#     4  10  21  39  61  90 126 166 205 260 324 376
#     4  10  19  37  63  88 126 166 206 257 321 378
#     4  10  23  42  61  89 135 159 214 265 325 373
#     4  10  20  39  63  88 125 157 214 262 310 379
#     4   9  20  39  65  86 122 165 205 260 324 379
#     4  11  24  41  62  92 124 175 208 269 315 392
#
# _framework density 24.347073999999999
#
# number of rings (size 3 to 8) (size 9 to 14) (size 15 to 20)
#    0.000    2.000    1.250    2.625    3.500    4.000 
#    4.500    3.125    0.000    0.000    0.000    0.000 
#    0.000    0.000    0.000    0.000    0.000    0.000 
#
# Total GULP energy -89093.192668 kJ/mol
# GULP energy per Si atom -5568.324542 kJ/mol
# Density = 2.429166 g / cm^3
# Si number density = 24.347074 Si / 1000 Ang^3
#
#
#
# Elastic Constant Matrix: (Units=GPa)
#
#
# Indices 1 2 3 4 5 6 
#
# 1 194.3782 21.9849 47.7404 0.0008 50.3696 -0.0011
# 2 21.9849 42.1872 3.7197 0.0012 16.9272 -0.0015
# 3 47.7404 3.7197 72.2442 -0.0003 29.3706 -0.0011
# 4 0.0008 0.0012 -0.0003 20.6411 0.0001 8.9622
# 5 50.3696 16.9272 29.3706 0.0001 51.1962 0.0001
# 6 -0.0011 -0.0015 -0.0011 8.9622 0.0001 30.9801
#
#
#
# Elastic Compliance Matrix: (Units=1/GPa)
#
#
# Indices 1 2 3 4 5 6 
#
# 1 0.007305 -0.001498 -0.002647 0.000000 -0.005173 0.000000
# 2 -0.001498 0.028129 0.003552 -0.000003 -0.009865 0.000002
# 3 -0.002647 0.003552 0.019337 0.000000 -0.009664 0.000001
# 4 0.000000 -0.000003 0.000000 0.055406 0.000001 -0.016028
# 5 -0.005173 -0.009865 -0.009664 0.000001 0.033428 -0.000001
# 6 0.000000 0.000002 0.000001 -0.016028 -0.000001 0.036916
#
#
# Mechanical properties :
#
#
# Convention : Reuss Voigt Hill
#
# Bulk Modulus (GPa) = 18.66181 50.63327 34.64754
# Shear Modulus (GPa) = 25.05419 36.25446 30.65432
#
# Velocity S-wave (km/s) = 3.21135 3.86303 3.55217
# Velocity P-wave (km/s) = 4.62946 6.38271 5.57543
#
# Compressibility (1/GPa) = 0.05358538
#
# Stress axis : x y z
#
# Youngs Moduli (GPa) = 136.90077 35.55016 51.71484
#
# Poissons Ratio (x) = 0.05324 0.13688
# Poissons Ratio (y) = 0.20502 -0.18368
# Poissons Ratio (z) = 0.36235 -0.12627
#
# Static dielectric constant tensor:
#      x y z
#    x 2.245590 0.000000 -0.042390 
#    y 0.000000 2.070540 0.000000 
#    z -0.042390 0.000000 1.921860 
# 
# From -- ./inp_files/68749.got.cif
#   From: 2010.05.17/outbox.cif.g08.bks.cpg/sg5_35_cif.got.tgz:68749.got - 2010.06.03 18:56:24.
