data_PCOD9121018
_publ_section_title
;
Structure prediction by ZEFSAII (Michael W. Deem and Ramdas Pophale) SiO2 
 PCOD9121018
Probable space group: C 2
;
_chemical_formula_sum "Si O2"
_cell_formula_units_Z 28
_cell_length_a 19.310993
_cell_length_b 14.158137
_cell_length_c 7.547042
_cell_angle_alpha 90.000000
_cell_angle_beta 142.399519
_cell_angle_gamma 90.000000
_cell_volume 1258.999018
_symmetry_space_group_name_H-M "C 2"
_symmetry_group_IT_number 5
_symmetry_cell_setting 'monoclinic'
loop_
_space_group_symop_operation_xyz
x,y,z
-x,y,-z
1/2+x,1/2+y,z
1/2-x,1/2+y,-z
loop_
_atom_site_type_symbol
_atom_site_label
_atom_site_fract_x
_atom_site_fract_y
_atom_site_fract_z
Si Si1 0.835196 0.554750 0.679778
Si Si2 0.897516 0.582788 0.161765
Si Si3 0.342888 0.245589 0.800886
Si Si4 0.047373 0.891412 0.769797
Si Si5 0.917082 0.062992 0.665238
Si Si6 0.310150 0.942407 0.269045
Si Si7 0.089310 0.280706 0.341310
O O1 0.860758 0.665181 0.690633
O O2 0.710304 0.546935 0.519621
O O3 0.830889 0.498191 0.493283
O O4 0.919801 0.533007 0.014965
O O5 0.827973 0.508972 0.137144
O O6 0.000000 0.604517 0.500000
O O7 0.841641 0.679803 0.977888
O O8 0.217097 0.285554 0.517659
O O9 0.437074 0.322578 0.031898
O O10 0.000000 0.841296 0.500000
O O11 0.966301 0.981426 0.639066
O O12 0.178242 0.916132 0.999640
O O13 0.926760 0.172539 0.625189
O O14 0.000000 0.056861 0.000000
O O15 0.396325 0.854054 0.467325
O O16 0.000000 0.299467 0.000000
#
# Coordination Sequence:
#
# PCOD9121018 Si02
#       7
#     4   4   4   4   4   4   4
#     4   9  20  39  65  89 127 165 210 264 315 386
#     4  10  22  39  63  86 128 167 206 269 323 369
#     4   8  20  40  58  90 131 162 206 273 321 364
#     4  11  21  36  67  93 126 171 211 268 326 379
#     4  10  18  38  61  88 124 165 205 266 321 360
#     4  11  22  39  66  95 122 174 221 251 328 390
#     4   9  20  35  64  86 126 168 205 264 318 374
#
# _framework density 22.239889999999999
#
# number of rings (size 3 to 8) (size 9 to 14) (size 15 to 20)
#    0.857    1.429    1.429    1.286    2.000    0.000 
#    0.000    3.571   15.714    0.000    0.000    0.000 
#    0.000    0.000    0.000    0.000    0.000    0.000 
#
# Total GULP energy -77950.951300 kJ/mol
# GULP energy per Si atom -5567.925093 kJ/mol
# Density = 2.218927 g / cm^3
# Si number density = 22.239890 Si / 1000 Ang^3
#
#
#
# Elastic Constant Matrix: (Units=GPa)
#
#
# Indices 1 2 3 4 5 6 
#
# 1 46.4464 24.9023 23.0728 0.0000 -8.1143 0.0000
# 2 24.9023 94.7212 14.9865 0.0000 -1.2297 0.0000
# 3 23.0728 14.9865 143.6517 0.0000 -0.1739 0.0000
# 4 0.0000 0.0000 0.0000 28.1582 0.0000 -7.8681
# 5 -8.1143 -1.2297 -0.1739 0.0000 30.4333 0.0000
# 6 0.0000 0.0000 0.0000 -7.8681 0.0000 24.2628
#
#
#
# Elastic Compliance Matrix: (Units=1/GPa)
#
#
# Indices 1 2 3 4 5 6 
#
# 1 0.028319 -0.006744 -0.003836 0.000000 0.007256 0.000000
# 2 -0.006744 0.012346 -0.000206 0.000000 -0.001300 0.000000
# 3 -0.003836 -0.000206 0.007598 0.000000 -0.000988 0.000000
# 4 0.000000 0.000000 0.000000 0.039052 0.000000 0.012664
# 5 0.007256 -0.001300 -0.000988 0.000000 0.034735 0.000000
# 6 0.000000 0.000000 0.000000 0.012664 0.000000 0.045322
#
#
# Mechanical properties :
#
#
# Convention : Reuss Voigt Hill
#
# Bulk Modulus (GPa) = 37.46721 45.63805 41.55263
# Shear Modulus (GPa) = 25.27259 31.36137 28.31698
#
# Velocity S-wave (km/s) = 3.37466 3.75926 3.57214
# Velocity P-wave (km/s) = 5.66285 6.27758 5.97812
#
# Compressibility (1/GPa) = 0.02669000
#
# Stress axis : x y z
#
# Youngs Moduli (GPa) = 35.31156 80.99738 131.61753
#
# Poissons Ratio (x) = 0.54625 0.50491
# Poissons Ratio (y) = 0.23814 0.02716
# Poissons Ratio (z) = 0.13546 0.01672
#
# Static dielectric constant tensor:
#      x y z
#    x 1.918970 0.000000 0.085020 
#    y 0.000000 1.959470 0.000000 
#    z 0.085020 0.000000 1.842920 
# 
# From -- ./inp_files/31014.got.cif
#   From: 2010.05.17/outbox.cif.g08.bks.cpg/sg5_16_cif.got.tgz:31014.got - 2010.06.03 18:56:24.
