data_PCOD9121756
_publ_section_title
;
Structure prediction by ZEFSAII (Michael W. Deem and Ramdas Pophale) SiO2 
 PCOD9121756
Probable space group: C 2
;
_chemical_formula_sum "Si O2"
_cell_formula_units_Z 32
_cell_length_a 7.731419
_cell_length_b 13.761233
_cell_length_c 15.473024
_cell_angle_alpha 90.000000
_cell_angle_beta 109.661410
_cell_angle_gamma 90.000000
_cell_volume 1550.254913
_symmetry_space_group_name_H-M "C 2"
_symmetry_group_IT_number 5
_symmetry_cell_setting 'monoclinic'
loop_
_space_group_symop_operation_xyz
x,y,z
-x,y,-z
1/2+x,1/2+y,z
1/2-x,1/2+y,-z
loop_
_atom_site_type_symbol
_atom_site_label
_atom_site_fract_x
_atom_site_fract_y
_atom_site_fract_z
Si Si1 0.577496 0.588030 0.348740
Si Si2 0.655190 0.090074 0.454462
Si Si3 0.871904 0.461333 0.320962
Si Si4 0.131867 0.254231 0.604184
Si Si5 0.323984 0.343588 0.033840
Si Si6 0.685512 0.505939 0.829538
Si Si7 0.210777 0.627603 0.000360
Si Si8 0.607230 0.963819 0.872417
O O1 0.663945 0.565079 0.457827
O O2 0.747587 0.557039 0.316692
O O3 0.490131 0.695364 0.345032
O O4 0.421633 0.524010 0.276805
O O5 0.500000 0.118586 0.500000
O O6 0.710736 0.178412 0.400432
O O7 0.569696 0.998330 0.389259
O O8 0.811436 0.362548 0.358905
O O9 0.858073 0.435697 0.218961
O O10 0.000000 0.267241 0.500000
O O11 0.362175 0.409246 0.123892
O O12 0.500000 0.349008 0.000000
O O13 0.276719 0.232143 0.039390
O O14 0.152545 0.383579 0.950540
O O15 0.670035 0.594765 0.896519
O O16 0.898180 0.496297 0.842317
O O17 0.235239 0.550293 0.928551
O O18 0.000000 0.619388 0.000000
#
# Coordination Sequence:
#
# PCOD9121756 Si02
#       8
#     4   4   4   4   4   4   4   4
#     4  10  21  38  61  92 120 158 206 254 299 374
#     4   9  20  41  64  89 127 159 204 258 309 366
#     4  11  22  41  63  91 128 165 208 258 311 365
#     4  10  21  40  65  89 120 164 204 252 316 368
#     4  10  19  36  59  86 115 160 207 249 308 376
#     4  10  20  38  57  86 123 157 206 253 310 365
#     4   8  18  36  59  78 115 159 194 246 305 357
#     4  10  21  38  57  87 121 160 203 254 307 367
#
# _framework density 20.641767999999999
#
# number of rings (size 3 to 8) (size 9 to 14) (size 15 to 20)
#    0.000    2.250    0.000    3.750    1.750    0.000 
#    9.000   15.625    0.000    0.000    0.000    0.000 
#    0.000    0.000    0.000    0.000    0.000    0.000 
#
# Total GULP energy -89093.322214 kJ/mol
# GULP energy per Si atom -5568.332638 kJ/mol
# Density = 2.059479 g / cm^3
# Si number density = 20.641768 Si / 1000 Ang^3
#
#
#
# Elastic Constant Matrix: (Units=GPa)
#
#
# Indices 1 2 3 4 5 6 
#
# 1 38.9270 6.6339 28.8547 0.0000 3.1120 0.0000
# 2 6.6339 87.5117 27.9156 0.0000 -15.8554 0.0000
# 3 28.8547 27.9156 75.7392 0.0000 4.3688 0.0000
# 4 0.0000 0.0000 0.0000 -4.3214 0.0000 -11.5081
# 5 3.1120 -15.8554 4.3688 0.0000 29.7341 0.0000
# 6 0.0000 0.0000 0.0000 -11.5081 0.0000 27.0450
#
#
#
# Elastic Compliance Matrix: (Units=1/GPa)
#
#
# Indices 1 2 3 4 5 6 
#
# 1 0.036081 0.001696 -0.014327 0.000000 -0.000767 0.000000
# 2 0.001696 0.015033 -0.006696 0.000000 0.008822 0.000000
# 3 -0.014327 -0.006696 0.021430 0.000000 -0.005220 0.000000
# 4 0.000000 0.000000 0.000000 -0.108480 0.000000 -0.046160
# 5 -0.000767 0.008822 -0.005220 0.000000 0.039183 0.000000
# 6 0.000000 0.000000 0.000000 -0.046160 0.000000 0.017334
#
#
# Mechanical properties :
#
#
# Convention : Reuss Voigt Hill
#
# Bulk Modulus (GPa) = 29.50622 36.55404 33.03013
# Shear Modulus (GPa) = 70.89027 19.74311 45.31669
#
# Velocity S-wave (km/s) = 5.86666 3.09603 4.69058
# Velocity P-wave (km/s) = 7.75988 5.52519 6.73585
#
# Compressibility (1/GPa) = 0.03389116
#
# Stress axis : x y z
#
# Youngs Moduli (GPa) = 27.71531 66.52110 46.66279
#
# Poissons Ratio (x) = -0.11283 0.66853
# Poissons Ratio (y) = -0.04701 0.31244
# Poissons Ratio (z) = 0.39707 0.44541
#
# Static dielectric constant tensor:
#      x y z
#    x 1.805410 0.000000 0.010790 
#    y 0.000000 1.753370 0.000000 
#    z 0.010790 0.000000 1.759240 
# 
# From -- ./inp_files/50960.got.cif
#   From: 2010.05.17/outbox.cif.g08.bks.cpg/sg5_26_cif.got.tgz:50960.got - 2010.06.03 18:56:24.
