data_PCOD9121781
_publ_section_title
;
Structure prediction by ZEFSAII (Michael W. Deem and Ramdas Pophale) SiO2 
 PCOD9121781
Probable space group: C 2
;
_chemical_formula_sum "Si O2"
_cell_formula_units_Z 32
_cell_length_a 15.079160
_cell_length_b 21.358394
_cell_length_c 8.902622
_cell_angle_alpha 90.000000
_cell_angle_beta 144.679583
_cell_angle_gamma 90.000000
_cell_volume 1657.688845
_symmetry_space_group_name_H-M "C 2"
_symmetry_group_IT_number 5
_symmetry_cell_setting 'monoclinic'
loop_
_space_group_symop_operation_xyz
x,y,z
-x,y,-z
1/2+x,1/2+y,z
1/2-x,1/2+y,-z
loop_
_atom_site_type_symbol
_atom_site_label
_atom_site_fract_x
_atom_site_fract_y
_atom_site_fract_z
Si Si1 0.967310 0.118640 0.277921
Si Si2 0.865946 0.475267 0.193012
Si Si3 0.976023 0.990001 0.143911
Si Si4 0.584621 0.244980 0.779771
Si Si5 0.048492 0.257617 0.738240
Si Si6 0.605209 0.110958 0.793383
Si Si7 0.403122 0.869659 0.999967
Si Si8 0.426359 0.365784 0.562573
O O1 0.017769 0.189364 0.308608
O O2 0.000000 0.110748 0.500000
O O3 0.030176 0.057667 0.281049
O O4 0.783983 0.118895 0.998835
O O5 0.901625 0.540469 0.154357
O O6 0.861304 0.418761 0.070809
O O7 0.000000 0.465056 0.500000
O O8 0.702103 0.482031 0.050380
O O9 0.062481 0.930457 0.333288
O O10 0.000000 0.989531 0.000000
O O11 0.500000 0.242903 0.500000
O O12 0.561904 0.175489 0.817712
O O13 0.516230 0.307299 0.760199
O O14 0.765926 0.254380 0.009179
O O15 0.009251 0.312274 0.799650
O O16 0.000000 0.271261 0.500000
O O17 0.500000 0.108481 0.500000
O O18 0.500000 0.899086 0.000000
O O19 0.246949 0.846345 0.708346
O O20 0.500000 0.377508 0.500000
#
# Coordination Sequence:
#
# PCOD9121781 Si02
#       8
#     4   4   4   4   4   4   4   4
#     4   9  19  34  59  89 120 154 192 247 302 359
#     4  10  21  39  57  85 120 156 194 247 308 359
#     4  11  23  37  61  90 119 156 205 255 298 356
#     4   9  15  32  61  85 107 150 199 241 287 356
#     4  10  19  36  60  90 121 155 197 245 308 360
#     4   8  16  30  56  86 109 146 196 237 290 354
#     4  12  25  38  59  87 122 164 201 251 304 363
#     4  11  20  39  62  84 115 161 205 248 299 356
#
# _framework density 19.303985000000001
#
# number of rings (size 3 to 8) (size 9 to 14) (size 15 to 20)
#    0.000    2.000    3.750    0.750    3.500    0.500 
#    0.000    0.000    0.000    0.750    0.000    0.000 
#    0.000    0.000    0.000    0.000    0.000    0.000 
#
# Total GULP energy -89108.456581 kJ/mol
# GULP energy per Si atom -5569.278536 kJ/mol
# Density = 1.926005 g / cm^3
# Si number density = 19.303985 Si / 1000 Ang^3
#
#
#
# Elastic Constant Matrix: (Units=GPa)
#
#
# Indices 1 2 3 4 5 6 
#
# 1 62.8948 34.5930 11.5238 0.0000 -11.1967 0.0000
# 2 34.5930 167.8069 13.0547 0.0000 -24.2971 0.0000
# 3 11.5238 13.0547 65.0725 0.0000 -1.1122 0.0000
# 4 0.0000 0.0000 0.0000 27.3156 0.0000 0.7004
# 5 -11.1967 -24.2971 -1.1122 0.0000 14.6980 0.0000
# 6 0.0000 0.0000 0.0000 0.7004 0.0000 -2.3841
#
#
#
# Elastic Compliance Matrix: (Units=1/GPa)
#
#
# Indices 1 2 3 4 5 6 
#
# 1 0.019609 -0.002221 -0.002838 0.000000 0.011051 0.000000
# 2 -0.002221 0.008207 -0.001051 0.000000 0.011795 0.000000
# 3 -0.002838 -0.001051 0.016035 0.000000 -0.002687 0.000000
# 4 0.000000 0.000000 0.000000 0.036335 0.000000 0.010675
# 5 0.011051 0.011795 -0.002687 0.000000 0.095749 0.000000
# 6 0.000000 0.000000 0.000000 0.010675 0.000000 -0.416303
#
#
# Mechanical properties :
#
#
# Convention : Reuss Voigt Hill
#
# Bulk Modulus (GPa) = 31.61689 46.01303 38.81496
# Shear Modulus (GPa) = -22.97757 23.69941 0.36092
#
# Velocity S-wave (km/s) = -3.45382 3.50765 0.43287
# Velocity P-wave (km/s) = 0.71333 6.34764 4.51671
#
# Compressibility (1/GPa) = 0.03162867
#
# Stress axis : x y z
#
# Youngs Moduli (GPa) = 50.99793 121.85106 62.36331
#
# Poissons Ratio (x) = 0.27069 0.17699
# Poissons Ratio (y) = 0.11329 0.06557
# Poissons Ratio (z) = 0.14473 0.12812
#
# Static dielectric constant tensor:
#      x y z
#    x 1.639370 0.000000 0.022300 
#    y 0.000000 1.765340 0.000000 
#    z 0.022300 0.000000 1.674740 
# 
# From -- ./inp_files/25454.got.cif
#   From: 2010.05.17/outbox.cif.g08.bks.cpg/sg5_13_cif.got.tgz:25454.got - 2010.06.03 18:56:24.
