data_PCOD9121869
_publ_section_title
;
Structure prediction by ZEFSAII (Michael W. Deem and Ramdas Pophale) SiO2 
 PCOD9121869
Probable space group: C 2
;
_chemical_formula_sum "Si O2"
_cell_formula_units_Z 28
_cell_length_a 8.916364
_cell_length_b 15.252734
_cell_length_c 12.499859
_cell_angle_alpha 90.000000
_cell_angle_beta 50.388178
_cell_angle_gamma 90.000000
_cell_volume 1309.623806
_symmetry_space_group_name_H-M "C 2"
_symmetry_group_IT_number 5
_symmetry_cell_setting 'monoclinic'
loop_
_space_group_symop_operation_xyz
x,y,z
-x,y,-z
1/2+x,1/2+y,z
1/2-x,1/2+y,-z
loop_
_atom_site_type_symbol
_atom_site_label
_atom_site_fract_x
_atom_site_fract_y
_atom_site_fract_z
Si Si1 0.015017 0.568570 0.807471
Si Si2 0.652195 0.884970 0.169298
Si Si3 0.368024 0.801186 0.470142
Si Si4 0.840229 0.632454 0.485542
Si Si5 0.592825 0.389997 0.743075
Si Si6 0.123562 0.741590 0.051933
Si Si7 0.448393 0.527984 0.650326
O O1 0.067078 0.593369 0.663030
O O2 0.233883 0.570522 0.757153
O O3 0.928558 0.471429 0.849974
O O4 0.863346 0.641279 0.918302
O O5 0.493435 0.840027 0.318060
O O6 0.825699 0.912209 0.174877
O O7 0.710356 0.809971 0.057979
O O8 0.500000 0.751780 0.500000
O O9 0.205623 0.735370 0.502837
O O10 0.274976 0.879053 0.581082
O O11 0.628111 0.590171 0.600483
O O12 0.000000 0.613410 0.500000
O O13 0.499650 0.294432 0.803743
O O14 0.453719 0.451791 0.737544
O O15 0.000000 0.736325 0.000000
O O16 0.500000 0.503573 0.500000
#
# Coordination Sequence:
#
# PCOD9121869 Si02
#       7
#     4   4   4   4   4   4   4
#     4  11  22  43  67  95 136 175 224 274 331 392
#     4  10  23  40  69  96 132 180 222 268 334 394
#     4  10  19  36  65  96 129 170 219 272 332 397
#     4  11  22  36  64 103 134 170 217 277 335 393
#     4  10  20  41  65  93 133 169 219 271 332 395
#     4  10  23  42  66  91 129 183 223 264 326 398
#     4  10  22  36  66 100 133 165 224 271 340 388
#
# _framework density 21.380185999999998
#
# number of rings (size 3 to 8) (size 9 to 14) (size 15 to 20)
#    0.000    1.714    1.429    3.857    4.000    4.000 
#    0.000    0.000    0.000    1.714    0.000    0.000 
#    0.000    0.000    0.000    0.000    0.000    0.000 
#
# Total GULP energy -78062.774340 kJ/mol
# GULP energy per Si atom -5575.912453 kJ/mol
# Density = 2.133152 g / cm^3
# Si number density = 21.380186 Si / 1000 Ang^3
#
#
#
# Elastic Constant Matrix: (Units=GPa)
#
#
# Indices 1 2 3 4 5 6 
#
# 1 98.7125 39.8267 23.5387 0.0000 6.0694 0.0000
# 2 39.8267 114.8149 56.0062 0.0000 -8.5797 0.0000
# 3 23.5387 56.0062 85.4723 0.0000 -10.9674 0.0000
# 4 0.0000 0.0000 0.0000 17.7404 0.0000 -6.2292
# 5 6.0694 -8.5797 -10.9674 0.0000 13.6818 0.0000
# 6 0.0000 0.0000 0.0000 -6.2292 0.0000 33.5436
#
#
#
# Elastic Compliance Matrix: (Units=1/GPa)
#
#
# Indices 1 2 3 4 5 6 
#
# 1 0.012953 -0.004226 -0.002091 0.000000 -0.010072 0.000000
# 2 -0.004226 0.014206 -0.007536 0.000000 0.004742 0.000000
# 3 -0.002091 -0.007536 0.018644 0.000000 0.011147 0.000000
# 4 0.000000 0.000000 0.000000 0.060301 0.000000 0.011198
# 5 -0.010072 0.004742 0.011147 0.000000 0.089467 0.000000
# 6 0.000000 0.000000 0.000000 0.011198 0.000000 0.031892
#
#
# Mechanical properties :
#
#
# Convention : Reuss Voigt Hill
#
# Bulk Modulus (GPa) = 55.25641 59.74923 57.50282
# Shear Modulus (GPa) = 19.14236 24.96835 22.05535
#
# Velocity S-wave (km/s) = 2.99546 3.42106 3.21530
# Velocity P-wave (km/s) = 6.15341 6.60391 6.38263
#
# Compressibility (1/GPa) = 0.01809745
#
# Stress axis : x y z
#
# Youngs Moduli (GPa) = 77.20035 70.39203 53.63688
#
# Poissons Ratio (x) = 0.29749 0.11213
# Poissons Ratio (y) = 0.32626 0.40422
# Poissons Ratio (z) = 0.16139 0.53050
#
# Static dielectric constant tensor:
#      x y z
#    x 1.840910 0.000000 -0.005720 
#    y 0.000000 1.828670 0.000000 
#    z -0.005720 0.000000 1.799350 
# 
# From -- ./inp_files/36301.got.cif
#   From: 2010.05.17/outbox.cif.g08.bks.cpg/sg5_19_cif.got.tgz:36301.got - 2010.06.03 18:56:24.
