data_PCOD9121579
_publ_section_title
;
Structure prediction by ZEFSAII (Michael W. Deem and Ramdas Pophale) SiO2 
 PCOD9121579
Probable space group: C 2
;
_chemical_formula_sum "Si O2"
_cell_formula_units_Z 28
_cell_length_a 7.086333
_cell_length_b 14.208455
_cell_length_c 13.839573
_cell_angle_alpha 90.000000
_cell_angle_beta 55.923818
_cell_angle_gamma 90.000000
_cell_volume 1154.184569
_symmetry_space_group_name_H-M "C 2"
_symmetry_group_IT_number 5
_symmetry_cell_setting 'monoclinic'
loop_
_space_group_symop_operation_xyz
x,y,z
-x,y,-z
1/2+x,1/2+y,z
1/2-x,1/2+y,-z
loop_
_atom_site_type_symbol
_atom_site_label
_atom_site_fract_x
_atom_site_fract_y
_atom_site_fract_z
Si Si1 0.008748 0.862800 0.152788
Si Si2 0.875787 0.473193 0.630409
Si Si3 0.162588 0.355816 0.773433
Si Si4 0.160825 0.684312 0.362047
Si Si5 0.184437 0.024067 0.368716
Si Si6 0.022328 0.665340 0.803302
Si Si7 0.674100 0.996277 0.040650
O O1 0.235782 0.837618 0.149938
O O2 0.946188 0.757063 0.139831
O O3 0.799219 0.901715 0.274123
O O4 0.095757 0.950136 0.064642
O O5 0.764360 0.576190 0.642739
O O6 0.000000 0.435592 0.500000
O O7 0.084849 0.499350 0.639724
O O8 0.150468 0.264253 0.710442
O O9 0.355343 0.424728 0.671730
O O10 0.937748 0.416177 0.858387
O O11 0.028660 0.688628 0.295883
O O12 0.000000 0.707232 0.500000
O O13 0.000000 0.052416 0.500000
O O14 0.251610 0.101494 0.270891
O O15 0.831119 0.594554 0.900536
O O16 0.500000 0.010269 0.000000
#
# Coordination Sequence:
#
# PCOD9121579 Si02
#       7
#     4   4   4   4   4   4   4
#     4  10  20  37  59  83 116 152 193 248 290 334
#     4  10  21  35  52  83 117 149 193 244 294 340
#     4   9  18  35  58  83 109 151 198 232 281 351
#     4   9  18  34  56  83 116 148 190 241 292 349
#     4  10  19  35  56  79 112 152 188 233 289 352
#     4   9  20  37  56  86 116 151 197 235 290 352
#     4   9  19  37  59  83 116 155 197 237 285 348
#
# _framework density 24.259551999999999
#
# number of rings (size 3 to 8) (size 9 to 14) (size 15 to 20)
#    0.000    2.571    0.000    1.286    0.000    2.857 
#    0.000   23.571    0.000    0.000    0.000    0.000 
#    0.000    0.000    0.000    0.000    0.000    0.000 
#
# Total GULP energy -78104.213807 kJ/mol
# GULP energy per Si atom -5578.872415 kJ/mol
# Density = 2.420434 g / cm^3
# Si number density = 24.259552 Si / 1000 Ang^3
#
#
#
# Elastic Constant Matrix: (Units=GPa)
#
#
# Indices 1 2 3 4 5 6 
#
# 1 54.5377 3.0433 15.3765 0.0000 1.8249 0.0000
# 2 3.0433 136.1854 65.3947 0.0000 -22.6178 0.0000
# 3 15.3765 65.3947 141.0566 0.0000 -12.2239 0.0000
# 4 0.0000 0.0000 0.0000 32.4212 0.0000 -1.6557
# 5 1.8249 -22.6178 -12.2239 0.0000 36.5602 0.0000
# 6 0.0000 0.0000 0.0000 -1.6557 0.0000 11.5087
#
#
#
# Elastic Compliance Matrix: (Units=1/GPa)
#
#
# Indices 1 2 3 4 5 6 
#
# 1 0.019043 0.000502 -0.002435 0.000000 -0.001454 0.000000
# 2 0.000502 0.010241 -0.004383 0.000000 0.004845 0.000000
# 3 -0.002435 -0.004383 0.009436 0.000000 0.000565 0.000000
# 4 0.000000 0.000000 0.000000 0.031072 0.000000 0.004470
# 5 -0.001454 0.004845 0.000565 0.000000 0.030611 0.000000
# 6 0.000000 0.000000 0.000000 0.004470 0.000000 0.087534
#
#
# Mechanical properties :
#
#
# Convention : Reuss Voigt Hill
#
# Bulk Modulus (GPa) = 38.33023 55.48985 46.91004
# Shear Modulus (GPa) = 23.89331 32.62904 28.26118
#
# Velocity S-wave (km/s) = 3.14172 3.67140 3.41684
# Velocity P-wave (km/s) = 5.38469 6.39494 5.91144
#
# Compressibility (1/GPa) = 0.02608907
#
# Stress axis : x y z
#
# Youngs Moduli (GPa) = 52.51273 97.64810 105.98268
#
# Poissons Ratio (x) = -0.04902 0.25803
# Poissons Ratio (y) = -0.02636 0.46448
# Poissons Ratio (z) = 0.12785 0.42795
#
# Static dielectric constant tensor:
#      x y z
#    x 2.105700 0.000000 0.073440 
#    y 0.000000 2.030210 0.000000 
#    z 0.073440 0.000000 1.958690 
# 
# From -- ./inp_files/36294.got.cif
#   From: 2010.05.17/outbox.cif.g08.bks.cpg/sg5_19_cif.got.tgz:36294.got - 2010.06.03 18:56:24.
