data_PCOD9121024
_publ_section_title
;
Structure prediction by ZEFSAII (Michael W. Deem and Ramdas Pophale) SiO2 
 PCOD9121024
Probable space group: C 2
;
_chemical_formula_sum "Si O2"
_cell_formula_units_Z 30
_cell_length_a 18.758308
_cell_length_b 13.842241
_cell_length_c 11.193523
_cell_angle_alpha 90.000000
_cell_angle_beta 151.251683
_cell_angle_gamma 90.000000
_cell_volume 1397.907860
_symmetry_space_group_name_H-M "C 2"
_symmetry_group_IT_number 5
_symmetry_cell_setting 'monoclinic'
loop_
_space_group_symop_operation_xyz
x,y,z
-x,y,-z
1/2+x,1/2+y,z
1/2-x,1/2+y,-z
loop_
_atom_site_type_symbol
_atom_site_label
_atom_site_fract_x
_atom_site_fract_y
_atom_site_fract_z
Si Si1 0.815295 0.672460 0.549403
Si Si2 0.377867 0.270157 0.414845
Si Si3 0.124025 0.446941 0.354365
Si Si4 0.289407 0.950442 0.790577
Si Si5 0.675450 0.627264 0.764902
Si Si6 0.110292 0.146133 0.925027
Si Si7 0.500000 0.623902 0.000000
Si Si8 0.192566 0.258671 0.593569
O O1 0.909334 0.735468 0.595599
O O2 0.855538 0.560462 0.587794
O O3 0.641830 0.682963 0.255511
O O4 0.812708 0.708127 0.681807
O O5 0.500000 0.242098 0.500000
O O6 0.341776 0.382566 0.358237
O O7 0.226182 0.219248 0.152704
O O8 0.202475 0.438866 0.340277
O O9 0.182959 0.369692 0.536909
O O10 0.951449 0.424054 0.078178
O O11 0.256229 0.055551 0.793154
O O12 0.500000 0.610784 0.500000
O O13 0.697995 0.607373 0.938121
O O14 0.713215 0.732456 0.763642
O O15 0.965684 0.205468 0.667857
O O16 0.056933 0.077807 0.957764
#
# Coordination Sequence:
#
# PCOD9121024 Si02
#       8
#     4   4   4   4   4   4   2   4
#     4  10  20  37  62  89 116 156 201 254 289 356
#     4  11  22  37  59  88 121 160 202 247 300 356
#     4  11  22  36  64  93 118 157 210 248 296 364
#     4  11  22  37  61  93 118 159 208 252 293 357
#     4  10  21  37  61  90 123 157 197 253 313 354
#     4   9  19  36  60  87 114 158 198 245 296 358
#     4   8  18  36  64  80 112 158 210 230 292 354
#     4  10  18  38  62  86 119 154 198 247 301 358
#
# _framework density 21.460640999999999
#
# number of rings (size 3 to 8) (size 9 to 14) (size 15 to 20)
#    0.000    1.867    4.000    0.400    1.867    0.000 
#    0.000    4.667    2.933    0.000    0.000    0.000 
#    0.000    0.000    0.000    0.000    0.000    0.000 
#
# Total GULP energy -83505.003748 kJ/mol
# GULP energy per Si atom -5567.000250 kJ/mol
# Density = 2.141180 g / cm^3
# Si number density = 21.460641 Si / 1000 Ang^3
#
#
#
# Elastic Constant Matrix: (Units=GPa)
#
#
# Indices 1 2 3 4 5 6 
#
# 1 153.6439 27.5054 16.8456 0.0000 2.4687 0.0000
# 2 27.5054 82.4335 -1.4705 0.0000 1.9698 0.0000
# 3 16.8456 -1.4705 23.5140 0.0000 4.8844 0.0000
# 4 0.0000 0.0000 0.0000 6.7799 0.0000 2.3789
# 5 2.4687 1.9698 4.8844 0.0000 23.1564 0.0000
# 6 0.0000 0.0000 0.0000 2.3789 0.0000 27.3218
#
#
#
# Elastic Compliance Matrix: (Units=1/GPa)
#
#
# Indices 1 2 3 4 5 6 
#
# 1 0.007603 -0.002654 -0.005743 0.000000 0.000627 0.000000
# 2 -0.002654 0.013106 0.003027 0.000000 -0.001470 0.000000
# 3 -0.005743 0.003027 0.048900 0.000000 -0.009960 0.000000
# 4 0.000000 0.000000 0.000000 0.152143 0.000000 -0.013247
# 5 0.000627 -0.001470 -0.009960 0.000000 0.045344 0.000000
# 6 0.000000 0.000000 0.000000 -0.013247 0.000000 0.037754
#
#
# Mechanical properties :
#
#
# Convention : Reuss Voigt Hill
#
# Bulk Modulus (GPa) = 16.98729 38.37247 27.67988
# Shear Modulus (GPa) = 14.91582 25.89903 20.40743
#
# Velocity S-wave (km/s) = 2.63921 3.47769 3.08705
# Velocity P-wave (km/s) = 4.14969 5.83481 5.06285
#
# Compressibility (1/GPa) = 0.05886754
#
# Stress axis : x y z
#
# Youngs Moduli (GPa) = 131.52055 76.30206 20.44974
#
# Poissons Ratio (x) = 0.20254 0.11745
# Poissons Ratio (y) = 0.34911 -0.06189
# Poissons Ratio (z) = 0.75536 -0.23094
#
# Static dielectric constant tensor:
#      x y z
#    x 1.881480 0.000000 -0.056870 
#    y 0.000000 1.791740 0.000000 
#    z -0.056870 0.000000 1.811090 
# 
# From -- ./inp_files/44922.got.cif
#   From: 2010.05.17/outbox.cif.g08.bks.cpg/sg5_23_cif.got.tgz:44922.got - 2010.06.03 18:56:24.
