data_PCOD9121379
_publ_section_title
;
Structure prediction by ZEFSAII (Michael W. Deem and Ramdas Pophale) SiO2 
 PCOD9121379
Probable space group: C 2
;
_chemical_formula_sum "Si O2"
_cell_formula_units_Z 32
_cell_length_a 24.598305
_cell_length_b 16.960088
_cell_length_c 12.900270
_cell_angle_alpha 90.000000
_cell_angle_beta 18.896523
_cell_angle_gamma 90.000000
_cell_volume 1742.967948
_symmetry_space_group_name_H-M "C 2"
_symmetry_group_IT_number 5
_symmetry_cell_setting 'monoclinic'
loop_
_space_group_symop_operation_xyz
x,y,z
-x,y,-z
1/2+x,1/2+y,z
1/2-x,1/2+y,-z
loop_
_atom_site_type_symbol
_atom_site_label
_atom_site_fract_x
_atom_site_fract_y
_atom_site_fract_z
Si Si1 0.686382 0.068590 0.613095
Si Si2 0.779982 0.332109 0.237806
Si Si3 0.327936 0.563641 0.574507
Si Si4 0.573409 0.743326 0.622742
Si Si5 0.006158 0.922764 0.364774
Si Si6 0.378231 0.882683 0.622079
Si Si7 0.186704 0.751051 0.616514
Si Si8 0.503510 0.980021 0.782741
O O1 0.811050 0.045652 0.481298
O O2 0.716352 0.159627 0.529703
O O3 0.664013 0.010874 0.556815
O O4 0.500000 0.066727 0.000000
O O5 0.628507 0.360761 0.438385
O O6 0.717882 0.306984 0.462803
O O7 0.882856 0.260763 0.000339
O O8 0.910057 0.405908 0.006423
O O9 0.383734 0.653710 0.481531
O O10 0.450060 0.504998 0.413856
O O11 0.140842 0.547137 0.957496
O O12 0.615958 0.801601 0.452576
O O13 0.685436 0.766129 0.520490
O O14 0.000000 0.926573 0.500000
O O15 0.191355 0.900678 0.995223
O O16 0.500000 0.878237 0.500000
O O17 0.444821 0.949202 0.422581
O O18 0.000000 0.757659 0.000000
#
# Coordination Sequence:
#
# PCOD9121379 Si02
#       8
#     4   4   4   4   4   4   4   4
#     4   8  16  32  55  81 113 146 177 217 271 330
#     4  10  21  36  57  83 114 150 188 232 283 340
#     4   9  19  36  58  85 114 147 184 225 279 339
#     4  10  21  37  58  84 114 151 187 228 284 343
#     4  11  23  40  58  80 111 147 191 242 285 335
#     4  11  23  40  59  81 109 147 192 238 288 340
#     4  10  19  33  55  85 116 147 185 232 280 334
#     4   9  19  36  59  83 113 151 186 228 281 339
#
# _framework density 18.359487999999999
#
# number of rings (size 3 to 8) (size 9 to 14) (size 15 to 20)
#    0.000    2.250    0.000    4.125    0.000   10.500 
#    0.000    3.125    0.000    8.250    0.000    0.000 
#    0.000    0.000    0.000    0.000    0.000    0.000 
#
# Total GULP energy -89293.940013 kJ/mol
# GULP energy per Si atom -5580.871251 kJ/mol
# Density = 1.831770 g / cm^3
# Si number density = 18.359488 Si / 1000 Ang^3
#
#
#
# Elastic Constant Matrix: (Units=GPa)
#
#
# Indices 1 2 3 4 5 6 
#
# 1 183.5256 94.6426 67.3854 0.0009 -3.9702 -0.0027
# 2 94.6426 96.3027 66.5400 0.0002 5.7264 0.0005
# 3 67.3854 66.5400 105.8217 0.0022 -1.5385 -0.0017
# 4 0.0009 0.0002 0.0022 21.8406 -0.0011 -10.6992
# 5 -3.9702 5.7264 -1.5385 -0.0011 27.6969 0.0009
# 6 -0.0027 0.0005 -0.0017 -10.6992 0.0009 10.0534
#
#
#
# Elastic Compliance Matrix: (Units=1/GPa)
#
#
# Indices 1 2 3 4 5 6 
#
# 1 0.011475 -0.011508 -0.000013 0.000003 0.004023 0.000007
# 2 -0.011508 0.030464 -0.011953 -0.000004 -0.008612 -0.000010
# 3 -0.000013 -0.011953 0.017024 0.000000 0.003415 0.000003
# 4 0.000003 -0.000004 0.000000 0.095656 0.000002 0.101801
# 5 0.004023 -0.008612 0.003415 0.000002 0.038652 0.000000
# 6 0.000007 -0.000010 0.000003 0.101801 0.000000 0.207810
#
#
# Mechanical properties :
#
#
# Convention : Reuss Voigt Hill
#
# Bulk Modulus (GPa) = 83.22177 93.64289 88.43233
# Shear Modulus (GPa) = 11.06115 22.39031 16.72573
#
# Velocity S-wave (km/s) = 2.45720 3.49599 3.02157
# Velocity P-wave (km/s) = 7.31286 8.21047 7.77463
#
# Compressibility (1/GPa) = 0.01201609
#
# Stress axis : x y z
#
# Youngs Moduli (GPa) = 87.14694 32.82547 58.74229
#
# Poissons Ratio (x) = 0.37774 0.00074
# Poissons Ratio (y) = 1.00285 0.70215
# Poissons Ratio (z) = 0.00110 0.39236
#
# Static dielectric constant tensor:
#      x y z
#    x 1.627490 0.000000 -0.007750 
#    y 0.000000 1.646420 0.000000 
#    z -0.007750 0.000000 1.635030 
# 
# From -- ./inp_files/47567.got.cif
#   From: 2010.05.17/outbox.cif.g08.bks.cpg/sg5_24_cif.got.tgz:47567.got - 2010.06.03 18:56:24.
