data_PCOD9121049
_publ_section_title
;
Structure prediction by ZEFSAII (Michael W. Deem and Ramdas Pophale) SiO2 
 PCOD9121049
Probable space group: C 2
;
_chemical_formula_sum "Si O2"
_cell_formula_units_Z 24
_cell_length_a 8.041023
_cell_length_b 14.229698
_cell_length_c 15.869189
_cell_angle_alpha 90.000000
_cell_angle_beta 145.886580
_cell_angle_gamma 90.000000
_cell_volume 1018.345681
_symmetry_space_group_name_H-M "C 2"
_symmetry_group_IT_number 5
_symmetry_cell_setting 'monoclinic'
loop_
_space_group_symop_operation_xyz
x,y,z
-x,y,-z
1/2+x,1/2+y,z
1/2-x,1/2+y,-z
loop_
_atom_site_type_symbol
_atom_site_label
_atom_site_fract_x
_atom_site_fract_y
_atom_site_fract_z
Si Si1 0.323182 0.955250 0.590816
Si Si2 0.889763 0.823005 0.629319
Si Si3 0.957078 0.323339 0.177183
Si Si4 0.845971 0.104943 0.166459
Si Si5 0.777345 0.636722 0.486578
Si Si6 0.661978 0.401722 0.896584
O O1 0.524442 0.888235 0.732376
O O2 0.000000 0.956899 0.500000
O O3 0.287856 0.908940 0.484611
O O4 0.406035 0.061630 0.606162
O O5 0.218309 0.832135 0.727975
O O6 0.952920 0.833269 0.754250
O O7 0.749071 0.731318 0.528100
O O8 0.928136 0.211624 0.176504
O O9 0.713708 0.364085 0.011563
O O10 0.971918 0.100499 0.315187
O O11 0.950780 0.008729 0.164162
O O12 0.500000 0.102290 0.000000
O O13 0.000000 0.649628 0.500000
O O14 0.000000 0.399668 0.000000
#
# Coordination Sequence:
#
# PCOD9121049 Si02
#       6
#     4   4   4   4   4   4
#     4  10  21  38  66  93 123 167 218 257 320 383
#     4  10  18  38  64  90 117 170 215 251 317 389
#     4  10  20  40  62  88 126 171 211 258 318 390
#     4  11  22  39  60  89 128 166 207 263 328 365
#     4  12  22  41  68  95 128 169 219 271 316 381
#     4   9  20  36  62  88 123 166 212 252 316 390
#
# _framework density 23.567634000000002
#
# number of rings (size 3 to 8) (size 9 to 14) (size 15 to 20)
#    0.000    1.667    5.000    0.500    2.333    1.333 
#    3.000    0.833    0.000    0.000    0.000    0.000 
#    0.000    0.000    0.000    0.000    0.000    0.000 
#
# Total GULP energy -67016.797639 kJ/mol
# GULP energy per Si atom -5584.733137 kJ/mol
# Density = 2.351399 g / cm^3
# Si number density = 23.567634 Si / 1000 Ang^3
#
#
#
# Elastic Constant Matrix: (Units=GPa)
#
#
# Indices 1 2 3 4 5 6 
#
# 1 67.9129 6.6779 34.2877 0.0032 -1.2722 0.0005
# 2 6.6779 161.0521 53.2863 0.0003 -31.7002 0.0002
# 3 34.2877 53.2863 166.5105 0.0065 -23.6737 0.0034
# 4 0.0032 0.0003 0.0065 54.8631 0.0045 -8.7109
# 5 -1.2722 -31.7002 -23.6737 0.0045 41.3745 0.0014
# 6 0.0005 0.0002 0.0034 -8.7109 0.0014 6.1270
#
#
#
# Elastic Compliance Matrix: (Units=1/GPa)
#
#
# Indices 1 2 3 4 5 6 
#
# 1 0.016534 0.000258 -0.003687 0.000000 -0.001403 0.000000
# 2 0.000258 0.007775 -0.001843 0.000000 0.004910 -0.000001
# 3 -0.003687 -0.001843 0.007770 -0.000002 0.002920 -0.000008
# 4 0.000000 0.000000 -0.000002 0.023541 -0.000005 0.033469
# 5 -0.001403 0.004910 0.002920 -0.000005 0.029559 -0.000016
# 6 0.000000 -0.000001 -0.000008 0.033469 -0.000016 0.210796
#
#
# Mechanical properties :
#
#
# Convention : Reuss Voigt Hill
#
# Bulk Modulus (GPa) = 46.43560 64.88659 55.66109
# Shear Modulus (GPa) = 15.93890 40.55449 28.24670
#
# Velocity S-wave (km/s) = 2.60341 4.15272 3.46575
# Velocity P-wave (km/s) = 5.36497 7.11233 6.29953
#
# Compressibility (1/GPa) = 0.02153520
#
# Stress axis : x y z
#
# Youngs Moduli (GPa) = 60.47963 128.62124 128.70298
#
# Poissons Ratio (x) = -0.03319 0.47451
# Poissons Ratio (y) = -0.01560 0.23721
# Poissons Ratio (z) = 0.22298 0.23706
#
# Static dielectric constant tensor:
#      x y z
#    x 1.955710 0.000000 0.060620 
#    y 0.000000 1.856190 0.000000 
#    z 0.060620 0.000000 1.887430 
# 
# From -- ./inp_files/38693.got.cif
#   From: 2010.05.17/outbox.cif.g08.bks.cpg/sg5_20_cif.got.tgz:38693.got - 2010.06.03 18:56:24.
