data_PCOD9121709
_publ_section_title
;
Structure prediction by ZEFSAII (Michael W. Deem and Ramdas Pophale) SiO2 
 PCOD9121709
Probable space group: C 2
;
_chemical_formula_sum "Si O2"
_cell_formula_units_Z 24
_cell_length_a 11.536713
_cell_length_b 13.946144
_cell_length_c 7.394609
_cell_angle_alpha 90.000000
_cell_angle_beta 125.594608
_cell_angle_gamma 90.000000
_cell_volume 967.442304
_symmetry_space_group_name_H-M "C 2"
_symmetry_group_IT_number 5
_symmetry_cell_setting 'monoclinic'
loop_
_space_group_symop_operation_xyz
x,y,z
-x,y,-z
1/2+x,1/2+y,z
1/2-x,1/2+y,-z
loop_
_atom_site_type_symbol
_atom_site_label
_atom_site_fract_x
_atom_site_fract_y
_atom_site_fract_z
Si Si1 0.637910 0.949170 0.500998
Si Si2 0.915745 0.801286 0.591263
Si Si3 0.232852 0.452378 0.226727
Si Si4 0.664888 0.381177 0.027465
Si Si5 0.807140 0.147544 0.667177
Si Si6 0.882559 0.093425 0.120851
O O1 0.500000 0.952247 0.500000
O O2 0.609511 0.937383 0.261578
O O3 0.715958 0.051332 0.566744
O O4 0.747997 0.879148 0.708541
O O5 0.862102 0.903785 0.460624
O O6 0.781744 0.733495 0.495564
O O7 0.000000 0.754018 0.500000
O O8 0.035516 0.813525 0.852643
O O9 0.225352 0.386765 0.041451
O O10 0.279142 0.558403 0.192500
O O11 0.599227 0.487919 0.950852
O O12 0.959790 0.134616 0.707498
O O13 0.823396 0.156866 0.901048
#
# Coordination Sequence:
#
# PCOD9121709 Si02
#       6
#     4   4   4   4   4   4
#     4  11  22  37  66  96 137 182 238 293 336 410
#     4  10  19  36  65 102 133 180 228 286 357 405
#     4   9  20  39  69  92 127 190 237 262 336 447
#     4   8  19  38  62 100 121 189 239 267 336 436
#     4  10  19  35  66 100 140 168 230 302 351 387
#     4   8  18  38  64  98 126 188 233 267 333 440
#
# _framework density 24.807680999999999
#
# number of rings (size 3 to 8) (size 9 to 14) (size 15 to 20)
#    1.000    1.667    0.000    1.500    2.333    2.667 
#    0.000    6.667   18.333    0.000    0.000    0.000 
#    0.000    0.000    0.000    0.000    0.000    0.000 
#
# Total GULP energy -66818.669401 kJ/mol
# GULP energy per Si atom -5568.222450 kJ/mol
# Density = 2.475122 g / cm^3
# Si number density = 24.807681 Si / 1000 Ang^3
#
#
#
# Elastic Constant Matrix: (Units=GPa)
#
#
# Indices 1 2 3 4 5 6 
#
# 1 150.8051 30.6157 48.3864 0.0000 -27.3776 0.0000
# 2 30.6157 83.2070 55.6655 0.0000 5.8939 0.0000
# 3 48.3864 55.6655 125.8956 0.0000 -23.9006 0.0000
# 4 0.0000 0.0000 0.0000 35.7600 0.0000 5.0907
# 5 -27.3776 5.8939 -23.9006 0.0000 52.3510 0.0000
# 6 0.0000 0.0000 0.0000 5.0907 0.0000 17.6900
#
#
#
# Elastic Compliance Matrix: (Units=1/GPa)
#
#
# Indices 1 2 3 4 5 6 
#
# 1 0.008281 -0.002423 -0.001355 0.000000 0.003985 0.000000
# 2 -0.002423 0.019603 -0.009193 0.000000 -0.007671 0.000000
# 3 -0.001355 -0.009193 0.013785 0.000000 0.006620 0.000000
# 4 0.000000 0.000000 0.000000 0.029159 0.000000 -0.008391
# 5 0.003985 -0.007671 0.006620 0.000000 0.025072 0.000000
# 6 0.000000 0.000000 0.000000 -0.008391 0.000000 0.058944
#
#
# Mechanical properties :
#
#
# Convention : Reuss Voigt Hill
#
# Bulk Modulus (GPa) = 63.57932 69.91588 66.74760
# Shear Modulus (GPa) = 26.87783 36.17621 31.52702
#
# Velocity S-wave (km/s) = 3.29515 3.82287 3.56878
# Velocity P-wave (km/s) = 6.33734 6.90870 6.62918
#
# Compressibility (1/GPa) = 0.01572838
#
# Stress axis : x y z
#
# Youngs Moduli (GPa) = 120.75667 51.01284 72.54156
#
# Poissons Ratio (x) = 0.12359 0.09829
# Poissons Ratio (y) = 0.29257 0.66685
# Poissons Ratio (z) = 0.16362 0.46894
#
# Static dielectric constant tensor:
#      x y z
#    x 2.240740 0.000000 -0.088560 
#    y 0.000000 1.970210 0.000000 
#    z -0.088560 0.000000 2.004030 
# 
# From -- ./inp_files/24718.got.cif
#   From: 2010.05.17/outbox.cif.g08.bks.cpg/sg5_13_cif.got.tgz:24718.got - 2010.06.03 18:56:24.
