data_PCOD9121565
_publ_section_title
;
Structure prediction by ZEFSAII (Michael W. Deem and Ramdas Pophale) SiO2 
 PCOD9121565
Probable space group: C 2
;
_chemical_formula_sum "Si O2"
_cell_formula_units_Z 30
_cell_length_a 5.363182
_cell_length_b 18.461538
_cell_length_c 13.659521
_cell_angle_alpha 90.000000
_cell_angle_beta 70.679356
_cell_angle_gamma 90.000000
_cell_volume 1276.296167
_symmetry_space_group_name_H-M "C 2"
_symmetry_group_IT_number 5
_symmetry_cell_setting 'monoclinic'
loop_
_space_group_symop_operation_xyz
x,y,z
-x,y,-z
1/2+x,1/2+y,z
1/2-x,1/2+y,-z
loop_
_atom_site_type_symbol
_atom_site_label
_atom_site_fract_x
_atom_site_fract_y
_atom_site_fract_z
Si Si1 0.475893 0.100430 0.804916
Si Si2 0.190077 0.028504 0.564430
Si Si3 0.060015 0.162412 0.707478
Si Si4 0.388563 0.817945 0.261719
Si Si5 0.875212 0.899159 0.879071
Si Si6 0.356322 0.955031 0.725449
Si Si7 0.222294 0.265117 0.036213
Si Si8 0.500000 0.025310 0.000000
O O1 0.235178 0.138448 0.778923
O O2 0.747680 0.146581 0.767345
O O3 0.517183 0.025676 0.737190
O O4 0.402075 0.074241 0.922894
O O5 0.500000 0.022132 0.500000
O O6 0.131938 0.109439 0.609096
O O7 0.000000 0.009436 0.500000
O O8 0.163401 0.978682 0.663750
O O9 0.155801 0.244131 0.674552
O O10 0.180281 0.855561 0.214976
O O11 0.478703 0.883669 0.318217
O O12 0.609385 0.787115 0.155694
O O13 0.172474 0.928534 0.838908
O O14 0.788813 0.839018 0.968242
O O15 0.707166 0.970697 0.922124
O O16 0.500000 0.225130 0.000000
O O17 0.000000 0.227522 0.000000
#
# Coordination Sequence:
#
# PCOD9121565 Si02
#       8
#     4   4   4   4   4   4   4   2
#     4  11  25  44  64 100 138 196 235 282 336 412
#     4  11  25  48  77 100 131 176 231 292 369 438
#     4  11  27  48  70  98 143 186 233 284 367 427
#     4  11  23  41  69 101 140 185 228 284 341 416
#     4  11  21  36  66 101 138 184 230 282 339 387
#     4  11  23  41  76  99 134 176 239 294 356 417
#     4  10  19  35  54  94 131 181 218 254 312 392
#     4  12  20  40  62  98 142 192 248 282 318 394
#
# _framework density 23.505514999999999
#
# number of rings (size 3 to 8) (size 9 to 14) (size 15 to 20)
#    0.000    1.067    4.667    3.200    3.733    1.600 
#    8.400    0.667    0.000    0.000    0.000    0.000 
#    0.000    0.000    0.000    0.000    0.000    0.000 
#
# Total GULP energy -83816.471040 kJ/mol
# GULP energy per Si atom -5587.764736 kJ/mol
# Density = 2.345202 g / cm^3
# Si number density = 23.505515 Si / 1000 Ang^3
#
#
#
# Elastic Constant Matrix: (Units=GPa)
#
#
# Indices 1 2 3 4 5 6 
#
# 1 139.9816 31.8302 12.5546 0.0000 22.9802 0.0000
# 2 31.8302 151.1574 7.9702 0.0000 27.5050 0.0000
# 3 12.5546 7.9702 33.6347 0.0000 16.3307 0.0000
# 4 0.0000 0.0000 0.0000 24.1282 0.0000 2.1436
# 5 22.9802 27.5050 16.3307 0.0000 43.8961 0.0000
# 6 0.0000 0.0000 0.0000 2.1436 0.0000 9.6954
#
#
#
# Elastic Compliance Matrix: (Units=1/GPa)
#
#
# Indices 1 2 3 4 5 6 
#
# 1 0.007999 -0.001062 -0.001250 0.000000 -0.003057 0.000000
# 2 -0.001062 0.007618 0.000780 0.000000 -0.004508 0.000000
# 3 -0.001250 0.000780 0.036531 0.000000 -0.013425 0.000000
# 4 0.000000 0.000000 0.000000 0.042276 0.000000 -0.009347
# 5 -0.003057 -0.004508 -0.013425 0.000000 0.032201 0.000000
# 6 0.000000 0.000000 0.000000 -0.009347 0.000000 0.105208
#
#
# Mechanical properties :
#
#
# Convention : Reuss Voigt Hill
#
# Bulk Modulus (GPa) = 20.37303 47.72042 34.04673
# Shear Modulus (GPa) = 19.89979 33.70519 26.80249
#
# Velocity S-wave (km/s) = 2.91280 3.79083 3.38044
# Velocity P-wave (km/s) = 4.47199 6.28541 5.45459
#
# Compressibility (1/GPa) = 0.04908450
#
# Stress axis : x y z
#
# Youngs Moduli (GPa) = 125.01064 131.26085 27.37387
#
# Poissons Ratio (x) = 0.13944 0.03421
# Poissons Ratio (y) = 0.13280 -0.02135
# Poissons Ratio (z) = 0.15623 -0.10236
#
# Static dielectric constant tensor:
#      x y z
#    x 2.017990 0.000000 0.008690 
#    y 0.000000 1.904270 0.000000 
#    z 0.008690 0.000000 1.914180 
# 
# From -- ./inp_files/49310.got.cif
#   From: 2010.05.17/outbox.cif.g08.bks.cpg/sg5_25_cif.got.tgz:49310.got - 2010.06.03 18:56:24.
