data_PCOD9121900
_publ_section_title
;
Structure prediction by ZEFSAII (Michael W. Deem and Ramdas Pophale) SiO2 
 PCOD9121900
Probable space group: C 2
;
_chemical_formula_sum "Si O2"
_cell_formula_units_Z 32
_cell_length_a 14.179217
_cell_length_b 27.776029
_cell_length_c 8.047099
_cell_angle_alpha 90.000000
_cell_angle_beta 150.960757
_cell_angle_gamma 90.000000
_cell_volume 1538.399651
_symmetry_space_group_name_H-M "C 2"
_symmetry_group_IT_number 5
_symmetry_cell_setting 'monoclinic'
loop_
_space_group_symop_operation_xyz
x,y,z
-x,y,-z
1/2+x,1/2+y,z
1/2-x,1/2+y,-z
loop_
_atom_site_type_symbol
_atom_site_label
_atom_site_fract_x
_atom_site_fract_y
_atom_site_fract_z
Si Si1 0.444353 0.827700 0.217743
Si Si2 0.210577 0.760327 0.279444
Si Si3 0.557946 0.672450 0.279836
Si Si4 0.236066 0.493913 0.864058
Si Si5 0.808017 0.431629 0.894823
Si Si6 0.288100 0.235954 0.107523
Si Si7 0.227313 0.474340 0.477249
Si Si8 0.447241 0.565465 0.723366
O O1 0.500000 0.833602 0.500000
O O2 0.634463 0.801449 0.438922
O O3 0.378934 0.878281 0.045125
O O4 0.277070 0.788367 0.926491
O O5 0.266326 0.710247 0.451296
O O6 0.217622 0.745409 0.097453
O O7 0.000000 0.777705 0.000000
O O8 0.601218 0.618938 0.413123
O O9 0.500000 0.667948 0.000000
O O10 0.379499 0.698106 0.101357
O O11 0.282754 0.456435 0.082721
O O12 0.300945 0.474550 0.781376
O O13 0.000000 0.502251 0.500000
O O14 0.367174 0.541808 0.083475
O O15 0.002443 0.462987 0.164841
O O16 0.703103 0.436261 0.555157
O O17 0.500000 0.222247 0.500000
O O18 0.277600 0.525589 0.469618
O O19 0.500000 0.569986 0.000000
#
# Coordination Sequence:
#
# PCOD9121900 Si02
#       8
#     4   4   4   4   4   4   4   4
#     4   9  19  38  62  83 121 160 197 248 310 359
#     4  10  21  41  61  90 122 156 201 258 309 369
#     4  10  20  38  64  89 121 161 201 251 313 363
#     4   9  18  35  58  76 117 159 192 247 295 344
#     4  10  19  37  58  82 116 161 196 240 297 351
#     4  10  21  40  61  89 126 155 199 260 304 371
#     4   9  19  36  53  82 118 147 200 244 284 351
#     4   9  19  37  58  85 118 155 196 248 298 353
#
# _framework density 20.800837000000001
#
# number of rings (size 3 to 8) (size 9 to 14) (size 15 to 20)
#    0.000    2.500    0.000    3.000    0.000    1.000 
#   22.500    5.625    0.000    0.000    0.000    0.000 
#    0.000    0.000    0.000    0.000    0.000    0.000 
#
# Total GULP energy -89140.183427 kJ/mol
# GULP energy per Si atom -5571.261464 kJ/mol
# Density = 2.075349 g / cm^3
# Si number density = 20.800837 Si / 1000 Ang^3
#
#
#
# Elastic Constant Matrix: (Units=GPa)
#
#
# Indices 1 2 3 4 5 6 
#
# 1 90.0532 36.0034 -0.6281 0.0000 3.2011 0.0000
# 2 36.0034 145.1490 19.9237 0.0000 1.1740 0.0000
# 3 -0.6281 19.9237 25.8665 0.0000 8.8012 0.0000
# 4 0.0000 0.0000 0.0000 17.6397 0.0000 -14.6573
# 5 3.2011 1.1740 8.8012 0.0000 30.3874 0.0000
# 6 0.0000 0.0000 0.0000 -14.6573 0.0000 12.6041
#
#
#
# Elastic Compliance Matrix: (Units=1/GPa)
#
#
# Indices 1 2 3 4 5 6 
#
# 1 0.012680 -0.003665 0.003924 0.000000 -0.002331 0.000000
# 2 -0.003665 0.008832 -0.007662 0.000000 0.002264 0.000000
# 3 0.003924 -0.007662 0.049583 0.000000 -0.014478 0.000000
# 4 0.000000 0.000000 0.000000 1.681685 0.000000 1.955636
# 5 -0.002331 0.002264 -0.014478 0.000000 0.037260 0.000000
# 6 0.000000 0.000000 0.000000 1.955636 0.000000 2.353555
#
#
# Mechanical properties :
#
#
# Convention : Reuss Voigt Hill
#
# Bulk Modulus (GPa) = 17.76556 41.29629 29.53093
# Shear Modulus (GPa) = 1.19698 25.84421 13.52060
#
# Velocity S-wave (km/s) = 0.75941 3.52868 2.55228
# Velocity P-wave (km/s) = 3.05422 6.04139 4.78679
#
# Compressibility (1/GPa) = 0.05628869
#
# Stress axis : x y z
#
# Youngs Moduli (GPa) = 78.86431 113.22503 20.16808
#
# Poissons Ratio (x) = 0.41496 -0.07914
# Poissons Ratio (y) = 0.28903 0.15453
# Poissons Ratio (z) = -0.30945 0.86755
#
# Static dielectric constant tensor:
#      x y z
#    x 1.793550 0.000000 -0.011880 
#    y 0.000000 1.745030 0.000000 
#    z -0.011880 0.000000 1.819950 
# 
# From -- ./inp_files/25659.got.cif
#   From: 2010.05.17/outbox.cif.g08.bks.cpg/sg5_13_cif.got.tgz:25659.got - 2010.06.03 18:56:24.
