data_PCOD9121485
_publ_section_title
;
Structure prediction by ZEFSAII (Michael W. Deem and Ramdas Pophale) SiO2 
 PCOD9121485
Probable space group: C 2
;
_chemical_formula_sum "Si O2"
_cell_formula_units_Z 32
_cell_length_a 25.261308
_cell_length_b 12.774863
_cell_length_c 16.710402
_cell_angle_alpha 90.000000
_cell_angle_beta 161.046012
_cell_angle_gamma 90.000000
_cell_volume 1751.566743
_symmetry_space_group_name_H-M "C 2"
_symmetry_group_IT_number 5
_symmetry_cell_setting 'monoclinic'
loop_
_space_group_symop_operation_xyz
x,y,z
-x,y,-z
1/2+x,1/2+y,z
1/2-x,1/2+y,-z
loop_
_atom_site_type_symbol
_atom_site_label
_atom_site_fract_x
_atom_site_fract_y
_atom_site_fract_z
Si Si1 0.192212 0.528100 0.764463
Si Si2 0.200883 0.271637 0.522462
Si Si3 0.866597 0.207738 0.107937
Si Si4 0.543051 0.536116 0.470200
Si Si5 0.308653 0.041108 0.730719
Si Si6 0.369401 0.355467 0.129866
Si Si7 0.378092 0.358966 0.632560
Si Si8 0.874384 0.947115 0.880509
O O1 0.247858 0.512099 0.752397
O O2 0.000000 0.526109 0.500000
O O3 0.265971 0.635498 0.903487
O O4 0.268322 0.434062 0.927283
O O5 0.273968 0.158190 0.649414
O O6 0.247035 0.295467 0.496630
O O7 0.282585 0.358423 0.697460
O O8 0.008392 0.269857 0.264502
O O9 0.961501 0.128160 0.301992
O O10 0.749331 0.278015 0.994096
O O11 0.500000 0.554397 0.500000
O O12 0.730143 0.533972 0.707485
O O13 0.460173 0.428548 0.323697
O O14 0.206653 0.958786 0.530909
O O15 0.500000 0.019253 0.000000
O O16 0.510920 0.304743 0.276806
O O17 0.507427 0.395457 0.884465
O O18 0.000000 0.004682 0.000000
#
# Coordination Sequence:
#
# PCOD9121485 Si02
#       8
#     4   4   4   4   4   4   4   4
#     4  10  20  36  54  77 108 140 172 215 262 310
#     4  10  19  34  57  83 104 134 176 217 262 311
#     4  10  21  35  53  80 107 136 176 218 259 310
#     4   9  20  35  53  76 104 135 174 217 261 307
#     4  10  20  35  54  79 107 138 175 215 259 312
#     4   9  19  36  54  74 104 138 173 213 260 312
#     4   9  19  35  54  78 108 137 171 220 263 304
#     4   9  17  32  56  81 104 132 171 217 263 306
#
# _framework density 18.269356999999999
#
# number of rings (size 3 to 8) (size 9 to 14) (size 15 to 20)
#    0.000    2.500    0.000    4.125    0.000    7.000 
#    0.000    7.500    0.000    2.250    0.000    0.000 
#    0.000    0.000    0.000    0.000    0.000    0.000 
#
# Total GULP energy -89165.703577 kJ/mol
# GULP energy per Si atom -5572.856474 kJ/mol
# Density = 1.822778 g / cm^3
# Si number density = 18.269357 Si / 1000 Ang^3
#
#
#
# Elastic Constant Matrix: (Units=GPa)
#
#
# Indices 1 2 3 4 5 6 
#
# 1 133.0948 50.3019 57.7050 0.0000 54.6106 0.0000
# 2 50.3019 41.8836 39.4423 0.0000 15.5221 0.0000
# 3 57.7050 39.4423 57.4573 0.0000 33.5857 0.0000
# 4 0.0000 0.0000 0.0000 8.7712 0.0000 -4.4295
# 5 54.6106 15.5221 33.5857 0.0000 32.0778 0.0000
# 6 0.0000 0.0000 0.0000 -4.4295 0.0000 -1.7798
#
#
#
# Elastic Compliance Matrix: (Units=1/GPa)
#
#
# Indices 1 2 3 4 5 6 
#
# 1 -0.076984 0.175237 -0.180472 0.000000 0.235221 0.000000
# 2 0.175237 -0.301310 0.309299 0.000000 -0.476368 -0.000001
# 3 -0.180472 0.309299 -0.272628 0.000000 0.443021 0.000001
# 4 0.000000 0.000000 0.000000 0.050517 0.000000 -0.125725
# 5 0.235221 -0.476368 0.443021 0.000000 -0.602613 -0.000001
# 6 0.000000 -0.000001 0.000001 -0.125725 -0.000001 -0.248955
#
#
# Mechanical properties :
#
#
# Convention : Reuss Voigt Hill
#
# Bulk Modulus (GPa) = -23.36697 58.59267 17.61285
# Shear Modulus (GPa) = -2.41038 13.47960 5.53461
#
# Velocity S-wave (km/s) = -1.14988 2.71924 1.74242
# Velocity P-wave (km/s) = 3.81850 6.48076 3.70265
#
# Compressibility (1/GPa) = -0.04279546
#
# Stress axis : x y z
#
# Youngs Moduli (GPa) = -12.98976 -3.31884 -3.66801
#
# Poissons Ratio (x) = 0.58158 -0.66197
# Poissons Ratio (y) = 2.27628 1.13451
# Poissons Ratio (z) = -2.34429 1.02651
#
# Static dielectric constant tensor:
#      x y z
#    x 1.650970 0.000000 0.025280 
#    y 0.000000 1.615250 0.000000 
#    z 0.025280 0.000000 1.628560 
# 
# From -- ./inp_files/63396.got.cif
#   From: 2010.05.17/outbox.cif.g08.bks.cpg/sg5_32_cif.got.tgz:63396.got - 2010.06.03 18:56:24.
