data_PCOD9121458
_publ_section_title
;
Structure prediction by ZEFSAII (Michael W. Deem and Ramdas Pophale) SiO2 
 PCOD9121458
Probable space group: C 2
;
_chemical_formula_sum "Si O2"
_cell_formula_units_Z 24
_cell_length_a 17.820479
_cell_length_b 8.562510
_cell_length_c 14.591585
_cell_angle_alpha 90.000000
_cell_angle_beta 148.017835
_cell_angle_gamma 90.000000
_cell_volume 1179.278071
_symmetry_space_group_name_H-M "C 2"
_symmetry_group_IT_number 5
_symmetry_cell_setting 'monoclinic'
loop_
_space_group_symop_operation_xyz
x,y,z
-x,y,-z
1/2+x,1/2+y,z
1/2-x,1/2+y,-z
loop_
_atom_site_type_symbol
_atom_site_label
_atom_site_fract_x
_atom_site_fract_y
_atom_site_fract_z
Si Si1 0.163751 0.794050 0.989092
Si Si2 0.500000 0.049451 0.500000
Si Si3 0.935505 0.952544 0.631013
Si Si4 0.255432 0.799642 0.274845
Si Si5 0.930159 0.509133 0.229316
Si Si6 0.000000 0.048532 0.500000
Si Si7 0.697009 0.790665 0.474102
O O1 0.135185 0.625625 0.913673
O O2 0.057859 0.907257 0.827108
O O3 0.143615 0.797945 0.077643
O O4 0.320512 0.866938 0.135557
O O5 0.360386 0.947002 0.376571
O O6 0.458769 0.105237 0.354049
O O7 0.806778 0.830275 0.508328
O O8 0.994344 0.958617 0.589255
O O9 0.875560 0.121840 0.599040
O O10 0.360747 0.655981 0.360926
O O11 0.214922 0.793309 0.338925
O O12 0.075340 0.423499 0.350161
#
# Coordination Sequence:
#
# PCOD9121458 Si02
#       7
#     4   2   4   4   4   2   4
#     4  11  20  33  58  87 115 150 195 241 284 338
#     4   7  14  29  50  76 112 150 184 220 276 340
#     4  11  22  37  61  88 115 151 195 240 285 340
#     4   8  16  33  56  80 112 154 188 219 279 357
#     4  10  19  34  55  85 117 154 194 238 286 343
#     4   9  18  37  60  84 114 154 192 228 284 356
#     4  10  21  39  59  82 116 155 194 235 286 346
#
# _framework density 20.351433
#
# number of rings (size 3 to 8) (size 9 to 14) (size 15 to 20)
#    0.000    2.333    0.000    6.000    0.000    1.333 
#    0.000    1.667    0.000   14.000    0.000    0.000 
#    0.000    0.000    0.000    0.000    0.000    0.000 
#
# Total GULP energy -66891.414962 kJ/mol
# GULP energy per Si atom -5574.284580 kJ/mol
# Density = 2.030511 g / cm^3
# Si number density = 20.351433 Si / 1000 Ang^3
#
#
#
# Elastic Constant Matrix: (Units=GPa)
#
#
# Indices 1 2 3 4 5 6 
#
# 1 85.0607 18.3310 26.0416 0.0000 -2.6027 0.0000
# 2 18.3310 68.1048 15.7777 0.0000 -10.6368 0.0000
# 3 26.0416 15.7777 101.1499 0.0000 -21.0019 0.0000
# 4 0.0000 0.0000 0.0000 39.5070 0.0000 -4.8145
# 5 -2.6027 -10.6368 -21.0019 0.0000 29.8953 0.0000
# 6 0.0000 0.0000 0.0000 -4.8145 0.0000 8.8865
#
#
#
# Elastic Compliance Matrix: (Units=1/GPa)
#
#
# Indices 1 2 3 4 5 6 
#
# 1 0.013428 -0.003187 -0.003457 0.000000 -0.002394 0.000000
# 2 -0.003187 0.016499 -0.000693 0.000000 0.005106 0.000000
# 3 -0.003457 -0.000693 0.012610 0.000000 0.008311 0.000000
# 4 0.000000 0.000000 0.000000 0.027101 0.000000 0.014683
# 5 -0.002394 0.005106 0.008311 0.000000 0.040897 0.000000
# 6 0.000000 0.000000 0.000000 0.014683 0.000000 0.120485
#
#
# Mechanical properties :
#
#
# Convention : Reuss Voigt Hill
#
# Bulk Modulus (GPa) = 35.88943 41.62399 38.75671
# Shear Modulus (GPa) = 19.60918 28.60211 24.10564
#
# Velocity S-wave (km/s) = 3.10744 3.75295 3.44535
# Velocity P-wave (km/s) = 5.52703 6.26710 5.90866
#
# Compressibility (1/GPa) = 0.02786336
#
# Stress axis : x y z
#
# Youngs Moduli (GPa) = 74.46944 60.60924 79.30151
#
# Poissons Ratio (x) = 0.19318 0.27415
# Poissons Ratio (y) = 0.23736 0.05494
# Poissons Ratio (z) = 0.25744 0.04199
#
# Static dielectric constant tensor:
#      x y z
#    x 1.752930 0.000000 -0.015250 
#    y 0.000000 1.758590 0.000000 
#    z -0.015250 0.000000 1.716880 
# 
# From -- ./inp_files/44115.got.cif
#   From: 2010.05.17/outbox.cif.g08.bks.cpg/sg5_23_cif.got.tgz:44115.got - 2010.06.03 18:56:24.
