data_PCOD9121411
_publ_section_title
;
Structure prediction by ZEFSAII (Michael W. Deem and Ramdas Pophale) SiO2 
 PCOD9121411
Probable space group: C 2
;
_chemical_formula_sum "Si O2"
_cell_formula_units_Z 26
_cell_length_a 10.070832
_cell_length_b 18.459302
_cell_length_c 7.719108
_cell_angle_alpha 90.000000
_cell_angle_beta 127.330022
_cell_angle_gamma 90.000000
_cell_volume 1141.037713
_symmetry_space_group_name_H-M "C 2"
_symmetry_group_IT_number 5
_symmetry_cell_setting 'monoclinic'
loop_
_space_group_symop_operation_xyz
x,y,z
-x,y,-z
1/2+x,1/2+y,z
1/2-x,1/2+y,-z
loop_
_atom_site_type_symbol
_atom_site_label
_atom_site_fract_x
_atom_site_fract_y
_atom_site_fract_z
Si Si1 0.258076 0.854050 0.475505
Si Si2 0.362438 0.498815 0.738272
Si Si3 0.000000 0.538933 0.500000
Si Si4 0.966698 0.141521 0.175691
Si Si5 0.911359 0.615249 0.097479
Si Si6 0.052086 0.786358 0.848993
Si Si7 0.598173 0.805989 0.790709
O O1 0.108711 0.798532 0.397714
O O2 0.432550 0.849513 0.714487
O O3 0.330618 0.830934 0.341110
O O4 0.155083 0.928988 0.396397
O O5 0.173292 0.497932 0.661432
O O6 0.403028 0.576586 0.681579
O O7 0.500000 0.490331 0.000000
O O8 0.990528 0.587027 0.661081
O O9 0.956687 0.220298 0.258148
O O10 0.786574 0.103399 0.052429
O O11 0.000000 0.158708 0.000000
O O12 0.925046 0.701429 0.110249
O O13 0.000000 0.584296 0.000000
O O14 0.000000 0.815492 0.000000
O O15 0.238365 0.814561 0.958060
#
# Coordination Sequence:
#
# PCOD9121411 Si02
#       7
#     4   4   2   4   4   4   4
#     4  10  19  33  59  90 118 166 228 266 324 414
#     4  11  22  38  61  94 134 176 224 284 342 413
#     4  12  22  38  66  96 130 182 222 268 358 412
#     4  10  20  40  59  95 141 168 215 300 345 387
#     4  10  21  39  64  99 131 176 228 284 341 410
#     4   8  16  31  52  82 120 154 205 273 319 376
#     4   9  18  32  53  88 117 157 215 270 316 389
#
# _framework density 22.786277999999999
#
# number of rings (size 3 to 8) (size 9 to 14) (size 15 to 20)
#    0.000    2.154    3.077    3.231    2.154    0.000 
#    0.000    0.000    0.000    3.692   12.000    0.000 
#    0.000    0.000    0.000    0.000    0.000    0.000 
#
# Total GULP energy -72372.005428 kJ/mol
# GULP energy per Si atom -5567.077341 kJ/mol
# Density = 2.273442 g / cm^3
# Si number density = 22.786278 Si / 1000 Ang^3
#
#
#
# Elastic Constant Matrix: (Units=GPa)
#
#
# Indices 1 2 3 4 5 6 
#
# 1 94.7358 16.6720 51.8894 0.0000 25.2152 0.0000
# 2 16.6720 82.3809 3.5150 0.0000 10.0489 0.0000
# 3 51.8894 3.5150 94.0116 0.0000 43.6618 0.0000
# 4 0.0000 0.0000 0.0000 10.2583 0.0000 5.1031
# 5 25.2152 10.0489 43.6618 0.0000 59.3696 0.0000
# 6 0.0000 0.0000 0.0000 5.1031 0.0000 14.9038
#
#
#
# Elastic Compliance Matrix: (Units=1/GPa)
#
#
# Indices 1 2 3 4 5 6 
#
# 1 0.015760 -0.002839 -0.008667 0.000000 0.000161 0.000000
# 2 -0.002839 0.012944 0.002340 0.000000 -0.002706 0.000000
# 3 -0.008667 0.002340 0.020970 0.000000 -0.012137 0.000000
# 4 0.000000 0.000000 0.000000 0.117496 0.000000 -0.040231
# 5 0.000161 -0.002706 -0.012137 0.000000 0.026159 0.000000
# 6 0.000000 0.000000 0.000000 -0.040231 0.000000 0.080872
#
#
# Mechanical properties :
#
#
# Convention : Reuss Voigt Hill
#
# Bulk Modulus (GPa) = 31.90835 46.14236 39.02536
# Shear Modulus (GPa) = 16.50274 30.17646 23.33960
#
# Velocity S-wave (km/s) = 2.69409 3.64308 3.20391
# Velocity P-wave (km/s) = 4.86942 6.16361 5.55433
#
# Compressibility (1/GPa) = 0.03133976
#
# Stress axis : x y z
#
# Youngs Moduli (GPa) = 63.45285 77.25856 47.68700
#
# Poissons Ratio (x) = 0.21936 0.41332
# Poissons Ratio (y) = 0.18016 -0.11158
# Poissons Ratio (z) = 0.54996 -0.18077
#
# Static dielectric constant tensor:
#      x y z
#    x 1.909780 0.000000 0.031210 
#    y 0.000000 1.931600 0.000000 
#    z 0.031210 0.000000 1.904090 
# 
# From -- ./inp_files/22003.got.cif
#   From: 2010.05.17/outbox.cif.g08.bks.cpg/sg5_12_cif.got.tgz:22003.got - 2010.06.03 18:56:24.
