data_PCOD9121763
_publ_section_title
;
Structure prediction by ZEFSAII (Michael W. Deem and Ramdas Pophale) SiO2 
 PCOD9121763
Probable space group: C 2
;
_chemical_formula_sum "Si O2"
_cell_formula_units_Z 26
_cell_length_a 9.176583
_cell_length_b 21.716003
_cell_length_c 13.503076
_cell_angle_alpha 90.000000
_cell_angle_beta 28.671369
_cell_angle_gamma 90.000000
_cell_volume 1291.042025
_symmetry_space_group_name_H-M "C 2"
_symmetry_group_IT_number 5
_symmetry_cell_setting 'monoclinic'
loop_
_space_group_symop_operation_xyz
x,y,z
-x,y,-z
1/2+x,1/2+y,z
1/2-x,1/2+y,-z
loop_
_atom_site_type_symbol
_atom_site_label
_atom_site_fract_x
_atom_site_fract_y
_atom_site_fract_z
Si Si1 0.000000 0.572610 0.000000
Si Si2 0.653494 0.468169 0.303846
Si Si3 0.059838 0.790054 0.721738
Si Si4 0.084755 0.395539 0.558093
Si Si5 0.623539 0.876371 0.110969
Si Si6 0.781621 0.256249 0.272031
Si Si7 0.406775 0.192201 0.947624
O O1 0.268494 0.527907 0.806282
O O2 0.071142 0.619413 0.047849
O O3 0.500000 0.485120 0.500000
O O4 0.402730 0.425594 0.401627
O O5 0.964383 0.430226 0.141654
O O6 0.825785 0.771870 0.774494
O O7 0.341471 0.823792 0.504429
O O8 0.900974 0.840780 0.890823
O O9 0.120444 0.727140 0.743241
O O10 0.856654 0.399979 0.787359
O O11 0.000000 0.421103 0.500000
O O12 0.372146 0.822233 0.263625
O O13 0.500000 0.229641 0.500000
O O14 0.072341 0.213161 0.113927
O O15 0.500000 0.218194 0.000000
#
# Coordination Sequence:
#
# PCOD9121763 Si02
#       7
#     2   4   4   4   4   4   4
#     4  10  22  44  62  80 112 162 214 252 284 340
#     4  10  20  40  64  82 112 160 205 242 295 364
#     4  11  21  35  61  86 126 161 180 245 310 369
#     4  11  23  33  57  97 125 147 191 251 310 360
#     4  10  19  36  59  92 117 153 197 235 305 379
#     4  11  19  37  61  91 122 159 197 241 312 374
#     4   9  23  38  55  88 118 153 211 246 285 352
#
# _framework density 20.138771999999999
#
# number of rings (size 3 to 8) (size 9 to 14) (size 15 to 20)
#    0.462    1.231    3.077    3.231    4.308    0.000 
#    2.769    0.769   10.154    0.000    0.000    0.000 
#    0.000    0.000    0.000    0.000    0.000    0.000 
#
# Total GULP energy -72463.847293 kJ/mol
# GULP energy per Si atom -5574.142099 kJ/mol
# Density = 2.009293 g / cm^3
# Si number density = 20.138772 Si / 1000 Ang^3
#
#
#
# Elastic Constant Matrix: (Units=GPa)
#
#
# Indices 1 2 3 4 5 6 
#
# 1 96.0809 14.5278 19.6923 0.0001 26.7426 -0.0006
# 2 14.5278 99.2071 23.7665 0.0010 6.4591 -0.0006
# 3 19.6923 23.7665 69.7188 -0.0008 12.4388 0.0011
# 4 0.0001 0.0010 -0.0008 21.2528 0.0013 12.2927
# 5 26.7426 6.4591 12.4388 0.0013 35.7128 -0.0011
# 6 -0.0006 -0.0006 0.0011 12.2927 -0.0011 23.9563
#
#
#
# Elastic Compliance Matrix: (Units=1/GPa)
#
#
# Indices 1 2 3 4 5 6 
#
# 1 0.013518 -0.000933 -0.001839 0.000001 -0.009314 0.000000
# 2 -0.000933 0.011058 -0.003491 -0.000001 -0.000086 0.000001
# 3 -0.001839 -0.003491 0.016734 0.000002 -0.003820 -0.000002
# 4 0.000001 -0.000001 0.000002 0.066912 -0.000004 -0.034334
# 5 -0.009314 -0.000086 -0.003820 -0.000004 0.036322 0.000004
# 6 0.000000 0.000001 -0.000002 -0.034334 0.000004 0.059361
#
#
# Mechanical properties :
#
#
# Convention : Reuss Voigt Hill
#
# Bulk Modulus (GPa) = 34.73887 42.33110 38.53498
# Shear Modulus (GPa) = 22.12148 29.98573 26.05361
#
# Velocity S-wave (km/s) = 3.31789 3.86288 3.60071
# Velocity P-wave (km/s) = 5.65376 6.40009 6.03847
#
# Compressibility (1/GPa) = 0.02878620
#
# Stress axis : x y z
#
# Youngs Moduli (GPa) = 73.97517 90.42897 59.75750
#
# Poissons Ratio (x) = 0.08435 0.10987
# Poissons Ratio (y) = 0.06900 0.20861
# Poissons Ratio (z) = 0.13601 0.31568
#
# Static dielectric constant tensor:
#      x y z
#    x 1.784320 0.000000 0.019510 
#    y 0.000000 1.673770 0.000000 
#    z 0.019510 0.000000 1.782390 
# 
# From -- ./inp_files/37472.got.cif
#   From: 2010.05.17/outbox.cif.g08.bks.cpg/sg5_19_cif.got.tgz:37472.got - 2010.06.03 18:56:24.
