data_PCOD9121381
_publ_section_title
;
Structure prediction by ZEFSAII (Michael W. Deem and Ramdas Pophale) SiO2 
 PCOD9121381
Probable space group: C 2
;
_chemical_formula_sum "Si O2"
_cell_formula_units_Z 28
_cell_length_a 22.892029
_cell_length_b 7.308444
_cell_length_c 20.672791
_cell_angle_alpha 90.000000
_cell_angle_beta 18.167429
_cell_angle_gamma 90.000000
_cell_volume 1078.393455
_symmetry_space_group_name_H-M "C 2"
_symmetry_group_IT_number 5
_symmetry_cell_setting 'monoclinic'
loop_
_space_group_symop_operation_xyz
x,y,z
-x,y,-z
1/2+x,1/2+y,z
1/2-x,1/2+y,-z
loop_
_atom_site_type_symbol
_atom_site_label
_atom_site_fract_x
_atom_site_fract_y
_atom_site_fract_z
Si Si1 0.353653 0.576690 0.849547
Si Si2 0.061046 0.507981 0.762880
Si Si3 0.516717 0.709217 0.908368
Si Si4 0.414024 0.253220 0.656516
Si Si5 0.008043 0.798347 0.919237
Si Si6 0.411945 0.697958 0.661614
Si Si7 0.488125 0.192919 0.716286
O O1 0.454664 0.717744 0.694320
O O2 0.490618 0.413001 0.725758
O O3 0.167664 0.506020 0.005434
O O4 0.234981 0.655255 0.033769
O O5 0.107962 0.573432 0.640656
O O6 0.110788 0.329779 0.752687
O O7 0.109470 0.670836 0.761220
O O8 0.300641 0.700689 0.116406
O O9 0.586816 0.502036 0.839114
O O10 0.500000 0.786430 0.000000
O O11 0.500000 0.184971 0.500000
O O12 0.432673 0.474881 0.636686
O O13 0.514702 0.170321 0.612703
O O14 0.791840 0.788777 0.126686
O O15 0.000000 0.719358 0.000000
O O16 0.500000 0.757491 0.500000
#
# Coordination Sequence:
#
# PCOD9121381 Si02
#       7
#     4   4   4   4   4   4   4
#     4   8  16  27  46  77 103 139 175 220 266 318
#     4   9  18  31  52  77 106 146 180 225 272 319
#     4  11  21  35  54  83 112 145 186 226 275 332
#     4  10  19  33  55  86 112 143 183 230 283 329
#     4  10  20  32  52  81 109 147 189 227 263 332
#     4   9  17  33  52  79 115 140 179 222 281 321
#     4   9  16  29  48  77 105 140 179 229 266 324
#
# _framework density 25.964548000000001
#
# number of rings (size 3 to 8) (size 9 to 14) (size 15 to 20)
#    0.857    1.714    4.286    0.429    2.000    0.571 
#    0.000    0.000    0.000    0.000   11.143    0.000 
#    0.000    0.000    0.000    0.000    0.000    0.000 
#
# Total GULP energy -77961.486307 kJ/mol
# GULP energy per Si atom -5568.677593 kJ/mol
# Density = 2.590545 g / cm^3
# Si number density = 25.964548 Si / 1000 Ang^3
#
#
#
# Elastic Constant Matrix: (Units=GPa)
#
#
# Indices 1 2 3 4 5 6 
#
# 1 162.1200 53.5215 40.0041 0.0001 45.1442 0.0004
# 2 53.5215 109.1460 10.1013 -0.0024 20.6001 -0.0001
# 3 40.0041 10.1013 77.7572 0.0009 15.9062 0.0020
# 4 0.0001 -0.0024 0.0009 56.5765 -0.0001 70.4008
# 5 45.1442 20.6001 15.9062 -0.0001 53.7581 -0.0007
# 6 0.0004 -0.0001 0.0020 70.4008 -0.0007 98.1364
#
#
#
# Elastic Compliance Matrix: (Units=1/GPa)
#
#
# Indices 1 2 3 4 5 6 
#
# 1 0.009753 -0.003356 -0.003374 -0.000001 -0.005906 0.000001
# 2 -0.003356 0.011052 0.000618 0.000004 -0.001600 -0.000003
# 3 -0.003374 0.000618 0.014886 0.000001 -0.001808 -0.000001
# 4 -0.000001 0.000004 0.000001 0.164675 -0.000003 -0.118134
# 5 -0.005906 -0.001600 -0.001808 -0.000003 0.024710 0.000002
# 6 0.000001 -0.000003 -0.000001 -0.118134 0.000002 0.094937
#
#
# Mechanical properties :
#
#
# Convention : Reuss Voigt Hill
#
# Bulk Modulus (GPa) = 42.61003 61.80857 52.20930
# Shear Modulus (GPa) = 14.70332 58.05396 36.37864
#
# Velocity S-wave (km/s) = 2.38225 4.73365 3.74717
# Velocity P-wave (km/s) = 4.90034 7.33030 6.23485
#
# Compressibility (1/GPa) = 0.02346865
#
# Stress axis : x y z
#
# Youngs Moduli (GPa) = 102.52989 90.47831 67.17808
#
# Poissons Ratio (x) = 0.30362 0.22664
# Poissons Ratio (y) = 0.34406 -0.04151
# Poissons Ratio (z) = 0.34590 -0.05591
#
# Static dielectric constant tensor:
#      x y z
#    x 2.067320 0.000000 0.072460 
#    y 0.000000 2.095900 0.000000 
#    z 0.072460 0.000000 2.185540 
# 
# From -- ./inp_files/62705.got.cif
#   From: 2010.05.17/outbox.cif.g08.bks.cpg/sg5_32_cif.got.tgz:62705.got - 2010.06.03 18:56:24.
