data_PCOD9121286
_publ_section_title
;
Structure prediction by ZEFSAII (Michael W. Deem and Ramdas Pophale) SiO2 
 PCOD9121286
Probable space group: C 2
;
_chemical_formula_sum "Si O2"
_cell_formula_units_Z 32
_cell_length_a 24.374515
_cell_length_b 6.902881
_cell_length_c 10.223229
_cell_angle_alpha 90.000000
_cell_angle_beta 124.888723
_cell_angle_gamma 90.000000
_cell_volume 1410.939393
_symmetry_space_group_name_H-M "C 2"
_symmetry_group_IT_number 5
_symmetry_cell_setting 'monoclinic'
loop_
_space_group_symop_operation_xyz
x,y,z
-x,y,-z
1/2+x,1/2+y,z
1/2-x,1/2+y,-z
loop_
_atom_site_type_symbol
_atom_site_label
_atom_site_fract_x
_atom_site_fract_y
_atom_site_fract_z
Si Si1 0.288099 0.477620 0.699500
Si Si2 0.570121 0.430850 0.090104
Si Si3 0.276117 0.958960 0.879744
Si Si4 0.681759 0.925773 0.329244
Si Si5 0.796964 0.598168 0.185548
Si Si6 0.552920 0.796742 0.258646
Si Si7 0.924112 0.340646 0.413224
Si Si8 0.909480 0.210211 0.118393
O O1 0.356534 0.360292 0.768940
O O2 0.310060 0.700886 0.703126
O O3 0.228907 0.444599 0.517576
O O4 0.255333 0.475950 0.798105
O O5 0.555300 0.605473 0.172333
O O6 0.500000 0.315334 0.000000
O O7 0.584373 0.521183 0.964534
O O8 0.288324 0.041411 0.753072
O O9 0.211843 0.820362 0.785129
O O10 0.274903 0.092028 0.004472
O O11 0.341741 0.825381 0.997841
O O12 0.604021 0.945851 0.261210
O O13 0.868828 0.504642 0.310417
O O14 0.580006 0.765133 0.443665
O O15 0.474153 0.840093 0.165445
O O16 0.914560 0.186134 0.282030
O O17 0.000000 0.415831 0.500000
#
# Coordination Sequence:
#
# PCOD9121286 Si02
#       8
#     4   4   4   4   4   4   4   4
#     4  10  19  33  51  75  99 131 162 202 252 295
#     4   9  16  29  49  71  97 130 160 205 248 290
#     4  10  20  33  48  75  98 132 168 204 244 289
#     4  10  19  32  49  77 101 125 164 202 251 296
#     4  10  19  33  51  70 101 132 166 203 246 292
#     4   9  15  26  46  74  98 121 156 208 251 282
#     4   9  17  27  46  73  97 130 164 203 246 292
#     4   9  15  27  46  71  98 123 160 207 243 283
#
# _framework density 22.679925999999998
#
# number of rings (size 3 to 8) (size 9 to 14) (size 15 to 20)
#    0.000    2.500    5.000    0.000    0.000    1.000 
#    2.250    0.000    0.000    3.000    3.250    0.000 
#    0.000    0.000    0.000    0.000    0.000    0.000 
#
# Total GULP energy -89173.817606 kJ/mol
# GULP energy per Si atom -5573.363600 kJ/mol
# Density = 2.262831 g / cm^3
# Si number density = 22.679926 Si / 1000 Ang^3
#
#
#
# Elastic Constant Matrix: (Units=GPa)
#
#
# Indices 1 2 3 4 5 6 
#
# 1 98.7330 9.9126 32.7022 0.0000 -1.9227 0.0000
# 2 9.9126 27.8892 3.9235 0.0000 -6.6715 0.0000
# 3 32.7022 3.9235 113.7408 0.0000 -19.2381 0.0000
# 4 0.0000 0.0000 0.0000 9.5780 0.0000 0.5707
# 5 -1.9227 -6.6715 -19.2381 0.0000 53.1452 0.0000
# 6 0.0000 0.0000 0.0000 0.5707 0.0000 19.7189
#
#
#
# Elastic Compliance Matrix: (Units=1/GPa)
#
#
# Indices 1 2 3 4 5 6 
#
# 1 0.011638 -0.003969 -0.003432 0.000000 -0.001320 0.000000
# 2 -0.003969 0.038349 0.000648 0.000000 0.004905 0.000000
# 3 -0.003432 0.000648 0.010385 0.000000 0.003716 0.000000
# 4 0.000000 0.000000 0.000000 0.104586 0.000000 -0.003027
# 5 -0.001320 0.004905 0.003716 0.000000 0.020730 0.000000
# 6 0.000000 0.000000 0.000000 -0.003027 0.000000 0.050800
#
#
# Mechanical properties :
#
#
# Convention : Reuss Voigt Hill
#
# Bulk Modulus (GPa) = 21.33794 37.04882 29.19338
# Shear Modulus (GPa) = 18.82405 29.41006 24.11705
#
# Velocity S-wave (km/s) = 2.88408 3.60494 3.26447
# Velocity P-wave (km/s) = 4.52982 5.80503 5.20661
#
# Compressibility (1/GPa) = 0.04686487
#
# Stress axis : x y z
#
# Youngs Moduli (GPa) = 85.92536 26.07619 96.29235
#
# Poissons Ratio (x) = 0.10350 0.33051
# Poissons Ratio (y) = 0.34106 -0.06240
# Poissons Ratio (z) = 0.29493 -0.01690
#
# Static dielectric constant tensor:
#      x y z
#    x 1.890190 0.000000 -0.008210 
#    y 0.000000 1.877660 0.000000 
#    z -0.008210 0.000000 1.881600 
# 
# From -- ./inp_files/29302.got.cif
#   From: 2010.05.17/outbox.cif.g08.bks.cpg/sg5_15_cif.got.tgz:29302.got - 2010.06.03 18:56:24.
