data_PCOD9121717
_publ_section_title
;
Structure prediction by ZEFSAII (Michael W. Deem and Ramdas Pophale) SiO2 
 PCOD9121717
Probable space group: C 2
;
_chemical_formula_sum "Si O2"
_cell_formula_units_Z 32
_cell_length_a 28.602241
_cell_length_b 5.079646
_cell_length_c 12.508065
_cell_angle_alpha 90.000000
_cell_angle_beta 137.134888
_cell_angle_gamma 90.000000
_cell_volume 1236.254688
_symmetry_space_group_name_H-M "C 2"
_symmetry_group_IT_number 5
_symmetry_cell_setting 'monoclinic'
loop_
_space_group_symop_operation_xyz
x,y,z
-x,y,-z
1/2+x,1/2+y,z
1/2-x,1/2+y,-z
loop_
_atom_site_type_symbol
_atom_site_label
_atom_site_fract_x
_atom_site_fract_y
_atom_site_fract_z
Si Si1 0.577762 0.039040 0.799219
Si Si2 0.439439 0.274616 0.513814
Si Si3 0.293150 0.330774 0.544249
Si Si4 0.426700 0.550901 0.724104
Si Si5 0.664708 0.942910 0.558289
Si Si6 0.075269 0.046750 0.933451
Si Si7 0.830913 0.841987 0.182314
Si Si8 0.279466 0.575837 0.874505
O O1 0.515195 0.166396 0.630030
O O2 0.583108 0.242786 0.908941
O O3 0.643118 0.072298 0.833029
O O4 0.560551 0.750415 0.810947
O O5 0.436748 0.402727 0.627373
O O6 0.397985 0.446095 0.358576
O O7 0.391081 0.021294 0.448185
O O8 0.247679 0.596006 0.465146
O O9 0.372478 0.397838 0.709699
O O10 0.303857 0.201781 0.446474
O O11 0.379452 0.795740 0.606631
O O12 0.506712 0.585934 0.890318
O O13 0.732245 0.856380 0.736410
O O14 0.154259 0.132991 0.088858
O O15 0.772989 0.799271 0.173524
O O16 0.807541 0.992671 0.038042
#
# Coordination Sequence:
#
# PCOD9121717 Si02
#       8
#     4   4   4   4   4   4   4   4
#     4  10  19  36  54  81 114 165 219 275 304 347
#     4   9  19  33  53  85 119 165 216 269 305 355
#     4  11  22  40  68 105 122 147 194 260 326 392
#     4  10  20  37  66  90 124 159 208 258 318 375
#     4  10  20  38  60  95 125 162 205 261 319 384
#     4  10  21  38  58  83 121 163 215 249 313 370
#     4  10  20  34  52  80 126 170 226 260 313 348
#     4  10  22  36  56  90 128 182 213 268 309 383
#
# _framework density 25.884634999999999
#
# number of rings (size 3 to 8) (size 9 to 14) (size 15 to 20)
#    0.000    2.000    2.500    1.125    1.750    0.000 
#    9.000    2.500    0.000    0.750    6.500    0.000 
#    0.000    0.000    0.000    0.000    0.000    0.000 
#
# Total GULP energy -89069.068098 kJ/mol
# GULP energy per Si atom -5566.816756 kJ/mol
# Density = 2.582572 g / cm^3
# Si number density = 25.884635 Si / 1000 Ang^3
#
#
#
# Elastic Constant Matrix: (Units=GPa)
#
#
# Indices 1 2 3 4 5 6 
#
# 1 129.1749 43.9437 40.9110 0.0000 43.3367 0.0000
# 2 43.9437 93.7058 10.2660 0.0000 19.9024 0.0001
# 3 40.9110 10.2660 88.9128 0.0000 50.6671 0.0000
# 4 0.0000 0.0000 0.0000 15.3924 0.0000 5.3049
# 5 43.3367 19.9024 50.6671 0.0000 59.7789 0.0000
# 6 0.0000 0.0001 0.0000 5.3049 0.0000 32.5734
#
#
#
# Elastic Compliance Matrix: (Units=1/GPa)
#
#
# Indices 1 2 3 4 5 6 
#
# 1 0.011514 -0.004026 -0.001625 0.000000 -0.005629 0.000000
# 2 -0.004026 0.013018 0.002236 0.000000 -0.003311 0.000000
# 3 -0.001625 0.002236 0.022223 0.000000 -0.018402 0.000000
# 4 0.000000 0.000000 0.000000 0.068831 0.000000 -0.011210
# 5 -0.005629 -0.003311 -0.018402 0.000000 0.037508 0.000000
# 6 0.000000 0.000000 0.000000 -0.011210 0.000000 0.032525
#
#
# Mechanical properties :
#
#
# Convention : Reuss Voigt Hill
#
# Bulk Modulus (GPa) = 25.04733 55.78169 40.41451
# Shear Modulus (GPa) = 24.30032 35.99379 30.14705
#
# Velocity S-wave (km/s) = 3.06730 3.73305 3.41643
# Velocity P-wave (km/s) = 4.71614 6.33859 5.58658
#
# Compressibility (1/GPa) = 0.03992442
#
# Stress axis : x y z
#
# Youngs Moduli (GPa) = 86.84789 76.81730 44.99862
#
# Poissons Ratio (x) = 0.30927 0.07314
# Poissons Ratio (y) = 0.34965 -0.10061
# Poissons Ratio (z) = 0.14115 -0.17176
#
# Static dielectric constant tensor:
#      x y z
#    x 2.105080 0.000000 0.044370 
#    y 0.000000 2.109210 0.000000 
#    z 0.044370 0.000000 2.204460 
# 
# From -- ./inp_files/58322.got.cif
#   From: 2010.05.17/outbox.cif.g08.bks.cpg/sg5_30_cif.got.tgz:58322.got - 2010.06.03 18:56:24.
