data_PCOD9121221
_publ_section_title
;
Structure prediction by ZEFSAII (Michael W. Deem and Ramdas Pophale) SiO2 
 PCOD9121221
Probable space group: C 2
;
_chemical_formula_sum "Si O2"
_cell_formula_units_Z 16
_cell_length_a 6.639031
_cell_length_b 13.608661
_cell_length_c 7.117875
_cell_angle_alpha 90.000000
_cell_angle_beta 95.134154
_cell_angle_gamma 90.000000
_cell_volume 640.507930
_symmetry_space_group_name_H-M "C 2"
_symmetry_group_IT_number 5
_symmetry_cell_setting 'monoclinic'
loop_
_space_group_symop_operation_xyz
x,y,z
-x,y,-z
1/2+x,1/2+y,z
1/2-x,1/2+y,-z
loop_
_atom_site_type_symbol
_atom_site_label
_atom_site_fract_x
_atom_site_fract_y
_atom_site_fract_z
Si Si1 0.113621 0.890610 0.837476
Si Si2 0.000000 0.420620 0.500000
Si Si3 0.500000 0.016976 0.000000
Si Si4 0.294179 0.552929 0.690205
Si Si5 0.933276 0.261340 0.774182
O O1 0.207064 0.805038 0.721655
O O2 0.955527 0.971317 0.763232
O O3 0.000000 0.838865 0.000000
O O4 0.317484 0.949074 0.910795
O O5 0.815718 0.498588 0.492460
O O6 0.058219 0.343773 0.670480
O O7 0.382306 0.068747 0.164192
O O8 0.418895 0.653036 0.690099
O O9 0.000000 0.254570 0.000000
#
# Coordination Sequence:
#
# PCOD9121221 Si02
#       5
#     4   2   2   4   4
#     4  10  20  41  72 104 144 187 238 301 361 427
#     4  12  28  50  70 112 158 184 248 312 356 444
#     4  10  18  46  70 102 152 184 238 306 360 430
#     4  11  26  45  72 110 147 195 242 304 367 435
#     4  12  25  48  77 108 144 200 248 296 370 443
#
# _framework density 24.980177000000001
#
# number of rings (size 3 to 8) (size 9 to 14) (size 15 to 20)
#    0.000    1.000    3.750    3.750    1.750    5.000 
#    9.000    0.000    0.000    0.000    0.000    0.000 
#    0.000    0.000    0.000    0.000    0.000    0.000 
#
# Total GULP energy -44577.538045 kJ/mol
# GULP energy per Si atom -5572.192256 kJ/mol
# Density = 2.492332 g / cm^3
# Si number density = 24.980177 Si / 1000 Ang^3
#
#
#
# Elastic Constant Matrix: (Units=GPa)
#
#
# Indices 1 2 3 4 5 6 
#
# 1 110.8912 4.8360 24.3518 0.0000 4.5390 0.0000
# 2 4.8360 143.7038 47.3848 0.0000 10.6093 0.0000
# 3 24.3518 47.3848 114.8667 0.0000 5.1881 0.0000
# 4 0.0000 0.0000 0.0000 27.0995 0.0000 2.7470
# 5 4.5390 10.6093 5.1881 0.0000 48.6797 0.0000
# 6 0.0000 0.0000 0.0000 2.7470 0.0000 22.3683
#
#
#
# Elastic Compliance Matrix: (Units=1/GPa)
#
#
# Indices 1 2 3 4 5 6 
#
# 1 0.009505 0.000450 -0.002167 0.000000 -0.000753 0.000000
# 2 0.000450 0.008173 -0.003401 0.000000 -0.001461 0.000000
# 3 -0.002167 -0.003401 0.010576 0.000000 -0.000184 0.000000
# 4 0.000000 0.000000 0.000000 0.037366 0.000000 -0.004589
# 5 -0.000753 -0.001461 -0.000184 0.000000 0.020951 0.000000
# 6 0.000000 0.000000 0.000000 -0.004589 0.000000 0.045270
#
#
# Mechanical properties :
#
#
# Convention : Reuss Voigt Hill
#
# Bulk Modulus (GPa) = 55.49639 58.06743 56.78191
# Shear Modulus (GPa) = 33.76511 39.15546 36.46028
#
# Velocity S-wave (km/s) = 3.68050 3.96341 3.82457
# Velocity P-wave (km/s) = 6.35027 6.65137 6.50256
#
# Compressibility (1/GPa) = 0.01801919
#
# Stress axis : x y z
#
# Youngs Moduli (GPa) = 105.20917 122.35601 94.55049
#
# Poissons Ratio (x) = -0.05509 0.20487
# Poissons Ratio (y) = -0.04737 0.32156
# Poissons Ratio (z) = 0.22796 0.41613
#
# Static dielectric constant tensor:
#      x y z
#    x 2.107580 0.000000 -0.125140 
#    y 0.000000 1.955330 0.000000 
#    z -0.125140 0.000000 2.170400 
# 
# From -- ./inp_files/11738.got.cif
#   From: 2010.05.17/outbox.cif.g08.bks.cpg/sg5_6_cif.got.tgz:11738.got - 2010.06.03 18:56:24.
