data_PCOD9121102
_publ_section_title
;
Structure prediction by ZEFSAII (Michael W. Deem and Ramdas Pophale) SiO2 
 PCOD9121102
Probable space group: C 2
;
_chemical_formula_sum "Si O2"
_cell_formula_units_Z 30
_cell_length_a 15.110000
_cell_length_b 10.883977
_cell_length_c 11.672299
_cell_angle_alpha 90.000000
_cell_angle_beta 63.729371
_cell_angle_gamma 90.000000
_cell_volume 1721.322172
_symmetry_space_group_name_H-M "C 2"
_symmetry_group_IT_number 5
_symmetry_cell_setting 'monoclinic'
loop_
_space_group_symop_operation_xyz
x,y,z
-x,y,-z
1/2+x,1/2+y,z
1/2-x,1/2+y,-z
loop_
_atom_site_type_symbol
_atom_site_label
_atom_site_fract_x
_atom_site_fract_y
_atom_site_fract_z
Si Si1 0.577218 0.275130 0.560206
Si Si2 0.925880 0.828369 0.834686
Si Si3 0.713898 0.899941 0.882184
Si Si4 0.045801 0.486681 0.598441
Si Si5 0.291483 0.845758 0.363652
Si Si6 0.000000 0.979822 0.000000
Si Si7 0.363849 0.048223 0.856614
Si Si8 0.821379 0.141183 0.171592
O O1 0.500000 0.288645 0.500000
O O2 0.522899 0.331046 0.701157
O O3 0.586812 0.127376 0.571870
O O4 0.680128 0.339821 0.473013
O O5 0.831770 0.889627 0.827606
O O6 0.898253 0.686047 0.865657
O O7 0.943759 0.895771 0.942232
O O8 0.694934 0.929861 0.759251
O O9 0.673136 0.760057 0.916109
O O10 0.670249 0.981873 0.007843
O O11 0.130648 0.393403 0.589112
O O12 0.000000 0.460945 0.500000
O O13 0.955705 0.484402 0.740925
O O14 0.307799 0.708967 0.301077
O O15 0.919438 0.063393 0.108673
O O16 0.273294 0.064769 0.818291
#
# Coordination Sequence:
#
# PCOD9121102 Si02
#       8
#     4   4   4   4   4   2   4   4
#     4  10  18  39  63  82 115 156 201 240 294 357
#     4  10  21  35  58  90 114 156 194 242 290 355
#     4   9  19  37  61  85 114 153 196 241 294 346
#     4  10  22  36  62  86 115 159 201 250 288 347
#     4  10  21  37  64  87 114 154 208 236 304 351
#     4  12  22  36  56  92 122 152 188 246 312 352
#     4  10  19  39  62  85 121 156 202 239 290 356
#     4   9  21  35  58  84 117 163 184 238 306 353
#
# _framework density 17.428464000000002
#
# number of rings (size 3 to 8) (size 9 to 14) (size 15 to 20)
#    0.800    1.333    2.667    1.600    1.867    4.800 
#    0.000    0.000    2.933    0.000    0.000    0.000 
#    0.000    0.000    0.000    0.000    0.000    0.000 
#
# Total GULP energy -83537.437015 kJ/mol
# GULP energy per Si atom -5569.162468 kJ/mol
# Density = 1.738880 g / cm^3
# Si number density = 17.428464 Si / 1000 Ang^3
#
#
#
# Elastic Constant Matrix: (Units=GPa)
#
#
# Indices 1 2 3 4 5 6 
#
# 1 91.3381 28.7989 33.1496 0.0000 -5.5933 0.0000
# 2 28.7989 20.2525 32.1253 0.0000 -9.4909 0.0000
# 3 33.1496 32.1253 100.8685 0.0000 -13.7492 0.0000
# 4 0.0000 0.0000 0.0000 22.3131 0.0000 9.4751
# 5 -5.5933 -9.4909 -13.7492 0.0000 32.3786 0.0000
# 6 0.0000 0.0000 0.0000 9.4751 0.0000 10.9458
#
#
#
# Elastic Compliance Matrix: (Units=1/GPa)
#
#
# Indices 1 2 3 4 5 6 
#
# 1 0.022316 -0.043980 0.005776 0.000000 -0.006584 0.000000
# 2 -0.043980 0.195793 -0.043643 0.000000 0.031262 0.000000
# 3 0.005776 -0.043643 0.021555 0.000000 -0.002642 0.000000
# 4 0.000000 0.000000 0.000000 0.070866 0.000000 -0.061344
# 5 -0.006584 0.031262 -0.002642 0.000000 0.037789 0.000000
# 6 0.000000 0.000000 0.000000 -0.061344 0.000000 0.144461
#
#
# Mechanical properties :
#
#
# Convention : Reuss Voigt Hill
#
# Bulk Modulus (GPa) = 13.16300 44.51186 28.83743
# Shear Modulus (GPa) = 7.33355 21.01987 14.17671
#
# Velocity S-wave (km/s) = 2.05352 3.47661 2.85515
# Velocity P-wave (km/s) = 3.63202 6.45840 5.23940
#
# Compressibility (1/GPa) = 0.07597055
#
# Stress axis : x y z
#
# Youngs Moduli (GPa) = 44.81126 5.10743 46.39226
#
# Poissons Ratio (x) = 0.22462 -0.26795
# Poissons Ratio (y) = 1.97079 2.02468
# Poissons Ratio (z) = -0.25881 0.22290
#
# Static dielectric constant tensor:
#      x y z
#    x 1.603030 0.000000 0.002670 
#    y 0.000000 1.583340 0.000000 
#    z 0.002670 0.000000 1.594990 
# 
# From -- ./inp_files/42445.got.cif
#   From: 2010.05.17/outbox.cif.g08.bks.cpg/sg5_22_cif.got.tgz:42445.got - 2010.06.03 18:56:24.
