data_PCOD9121773
_publ_section_title
;
Structure prediction by ZEFSAII (Michael W. Deem and Ramdas Pophale) SiO2 
 PCOD9121773
Probable space group: C 2
;
_chemical_formula_sum "Si O2"
_cell_formula_units_Z 30
_cell_length_a 18.437107
_cell_length_b 13.157650
_cell_length_c 14.130518
_cell_angle_alpha 90.000000
_cell_angle_beta 158.370892
_cell_angle_gamma 90.000000
_cell_volume 1263.516215
_symmetry_space_group_name_H-M "C 2"
_symmetry_group_IT_number 5
_symmetry_cell_setting 'monoclinic'
loop_
_space_group_symop_operation_xyz
x,y,z
-x,y,-z
1/2+x,1/2+y,z
1/2-x,1/2+y,-z
loop_
_atom_site_type_symbol
_atom_site_label
_atom_site_fract_x
_atom_site_fract_y
_atom_site_fract_z
Si Si1 0.748688 0.227660 0.065781
Si Si2 0.210559 0.558010 0.301697
Si Si3 0.617747 0.939311 0.739775
Si Si4 0.000000 0.078386 0.500000
Si Si5 0.569910 0.497418 0.239951
Si Si6 0.332226 0.277617 0.666622
Si Si7 0.517215 0.144656 0.632359
Si Si8 0.871696 0.222709 0.761363
O O1 0.868018 0.330357 0.198243
O O2 0.860256 0.148447 0.266441
O O3 0.541126 0.248760 0.868405
O O4 0.711114 0.186930 0.915371
O O5 0.367658 0.520845 0.414842
O O6 0.286143 0.514724 0.494264
O O7 0.211259 0.682818 0.316052
O O8 0.000000 0.533459 0.000000
O O9 0.500000 0.924068 0.500000
O O10 0.507259 0.029750 0.659557
O O11 0.842830 0.975824 0.994963
O O12 0.637640 0.394855 0.266473
O O13 0.566501 0.605218 0.182325
O O14 0.163472 0.274856 0.381566
O O15 0.500000 0.137600 0.500000
O O16 0.343337 0.214281 0.454998
O O17 0.000000 0.270188 0.000000
#
# Coordination Sequence:
#
# PCOD9121773 Si02
#       8
#     4   4   4   2   4   4   4   4
#     4  10  20  37  61  88 123 164 210 257 316 372
#     4  11  23  41  67  93 130 168 213 265 322 381
#     4  10  19  36  60  87 120 156 202 261 308 366
#     4  12  22  36  68  98 126 170 210 264 326 382
#     4  10  22  40  61  91 121 163 210 260 315 377
#     4   9  21  41  61  86 127 162 207 265 308 375
#     4  10  21  37  59  82 122 160 201 259 305 371
#     4  10  20  36  60  83 113 160 205 247 308 368
#
# _framework density 23.743264
#
# number of rings (size 3 to 8) (size 9 to 14) (size 15 to 20)
#    0.000    1.867    2.000    2.400    0.000    3.200 
#    0.000    0.000   23.467    0.000    0.000    0.000 
#    0.000    0.000    0.000    0.000    0.000    0.000 
#
# Total GULP energy -83781.948716 kJ/mol
# GULP energy per Si atom -5585.463248 kJ/mol
# Density = 2.368922 g / cm^3
# Si number density = 23.743264 Si / 1000 Ang^3
#
#
#
# Elastic Constant Matrix: (Units=GPa)
#
#
# Indices 1 2 3 4 5 6 
#
# 1 60.3543 -2.4018 23.1255 0.0004 -8.8831 0.0002
# 2 -2.4018 61.3501 13.0986 0.0004 -10.0139 0.0003
# 3 23.1255 13.0986 146.3097 0.0005 -32.7496 0.0005
# 4 0.0004 0.0004 0.0005 26.7411 0.0005 9.3549
# 5 -8.8831 -10.0139 -32.7496 0.0005 35.5867 0.0005
# 6 0.0002 0.0003 0.0005 9.3549 0.0005 22.0656
#
#
#
# Elastic Compliance Matrix: (Units=1/GPa)
#
#
# Indices 1 2 3 4 5 6 
#
# 1 0.017949 0.001660 -0.002365 0.000000 0.002771 0.000000
# 2 0.001660 0.017276 -0.000791 0.000000 0.004548 0.000000
# 3 -0.002365 -0.000791 0.008939 0.000000 0.007413 0.000000
# 4 0.000000 0.000000 0.000000 0.043908 -0.000001 -0.018615
# 5 0.002771 0.004548 0.007413 -0.000001 0.036894 -0.000001
# 6 0.000000 0.000000 0.000000 -0.018615 -0.000001 0.053211
#
#
# Mechanical properties :
#
#
# Convention : Reuss Voigt Hill
#
# Bulk Modulus (GPa) = 24.28904 37.29543 30.79223
# Shear Modulus (GPa) = 25.65499 32.49147 29.07323
#
# Velocity S-wave (km/s) = 3.29069 3.70327 3.50306
# Velocity P-wave (km/s) = 4.96893 5.83331 5.41838
#
# Compressibility (1/GPa) = 0.04117083
#
# Stress axis : x y z
#
# Youngs Moduli (GPa) = 55.71339 57.88353 111.87095
#
# Poissons Ratio (x) = -0.09608 0.26462
# Poissons Ratio (y) = -0.09248 0.08850
# Poissons Ratio (z) = 0.13179 0.04579
#
# Static dielectric constant tensor:
#      x y z
#    x 1.917070 0.000000 0.023620 
#    y 0.000000 1.907120 0.000000 
#    z 0.023620 0.000000 1.945930 
# 
# From -- ./inp_files/57154.got.cif
#   From: 2010.05.17/outbox.cif.g08.bks.cpg/sg5_29_cif.got.tgz:57154.got - 2010.06.03 18:56:24.
