data_PCOD9121948
_publ_section_title
;
Structure prediction by ZEFSAII (Michael W. Deem and Ramdas Pophale) SiO2 
 PCOD9121948
Probable space group: C 2
;
_chemical_formula_sum "Si O2"
_cell_formula_units_Z 24
_cell_length_a 7.118164
_cell_length_b 25.085345
_cell_length_c 5.305252
_cell_angle_alpha 90.000000
_cell_angle_beta 97.737194
_cell_angle_gamma 90.000000
_cell_volume 938.689947
_symmetry_space_group_name_H-M "C 2"
_symmetry_group_IT_number 5
_symmetry_cell_setting 'monoclinic'
loop_
_space_group_symop_operation_xyz
x,y,z
-x,y,-z
1/2+x,1/2+y,z
1/2-x,1/2+y,-z
loop_
_atom_site_type_symbol
_atom_site_label
_atom_site_fract_x
_atom_site_fract_y
_atom_site_fract_z
Si Si1 0.711218 0.042600 0.293134
Si Si2 0.798809 0.713267 0.109112
Si Si3 0.770160 0.921337 0.411511
Si Si4 0.204294 0.270508 0.617409
Si Si5 0.279734 0.088957 0.203961
Si Si6 0.288529 0.376393 0.911874
O O1 0.498509 0.067544 0.249138
O O2 0.803906 0.065789 0.558688
O O3 0.713945 0.979266 0.304610
O O4 0.805189 0.064048 0.060254
O O5 0.789322 0.746960 0.370159
O O6 0.774520 0.652363 0.186731
O O7 0.669078 0.729286 0.844249
O O8 0.000000 0.718046 0.000000
O O9 0.691385 0.911540 0.678508
O O10 0.000000 0.918318 0.500000
O O11 0.709832 0.879338 0.181701
O O12 0.307692 0.319137 0.779003
O O13 0.000000 0.291179 0.500000
O O14 0.500000 0.397502 0.000000
#
# Coordination Sequence:
#
# PCOD9121948 Si02
#       6
#     4   4   4   4   4   4
#     4  10  19  37  61  95 132 164 218 293 331 403
#     4  12  24  44  76 100 134 197 242 290 348 433
#     4  10  21  39  66  94 133 177 225 277 354 417
#     4  12  27  46  67 105 146 179 239 311 370 412
#     4  10  21  38  62  92 135 165 237 279 329 415
#     4  10  22  44  66  96 131 182 238 285 340 439
#
# _framework density 25.567544999999999
#
# number of rings (size 3 to 8) (size 9 to 14) (size 15 to 20)
#    0.000    1.333    1.667    4.500    2.333    2.667 
#    9.000    5.000    0.000    0.000    0.000    0.000 
#    0.000    0.000    0.000    0.000    0.000    0.000 
#
# Total GULP energy -67069.713018 kJ/mol
# GULP energy per Si atom -5589.142752 kJ/mol
# Density = 2.550935 g / cm^3
# Si number density = 25.567545 Si / 1000 Ang^3
#
#
#
# Elastic Constant Matrix: (Units=GPa)
#
#
# Indices 1 2 3 4 5 6 
#
# 1 68.3916 -2.9971 43.4000 0.0000 -19.3495 0.0000
# 2 -2.9971 148.7106 83.6645 0.0000 -22.1430 0.0000
# 3 43.4000 83.6645 277.7161 0.0000 -43.9033 0.0000
# 4 0.0000 0.0000 0.0000 58.0298 0.0000 6.1385
# 5 -19.3495 -22.1430 -43.9033 0.0000 42.5620 0.0000
# 6 0.0000 0.0000 0.0000 6.1385 0.0000 2.7269
#
#
#
# Elastic Compliance Matrix: (Units=1/GPa)
#
#
# Indices 1 2 3 4 5 6 
#
# 1 0.018453 0.002921 -0.002625 0.000000 0.007201 0.000000
# 2 0.002921 0.008708 -0.002573 0.000000 0.003204 0.000000
# 3 -0.002625 -0.002573 0.005241 0.000000 0.002873 0.000000
# 4 0.000000 0.000000 0.000000 0.022619 0.000000 -0.050917
# 5 0.007201 0.003204 0.002873 0.000000 0.031399 0.000000
# 6 0.000000 0.000000 0.000000 -0.050917 0.000000 0.481341
#
#
# Mechanical properties :
#
#
# Convention : Reuss Voigt Hill
#
# Bulk Modulus (GPa) = 35.91134 82.55034 59.23084
# Shear Modulus (GPa) = 8.59700 45.38046 26.98873
#
# Velocity S-wave (km/s) = 1.83569 4.21756 3.25250
# Velocity P-wave (km/s) = 4.30920 7.48828 6.10915
#
# Compressibility (1/GPa) = 0.02784636
#
# Stress axis : x y z
#
# Youngs Moduli (GPa) = 54.19181 114.83404 190.81811
#
# Poissons Ratio (x) = -0.33545 0.50098
# Poissons Ratio (y) = -0.15830 0.49106
# Poissons Ratio (z) = 0.14228 0.29552
#
# Static dielectric constant tensor:
#      x y z
#    x 2.079070 0.000000 -0.000050 
#    y 0.000000 1.953490 0.000000 
#    z -0.000050 0.000000 2.097390 
# 
# From -- ./inp_files/3456.got.cif
#   From: 2010.05.17/outbox.cif.g08.bks.cpg/sg5_2_cif.got.tgz:3456.got - 2010.06.03 18:56:24.
