data_PCOD9121591
_publ_section_title
;
Structure prediction by ZEFSAII (Michael W. Deem and Ramdas Pophale) SiO2 
 PCOD9121591
Probable space group: C 2
;
_chemical_formula_sum "Si O2"
_cell_formula_units_Z 22
_cell_length_a 5.254471
_cell_length_b 14.110325
_cell_length_c 12.992032
_cell_angle_alpha 90.000000
_cell_angle_beta 71.423427
_cell_angle_gamma 90.000000
_cell_volume 913.072046
_symmetry_space_group_name_H-M "C 2"
_symmetry_group_IT_number 5
_symmetry_cell_setting 'monoclinic'
loop_
_space_group_symop_operation_xyz
x,y,z
-x,y,-z
1/2+x,1/2+y,z
1/2-x,1/2+y,-z
loop_
_atom_site_type_symbol
_atom_site_label
_atom_site_fract_x
_atom_site_fract_y
_atom_site_fract_z
Si Si1 0.679135 0.225550 0.383188
Si Si2 0.273352 0.000147 0.244373
Si Si3 0.720802 0.745773 0.043969
Si Si4 0.500000 0.928400 0.000000
Si Si5 0.241869 0.726776 0.726773
Si Si6 0.160566 0.494285 0.376143
O O1 0.500000 0.259950 0.500000
O O2 0.531818 0.255657 0.295403
O O3 0.667807 0.110073 0.381118
O O4 0.985730 0.250411 0.367609
O O5 0.271427 0.113438 0.259070
O O6 0.483202 0.963550 0.301731
O O7 0.970854 0.967511 0.313316
O O8 0.387051 0.979526 0.115644
O O9 0.682230 0.759755 0.168788
O O10 0.500000 0.696528 0.000000
O O11 0.730948 0.851096 0.996190
O O12 0.000000 0.692919 0.000000
O O13 0.000000 0.464500 0.500000
#
# Coordination Sequence:
#
# PCOD9121591 Si02
#       6
#     4   4   4   2   4   4
#     4   9  17  31  55  87 118 142 181 238 294 336
#     4  10  21  34  60  88 118 147 196 243 282 340
#     4  10  23  39  57  78 110 165 187 228 290 346
#     4  10  26  40  58  86 120 160 192 240 294 350
#     4  10  19  35  56  88 112 151 188 238 280 341
#     4   9  18  34  56  87 119 149 185 238 298 341
#
# _framework density 24.094486
#
# number of rings (size 3 to 8) (size 9 to 14) (size 15 to 20)
#    0.545    1.818    0.000    2.182    3.818    4.364 
#    0.000    0.000    0.000    4.364    0.000    0.000 
#    0.000    0.000    0.000    0.000    0.000    0.000 
#
# Total GULP energy -61341.876213 kJ/mol
# GULP energy per Si atom -5576.534201 kJ/mol
# Density = 2.403965 g / cm^3
# Si number density = 24.094486 Si / 1000 Ang^3
#
#
#
# Elastic Constant Matrix: (Units=GPa)
#
#
# Indices 1 2 3 4 5 6 
#
# 1 184.1484 -4.7463 42.9297 0.0000 8.2613 0.0000
# 2 -4.7463 73.6404 1.1671 0.0000 8.1418 0.0000
# 3 42.9297 1.1671 126.2289 0.0000 6.4791 0.0000
# 4 0.0000 0.0000 0.0000 14.8274 0.0000 -35.7775
# 5 8.2613 8.1418 6.4791 0.0000 36.5223 0.0000
# 6 0.0000 0.0000 0.0000 -35.7775 0.0000 1027.9080
#
#
#
# Elastic Compliance Matrix: (Units=1/GPa)
#
#
# Indices 1 2 3 4 5 6 
#
# 1 0.005954 0.000539 -0.001973 0.000000 -0.001117 0.000000
# 2 0.000539 0.013971 -0.000148 0.000000 -0.003210 0.000000
# 3 -0.001973 -0.000148 0.008649 0.000000 -0.001055 0.000000
# 4 0.000000 0.000000 0.000000 0.073626 0.000000 0.002563
# 5 -0.001117 -0.003210 -0.001055 0.000000 0.028536 0.000000
# 6 0.000000 0.000000 0.000000 0.002563 0.000000 0.001062
#
#
# Mechanical properties :
#
#
# Convention : Reuss Voigt Hill
#
# Bulk Modulus (GPa) = 39.35321 51.41320 45.38321
# Shear Modulus (GPa) = 34.85974 238.82936 136.84455
#
# Velocity S-wave (km/s) = 3.80780 9.96680 7.54442
# Velocity P-wave (km/s) = 5.97501 12.40299 9.73486
#
# Compressibility (1/GPa) = 0.02541089
#
# Stress axis : x y z
#
# Youngs Moduli (GPa) = 167.94668 71.57443 115.62661
#
# Poissons Ratio (x) = -0.03854 0.22809
# Poissons Ratio (y) = -0.09044 0.01706
# Poissons Ratio (z) = 0.33130 0.01056
#
# Static dielectric constant tensor:
#      x y z
#    x 1.983810 0.000000 -0.170030 
#    y 0.000000 1.932670 0.000000 
#    z -0.170030 0.000000 -5.770660 
# 
# From -- ./inp_files/33484.got.cif
#   From: 2010.05.17/outbox.cif.g08.bks.cpg/sg5_17_cif.got.tgz:33484.got - 2010.06.03 18:56:24.
