data_PCOD9121385
_publ_section_title
;
Structure prediction by ZEFSAII (Michael W. Deem and Ramdas Pophale) SiO2 
 PCOD9121385
Probable space group: C 2
;
_chemical_formula_sum "Si O2"
_cell_formula_units_Z 28
_cell_length_a 15.423904
_cell_length_b 8.130854
_cell_length_c 12.314634
_cell_angle_alpha 90.000000
_cell_angle_beta 62.014026
_cell_angle_gamma 90.000000
_cell_volume 1363.777196
_symmetry_space_group_name_H-M "C 2"
_symmetry_group_IT_number 5
_symmetry_cell_setting 'monoclinic'
loop_
_space_group_symop_operation_xyz
x,y,z
-x,y,-z
1/2+x,1/2+y,z
1/2-x,1/2+y,-z
loop_
_atom_site_type_symbol
_atom_site_label
_atom_site_fract_x
_atom_site_fract_y
_atom_site_fract_z
Si Si1 0.176499 0.458380 0.269349
Si Si2 0.321290 0.606622 0.849097
Si Si3 0.000000 0.307291 0.500000
Si Si4 0.000000 0.822277 0.000000
Si Si5 0.624841 0.085670 0.082469
Si Si6 0.486408 0.766003 0.881285
Si Si7 0.998412 0.981745 0.383830
Si Si8 0.622547 0.504407 0.745307
O O1 0.199968 0.283841 0.194232
O O2 0.163851 0.597983 0.183489
O O3 0.263146 0.494658 0.302006
O O4 0.079500 0.417752 0.394042
O O5 0.395785 0.646683 0.903939
O O6 0.391150 0.501683 0.728264
O O7 0.220343 0.535000 0.954552
O O8 0.963615 0.169609 0.434193
O O9 0.068633 0.721761 0.044719
O O10 0.928666 0.925451 0.118829
O O11 0.545430 0.941865 0.142281
O O12 0.582461 0.690133 0.771893
O O13 0.500000 0.780395 0.000000
O O14 0.924906 0.921788 0.333854
O O15 0.000000 0.894812 0.500000
#
# Coordination Sequence:
#
# PCOD9121385 Si02
#       8
#     4   4   2   2   4   4   4   4
#     4  10  20  37  64  90 124 165 213 255 315 374
#     4   9  18  33  57  87 122 160 200 254 310 369
#     4   8  18  42  64  86 122 172 212 258 312 374
#     4  12  24  36  58  90 138 166 206 264 324 364
#     4  11  22  36  56  94 128 163 206 262 324 368
#     4  10  19  33  55  87 124 152 203 250 308 384
#     4   8  18  36  64  85 121 165 214 248 305 378
#     4  11  21  37  64  92 124 169 211 260 313 379
#
# _framework density 20.531212
#
# number of rings (size 3 to 8) (size 9 to 14) (size 15 to 20)
#    0.429    1.714    2.857    1.714    2.000    0.000 
#    0.000    2.857    4.714    0.000    0.000    0.000 
#    0.000    0.000    0.000    0.000    0.000    0.000 
#
# Total GULP energy -77978.199943 kJ/mol
# GULP energy per Si atom -5569.871425 kJ/mol
# Density = 2.048448 g / cm^3
# Si number density = 20.531212 Si / 1000 Ang^3
#
#
#
# Elastic Constant Matrix: (Units=GPa)
#
#
# Indices 1 2 3 4 5 6 
#
# 1 97.2515 13.7832 32.3620 0.0000 12.7024 0.0000
# 2 13.7832 32.3176 12.2715 0.0000 0.8109 0.0000
# 3 32.3620 12.2715 100.2155 0.0000 3.9423 0.0000
# 4 0.0000 0.0000 0.0000 18.1843 0.0000 4.6064
# 5 12.7024 0.8109 3.9423 0.0000 25.1453 0.0000
# 6 0.0000 0.0000 0.0000 4.6064 0.0000 17.9548
#
#
#
# Elastic Compliance Matrix: (Units=1/GPa)
#
#
# Indices 1 2 3 4 5 6 
#
# 1 0.012733 -0.003996 -0.003395 0.000000 -0.005771 0.000000
# 2 -0.003996 0.033711 -0.002892 0.000000 0.001385 0.000000
# 3 -0.003395 -0.002892 0.011428 0.000000 0.000017 0.000000
# 4 0.000000 0.000000 0.000000 0.058815 0.000000 -0.015089
# 5 -0.005771 0.001385 0.000017 0.000000 0.042637 0.000000
# 6 0.000000 0.000000 0.000000 -0.015089 0.000000 0.059567
#
#
# Mechanical properties :
#
#
# Convention : Reuss Voigt Hill
#
# Bulk Modulus (GPa) = 26.80631 38.51312 32.65972
# Shear Modulus (GPa) = 19.84977 23.68138 21.76558
#
# Velocity S-wave (km/s) = 3.11273 3.39991 3.25948
# Velocity P-wave (km/s) = 5.09936 5.84906 5.48703
#
# Compressibility (1/GPa) = 0.03730464
#
# Stress axis : x y z
#
# Youngs Moduli (GPa) = 78.53861 29.66418 87.50150
#
# Poissons Ratio (x) = 0.11855 0.29709
# Poissons Ratio (y) = 0.31387 0.25305
# Poissons Ratio (z) = 0.26666 0.08579
#
# Static dielectric constant tensor:
#      x y z
#    x 1.781630 0.000000 0.045400 
#    y 0.000000 1.805570 0.000000 
#    z 0.045400 0.000000 1.730880 
# 
# From -- ./inp_files/54011.got.cif
#   From: 2010.05.17/outbox.cif.g08.bks.cpg/sg5_28_cif.got.tgz:54011.got - 2010.06.03 18:56:24.
