data_PCOD9121444
_publ_section_title
;
Structure prediction by ZEFSAII (Michael W. Deem and Ramdas Pophale) SiO2 
 PCOD9121444
Probable space group: C 2
;
_chemical_formula_sum "Si O2"
_cell_formula_units_Z 28
_cell_length_a 10.851185
_cell_length_b 8.656905
_cell_length_c 13.288385
_cell_angle_alpha 90.000000
_cell_angle_beta 87.282009
_cell_angle_gamma 90.000000
_cell_volume 1246.875755
_symmetry_space_group_name_H-M "C 2"
_symmetry_group_IT_number 5
_symmetry_cell_setting 'monoclinic'
loop_
_space_group_symop_operation_xyz
x,y,z
-x,y,-z
1/2+x,1/2+y,z
1/2-x,1/2+y,-z
loop_
_atom_site_type_symbol
_atom_site_label
_atom_site_fract_x
_atom_site_fract_y
_atom_site_fract_z
Si Si1 0.197439 0.753840 0.637866
Si Si2 0.433177 0.253840 0.146015
Si Si3 0.500000 0.004403 0.000000
Si Si4 0.105868 0.080405 0.580390
Si Si5 0.960968 0.253840 0.735265
Si Si6 0.894132 0.427275 0.419610
Si Si7 0.331680 0.753840 0.951072
Si Si8 0.000000 0.003277 0.000000
O O1 0.102437 0.753840 0.736546
O O2 0.333425 0.753840 0.678956
O O3 0.177363 0.588594 0.583698
O O4 0.177363 0.919085 0.583698
O O5 0.304766 0.253840 0.086659
O O6 0.506574 0.399291 0.099254
O O7 0.506574 0.108389 0.099254
O O8 0.622983 0.901577 0.989242
O O9 0.039188 0.109073 0.690849
O O10 0.164395 0.253840 0.562326
O O11 0.000000 0.066438 0.500000
O O12 0.039188 0.398607 0.690849
O O13 0.924291 0.253840 0.851451
O O14 0.000000 0.441242 0.500000
O O15 0.377017 0.606103 0.010758
#
# Coordination Sequence:
#
# PCOD9121444 Si02
#       8
#     4   4   2   4   4   4   4   2
#     4  11  20  36  59  76 109 146 171 220 274 303
#     4  10  21  34  51  79 104 131 181 213 249 327
#     4  10  20  34  54  74 104 142 164 218 266 296
#     4   9  20  39  53  81 112 135 180 222 255 322
#     4   9  20  36  53  82 109 136 183 220 254 327
#     4   9  20  39  53  81 112 135 180 222 255 322
#     4  10  19  34  55  75 104 137 173 213 261 305
#     4  10  20  34  54  74 104 142 164 218 266 296
#
# _framework density 22.456128
#
# number of rings (size 3 to 8) (size 9 to 14) (size 15 to 20)
#    0.857    1.429    0.000    3.000    0.000    1.143 
#    2.571    0.000   12.571    0.000    0.000    0.000 
#    0.000    0.000    0.000    0.000    0.000    0.000 
#
# Total GULP energy -78048.435951 kJ/mol
# GULP energy per Si atom -5574.888282 kJ/mol
# Density = 2.240502 g / cm^3
# Si number density = 22.456128 Si / 1000 Ang^3
#
#
#
# Elastic Constant Matrix: (Units=GPa)
#
#
# Indices 1 2 3 4 5 6 
#
# 1 38.5125 39.8793 -10.0437 0.0000 -1.3287 0.0000
# 2 39.8793 201.5575 32.8427 0.0000 6.4460 0.0000
# 3 -10.0437 32.8427 56.5847 0.0000 -9.8518 0.0000
# 4 0.0000 0.0000 0.0000 21.3971 0.0000 -15.1706
# 5 -1.3287 6.4460 -9.8518 0.0000 35.5918 0.0000
# 6 0.0000 0.0000 0.0000 -15.1706 0.0000 12.8836
#
#
#
# Elastic Compliance Matrix: (Units=1/GPa)
#
#
# Indices 1 2 3 4 5 6 
#
# 1 0.041413 -0.010884 0.015003 0.000000 0.007670 0.000000
# 2 -0.010884 0.008474 -0.007552 0.000000 -0.004032 0.000000
# 3 0.015003 -0.007552 0.026324 0.000000 0.009214 0.000000
# 4 0.000000 0.000000 0.000000 0.283007 0.000000 0.333245
# 5 0.007670 -0.004032 0.009214 0.000000 0.031663 0.000000
# 6 0.000000 0.000000 0.000000 0.333245 0.000000 0.470019
#
#
# Mechanical properties :
#
#
# Convention : Reuss Voigt Hill
#
# Bulk Modulus (GPa) = 14.42065 46.89015 30.65540
# Shear Modulus (GPa) = 5.61242 29.57290 17.59266
#
# Velocity S-wave (km/s) = 1.58263 3.63287 2.80201
# Velocity P-wave (km/s) = 3.12654 6.20670 4.91418
#
# Compressibility (1/GPa) = 0.06934498
#
# Stress axis : x y z
#
# Youngs Moduli (GPa) = 24.14698 118.00305 37.98885
#
# Poissons Ratio (x) = 1.28432 -0.56996
# Poissons Ratio (y) = 0.26281 0.28691
# Poissons Ratio (z) = -0.36228 0.89121
#
# Static dielectric constant tensor:
#      x y z
#    x 1.804980 0.000000 -0.051950 
#    y 0.000000 1.893030 0.000000 
#    z -0.051950 0.000000 1.819700 
# 
# From -- ./inp_files/52140.got.cif
#   From: 2010.05.17/outbox.cif.g08.bks.cpg/sg5_27_cif.got.tgz:52140.got - 2010.06.03 18:56:24.
