data_PCOD9121723
_publ_section_title
;
Structure prediction by ZEFSAII (Michael W. Deem and Ramdas Pophale) SiO2 
 PCOD9121723
Probable space group: C 2
;
_chemical_formula_sum "Si O2"
_cell_formula_units_Z 30
_cell_length_a 14.493734
_cell_length_b 12.591782
_cell_length_c 14.236914
_cell_angle_alpha 90.000000
_cell_angle_beta 149.860616
_cell_angle_gamma 90.000000
_cell_volume 1304.602348
_symmetry_space_group_name_H-M "C 2"
_symmetry_group_IT_number 5
_symmetry_cell_setting 'monoclinic'
loop_
_space_group_symop_operation_xyz
x,y,z
-x,y,-z
1/2+x,1/2+y,z
1/2-x,1/2+y,-z
loop_
_atom_site_type_symbol
_atom_site_label
_atom_site_fract_x
_atom_site_fract_y
_atom_site_fract_z
Si Si1 0.660654 0.603990 0.741962
Si Si2 0.754308 0.677189 0.016035
Si Si3 0.686487 0.850257 0.713286
Si Si4 0.464627 0.367058 0.116104
Si Si5 0.940472 0.919277 0.600248
Si Si6 0.500000 0.980737 0.000000
Si Si7 0.155376 0.716354 0.702635
Si Si8 0.922744 0.312840 0.787972
O O1 0.734754 0.596388 0.914549
O O2 0.642743 0.727120 0.701070
O O3 0.481706 0.530297 0.585403
O O4 0.823792 0.551901 0.826588
O O5 0.562968 0.742748 0.852956
O O6 0.913172 0.754905 0.118324
O O7 0.795333 0.651684 0.160626
O O8 0.500000 0.893165 0.500000
O O9 0.855187 0.855753 0.788764
O O10 0.786517 0.896676 0.895572
O O11 0.515021 0.435153 0.251172
O O12 0.738103 0.870808 0.410599
O O13 0.071338 0.829274 0.666623
O O14 0.531790 0.903136 0.940188
O O15 0.322264 0.742629 0.779889
O O16 0.000000 0.666205 0.500000
#
# Coordination Sequence:
#
# PCOD9121723 Si02
#       8
#     4   4   4   4   4   2   4   4
#     4  11  23  36  56  95 127 146 190 267 308 343
#     4  10  19  36  55  88 123 155 198 246 305 351
#     4  10  22  38  64  86 121 161 200 239 308 357
#     4   9  20  40  57  86 118 161 208 238 281 376
#     4  10  21  36  58  90 124 151 200 256 299 343
#     4  12  20  36  60  88 124 158 198 248 310 358
#     4   9  17  34  58  83 112 157 207 241 283 365
#     4  11  20  34  62  86 115 167 205 234 297 375
#
# _framework density 22.995514
#
# number of rings (size 3 to 8) (size 9 to 14) (size 15 to 20)
#    0.000    1.867    2.667    2.400    5.600    0.000 
#    0.000    0.000    5.867    0.800    0.000    0.000 
#    0.000    0.000    0.000    0.000    0.000    0.000 
#
# Total GULP energy -83726.976758 kJ/mol
# GULP energy per Si atom -5581.798451 kJ/mol
# Density = 2.294318 g / cm^3
# Si number density = 22.995514 Si / 1000 Ang^3
#
#
#
# Elastic Constant Matrix: (Units=GPa)
#
#
# Indices 1 2 3 4 5 6 
#
# 1 84.7882 0.9188 26.7951 -0.0005 -4.8312 -0.0004
# 2 0.9188 35.5369 2.2692 -0.0008 6.1630 -0.0006
# 3 26.7951 2.2692 155.7576 -0.0007 -2.8226 -0.0005
# 4 -0.0005 -0.0008 -0.0007 7.0836 0.0001 3.7656
# 5 -4.8312 6.1630 -2.8226 0.0001 36.6363 0.0001
# 6 -0.0004 -0.0006 -0.0005 3.7656 0.0001 8.1815
#
#
#
# Elastic Compliance Matrix: (Units=1/GPa)
#
#
# Indices 1 2 3 4 5 6 
#
# 1 0.012560 -0.000461 -0.002126 0.000001 0.001570 0.000000
# 2 -0.000461 0.029043 -0.000434 0.000003 -0.004980 0.000001
# 3 -0.002126 -0.000434 0.006798 0.000000 0.000316 0.000000
# 4 0.000001 0.000003 0.000000 0.186901 -0.000001 -0.086022
# 5 0.001570 -0.004980 0.000316 -0.000001 0.028364 0.000000
# 6 0.000000 0.000001 0.000000 -0.086022 0.000000 0.161818
#
#
# Mechanical properties :
#
#
# Convention : Reuss Voigt Hill
#
# Bulk Modulus (GPa) = 23.60744 37.33875 30.47309
# Shear Modulus (GPa) = 11.21965 26.78692 19.00329
#
# Velocity S-wave (km/s) = 2.21126 3.41673 2.87782
# Velocity P-wave (km/s) = 4.09975 5.64252 4.93183
#
# Compressibility (1/GPa) = 0.04235953
#
# Stress axis : x y z
#
# Youngs Moduli (GPa) = 79.61593 34.43160 147.10302
#
# Poissons Ratio (x) = 0.01588 0.31268
# Poissons Ratio (y) = 0.03673 0.06384
# Poissons Ratio (z) = 0.16923 0.01494
#
# Static dielectric constant tensor:
#      x y z
#    x 1.825280 0.000000 -0.058760 
#    y 0.000000 1.839450 0.000000 
#    z -0.058760 0.000000 1.937110 
# 
# From -- ./inp_files/54802.got.cif
#   From: 2010.05.17/outbox.cif.g08.bks.cpg/sg5_28_cif.got.tgz:54802.got - 2010.06.03 18:56:24.
