data_PCOD9121533
_publ_section_title
;
Structure prediction by ZEFSAII (Michael W. Deem and Ramdas Pophale) SiO2 
 PCOD9121533
Probable space group: C 2
;
_chemical_formula_sum "Si O2"
_cell_formula_units_Z 20
_cell_length_a 11.777882
_cell_length_b 10.212202
_cell_length_c 8.214575
_cell_angle_alpha 90.000000
_cell_angle_beta 56.290496
_cell_angle_gamma 90.000000
_cell_volume 821.907645
_symmetry_space_group_name_H-M "C 2"
_symmetry_group_IT_number 5
_symmetry_cell_setting 'monoclinic'
loop_
_space_group_symop_operation_xyz
x,y,z
-x,y,-z
1/2+x,1/2+y,z
1/2-x,1/2+y,-z
loop_
_atom_site_type_symbol
_atom_site_label
_atom_site_fract_x
_atom_site_fract_y
_atom_site_fract_z
Si Si1 0.000000 0.214840 0.000000
Si Si2 0.624316 0.167304 0.812408
Si Si3 0.142629 0.125515 0.589312
Si Si4 0.476471 0.368540 0.694478
Si Si5 0.701883 0.846207 0.089292
Si Si6 0.500000 0.856360 0.500000
O O1 0.112695 0.137605 0.804241
O O2 0.909218 0.294719 0.947494
O O3 0.709880 0.096836 0.604081
O O4 0.551736 0.286832 0.775226
O O5 0.727142 0.226763 0.865640
O O6 0.500000 0.093533 0.000000
O O7 0.088345 0.258439 0.546099
O O8 0.051293 0.004608 0.614323
O O9 0.500000 0.300009 0.500000
O O10 0.325104 0.399554 0.881340
O O11 0.613160 0.925239 0.295283
#
# Coordination Sequence:
#
# PCOD9121533 Si02
#       6
#     2   4   4   4   4   2
#     4  10  20  34  62  88 120 162 202 246 296 360
#     4   9  20  38  60  88 126 161 195 249 304 356
#     4  10  19  34  60  90 118 158 201 245 299 356
#     4  11  21  35  63  94 119 158 205 249 297 366
#     4   9  19  35  60  87 120 162 202 240 302 353
#     4   8  16  36  56  80 116 160 190 242 294 352
#
# _framework density 24.333634
#
# number of rings (size 3 to 8) (size 9 to 14) (size 15 to 20)
#    0.000    2.400    1.000    1.200    4.200    0.000 
#    0.000    0.000   17.600    0.000    2.600    0.000 
#    0.000    0.000    0.000    0.000    0.000    0.000 
#
# Total GULP energy -55794.433998 kJ/mol
# GULP energy per Si atom -5579.443400 kJ/mol
# Density = 2.427825 g / cm^3
# Si number density = 24.333634 Si / 1000 Ang^3
#
#
#
# Elastic Constant Matrix: (Units=GPa)
#
#
# Indices 1 2 3 4 5 6 
#
# 1 104.5146 13.1441 65.9391 0.0000 -4.9682 0.0000
# 2 13.1441 18.7665 30.8456 0.0000 -4.2347 0.0000
# 3 65.9391 30.8456 283.3879 0.0000 -54.7780 0.0000
# 4 0.0000 0.0000 0.0000 -21.4464 0.0000 -13.7881
# 5 -4.9682 -4.2347 -54.7780 0.0000 65.0618 0.0000
# 6 0.0000 0.0000 0.0000 -13.7881 0.0000 0.2340
#
#
#
# Elastic Compliance Matrix: (Units=1/GPa)
#
#
# Indices 1 2 3 4 5 6 
#
# 1 0.011637 -0.004335 -0.002530 0.000000 -0.001524 0.000000
# 2 -0.004335 0.066744 -0.006546 0.000000 -0.001498 0.000000
# 3 -0.002530 -0.006546 0.005626 0.000000 0.004117 0.000000
# 4 0.000000 0.000000 0.000000 -0.001199 0.000000 -0.070662
# 5 -0.001524 -0.001498 0.004117 0.000000 0.018623 0.000000
# 6 0.000000 0.000000 0.000000 -0.070662 0.000000 0.109909
#
#
# Mechanical properties :
#
#
# Convention : Reuss Voigt Hill
#
# Bulk Modulus (GPa) = 17.48744 69.61405 43.55075
# Shear Modulus (GPa) = 19.43829 28.55254 23.99542
#
# Velocity S-wave (km/s) = 2.82941 3.42918 3.14363
# Velocity P-wave (km/s) = 4.22803 6.65952 5.57788
#
# Compressibility (1/GPa) = 0.05718391
#
# Stress axis : x y z
#
# Youngs Moduli (GPa) = 85.93029 14.98270 177.75079
#
# Poissons Ratio (x) = 0.06496 0.44980
# Poissons Ratio (y) = 0.37255 1.16347
# Poissons Ratio (z) = 0.21745 0.09807
#
# Static dielectric constant tensor:
#      x y z
#    x 1.984450 0.000000 0.053100 
#    y 0.000000 1.918160 0.000000 
#    z 0.053100 0.000000 2.227010 
# 
# From -- ./inp_files/18979.got.cif
#   From: 2010.05.17/outbox.cif.g08.bks.cpg/sg5_10_cif.got.tgz:18979.got - 2010.06.03 18:56:24.
