data_PCOD9121731
_publ_section_title
;
Structure prediction by ZEFSAII (Michael W. Deem and Ramdas Pophale) SiO2 
 PCOD9121731
Probable space group: C 2
;
_chemical_formula_sum "Si O2"
_cell_formula_units_Z 30
_cell_length_a 16.041388
_cell_length_b 9.616243
_cell_length_c 15.476290
_cell_angle_alpha 90.000000
_cell_angle_beta 152.422276
_cell_angle_gamma 90.000000
_cell_volume 1105.222414
_symmetry_space_group_name_H-M "C 2"
_symmetry_group_IT_number 5
_symmetry_cell_setting 'monoclinic'
loop_
_space_group_symop_operation_xyz
x,y,z
-x,y,-z
1/2+x,1/2+y,z
1/2-x,1/2+y,-z
loop_
_atom_site_type_symbol
_atom_site_label
_atom_site_fract_x
_atom_site_fract_y
_atom_site_fract_z
Si Si1 0.953555 0.020160 0.226282
Si Si2 0.739805 0.209858 0.160717
Si Si3 0.828733 0.648478 0.612789
Si Si4 0.009457 0.652488 0.415412
Si Si5 0.883256 0.017105 0.972413
Si Si6 0.921354 0.412550 0.113972
Si Si7 0.500000 0.968583 0.000000
Si Si8 0.079795 0.357507 0.453374
O O1 0.835512 0.128974 0.170744
O O2 0.158457 0.040526 0.448154
O O3 0.965039 0.062124 0.137909
O O4 0.796882 0.898785 0.083097
O O5 0.621207 0.346903 0.032886
O O6 0.915139 0.291541 0.352816
O O7 0.662776 0.082231 0.146309
O O8 0.892924 0.713205 0.579598
O O9 0.998742 0.570375 0.808060
O O10 0.756173 0.766745 0.608281
O O11 0.120108 0.508768 0.527137
O O12 0.000000 0.726948 0.500000
O O13 0.812833 0.590506 0.211613
O O14 0.000000 0.063035 0.000000
O O15 0.009978 0.365694 0.287074
O O16 0.984774 0.378542 0.074126
#
# Coordination Sequence:
#
# PCOD9121731 Si02
#       8
#     4   4   4   4   4   4   2   4
#     4  10  19  36  57  80 119 157 185 243 296 347
#     4   9  18  33  55  87 110 148 196 235 293 345
#     4  10  20  37  59  85 118 160 196 239 299 359
#     4  10  20  36  54  87 120 147 190 249 293 343
#     4  11  19  34  57  86 119 145 194 244 287 355
#     4  10  20  40  57  89 120 155 202 241 305 348
#     4  10  20  34  62  84 124 154 190 262 286 350
#     4   9  19  37  60  81 120 156 192 245 289 361
#
# _framework density 27.143856
#
# number of rings (size 3 to 8) (size 9 to 14) (size 15 to 20)
#    0.000    2.133    4.667    0.800    0.000    2.133 
#    9.600    5.333   11.733    6.400    0.000    0.000 
#    0.000    0.000    0.000    0.000    0.000    0.000 
#
# Total GULP energy -83652.569584 kJ/mol
# GULP energy per Si atom -5576.837972 kJ/mol
# Density = 2.708208 g / cm^3
# Si number density = 27.143856 Si / 1000 Ang^3
#
#
#
# Elastic Constant Matrix: (Units=GPa)
#
#
# Indices 1 2 3 4 5 6 
#
# 1 128.4531 -5.0465 9.8565 0.0000 20.0356 0.0000
# 2 -5.0465 38.8002 6.3671 0.0000 10.5350 0.0000
# 3 9.8565 6.3671 120.7589 0.0001 22.9261 0.0000
# 4 0.0000 0.0000 0.0001 23.0999 0.0000 11.6857
# 5 20.0356 10.5350 22.9261 0.0000 53.4898 0.0000
# 6 0.0000 0.0000 0.0000 11.6857 0.0000 6.0745
#
#
#
# Elastic Compliance Matrix: (Units=1/GPa)
#
#
# Indices 1 2 3 4 5 6 
#
# 1 0.008423 0.002069 -0.000131 0.000000 -0.003506 0.000001
# 2 0.002069 0.027760 -0.000487 0.000000 -0.006034 0.000001
# 3 -0.000131 -0.000487 0.009024 0.000000 -0.003723 0.000000
# 4 0.000000 0.000000 0.000000 1.613482 0.000000 -3.103891
# 5 -0.003506 -0.006034 -0.003723 0.000000 0.022793 0.000000
# 6 0.000001 0.000001 0.000000 -3.103891 0.000000 6.135644
#
#
# Mechanical properties :
#
#
# Convention : Reuss Voigt Hill
#
# Bulk Modulus (GPa) = 20.78569 34.48515 27.63542
# Shear Modulus (GPa) = 0.63855 34.98853 17.81354
#
# Velocity S-wave (km/s) = 0.48555 3.59416 2.56454
# Velocity P-wave (km/s) = 2.82641 5.47322 4.35573
#
# Compressibility (1/GPa) = 0.04811001
#
# Stress axis : x y z
#
# Youngs Moduli (GPa) = 118.71971 36.02254 110.81431
#
# Poissons Ratio (x) = -0.07453 0.01451
# Poissons Ratio (y) = -0.24564 0.05397
# Poissons Ratio (z) = 0.01554 0.01755
#
# Static dielectric constant tensor:
#      x y z
#    x 2.154030 0.000000 -0.003780 
#    y 0.000000 2.364200 0.000000 
#    z -0.003780 0.000000 2.129500 
# 
# From -- ./inp_files/54793.got.cif
#   From: 2010.05.17/outbox.cif.g08.bks.cpg/sg5_28_cif.got.tgz:54793.got - 2010.06.03 18:56:24.
