data_PCOD9121530
_publ_section_title
;
Structure prediction by ZEFSAII (Michael W. Deem and Ramdas Pophale) SiO2 
 PCOD9121530
Probable space group: C 2
;
_chemical_formula_sum "Si O2"
_cell_formula_units_Z 24
_cell_length_a 13.660619
_cell_length_b 12.535221
_cell_length_c 10.396301
_cell_angle_alpha 90.000000
_cell_angle_beta 147.030471
_cell_angle_gamma 90.000000
_cell_volume 968.799977
_symmetry_space_group_name_H-M "C 2"
_symmetry_group_IT_number 5
_symmetry_cell_setting 'monoclinic'
loop_
_space_group_symop_operation_xyz
x,y,z
-x,y,-z
1/2+x,1/2+y,z
1/2-x,1/2+y,-z
loop_
_atom_site_type_symbol
_atom_site_label
_atom_site_fract_x
_atom_site_fract_y
_atom_site_fract_z
Si Si1 0.523423 0.778400 0.219229
Si Si2 0.894872 0.515254 0.264432
Si Si3 0.836421 0.486606 0.673620
Si Si4 0.132480 0.729152 0.258207
Si Si5 0.102965 0.762850 0.739659
Si Si6 0.495054 0.527877 0.142074
O O1 0.666109 0.776298 0.497238
O O2 0.532313 0.655239 0.185952
O O3 0.612425 0.867962 0.224946
O O4 0.308932 0.799516 0.997965
O O5 0.865069 0.639438 0.265909
O O6 0.000000 0.465227 0.500000
O O7 0.016528 0.503547 0.275430
O O8 0.692503 0.484291 0.014091
O O9 0.837395 0.601995 0.742595
O O10 0.645815 0.478650 0.396386
O O11 0.024287 0.748594 0.273962
O O12 0.000000 0.768811 0.000000
O O13 0.000000 0.812431 0.500000
O O14 0.500000 0.498189 0.000000
#
# Coordination Sequence:
#
# PCOD9121530 Si02
#       6
#     4   4   4   4   4   4
#     4  10  23  37  63  94 121 166 211 256 307 375
#     4   9  16  32  58  83 112 152 196 252 301 348
#     4  10  21  38  57  89 121 164 205 252 307 373
#     4  10  23  43  61  90 135 168 199 258 323 372
#     4   9  20  39  66  91 119 162 212 259 305 366
#     4  10  19  34  60  88 116 153 205 259 305 357
#
# _framework density 24.772915000000001
#
# number of rings (size 3 to 8) (size 9 to 14) (size 15 to 20)
#    0.000    2.333    1.667    0.000    7.000    3.333 
#    3.000    0.000    0.000    0.000    0.000    0.000 
#    0.000    0.000    0.000    0.000    0.000    0.000 
#
# Total GULP energy -66882.957878 kJ/mol
# GULP energy per Si atom -5573.579823 kJ/mol
# Density = 2.471653 g / cm^3
# Si number density = 24.772915 Si / 1000 Ang^3
#
#
#
# Elastic Constant Matrix: (Units=GPa)
#
#
# Indices 1 2 3 4 5 6 
#
# 1 37.5529 -2.4240 56.3544 0.0000 5.0318 0.0000
# 2 -2.4240 161.1709 35.8575 0.0000 1.0968 0.0000
# 3 56.3544 35.8575 276.8544 0.0000 15.2940 0.0000
# 4 0.0000 0.0000 0.0000 23.5079 0.0000 47.8650
# 5 5.0318 1.0968 15.2940 0.0000 46.5723 0.0000
# 6 0.0000 0.0000 0.0000 47.8650 0.0000 28.5964
#
#
#
# Elastic Compliance Matrix: (Units=1/GPa)
#
#
# Indices 1 2 3 4 5 6 
#
# 1 0.039367 0.002436 -0.008240 0.000000 -0.001605 0.000000
# 2 0.002436 0.006540 -0.001344 0.000000 0.000024 0.000000
# 3 -0.008240 -0.001344 0.005512 0.000000 -0.000888 0.000000
# 4 0.000000 0.000000 0.000000 -0.017665 0.000000 0.029568
# 5 -0.001605 0.000024 -0.000888 0.000000 0.021937 0.000000
# 6 0.000000 0.000000 0.000000 0.029568 0.000000 -0.014522
#
#
# Mechanical properties :
#
#
# Convention : Reuss Voigt Hill
#
# Bulk Modulus (GPa) = 26.93724 72.79491 49.86608
# Shear Modulus (GPa) = 73.70225 45.45467 59.57846
#
# Velocity S-wave (km/s) = 5.46038 4.28817 4.90938
# Velocity P-wave (km/s) = 7.11699 7.34619 7.23250
#
# Compressibility (1/GPa) = 0.03712333
#
# Stress axis : x y z
#
# Youngs Moduli (GPa) = 25.40192 152.90162 181.40591
#
# Poissons Ratio (x) = -0.37251 1.49482
# Poissons Ratio (y) = -0.06189 0.24387
# Poissons Ratio (z) = 0.20932 0.20555
#
# Static dielectric constant tensor:
#      x y z
#    x 1.787790 0.000000 0.008770 
#    y 0.000000 2.094760 0.000000 
#    z 0.008770 0.000000 2.015190 
# 
# From -- ./inp_files/43122.got.cif
#   From: 2010.05.17/outbox.cif.g08.bks.cpg/sg5_22_cif.got.tgz:43122.got - 2010.06.03 18:56:24.
