data_PCOD9121399
_publ_section_title
;
Structure prediction by ZEFSAII (Michael W. Deem and Ramdas Pophale) SiO2 
 PCOD9121399
Probable space group: C 2
;
_chemical_formula_sum "Si O2"
_cell_formula_units_Z 22
_cell_length_a 18.773267
_cell_length_b 6.445040
_cell_length_c 17.844450
_cell_angle_alpha 90.000000
_cell_angle_beta 23.044722
_cell_angle_gamma 90.000000
_cell_volume 845.170617
_symmetry_space_group_name_H-M "C 2"
_symmetry_group_IT_number 5
_symmetry_cell_setting 'monoclinic'
loop_
_space_group_symop_operation_xyz
x,y,z
-x,y,-z
1/2+x,1/2+y,z
1/2-x,1/2+y,-z
loop_
_atom_site_type_symbol
_atom_site_label
_atom_site_fract_x
_atom_site_fract_y
_atom_site_fract_z
Si Si1 0.339984 0.505000 0.854140
Si Si2 0.241478 0.968966 0.439141
Si Si3 0.640116 0.844931 0.424627
Si Si4 0.000000 0.802210 0.000000
Si Si5 0.553851 0.975628 0.260139
Si Si6 0.463415 0.888354 0.953292
O O1 0.542326 0.409477 0.662630
O O2 0.379837 0.737970 0.789539
O O3 0.220542 0.539488 0.044374
O O4 0.224274 0.363460 0.908826
O O5 0.376587 0.991144 0.378153
O O6 0.367698 0.829642 0.262745
O O7 0.208701 0.172045 0.418380
O O8 0.500000 0.748278 0.500000
O O9 0.528428 0.021442 0.577691
O O10 0.818338 0.910155 0.205255
O O11 0.047316 0.637463 0.020155
O O12 0.500000 0.802544 0.000000
#
# Coordination Sequence:
#
# PCOD9121399 Si02
#       6
#     4   4   4   2   4   4
#     4  10  20  36  56  82 124 156 189 241 290 346
#     4   9  19  31  51  86 119 149 183 240 295 340
#     4  10  19  33  57  87 114 147 199 245 285 335
#     4   8  14  26  48  78 114 128 178 246 286 306
#     4  10  22  35  55  92 120 152 196 236 297 351
#     4   8  16  29  51  85 114 135 188 246 286 325
#
# _framework density 26.030245000000001
#
# number of rings (size 3 to 8) (size 9 to 14) (size 15 to 20)
#    0.545    2.182    0.000    2.182    0.000    8.727 
#    0.000    0.000    0.000    0.000   47.273    0.000 
#    0.000    0.000    0.000    0.000    0.000    0.000 
#
# Total GULP energy -61244.684871 kJ/mol
# GULP energy per Si atom -5567.698625 kJ/mol
# Density = 2.597100 g / cm^3
# Si number density = 26.030245 Si / 1000 Ang^3
#
#
#
# Elastic Constant Matrix: (Units=GPa)
#
#
# Indices 1 2 3 4 5 6 
#
# 1 127.8809 31.2196 63.2992 -0.0001 -7.0071 -0.0003
# 2 31.2196 23.7728 30.8675 -0.0033 -17.5175 0.0013
# 3 63.2992 30.8675 288.1276 -0.0017 19.2660 0.0006
# 4 -0.0001 -0.0033 -0.0017 28.0394 0.0006 13.6097
# 5 -7.0071 -17.5175 19.2660 0.0006 49.1103 -0.0001
# 6 -0.0003 0.0013 0.0006 13.6097 -0.0001 9.0049
#
#
#
# Elastic Compliance Matrix: (Units=1/GPa)
#
#
# Indices 1 2 3 4 5 6 
#
# 1 0.012543 -0.019988 -0.000264 -0.000014 -0.005236 0.000025
# 2 -0.019988 0.112185 -0.010385 0.000072 0.041238 -0.000125
# 3 -0.000264 -0.010385 0.005023 -0.000005 -0.005713 0.000009
# 4 -0.000014 0.000072 -0.000005 0.133869 0.000024 -0.202325
# 5 -0.005236 0.041238 -0.005713 0.000024 0.036566 -0.000041
# 6 0.000025 -0.000125 0.000009 -0.202325 -0.000041 0.416839
#
#
# Mechanical properties :
#
#
# Convention : Reuss Voigt Hill
#
# Bulk Modulus (GPa) = 14.60328 76.72823 45.66575
# Shear Modulus (GPa) = 6.24123 38.19058 22.21590
#
# Velocity S-wave (km/s) = 1.55013 3.83451 2.92458
# Velocity P-wave (km/s) = 2.97088 7.01036 5.38383
#
# Compressibility (1/GPa) = 0.06847777
#
# Stress axis : x y z
#
# Youngs Moduli (GPa) = 79.72414 8.91386 199.07454
#
# Poissons Ratio (x) = 0.17817 0.05260
# Poissons Ratio (y) = 1.59351 2.06735
# Poissons Ratio (z) = 0.02106 0.09257
#
# Static dielectric constant tensor:
#      x y z
#    x 2.054180 0.000000 0.008470 
#    y 0.000000 2.182300 0.000000 
#    z 0.008470 0.000000 2.153130 
# 
# From -- ./inp_files/66981.got.cif
#   From: 2010.05.17/outbox.cif.g08.bks.cpg/sg5_34_cif.got.tgz:66981.got - 2010.06.03 18:56:24.
