data_PCOD9121227
_publ_section_title
;
Structure prediction by ZEFSAII (Michael W. Deem and Ramdas Pophale) SiO2 
 PCOD9121227
Probable space group: C 2
;
_chemical_formula_sum "Si O2"
_cell_formula_units_Z 30
_cell_length_a 19.938086
_cell_length_b 8.327017
_cell_length_c 6.862278
_cell_angle_alpha 90.000000
_cell_angle_beta 83.866147
_cell_angle_gamma 90.000000
_cell_volume 1132.785646
_symmetry_space_group_name_H-M "C 2"
_symmetry_group_IT_number 5
_symmetry_cell_setting 'monoclinic'
loop_
_space_group_symop_operation_xyz
x,y,z
-x,y,-z
1/2+x,1/2+y,z
1/2-x,1/2+y,-z
loop_
_atom_site_type_symbol
_atom_site_label
_atom_site_fract_x
_atom_site_fract_y
_atom_site_fract_z
Si Si1 0.000000 0.423420 0.500000
Si Si2 0.934570 0.523775 0.131588
Si Si3 0.395560 0.672187 0.643052
Si Si4 0.922020 0.823269 0.551151
Si Si5 0.740707 0.779032 0.252498
Si Si6 0.880807 0.867689 0.119614
Si Si7 0.146048 0.214074 0.803640
Si Si8 0.791777 0.635760 0.634979
O O1 0.953239 0.515711 0.356767
O O2 0.952481 0.306755 0.644121
O O3 0.920832 0.704142 0.055770
O O4 0.876830 0.390653 0.121907
O O5 0.000000 0.465530 0.000000
O O6 0.422753 0.493076 0.662362
O O7 0.327092 0.691049 0.787342
O O8 0.374089 0.696077 0.420955
O O9 0.891273 0.860327 0.349943
O O10 0.865126 0.707774 0.661024
O O11 0.000000 0.781347 0.500000
O O12 0.802951 0.826892 0.098114
O O13 0.773911 0.676533 0.416335
O O14 0.711611 0.946150 0.342242
O O15 0.890717 0.058734 0.086818
O O16 0.227158 0.199525 0.774887
#
# Coordination Sequence:
#
# PCOD9121227 Si02
#       8
#     2   4   4   4   4   4   4   4
#     4  10  22  38  60  90 130 156 198 260 300 370
#     4  11  24  39  63  94 120 167 208 248 313 371
#     4   9  17  31  51  80 120 154 194 249 303 355
#     4  10  19  28  46  84 125 155 194 251 311 364
#     4   9  17  28  47  79 108 155 199 249 298 351
#     4   9  20  34  54  83 121 154 203 255 297 362
#     4   8  18  35  54  81 119 157 204 255 300 357
#     4   9  17  27  46  75 115 152 202 251 299 360
#
# _framework density 26.483387
#
# number of rings (size 3 to 8) (size 9 to 14) (size 15 to 20)
#    0.000    2.667    0.667    2.400   14.000    0.533 
#    0.000    0.000    0.000    0.000   10.400    0.000 
#    0.000    0.000    0.000    0.000    0.000    0.000 
#
# Total GULP energy -83810.381086 kJ/mol
# GULP energy per Si atom -5587.358739 kJ/mol
# Density = 2.642311 g / cm^3
# Si number density = 26.483387 Si / 1000 Ang^3
#
#
#
# Elastic Constant Matrix: (Units=GPa)
#
#
# Indices 1 2 3 4 5 6 
#
# 1 131.7013 72.0351 8.6055 0.0000 -15.6303 0.0000
# 2 72.0351 141.1819 11.1185 0.0000 7.4523 0.0000
# 3 8.6055 11.1185 55.8621 0.0000 12.2746 0.0000
# 4 0.0000 0.0000 0.0000 -17.7462 0.0000 10.3577
# 5 -15.6303 7.4523 12.2746 0.0000 43.7382 0.0000
# 6 0.0000 0.0000 0.0000 10.3577 0.0000 -0.0801
#
#
#
# Elastic Compliance Matrix: (Units=1/GPa)
#
#
# Indices 1 2 3 4 5 6 
#
# 1 0.011772 -0.006165 -0.001856 0.000000 0.005778 0.000000
# 2 -0.006165 0.010457 -0.000273 0.000000 -0.003908 0.000000
# 3 -0.001856 -0.000273 0.019585 0.000000 -0.006113 0.000000
# 4 0.000000 0.000000 0.000000 0.000756 0.000000 0.097843
# 5 0.005778 -0.003908 -0.006113 0.000000 0.027310 0.000000
# 6 0.000000 0.000000 0.000000 0.097843 0.000000 0.167637
#
#
# Mechanical properties :
#
#
# Convention : Reuss Voigt Hill
#
# Bulk Modulus (GPa) = 39.64277 56.91815 48.28046
# Shear Modulus (GPa) = 19.04667 20.98148 20.01408
#
# Velocity S-wave (km/s) = 2.68469 2.81775 2.75202
# Velocity P-wave (km/s) = 4.96100 5.66789 5.32618
#
# Compressibility (1/GPa) = 0.02522528
#
# Stress axis : x y z
#
# Youngs Moduli (GPa) = 84.94618 95.63367 51.06049
#
# Poissons Ratio (x) = 0.58961 0.09477
# Poissons Ratio (y) = 0.52372 0.01392
# Poissons Ratio (z) = 0.15766 0.02608
#
# Static dielectric constant tensor:
#      x y z
#    x 2.094100 0.000000 0.015250 
#    y 0.000000 2.087580 0.000000 
#    z 0.015250 0.000000 2.163140 
# 
# From -- ./inp_files/28929.got.cif
#   From: 2010.05.17/outbox.cif.g08.bks.cpg/sg5_15_cif.got.tgz:28929.got - 2010.06.03 18:56:24.
