data_PCOD9121186
_publ_section_title
;
Structure prediction by ZEFSAII (Michael W. Deem and Ramdas Pophale) SiO2 
 PCOD9121186
Probable space group: C 2
;
_chemical_formula_sum "Si O2"
_cell_formula_units_Z 26
_cell_length_a 18.291826
_cell_length_b 4.972470
_cell_length_c 11.484970
_cell_angle_alpha 90.000000
_cell_angle_beta 82.700599
_cell_angle_gamma 90.000000
_cell_volume 1036.155978
_symmetry_space_group_name_H-M "C 2"
_symmetry_group_IT_number 5
_symmetry_cell_setting 'monoclinic'
loop_
_space_group_symop_operation_xyz
x,y,z
-x,y,-z
1/2+x,1/2+y,z
1/2-x,1/2+y,-z
loop_
_atom_site_type_symbol
_atom_site_label
_atom_site_fract_x
_atom_site_fract_y
_atom_site_fract_z
Si Si1 0.304918 0.470510 0.776869
Si Si2 0.380581 0.174768 0.934825
Si Si3 0.143277 0.509909 0.816410
Si Si4 0.593410 0.505026 0.684226
Si Si5 0.956581 0.294873 0.770026
Si Si6 0.704630 0.282856 0.475660
Si Si7 0.500000 0.572964 0.000000
O O1 0.307208 0.289386 0.892602
O O2 0.226975 0.621197 0.787856
O O3 0.377630 0.652624 0.771679
O O4 0.310295 0.302474 0.657560
O O5 0.429085 0.392006 0.992088
O O6 0.428353 0.090631 0.811055
O O7 0.368189 0.967942 0.042447
O O8 0.139227 0.233701 0.744567
O O9 0.091474 0.734334 0.764753
O O10 0.515972 0.658812 0.672403
O O11 0.636222 0.399785 0.562385
O O12 0.000648 0.237920 0.881856
O O13 0.772155 0.484158 0.492869
#
# Coordination Sequence:
#
# PCOD9121186 Si02
#       7
#     4   4   4   4   4   4   2
#     4  11  28  44  72 109 148 191 250 318 374 443
#     4  11  25  41  72 108 158 190 245 314 387 451
#     4  12  26  46  75 109 147 198 254 296 384 456
#     4  12  25  48  80 105 141 206 255 301 374 462
#     4  11  25  42  70 106 150 193 247 310 374 451
#     4  12  25  51  78 105 146 199 257 320 374 449
#     4  10  18  42  62 100 142 198 224 300 372 446
#
# _framework density 25.092749999999999
#
# number of rings (size 3 to 8) (size 9 to 14) (size 15 to 20)
#    0.000    0.615    4.615    2.308   10.769    0.615 
#    0.000    0.000    0.000    0.000    0.000    0.000 
#    0.000    0.000    0.000    0.000    0.000    0.000 
#
# Total GULP energy -72590.697936 kJ/mol
# GULP energy per Si atom -5583.899841 kJ/mol
# Density = 2.503564 g / cm^3
# Si number density = 25.092750 Si / 1000 Ang^3
#
#
#
# Elastic Constant Matrix: (Units=GPa)
#
#
# Indices 1 2 3 4 5 6 
#
# 1 111.0374 -3.5168 3.6751 0.0000 -5.4072 0.0000
# 2 -3.5168 85.6320 2.4759 0.0000 7.8279 0.0000
# 3 3.6751 2.4759 81.2216 0.0000 6.0364 0.0000
# 4 0.0000 0.0000 0.0000 32.4425 0.0000 -2.7454
# 5 -5.4072 7.8279 6.0364 0.0000 51.2445 0.0000
# 6 0.0000 0.0000 0.0000 -2.7454 0.0000 31.2707
#
#
#
# Elastic Compliance Matrix: (Units=1/GPa)
#
#
# Indices 1 2 3 4 5 6 
#
# 1 0.009079 0.000298 -0.000492 0.000000 0.000970 0.000000
# 2 0.000298 0.011857 -0.000245 0.000000 -0.001751 0.000000
# 3 -0.000492 -0.000245 0.012452 0.000000 -0.001481 0.000000
# 4 0.000000 0.000000 0.000000 0.031055 0.000000 0.002726
# 5 0.000970 -0.001751 -0.001481 0.000000 0.020059 0.000000
# 6 0.000000 0.000000 0.000000 0.002726 0.000000 0.032218
#
#
# Mechanical properties :
#
#
# Convention : Reuss Voigt Hill
#
# Bulk Modulus (GPa) = 30.75868 31.46215 31.11042
# Shear Modulus (GPa) = 38.93069 41.34197 40.13633
#
# Velocity S-wave (km/s) = 3.94315 4.06343 4.00374
# Velocity P-wave (km/s) = 5.74594 5.88054 5.81363
#
# Compressibility (1/GPa) = 0.03251114
#
# Stress axis : x y z
#
# Youngs Moduli (GPa) = 110.14471 84.33643 80.30960
#
# Poissons Ratio (x) = -0.02516 0.03951
# Poissons Ratio (y) = -0.03287 0.01966
# Poissons Ratio (z) = 0.05419 0.02065
#
# Static dielectric constant tensor:
#      x y z
#    x 2.117150 0.000000 -0.161670 
#    y 0.000000 2.026660 0.000000 
#    z -0.161670 0.000000 2.026130 
# 
# From -- ./inp_files/43781.got.cif
#   From: 2010.05.17/outbox.cif.g08.bks.cpg/sg5_22_cif.got.tgz:43781.got - 2010.06.03 18:56:24.
