data_PCOD9121575
_publ_section_title
;
Structure prediction by ZEFSAII (Michael W. Deem and Ramdas Pophale) SiO2 
 PCOD9121575
Probable space group: C 2
;
_chemical_formula_sum "Si O2"
_cell_formula_units_Z 28
_cell_length_a 5.481646
_cell_length_b 17.010005
_cell_length_c 15.083362
_cell_angle_alpha 90.000000
_cell_angle_beta 120.639361
_cell_angle_gamma 90.000000
_cell_volume 1210.068643
_symmetry_space_group_name_H-M "C 2"
_symmetry_group_IT_number 5
_symmetry_cell_setting 'monoclinic'
loop_
_space_group_symop_operation_xyz
x,y,z
-x,y,-z
1/2+x,1/2+y,z
1/2-x,1/2+y,-z
loop_
_atom_site_type_symbol
_atom_site_label
_atom_site_fract_x
_atom_site_fract_y
_atom_site_fract_z
Si Si1 0.229506 0.278320 0.885869
Si Si2 0.146174 0.444477 0.930648
Si Si3 0.916245 0.120311 0.887196
Si Si4 0.144917 0.696045 0.253597
Si Si5 0.631163 0.539362 0.758597
Si Si6 0.706820 0.477603 0.467703
Si Si7 0.678419 0.158533 0.450297
O O1 0.068000 0.357661 0.880020
O O2 0.279492 0.272092 0.789008
O O3 0.090039 0.195979 0.886434
O O4 0.500000 0.281001 0.000000
O O5 0.946424 0.503827 0.835140
O O6 0.500000 0.444583 0.000000
O O7 0.000000 0.453371 0.000000
O O8 0.612246 0.157857 0.846723
O O9 0.972177 0.054642 0.822611
O O10 0.000000 0.093751 0.000000
O O11 0.372730 0.625844 0.288584
O O12 0.041974 0.691823 0.335219
O O13 0.458936 0.489780 0.654936
O O14 0.500000 0.438570 0.500000
O O15 0.797109 0.562664 0.531698
O O16 0.000000 0.436062 0.500000
O O17 0.500000 0.187157 0.500000
O O18 0.000000 0.186941 0.500000
#
# Coordination Sequence:
#
# PCOD9121575 Si02
#       7
#     4   4   4   4   4   4   4
#     4  10  22  43  62  92 130 190 233 277 331 425
#     4  11  28  46  66  93 143 195 239 276 341 424
#     4  11  22  36  64  94 137 171 223 290 353 401
#     4  11  22  36  65  98 132 172 227 285 349 408
#     4  11  25  38  61 104 136 178 225 289 351 411
#     4  10  19  36  60  90 134 167 209 267 353 414
#     4  10  19  35  55  91 130 162 200 268 348 406
#
# _framework density 23.139185000000001
#
# number of rings (size 3 to 8) (size 9 to 14) (size 15 to 20)
#    0.000    1.429    4.286    2.143    8.000    0.000 
#    0.000    0.000    0.000    0.000    3.714    1.000 
#    0.000    0.000    0.000    0.000    0.000    0.000 
#
# Total GULP energy -77993.722586 kJ/mol
# GULP energy per Si atom -5570.980185 kJ/mol
# Density = 2.308652 g / cm^3
# Si number density = 23.139185 Si / 1000 Ang^3
#
#
#
# Elastic Constant Matrix: (Units=GPa)
#
#
# Indices 1 2 3 4 5 6 
#
# 1 131.5905 7.8287 25.2992 0.0000 -15.1794 0.0000
# 2 7.8287 54.3066 15.2120 0.0000 -9.9023 0.0000
# 3 25.2992 15.2120 96.1429 0.0000 -20.9681 0.0000
# 4 0.0000 0.0000 0.0000 1527.0849 0.0000 -515.2465
# 5 -15.1794 -9.9023 -20.9681 0.0000 48.8659 0.0000
# 6 0.0000 0.0000 0.0000 -515.2465 0.0000 191.2033
#
#
#
# Elastic Compliance Matrix: (Units=1/GPa)
#
#
# Indices 1 2 3 4 5 6 
#
# 1 0.008149 -0.000382 -0.001709 0.000000 0.001721 0.000000
# 2 -0.000382 0.019656 -0.002390 0.000000 0.002839 0.000000
# 3 -0.001709 -0.002390 0.012144 0.000000 0.004196 0.000000
# 4 0.000000 0.000000 0.000000 0.007214 0.000000 0.019440
# 5 0.001721 0.002839 0.004196 0.000000 0.023374 0.000000
# 6 0.000000 0.000000 0.000000 0.019440 0.000000 0.057616
#
#
# Mechanical properties :
#
#
# Convention : Reuss Voigt Hill
#
# Bulk Modulus (GPa) = 32.27182 42.07998 37.17590
# Shear Modulus (GPa) = 33.91094 369.01080 201.46087
#
# Velocity S-wave (km/s) = 3.83236 12.64202 9.34098
# Velocity P-wave (km/s) = 5.79308 15.20918 11.50824
#
# Compressibility (1/GPa) = 0.03098679
#
# Stress axis : x y z
#
# Youngs Moduli (GPa) = 122.71351 50.87433 82.34473
#
# Poissons Ratio (x) = 0.01945 0.14069
# Poissons Ratio (y) = 0.04692 0.19683
# Poissons Ratio (z) = 0.20966 0.12161
#
# Static dielectric constant tensor:
#      x y z
#    x -0.142220 0.000000 -0.836270 
#    y 0.000000 1.894440 0.000000 
#    z -0.836270 0.000000 1.623280 
# 
# From -- ./inp_files/49374.got.cif
#   From: 2010.05.17/outbox.cif.g08.bks.cpg/sg5_25_cif.got.tgz:49374.got - 2010.06.03 18:56:24.
