data_PCOD9121683
_publ_section_title
;
Structure prediction by ZEFSAII (Michael W. Deem and Ramdas Pophale) SiO2 
 PCOD9121683
Probable space group: C 2
;
_chemical_formula_sum "Si O2"
_cell_formula_units_Z 16
_cell_length_a 14.702132
_cell_length_b 7.060580
_cell_length_c 7.179543
_cell_angle_alpha 90.000000
_cell_angle_beta 130.412985
_cell_angle_gamma 90.000000
_cell_volume 567.447211
_symmetry_space_group_name_H-M "C 2"
_symmetry_group_IT_number 5
_symmetry_cell_setting 'monoclinic'
loop_
_space_group_symop_operation_xyz
x,y,z
-x,y,-z
1/2+x,1/2+y,z
1/2-x,1/2+y,-z
loop_
_atom_site_type_symbol
_atom_site_label
_atom_site_fract_x
_atom_site_fract_y
_atom_site_fract_z
Si Si1 0.629408 0.185500 0.008371
Si Si2 0.630465 0.781374 0.176814
Si Si3 0.114449 0.800521 0.423509
Si Si4 0.874755 0.235812 0.425218
O O1 0.620809 0.271409 0.207359
O O2 0.763620 0.246421 0.137942
O O3 0.617822 0.962487 0.028810
O O4 0.524576 0.247065 0.732304
O O5 0.765413 0.702990 0.331395
O O6 0.636372 0.852033 0.399029
O O7 0.500000 0.678020 0.000000
O O8 0.127247 0.018535 0.502481
O O9 0.000000 0.275785 0.500000
#
# Coordination Sequence:
#
# PCOD9121683 Si02
#       4
#     4   4   4   4
#     4   9  18  39  61  82 112 153 198 230 272 347
#     4  10  19  35  63  85 111 151 199 234 270 347
#     4   9  18  36  61  82 115 149 194 233 276 341
#     4  10  22  38  56  90 121 145 186 243 294 331
#
# _framework density 28.196456999999999
#
# number of rings (size 3 to 8) (size 9 to 14) (size 15 to 20)
#    0.000    2.500    2.500    0.000    3.500    0.000 
#    9.000    1.250    0.000    0.000    0.000    0.000 
#    0.000    0.000    0.000    0.000    0.000    0.000 
#
# Total GULP energy -44702.356711 kJ/mol
# GULP energy per Si atom -5587.794589 kJ/mol
# Density = 2.813228 g / cm^3
# Si number density = 28.196457 Si / 1000 Ang^3
#
#
#
# Elastic Constant Matrix: (Units=GPa)
#
#
# Indices 1 2 3 4 5 6 
#
# 1 102.5400 9.8375 79.1002 0.0000 33.5356 0.0000
# 2 9.8375 90.9807 40.8636 0.0000 0.6058 0.0000
# 3 79.1002 40.8636 282.1626 0.0000 79.1093 0.0000
# 4 0.0000 0.0000 0.0000 32.3688 0.0000 7.2666
# 5 33.5356 0.6058 79.1093 0.0000 92.4183 0.0000
# 6 0.0000 0.0000 0.0000 7.2666 0.0000 18.4364
#
#
#
# Elastic Compliance Matrix: (Units=1/GPa)
#
#
# Indices 1 2 3 4 5 6 
#
# 1 0.012734 -0.000021 -0.002989 0.000000 -0.002063 0.000000
# 2 -0.000021 0.011992 -0.002251 0.000000 0.001856 0.000000
# 3 -0.002989 -0.002251 0.005789 0.000000 -0.003856 0.000000
# 4 0.000000 0.000000 0.000000 0.033893 0.000000 -0.013359
# 5 -0.002063 0.001856 -0.003856 0.000000 0.014857 0.000000
# 6 0.000000 0.000000 0.000000 -0.013359 0.000000 0.059506
#
#
# Mechanical properties :
#
#
# Convention : Reuss Voigt Hill
#
# Bulk Modulus (GPa) = 50.01453 81.69843 65.85648
# Shear Modulus (GPa) = 32.05986 51.70349 41.88168
#
# Velocity S-wave (km/s) = 3.37563 4.28680 3.85821
# Velocity P-wave (km/s) = 5.74191 7.31709 6.57683
#
# Compressibility (1/GPa) = 0.01999419
#
# Stress axis : x y z
#
# Youngs Moduli (GPa) = 78.52836 83.38606 172.74010
#
# Poissons Ratio (x) = 0.00174 0.51625
# Poissons Ratio (y) = 0.00164 0.38889
# Poissons Ratio (z) = 0.23469 0.18773
#
# Static dielectric constant tensor:
#      x y z
#    x 2.324910 0.000000 0.115570 
#    y 0.000000 2.178470 0.000000 
#    z 0.115570 0.000000 2.200730 
# 
# From -- ./inp_files/18121.got.cif
#   From: 2010.05.17/outbox.cif.g08.bks.cpg/sg5_10_cif.got.tgz:18121.got - 2010.06.03 18:56:24.
