data_PCOD9121361
_publ_section_title
;
Structure prediction by ZEFSAII (Michael W. Deem and Ramdas Pophale) SiO2 
 PCOD9121361
Probable space group: C 2
;
_chemical_formula_sum "Si O2"
_cell_formula_units_Z 30
_cell_length_a 13.863701
_cell_length_b 18.319241
_cell_length_c 5.513116
_cell_angle_alpha 90.000000
_cell_angle_beta 68.064316
_cell_angle_gamma 90.000000
_cell_volume 1298.812015
_symmetry_space_group_name_H-M "C 2"
_symmetry_group_IT_number 5
_symmetry_cell_setting 'monoclinic'
loop_
_space_group_symop_operation_xyz
x,y,z
-x,y,-z
1/2+x,1/2+y,z
1/2-x,1/2+y,-z
loop_
_atom_site_type_symbol
_atom_site_label
_atom_site_fract_x
_atom_site_fract_y
_atom_site_fract_z
Si Si1 0.167963 0.605750 0.249445
Si Si2 0.146853 0.992198 0.926909
Si Si3 0.731081 0.759127 0.804159
Si Si4 0.105948 0.063931 0.464492
Si Si5 0.850796 0.575212 0.232392
Si Si6 0.724100 0.341679 0.735630
Si Si7 0.000000 0.311543 0.000000
Si Si8 0.577625 0.933080 0.605549
O O1 0.237831 0.531235 0.182780
O O2 0.242997 0.674968 0.186655
O O3 0.110674 0.609729 0.556701
O O4 0.107254 0.604377 0.056935
O O5 0.095643 0.033857 0.746894
O O6 0.143240 0.907463 0.857180
O O7 0.109334 0.005874 0.237588
O O8 0.781039 0.794085 0.509420
O O9 0.766795 0.797850 0.021027
O O10 0.606742 0.768049 0.899518
O O11 0.000000 0.108648 0.500000
O O12 0.225306 0.092525 0.344072
O O13 0.875217 0.488977 0.241073
O O14 0.827776 0.389476 0.598147
O O15 0.994204 0.368854 0.223776
O O16 0.500000 0.974966 0.500000
#
# Coordination Sequence:
#
# PCOD9121361 Si02
#       8
#     4   4   4   4   4   4   2   4
#     4  10  21  39  57  83 124 168 203 256 303 375
#     4  10  20  36  59  84 119 154 210 257 298 364
#     4  11  23  38  56  90 130 169 204 245 327 391
#     4  10  19  33  54  85 115 148 195 256 306 350
#     4  10  22  37  60  86 124 163 215 253 310 369
#     4  11  21  37  60  87 125 161 206 253 310 384
#     4  10  24  34  58  94 138 164 202 250 334 396
#     4  11  21  36  62  93 132 159 211 267 315 373
#
# _framework density 23.098027999999999
#
# number of rings (size 3 to 8) (size 9 to 14) (size 15 to 20)
#    0.000    1.600    4.000    2.000    7.467    0.000 
#    9.600    0.000    0.000    0.000    0.000   14.000 
#    0.000    0.000    0.000    0.000    0.000    0.000 
#
# Total GULP energy -83601.637012 kJ/mol
# GULP energy per Si atom -5573.442467 kJ/mol
# Density = 2.304546 g / cm^3
# Si number density = 23.098028 Si / 1000 Ang^3
#
#
#
# Elastic Constant Matrix: (Units=GPa)
#
#
# Indices 1 2 3 4 5 6 
#
# 1 72.6839 8.6524 36.8991 0.0000 14.6887 0.0000
# 2 8.6524 92.1705 35.4867 0.0000 9.9022 0.0000
# 3 36.8991 35.4867 180.0347 0.0000 41.5097 0.0000
# 4 0.0000 0.0000 0.0000 25.6425 0.0000 13.3434
# 5 14.6887 9.9022 41.5097 0.0000 42.1616 0.0000
# 6 0.0000 0.0000 0.0000 13.3434 0.0000 -3.0404
#
#
#
# Elastic Compliance Matrix: (Units=1/GPa)
#
#
# Indices 1 2 3 4 5 6 
#
# 1 0.015641 -0.000194 -0.002486 0.000000 -0.002956 0.000000
# 2 -0.000194 0.011755 -0.002143 0.000000 -0.000584 0.000000
# 3 -0.002486 -0.002143 0.007983 0.000000 -0.006490 0.000000
# 4 0.000000 0.000000 0.000000 0.011876 0.000000 0.052120
# 5 -0.002956 -0.000584 -0.006490 0.000000 0.031275 0.000000
# 6 0.000000 0.000000 0.000000 0.052120 0.000000 -0.100162
#
#
# Mechanical properties :
#
#
# Convention : Reuss Voigt Hill
#
# Bulk Modulus (GPa) = 38.85889 56.32948 47.59419
# Shear Modulus (GPa) = -1466.59767 30.54280 -718.02743
#
# Velocity S-wave (km/s) = -25.22545 3.64031 -17.65038
# Velocity P-wave (km/s) = 28.83698 6.48916 19.86784
#
# Compressibility (1/GPa) = 0.02573414
#
# Stress axis : x y z
#
# Youngs Moduli (GPa) = 63.93588 85.06763 125.27075
#
# Poissons Ratio (x) = 0.01647 0.31141
# Poissons Ratio (y) = 0.01238 0.26843
# Poissons Ratio (z) = 0.15894 0.18229
#
# Static dielectric constant tensor:
#      x y z
#    x 1.933070 0.000000 -0.015800 
#    y 0.000000 1.819910 0.000000 
#    z -0.015800 0.000000 2.040660 
# 
# From -- ./inp_files/7199.got.cif
#   From: 2010.05.17/outbox.cif.g08.bks.cpg/sg5_4_cif.got.tgz:7199.got - 2010.06.03 18:56:24.
