data_PCOD9121981
_publ_section_title
;
Structure prediction by ZEFSAII (Michael W. Deem and Ramdas Pophale) SiO2 
 PCOD9121981
Probable space group: C 2
;
_chemical_formula_sum "Si O2"
_cell_formula_units_Z 24
_cell_length_a 8.006301
_cell_length_b 14.307536
_cell_length_c 9.129090
_cell_angle_alpha 90.000000
_cell_angle_beta 104.864241
_cell_angle_gamma 90.000000
_cell_volume 1010.746976
_symmetry_space_group_name_H-M "C 2"
_symmetry_group_IT_number 5
_symmetry_cell_setting 'monoclinic'
loop_
_space_group_symop_operation_xyz
x,y,z
-x,y,-z
1/2+x,1/2+y,z
1/2-x,1/2+y,-z
loop_
_atom_site_type_symbol
_atom_site_label
_atom_site_fract_x
_atom_site_fract_y
_atom_site_fract_z
Si Si1 0.680367 0.825550 0.746267
Si Si2 0.198649 0.036333 0.569968
Si Si3 0.213997 0.646067 0.698398
Si Si4 0.781414 0.331027 0.578328
Si Si5 0.621543 0.640615 0.838900
Si Si6 0.851502 0.512913 0.082365
O O1 0.482009 0.806627 0.651802
O O2 0.768531 0.828388 0.605447
O O3 0.707663 0.743070 0.871689
O O4 0.699519 0.924036 0.831983
O O5 0.278701 0.937827 0.630772
O O6 0.000000 0.009358 0.500000
O O7 0.283079 0.082014 0.446216
O O8 0.180733 0.113671 0.689063
O O9 0.178245 0.752359 0.644558
O O10 0.413786 0.643193 0.800972
O O11 0.096839 0.595693 0.792452
O O12 0.697851 0.558957 0.955040
O O13 0.000000 0.489168 0.000000
#
# Coordination Sequence:
#
# PCOD9121981 Si02
#       6
#     4   4   4   4   4   4
#     4  10  21  39  67  89 121 170 215 257 306 375
#     4  10  19  37  63  95 124 160 214 266 311 360
#     4  10  21  41  67  90 122 172 216 252 307 377
#     4  10  19  39  67  95 119 163 220 263 303 370
#     4  10  22  41  65  89 128 170 212 256 308 390
#     4  12  25  41  59  99 135 164 202 260 329 373
#
# _framework density 23.744814999999999
#
# number of rings (size 3 to 8) (size 9 to 14) (size 15 to 20)
#    0.000    1.667    3.333    1.500    0.000    4.000 
#    3.000    1.667    0.000    0.000    0.000    0.000 
#    0.000    0.000    0.000    0.000    0.000    0.000 
#
# Total GULP energy -67035.139189 kJ/mol
# GULP energy per Si atom -5586.261599 kJ/mol
# Density = 2.369077 g / cm^3
# Si number density = 23.744815 Si / 1000 Ang^3
#
#
#
# Elastic Constant Matrix: (Units=GPa)
#
#
# Indices 1 2 3 4 5 6 
#
# 1 36.0058 -9.3747 1.2466 0.0000 4.6454 0.0000
# 2 -9.3747 120.2501 -3.5178 0.0000 4.8609 0.0000
# 3 1.2466 -3.5178 52.8630 0.0000 -3.2487 0.0000
# 4 0.0000 0.0000 0.0000 37.5396 0.0000 4.1483
# 5 4.6454 4.8609 -3.2487 0.0000 25.5898 0.0000
# 6 0.0000 0.0000 0.0000 4.1483 0.0000 22.1780
#
#
#
# Elastic Compliance Matrix: (Units=1/GPa)
#
#
# Indices 1 2 3 4 5 6 
#
# 1 0.029212 0.002489 -0.000885 0.000000 -0.005888 0.000000
# 2 0.002489 0.008604 0.000389 0.000000 -0.002037 0.000000
# 3 -0.000885 0.000389 0.019118 0.000000 0.002514 0.000000
# 4 0.000000 0.000000 0.000000 0.027201 0.000000 -0.005088
# 5 -0.005888 -0.002037 0.002514 0.000000 0.040853 0.000000
# 6 0.000000 0.000000 0.000000 -0.005088 0.000000 0.046041
#
#
# Mechanical properties :
#
#
# Convention : Reuss Voigt Hill
#
# Bulk Modulus (GPa) = 16.41504 20.64747 18.53125
# Shear Modulus (GPa) = 26.68813 31.77913 29.23363
#
# Velocity S-wave (km/s) = 3.35618 3.66233 3.51259
# Velocity P-wave (km/s) = 4.68473 5.15732 4.92670
#
# Compressibility (1/GPa) = 0.06091975
#
# Stress axis : x y z
#
# Youngs Moduli (GPa) = 34.23277 116.22785 52.30661
#
# Poissons Ratio (x) = -0.28935 0.04629
# Poissons Ratio (y) = -0.08522 -0.02033
# Poissons Ratio (z) = 0.03030 -0.04517
#
# Static dielectric constant tensor:
#      x y z
#    x 1.913250 0.000000 0.019360 
#    y 0.000000 1.949860 0.000000 
#    z 0.019360 0.000000 1.953800 
# 
# From -- ./inp_files/14947.got.cif
#   From: 2010.05.17/outbox.cif.g08.bks.cpg/sg5_8_cif.got.tgz:14947.got - 2010.06.03 18:56:24.
