data_PCOD9121899
_publ_section_title
;
Structure prediction by ZEFSAII (Michael W. Deem and Ramdas Pophale) SiO2 
 PCOD9121899
Probable space group: C 2
;
_chemical_formula_sum "Si O2"
_cell_formula_units_Z 28
_cell_length_a 20.035455
_cell_length_b 9.658916
_cell_length_c 14.970983
_cell_angle_alpha 90.000000
_cell_angle_beta 28.143098
_cell_angle_gamma 90.000000
_cell_volume 1366.535873
_symmetry_space_group_name_H-M "C 2"
_symmetry_group_IT_number 5
_symmetry_cell_setting 'monoclinic'
loop_
_space_group_symop_operation_xyz
x,y,z
-x,y,-z
1/2+x,1/2+y,z
1/2-x,1/2+y,-z
loop_
_atom_site_type_symbol
_atom_site_label
_atom_site_fract_x
_atom_site_fract_y
_atom_site_fract_z
Si Si1 0.642052 0.768580 0.536999
Si Si2 0.090904 0.937738 0.066593
Si Si3 0.785506 0.960381 0.717914
Si Si4 0.768581 0.036827 0.431079
Si Si5 0.853642 0.728300 0.132182
Si Si6 0.553324 0.545027 0.295428
Si Si7 0.162119 0.165884 0.837411
O O1 0.723472 0.657083 0.504041
O O2 0.727535 0.782786 0.343382
O O3 0.493874 0.696554 0.685249
O O4 0.649711 0.917409 0.575945
O O5 0.124605 0.968152 0.128855
O O6 0.145334 0.791173 0.967411
O O7 0.920529 0.958230 0.259813
O O8 0.154918 0.050928 0.923103
O O9 0.737273 0.803991 0.782726
O O10 0.657847 0.064013 0.848539
O O11 0.855146 0.027493 0.724042
O O12 0.903143 0.975761 0.501491
O O13 0.764598 0.108317 0.338693
O O14 0.000000 0.780673 0.000000
O O15 0.000000 0.196417 0.000000
#
# Coordination Sequence:
#
# PCOD9121899 Si02
#       7
#     4   4   4   4   4   4   4
#     4  10  20  35  60  85 116 152 192 235 291 352
#     4  10  19  37  58  81 119 150 181 238 299 342
#     4  10  22  38  59  80 116 154 196 238 277 343
#     4  10  20  34  58  91 118 151 186 241 298 343
#     4  11  19  34  59  86 112 145 191 238 293 338
#     4   9  22  40  58  78 115 160 193 228 286 342
#     4  10  20  36  59  88 118 145 188 244 295 339
#
# _framework density 20.489767000000001
#
# number of rings (size 3 to 8) (size 9 to 14) (size 15 to 20)
#    0.000    2.000    2.857    0.857    6.000    1.143 
#    2.571    0.000    6.286    0.000    0.000    0.000 
#    0.000    0.000    0.000    0.000    0.000    0.000 
#
# Total GULP energy -78087.248108 kJ/mol
# GULP energy per Si atom -5577.660579 kJ/mol
# Density = 2.044313 g / cm^3
# Si number density = 20.489767 Si / 1000 Ang^3
#
#
#
# Elastic Constant Matrix: (Units=GPa)
#
#
# Indices 1 2 3 4 5 6 
#
# 1 72.4521 19.1582 17.4187 0.0000 23.9149 0.0000
# 2 19.1582 93.1076 12.2895 0.0000 -1.9887 0.0000
# 3 17.4187 12.2895 43.1547 0.0000 19.2940 0.0000
# 4 0.0000 0.0000 0.0000 27.1248 0.0000 5.7309
# 5 23.9149 -1.9887 19.2940 0.0000 30.4194 0.0000
# 6 0.0000 0.0000 0.0000 5.7309 0.0000 21.5790
#
#
#
# Elastic Compliance Matrix: (Units=1/GPa)
#
#
# Indices 1 2 3 4 5 6 
#
# 1 0.020403 -0.004626 0.000543 0.000000 -0.016687 0.000000
# 2 -0.004626 0.012538 -0.005159 0.000000 0.007729 0.000000
# 3 0.000543 -0.005159 0.034566 0.000000 -0.022688 0.000000
# 4 0.000000 0.000000 0.000000 0.039058 0.000000 -0.010373
# 5 -0.016687 0.007729 -0.022688 0.000000 0.060888 0.000000
# 6 0.000000 0.000000 0.000000 -0.010373 0.000000 0.049096
#
#
# Mechanical properties :
#
#
# Convention : Reuss Voigt Hill
#
# Bulk Modulus (GPa) = 20.39874 34.04969 27.22421
# Shear Modulus (GPa) = 19.89059 26.48119 23.18589
#
# Velocity S-wave (km/s) = 3.11908 3.59891 3.36755
# Velocity P-wave (km/s) = 4.79048 5.82439 5.33255
#
# Compressibility (1/GPa) = 0.04902264
#
# Stress axis : x y z
#
# Youngs Moduli (GPa) = 49.01217 79.75640 28.93016
#
# Poissons Ratio (x) = 0.36897 -0.01570
# Poissons Ratio (y) = 0.22674 0.14924
# Poissons Ratio (z) = -0.02660 0.41144
#
# Static dielectric constant tensor:
#      x y z
#    x 1.746740 0.000000 0.009240 
#    y 0.000000 1.739480 0.000000 
#    z 0.009240 0.000000 1.716430 
# 
# From -- ./inp_files/46059.got.cif
#   From: 2010.05.17/outbox.cif.g08.bks.cpg/sg5_24_cif.got.tgz:46059.got - 2010.06.03 18:56:24.
