data_PCOD9121285
_publ_section_title
;
Structure prediction by ZEFSAII (Michael W. Deem and Ramdas Pophale) SiO2 
 PCOD9121285
Probable space group: C 2
;
_chemical_formula_sum "Si O2"
_cell_formula_units_Z 24
_cell_length_a 27.846414
_cell_length_b 5.437801
_cell_length_c 10.006410
_cell_angle_alpha 90.000000
_cell_angle_beta 125.224587
_cell_angle_gamma 90.000000
_cell_volume 1237.765650
_symmetry_space_group_name_H-M "C 2"
_symmetry_group_IT_number 5
_symmetry_cell_setting 'monoclinic'
loop_
_space_group_symop_operation_xyz
x,y,z
-x,y,-z
1/2+x,1/2+y,z
1/2-x,1/2+y,-z
loop_
_atom_site_type_symbol
_atom_site_label
_atom_site_fract_x
_atom_site_fract_y
_atom_site_fract_z
Si Si1 0.751052 0.470220 0.690228
Si Si2 0.735415 0.293987 0.052085
Si Si3 0.665372 0.238018 0.368862
Si Si4 0.032633 0.601706 0.197142
Si Si5 0.015684 0.108882 0.866250
Si Si6 0.847466 0.073521 0.911450
O O1 0.736023 0.694442 0.764403
O O2 0.692241 0.339770 0.548171
O O3 0.785189 0.560863 0.613295
O O4 0.799517 0.291453 0.835328
O O5 0.671822 0.381846 0.004334
O O6 0.762956 0.545691 0.035619
O O7 0.602008 0.118933 0.285349
O O8 0.657372 0.445056 0.241478
O O9 0.016599 0.347553 0.241708
O O10 0.007718 0.848626 0.224574
O O11 0.000000 0.592255 0.000000
O O12 0.085203 0.145854 0.963288
O O13 0.000000 0.097552 0.000000
#
# Coordination Sequence:
#
# PCOD9121285 Si02
#       6
#     4   4   4   4   4   4
#     4  11  22  35  60  89 129 164 198 247 318 374
#     4  11  24  43  60  85 121 164 223 259 292 356
#     4  11  21  33  54  93 133 163 189 240 317 393
#     4  10  19  32  49  76 126 160 189 225 280 378
#     4  10  19  32  52  80 119 159 193 233 291 365
#     4  11  21  37  60  87 127 162 199 254 309 365
#
# _framework density 19.389778
#
# number of rings (size 3 to 8) (size 9 to 14) (size 15 to 20)
#    0.000    1.333    6.667    2.000    2.333    0.000 
#    0.000    0.000    0.000    0.000    0.000    1.167 
#   10.000    0.000    0.000    0.000    0.000    0.000 
#
# Total GULP energy -66874.050812 kJ/mol
# GULP energy per Si atom -5572.837568 kJ/mol
# Density = 1.934565 g / cm^3
# Si number density = 19.389778 Si / 1000 Ang^3
#
#
#
# Elastic Constant Matrix: (Units=GPa)
#
#
# Indices 1 2 3 4 5 6 
#
# 1 74.5558 24.1106 35.0507 0.0000 2.4232 0.0000
# 2 24.1106 110.7111 -0.3613 0.0000 -9.9057 0.0000
# 3 35.0507 -0.3613 32.4298 0.0000 11.1892 0.0000
# 4 0.0000 0.0000 0.0000 40.8463 0.0000 4.1017
# 5 2.4232 -9.9057 11.1892 0.0000 13.1759 0.0000
# 6 0.0000 0.0000 0.0000 4.1017 0.0000 3.8070
#
#
#
# Elastic Compliance Matrix: (Units=1/GPa)
#
#
# Indices 1 2 3 4 5 6 
#
# 1 0.040677 -0.005811 -0.056494 0.000000 0.036127 0.000000
# 2 -0.005811 0.010787 0.004574 0.000000 0.005294 0.000000
# 3 -0.056494 0.004574 0.123304 0.000000 -0.090884 0.000000
# 4 0.000000 0.000000 0.000000 0.027452 0.000000 -0.029578
# 5 0.036127 0.005294 -0.090884 0.000000 0.150413 0.000000
# 6 0.000000 0.000000 0.000000 -0.029578 0.000000 0.294543
#
#
# Mechanical properties :
#
#
# Convention : Reuss Voigt Hill
#
# Bulk Modulus (GPa) = 16.86158 37.25520 27.05839
# Shear Modulus (GPa) = 6.39053 22.15893 14.27473
#
# Velocity S-wave (km/s) = 1.81741 3.38422 2.71624
# Velocity P-wave (km/s) = 3.62201 5.87590 4.88084
#
# Compressibility (1/GPa) = 0.05930641
#
# Stress axis : x y z
#
# Youngs Moduli (GPa) = 24.58380 92.70830 8.11001
#
# Poissons Ratio (x) = 0.53869 0.45817
# Poissons Ratio (y) = 0.14285 -0.03709
# Poissons Ratio (z) = 1.38884 -0.42404
#
# Static dielectric constant tensor:
#      x y z
#    x 1.683320 0.000000 -0.022280 
#    y 0.000000 1.806130 0.000000 
#    z -0.022280 0.000000 1.667080 
# 
# From -- ./inp_files/45294.got.cif
#   From: 2010.05.17/outbox.cif.g08.bks.cpg/sg5_23_cif.got.tgz:45294.got - 2010.06.03 18:56:24.
