data_PCOD9121139
_publ_section_title
;
Structure prediction by ZEFSAII (Michael W. Deem and Ramdas Pophale) SiO2 
 PCOD9121139
Probable space group: C 2
;
_chemical_formula_sum "Si O2"
_cell_formula_units_Z 24
_cell_length_a 8.512435
_cell_length_b 14.922544
_cell_length_c 12.863673
_cell_angle_alpha 90.000000
_cell_angle_beta 138.075595
_cell_angle_gamma 90.000000
_cell_volume 1091.780510
_symmetry_space_group_name_H-M "C 2"
_symmetry_group_IT_number 5
_symmetry_cell_setting 'monoclinic'
loop_
_space_group_symop_operation_xyz
x,y,z
-x,y,-z
1/2+x,1/2+y,z
1/2-x,1/2+y,-z
loop_
_atom_site_type_symbol
_atom_site_label
_atom_site_fract_x
_atom_site_fract_y
_atom_site_fract_z
Si Si1 0.253937 0.260210 0.356367
Si Si2 0.853298 0.684627 0.092328
Si Si3 0.120612 0.571261 0.697378
Si Si4 0.872754 0.999058 0.634035
Si Si5 0.151267 0.171919 0.759826
Si Si6 0.222410 0.363388 0.154120
O O1 0.500000 0.304993 0.500000
O O2 0.336528 0.168096 0.338990
O O3 0.130684 0.328102 0.219111
O O4 0.078190 0.234680 0.361080
O O5 0.763797 0.773559 0.106298
O O6 0.834819 0.599447 0.161584
O O7 0.126656 0.697170 0.198418
O O8 0.722298 0.672378 0.917603
O O9 0.866901 0.524960 0.547409
O O10 0.301929 0.511770 0.720804
O O11 0.058714 0.073771 0.689753
O O12 0.027269 0.910084 0.708147
O O13 0.000000 0.418382 0.000000
#
# Coordination Sequence:
#
# PCOD9121139 Si02
#       6
#     4   4   4   4   4   4
#     4  10  18  40  64  85 120 171 206 252 301 374
#     4  10  22  39  65  92 117 169 216 254 304 376
#     4   9  19  41  64  83 121 165 209 252 306 377
#     4  10  21  40  60  90 126 159 206 262 317 365
#     4  10  20  40  65  90 123 160 221 254 297 387
#     4  11  23  40  62  90 130 165 203 262 318 363
#
# _framework density 21.982438999999999
#
# number of rings (size 3 to 8) (size 9 to 14) (size 15 to 20)
#    0.000    2.000    5.000    0.000    2.333    0.667 
#    9.000    3.333    0.000    0.000    0.000    0.000 
#    0.000    0.000    0.000    0.000    0.000    0.000 
#
# Total GULP energy -66813.000524 kJ/mol
# GULP energy per Si atom -5567.750044 kJ/mol
# Density = 2.193241 g / cm^3
# Si number density = 21.982439 Si / 1000 Ang^3
#
#
#
# Elastic Constant Matrix: (Units=GPa)
#
#
# Indices 1 2 3 4 5 6 
#
# 1 72.4734 7.0370 20.1150 0.0000 13.0559 0.0000
# 2 7.0370 43.3949 24.3432 0.0000 2.7385 0.0000
# 3 20.1150 24.3432 51.5097 -0.0001 30.2479 0.0000
# 4 0.0000 0.0000 -0.0001 21.1686 0.0000 11.7019
# 5 13.0559 2.7385 30.2479 0.0000 32.4907 0.0000
# 6 0.0000 0.0000 0.0000 11.7019 0.0000 18.7155
#
#
#
# Elastic Compliance Matrix: (Units=1/GPa)
#
#
# Indices 1 2 3 4 5 6 
#
# 1 0.015524 0.001016 -0.006240 0.000000 -0.000514 0.000000
# 2 0.001016 0.043882 -0.041304 0.000000 0.034346 0.000000
# 3 -0.006240 -0.041304 0.083506 0.000000 -0.071753 0.000000
# 4 0.000000 0.000000 0.000000 0.072192 0.000000 -0.045138
# 5 -0.000514 0.034346 -0.071753 0.000000 0.094890 0.000000
# 6 0.000000 0.000000 0.000000 -0.045138 0.000000 0.081654
#
#
# Mechanical properties :
#
#
# Convention : Reuss Voigt Hill
#
# Bulk Modulus (GPa) = 20.05827 30.04092 25.04960
# Shear Modulus (GPa) = 9.97359 22.20049 16.08704
#
# Velocity S-wave (km/s) = 2.13235 3.18137 2.70814
# Velocity P-wave (km/s) = 3.89962 5.21444 4.60421
#
# Compressibility (1/GPa) = 0.04985475
#
# Stress axis : x y z
#
# Youngs Moduli (GPa) = 64.41556 22.78821 11.97516
#
# Poissons Ratio (x) = -0.02315 0.07473
# Poissons Ratio (y) = -0.06543 0.49462
# Poissons Ratio (z) = 0.40198 0.94125
#
# Static dielectric constant tensor:
#      x y z
#    x 1.789020 0.000000 -0.035040 
#    y 0.000000 1.818060 0.000000 
#    z -0.035040 0.000000 1.910190 
# 
# From -- ./inp_files/14922.got.cif
#   From: 2010.05.17/outbox.cif.g08.bks.cpg/sg5_8_cif.got.tgz:14922.got - 2010.06.03 18:56:24.
