data_PCOD9121315
_publ_section_title
;
Structure prediction by ZEFSAII (Michael W. Deem and Ramdas Pophale) SiO2 
 PCOD9121315
Probable space group: C 2
;
_chemical_formula_sum "Si O2"
_cell_formula_units_Z 30
_cell_length_a 8.442750
_cell_length_b 21.340060
_cell_length_c 9.891234
_cell_angle_alpha 90.000000
_cell_angle_beta 78.882430
_cell_angle_gamma 90.000000
_cell_volume 1748.648196
_symmetry_space_group_name_H-M "C 2"
_symmetry_group_IT_number 5
_symmetry_cell_setting 'monoclinic'
loop_
_space_group_symop_operation_xyz
x,y,z
-x,y,-z
1/2+x,1/2+y,z
1/2-x,1/2+y,-z
loop_
_atom_site_type_symbol
_atom_site_label
_atom_site_fract_x
_atom_site_fract_y
_atom_site_fract_z
Si Si1 0.793306 0.443870 0.955754
Si Si2 0.942456 0.590494 0.659847
Si Si3 0.612677 0.519645 0.769797
Si Si4 0.866459 0.828061 0.906057
Si Si5 0.850299 0.681953 0.916090
Si Si6 0.500000 0.618510 0.000000
Si Si7 0.579118 0.416264 0.350983
Si Si8 0.376607 0.983332 0.223945
O O1 0.657544 0.469158 0.878636
O O2 0.956420 0.450865 0.845464
O O3 0.771400 0.374249 0.014650
O O4 0.795752 0.488561 0.088124
O O5 0.778227 0.548673 0.683015
O O6 0.904176 0.646276 0.770460
O O7 0.000000 0.607890 0.500000
O O8 0.077856 0.546902 0.708899
O O9 0.513068 0.479775 0.678917
O O10 0.523070 0.575369 0.863144
O O11 0.826157 0.755741 0.892789
O O12 0.927881 0.863288 0.762316
O O13 0.000000 0.829714 0.000000
O O14 0.672533 0.654834 0.985773
O O15 0.000000 0.673761 0.000000
O O16 0.500000 0.392877 0.500000
O O17 0.763908 0.438875 0.331119
#
# Coordination Sequence:
#
# PCOD9121315 Si02
#       8
#     4   4   4   4   4   2   4   4
#     4   9  17  32  55  79 104 134 174 223 270 313
#     4  10  21  36  52  76 112 144 174 216 271 329
#     4  10  19  32  55  78 109 139 167 221 280 316
#     4  10  19  37  55  76 104 140 180 222 262 312
#     4  10  24  36  58  81 104 147 190 224 266 314
#     4  10  20  36  56  84 108 138 180 232 270 314
#     4  11  21  32  53  83 109 139 173 215 271 331
#     4   9  19  29  52  83 105 133 170 217 270 319
#
# _framework density 17.156109000000001
#
# number of rings (size 3 to 8) (size 9 to 14) (size 15 to 20)
#    0.000    2.133    1.333    2.400    7.467    2.667 
#    0.000    0.000    0.000    0.000    0.000    0.000 
#    0.000    0.000    0.000    0.000    0.000    0.000 
#
# Total GULP energy -83564.228980 kJ/mol
# GULP energy per Si atom -5570.948599 kJ/mol
# Density = 1.711706 g / cm^3
# Si number density = 17.156109 Si / 1000 Ang^3
#
#
#
# Elastic Constant Matrix: (Units=GPa)
#
#
# Indices 1 2 3 4 5 6 
#
# 1 62.0315 34.3086 31.8773 0.0000 -7.7946 0.0000
# 2 34.3086 109.9535 50.6197 0.0000 -1.3154 0.0000
# 3 31.8773 50.6197 102.2690 0.0000 -19.8067 0.0000
# 4 0.0000 0.0000 0.0000 10.7241 0.0000 4.2057
# 5 -7.7946 -1.3154 -19.8067 0.0000 21.7251 0.0000
# 6 0.0000 0.0000 0.0000 4.2057 0.0000 23.4067
#
#
#
# Elastic Compliance Matrix: (Units=1/GPa)
#
#
# Indices 1 2 3 4 5 6 
#
# 1 0.021123 -0.005041 -0.003255 0.000000 0.004306 0.000000
# 2 -0.005041 0.013568 -0.006480 0.000000 -0.006895 0.000000
# 3 -0.003255 -0.006480 0.016635 0.000000 0.013606 0.000000
# 4 0.000000 0.000000 0.000000 0.100317 0.000000 -0.018025
# 5 0.004306 -0.006895 0.013606 0.000000 0.059562 0.000000
# 6 0.000000 0.000000 0.000000 -0.018025 0.000000 0.045962
#
#
# Mechanical properties :
#
#
# Convention : Reuss Voigt Hill
#
# Bulk Modulus (GPa) = 45.92515 56.42947 51.17731
# Shear Modulus (GPa) = 17.00816 21.66774 19.33795
#
# Velocity S-wave (km/s) = 3.15203 3.55769 3.36099
# Velocity P-wave (km/s) = 6.33041 7.05970 6.70498
#
# Compressibility (1/GPa) = 0.02177456
#
# Stress axis : x y z
#
# Youngs Moduli (GPa) = 47.34270 73.70082 60.11340
#
# Poissons Ratio (x) = 0.37151 0.19567
# Poissons Ratio (y) = 0.23865 0.38953
# Poissons Ratio (z) = 0.15410 0.47758
#
# Static dielectric constant tensor:
#      x y z
#    x 1.641780 0.000000 0.002490 
#    y 0.000000 1.573690 0.000000 
#    z 0.002490 0.000000 1.580480 
# 
# From -- ./inp_files/16791.got.cif
#   From: 2010.05.17/outbox.cif.g08.bks.cpg/sg5_9_cif.got.tgz:16791.got - 2010.06.03 18:56:24.
