data_PCOD9121611
_publ_section_title
;
Structure prediction by ZEFSAII (Michael W. Deem and Ramdas Pophale) SiO2 
 PCOD9121611
Probable space group: C 2
;
_chemical_formula_sum "Si O2"
_cell_formula_units_Z 32
_cell_length_a 28.551162
_cell_length_b 9.868301
_cell_length_c 11.526529
_cell_angle_alpha 90.000000
_cell_angle_beta 33.638760
_cell_angle_gamma 90.000000
_cell_volume 1799.032959
_symmetry_space_group_name_H-M "C 2"
_symmetry_group_IT_number 5
_symmetry_cell_setting 'monoclinic'
loop_
_space_group_symop_operation_xyz
x,y,z
-x,y,-z
1/2+x,1/2+y,z
1/2-x,1/2+y,-z
loop_
_atom_site_type_symbol
_atom_site_label
_atom_site_fract_x
_atom_site_fract_y
_atom_site_fract_z
Si Si1 0.939732 0.827810 0.386359
Si Si2 0.809851 0.218521 0.228557
Si Si3 0.770434 0.775061 0.856851
Si Si4 0.558784 0.481913 0.989963
Si Si5 0.349374 0.004119 0.800386
Si Si6 0.131731 0.723683 0.712050
Si Si7 0.004758 0.548128 0.320543
Si Si8 0.063014 0.446208 0.960396
O O1 0.855387 0.851135 0.635163
O O2 0.910706 0.764039 0.322835
O O3 0.990811 0.709602 0.345347
O O4 0.998728 0.950380 0.224099
O O5 0.777370 0.228303 0.162721
O O6 0.729906 0.209988 0.479141
O O7 0.860860 0.352833 0.156490
O O8 0.872812 0.094080 0.119897
O O9 0.799529 0.641203 0.867385
O O10 0.712930 0.878552 0.048552
O O11 0.606482 0.343205 0.852809
O O12 0.500000 0.518622 0.000000
O O13 0.422212 0.986003 0.552760
O O14 0.407802 0.021816 0.793543
O O15 0.096815 0.582773 0.831133
O O16 0.011466 0.488893 0.179510
O O17 0.000000 0.375487 0.000000
#
# Coordination Sequence:
#
# PCOD9121611 Si02
#       8
#     4   4   4   4   4   4   4   4
#     4   9  18  36  61  83 111 157 195 228 280 352
#     4  11  23  35  54  88 125 146 186 246 294 334
#     4  10  22  41  59  82 113 151 198 250 286 335
#     4  10  19  36  54  82 121 157 183 226 289 355
#     4  10  22  41  61  82 113 152 201 246 287 335
#     4  10  19  35  58  82 119 157 191 221 280 358
#     4  10  19  38  63  83 110 156 199 234 279 351
#     4  12  20  36  61  89 117 155 192 230 286 357
#
# _framework density 17.787334000000001
#
# number of rings (size 3 to 8) (size 9 to 14) (size 15 to 20)
#    0.000    1.750    3.750    1.500    0.000    1.000 
#    2.250    0.000    0.000    0.000    0.000    0.000 
#    0.000    0.000    0.000    0.000    0.000    0.000 
#
# Total GULP energy -89244.998586 kJ/mol
# GULP energy per Si atom -5577.812412 kJ/mol
# Density = 1.774685 g / cm^3
# Si number density = 17.787334 Si / 1000 Ang^3
#
#
#
# Elastic Constant Matrix: (Units=GPa)
#
#
# Indices 1 2 3 4 5 6 
#
# 1 67.5723 26.9803 51.9067 0.0000 -6.9596 0.0000
# 2 26.9803 76.6715 52.8343 0.0000 -14.1562 0.0000
# 3 51.9067 52.8343 106.2868 0.0000 -10.3925 0.0000
# 4 0.0000 0.0000 0.0000 32.8360 0.0000 -11.2349
# 5 -6.9596 -14.1562 -10.3925 0.0000 26.5766 0.0000
# 6 0.0000 0.0000 0.0000 -11.2349 0.0000 30.5774
#
#
#
# Elastic Compliance Matrix: (Units=1/GPa)
#
#
# Indices 1 2 3 4 5 6 
#
# 1 0.023765 -0.000259 -0.011315 0.000000 0.001661 0.000000
# 2 -0.000259 0.021169 -0.009670 0.000000 0.007426 0.000000
# 3 -0.011315 -0.009670 0.019701 0.000000 -0.000410 0.000000
# 4 0.000000 0.000000 0.000000 0.034834 0.000000 0.012799
# 5 0.001661 0.007426 -0.000410 0.000000 0.041857 0.000000
# 6 0.000000 0.000000 0.000000 0.012799 0.000000 0.037407
#
#
# Mechanical properties :
#
#
# Convention : Reuss Voigt Hill
#
# Bulk Modulus (GPa) = 45.15327 57.10813 51.13070
# Shear Modulus (GPa) = 21.87200 25.91861 23.89531
#
# Velocity S-wave (km/s) = 3.51043 3.82139 3.66920
# Velocity P-wave (km/s) = 6.47078 7.18655 6.83803
#
# Compressibility (1/GPa) = 0.02214679
#
# Stress axis : x y z
#
# Youngs Moduli (GPa) = 42.07837 47.23967 50.75858
#
# Poissons Ratio (x) = 0.01224 0.57433
# Poissons Ratio (y) = 0.01090 0.49084
# Poissons Ratio (z) = 0.47611 0.45681
#
# Static dielectric constant tensor:
#      x y z
#    x 1.608110 0.000000 -0.003050 
#    y 0.000000 1.585960 0.000000 
#    z -0.003050 0.000000 1.615150 
# 
# From -- ./inp_files/41968.got.cif
#   From: 2010.05.17/outbox.cif.g08.bks.cpg/sg5_21_cif.got.tgz:41968.got - 2010.06.03 18:56:24.
