data_PCOD9121947
_publ_section_title
;
Structure prediction by ZEFSAII (Michael W. Deem and Ramdas Pophale) SiO2 
 PCOD9121947
Probable space group: C 2
;
_chemical_formula_sum "Si O2"
_cell_formula_units_Z 30
_cell_length_a 15.522488
_cell_length_b 8.100431
_cell_length_c 17.151312
_cell_angle_alpha 90.000000
_cell_angle_beta 41.558020
_cell_angle_gamma 90.000000
_cell_volume 1430.632074
_symmetry_space_group_name_H-M "C 2"
_symmetry_group_IT_number 5
_symmetry_cell_setting 'monoclinic'
loop_
_space_group_symop_operation_xyz
x,y,z
-x,y,-z
1/2+x,1/2+y,z
1/2-x,1/2+y,-z
loop_
_atom_site_type_symbol
_atom_site_label
_atom_site_fract_x
_atom_site_fract_y
_atom_site_fract_z
Si Si1 0.172161 0.754630 0.520470
Si Si2 0.146965 0.914475 0.112837
Si Si3 0.385707 0.861405 0.698038
Si Si4 0.057750 0.105285 0.646536
Si Si5 0.122801 0.860148 0.956013
Si Si6 0.000000 0.598814 0.500000
Si Si7 0.436394 0.981009 0.964713
Si Si8 0.492231 0.074109 0.246354
O O1 0.324794 0.722529 0.403930
O O2 0.084680 0.697181 0.506274
O O3 0.132327 0.645989 0.623821
O O4 0.128106 0.939107 0.570404
O O5 0.080750 0.737264 0.173023
O O6 0.160449 0.945561 0.011406
O O7 0.051392 0.049194 0.216756
O O8 0.291465 0.914879 0.049197
O O9 0.475243 0.699159 0.635789
O O10 0.236108 0.834704 0.817227
O O11 0.405255 0.978874 0.611908
O O12 0.438297 0.956723 0.738697
O O13 0.081851 0.676137 0.007886
O O14 0.000000 0.946058 0.000000
O O15 0.518546 0.979592 0.828752
O O16 0.500000 0.909747 0.000000
#
# Coordination Sequence:
#
# PCOD9121947 Si02
#       8
#     4   4   4   4   4   2   4   4
#     4  10  22  43  64  95 128 170 222 274 331 386
#     4  10  20  38  65  94 132 169 218 270 332 391
#     4  11  21  41  63  92 131 173 216 267 332 385
#     4  11  23  42  69  92 126 178 221 265 340 395
#     4  10  21  36  63  94 132 168 217 265 330 394
#     4  10  24  40  66  96 134 166 222 278 320 396
#     4  10  19  37  61  94 128 168 217 266 323 388
#     4   9  20  38  60  86 131 170 206 275 324 388
#
# _framework density 20.969753000000001
#
# number of rings (size 3 to 8) (size 9 to 14) (size 15 to 20)
#    0.000    1.867    2.667    1.600    1.867    0.533 
#    4.800    8.667    0.000    0.000    0.000    0.000 
#    0.000    0.000    0.000    0.000    0.000    0.000 
#
# Total GULP energy -83704.566668 kJ/mol
# GULP energy per Si atom -5580.304445 kJ/mol
# Density = 2.092202 g / cm^3
# Si number density = 20.969753 Si / 1000 Ang^3
#
#
#
# Elastic Constant Matrix: (Units=GPa)
#
#
# Indices 1 2 3 4 5 6 
#
# 1 104.7460 5.9964 56.9769 0.0000 -9.0223 0.0000
# 2 5.9964 47.2398 21.7414 0.0000 -2.2232 0.0000
# 3 56.9769 21.7414 110.9713 0.0000 -5.8728 0.0000
# 4 0.0000 0.0000 0.0000 23.4093 0.0000 -2.5074
# 5 -9.0223 -2.2232 -5.8728 0.0000 35.1016 0.0000
# 6 0.0000 0.0000 0.0000 -2.5074 0.0000 13.7990
#
#
#
# Elastic Compliance Matrix: (Units=1/GPa)
#
#
# Indices 1 2 3 4 5 6 
#
# 1 0.013552 0.001689 -0.007163 0.000000 0.002392 0.000000
# 2 0.001689 0.023495 -0.005416 0.000000 0.001016 0.000000
# 3 -0.007163 -0.005416 0.013756 0.000000 0.000117 0.000000
# 4 0.000000 0.000000 0.000000 0.043566 0.000000 0.007916
# 5 0.002392 0.001016 0.000117 0.000000 0.029188 0.000000
# 6 0.000000 0.000000 0.000000 0.007916 0.000000 0.073908
#
#
# Mechanical properties :
#
#
# Convention : Reuss Voigt Hill
#
# Bulk Modulus (GPa) = 34.45536 48.04294 41.24915
# Shear Modulus (GPa) = 21.84176 26.34481 24.09328
#
# Velocity S-wave (km/s) = 3.23086 3.54831 3.39330
# Velocity P-wave (km/s) = 5.51222 6.30458 5.92167
#
# Compressibility (1/GPa) = 0.02902306
#
# Stress axis : x y z
#
# Youngs Moduli (GPa) = 73.78782 42.56254 72.69409
#
# Poissons Ratio (x) = -0.07188 0.52068
# Poissons Ratio (y) = -0.12461 0.39374
# Poissons Ratio (z) = 0.52851 0.23054
#
# Static dielectric constant tensor:
#      x y z
#    x 1.775620 0.000000 0.010960 
#    y 0.000000 1.779270 0.000000 
#    z 0.010960 0.000000 1.780740 
# 
# From -- ./inp_files/47332.got.cif
#   From: 2010.05.17/outbox.cif.g08.bks.cpg/sg5_24_cif.got.tgz:47332.got - 2010.06.03 18:56:24.
