data_PCOD9121775
_publ_section_title
;
Structure prediction by ZEFSAII (Michael W. Deem and Ramdas Pophale) SiO2 
 PCOD9121775
Probable space group: C 2
;
_chemical_formula_sum "Si O2"
_cell_formula_units_Z 30
_cell_length_a 8.045029
_cell_length_b 32.145486
_cell_length_c 5.581161
_cell_angle_alpha 90.000000
_cell_angle_beta 122.397666
_cell_angle_gamma 90.000000
_cell_volume 1218.693630
_symmetry_space_group_name_H-M "C 2"
_symmetry_group_IT_number 5
_symmetry_cell_setting 'monoclinic'
loop_
_space_group_symop_operation_xyz
x,y,z
-x,y,-z
1/2+x,1/2+y,z
1/2-x,1/2+y,-z
loop_
_atom_site_type_symbol
_atom_site_label
_atom_site_fract_x
_atom_site_fract_y
_atom_site_fract_z
Si Si1 0.795511 0.554220 0.596211
Si Si2 0.261908 0.021585 0.064906
Si Si3 0.500000 0.659891 0.000000
Si Si4 0.297298 0.308392 0.592539
Si Si5 0.379100 0.429306 0.151638
Si Si6 0.255218 0.340776 0.065614
Si Si7 0.704880 0.718027 0.542657
Si Si8 0.724632 0.634668 0.768543
O O1 0.695967 0.539589 0.272458
O O2 0.838907 0.602795 0.687152
O O3 0.004178 0.530752 0.753666
O O4 0.690238 0.543160 0.765020
O O5 0.218365 0.973354 0.988315
O O6 0.369143 0.691647 0.741470
O O7 0.667665 0.631343 0.003043
O O8 0.187046 0.321294 0.264193
O O9 0.507702 0.331522 0.749650
O O10 0.331862 0.258828 0.607466
O O11 0.199148 0.321389 0.767329
O O12 0.500000 0.432320 0.500000
O O13 0.232682 0.390373 0.061241
O O14 0.500000 0.419868 0.000000
O O15 0.500000 0.733547 0.500000
O O16 0.790027 0.681918 0.777213
O O17 0.500000 0.632128 0.500000
#
# Coordination Sequence:
#
# PCOD9121775 Si02
#       8
#     4   4   2   4   4   4   4   4
#     4  10  22  44  62  90 130 168 205 262 335 391
#     4  10  24  40  64  90 126 167 200 274 330 389
#     4   8  18  36  56  94 120 170 214 262 308 364
#     4  10  19  36  60  88 123 154 204 252 309 353
#     4  12  21  40  67  94 121 162 223 272 326 380
#     4  10  20  37  59  90 116 161 202 265 299 366
#     4   9  20  35  58  91 125 166 204 257 305 374
#     4   9  20  36  62  91 120 167 218 265 314 378
#
# _framework density 24.616520999999999
#
# number of rings (size 3 to 8) (size 9 to 14) (size 15 to 20)
#    0.000    2.400    2.667    0.800    7.467    1.600 
#    0.000    5.333    8.800    0.000    0.000    0.000 
#    0.000    0.000    0.000    0.000    0.000    0.000 
#
# Total GULP energy -83634.275249 kJ/mol
# GULP energy per Si atom -5575.618350 kJ/mol
# Density = 2.456049 g / cm^3
# Si number density = 24.616521 Si / 1000 Ang^3
#
#
#
# Elastic Constant Matrix: (Units=GPa)
#
#
# Indices 1 2 3 4 5 6 
#
# 1 79.4794 20.2345 57.8921 0.0000 -22.0163 0.0000
# 2 20.2345 185.0617 47.2282 0.0000 -28.8824 0.0000
# 3 57.8921 47.2282 193.7184 0.0000 -44.2150 0.0000
# 4 0.0000 0.0000 0.0000 31.4430 0.0000 8.9428
# 5 -22.0163 -28.8824 -44.2150 0.0000 54.1981 0.0000
# 6 0.0000 0.0000 0.0000 8.9428 0.0000 6.1624
#
#
#
# Elastic Compliance Matrix: (Units=1/GPa)
#
#
# Indices 1 2 3 4 5 6 
#
# 1 0.016561 -0.000250 -0.004157 0.000000 0.003203 0.000000
# 2 -0.000250 0.006024 -0.000841 0.000000 0.002422 0.000000
# 3 -0.004157 -0.000841 0.007522 0.000000 0.004000 0.000000
# 4 0.000000 0.000000 0.000000 0.054155 0.000000 -0.078588
# 5 0.003203 0.002422 0.004000 0.000000 0.024306 0.000000
# 6 0.000000 0.000000 0.000000 -0.078588 0.000000 0.276319
#
#
# Mechanical properties :
#
#
# Convention : Reuss Voigt Hill
#
# Bulk Modulus (GPa) = 50.99286 78.77434 64.88360
# Shear Modulus (GPa) = 12.44029 40.55438 26.49734
#
# Velocity S-wave (km/s) = 2.25047 4.06328 3.28442
# Velocity P-wave (km/s) = 5.24525 7.35416 6.38735
#
# Compressibility (1/GPa) = 0.01961059
#
# Stress axis : x y z
#
# Youngs Moduli (GPa) = 60.38379 166.01348 132.93471
#
# Poissons Ratio (x) = 0.04150 0.55264
# Poissons Ratio (y) = 0.01509 0.11179
# Poissons Ratio (z) = 0.25103 0.13961
#
# Static dielectric constant tensor:
#      x y z
#    x 2.101390 0.000000 -0.042290 
#    y 0.000000 1.926160 0.000000 
#    z -0.042290 0.000000 2.085880 
# 
# From -- ./inp_files/3975.got.cif
#   From: 2010.05.17/outbox.cif.g08.bks.cpg/sg5_2_cif.got.tgz:3975.got - 2010.06.03 18:56:24.
