data_PCOD9121106
_publ_section_title
;
Structure prediction by ZEFSAII (Michael W. Deem and Ramdas Pophale) SiO2 
 PCOD9121106
Probable space group: C 2
;
_chemical_formula_sum "Si O2"
_cell_formula_units_Z 28
_cell_length_a 10.756348
_cell_length_b 15.592617
_cell_length_c 8.623562
_cell_angle_alpha 90.000000
_cell_angle_beta 113.954619
_cell_angle_gamma 90.000000
_cell_volume 1321.763321
_symmetry_space_group_name_H-M "C 2"
_symmetry_group_IT_number 5
_symmetry_cell_setting 'monoclinic'
loop_
_space_group_symop_operation_xyz
x,y,z
-x,y,-z
1/2+x,1/2+y,z
1/2-x,1/2+y,-z
loop_
_atom_site_type_symbol
_atom_site_label
_atom_site_fract_x
_atom_site_fract_y
_atom_site_fract_z
Si Si1 0.260101 0.218940 0.517168
Si Si2 0.507264 0.315060 0.692826
Si Si3 0.075533 0.267270 0.174662
Si Si4 0.616188 0.656138 0.731099
Si Si5 0.208071 0.670847 0.906563
Si Si6 0.354866 0.052290 0.378023
Si Si7 0.044940 0.999001 0.203713
O O1 0.365952 0.271536 0.671134
O O2 0.194522 0.284911 0.358615
O O3 0.150154 0.174472 0.571597
O O4 0.334760 0.139790 0.469225
O O5 0.500000 0.311223 0.500000
O O6 0.623340 0.256141 0.827041
O O7 0.511464 0.410706 0.755812
O O8 0.149081 0.189535 0.114666
O O9 0.958239 0.237201 0.230243
O O10 0.000000 0.320093 0.000000
O O11 0.526547 0.574827 0.735147
O O12 0.755801 0.650716 0.899811
O O13 0.136318 0.590385 0.790588
O O14 0.500000 0.011912 0.500000
O O15 0.209709 0.003531 0.310045
O O16 0.000000 0.005586 0.000000
#
# Coordination Sequence:
#
# PCOD9121106 Si02
#       7
#     4   4   4   4   4   4   4
#     4  11  21  35  62  97 127 167 225 272 317 396
#     4  12  25  42  64  96 137 173 212 277 341 391
#     4   9  17  33  59  88 119 161 216 267 311 366
#     4  11  21  35  65 101 126 165 228 275 310 397
#     4  10  18  39  64  89 122 177 218 264 321 392
#     4  11  20  42  69  87 124 180 228 267 322 393
#     4  12  26  43  68  98 135 173 221 276 340 392
#
# _framework density 21.183821999999999
#
# number of rings (size 3 to 8) (size 9 to 14) (size 15 to 20)
#    0.000    1.143    8.571    0.857    4.000    0.000 
#    0.000    1.429    0.000    0.000   11.143    0.000 
#    0.000    0.000    0.000    0.000    0.000    0.000 
#
# Total GULP energy -77970.616209 kJ/mol
# GULP energy per Si atom -5569.329729 kJ/mol
# Density = 2.113561 g / cm^3
# Si number density = 21.183822 Si / 1000 Ang^3
#
#
#
# Elastic Constant Matrix: (Units=GPa)
#
#
# Indices 1 2 3 4 5 6 
#
# 1 80.2279 25.4914 45.1851 0.0000 19.6879 0.0000
# 2 25.4914 50.3918 17.1357 0.0000 4.5074 0.0000
# 3 45.1851 17.1357 115.3547 0.0000 19.1807 0.0000
# 4 0.0000 0.0000 0.0000 17.9650 0.0000 -1.9645
# 5 19.6879 4.5074 19.1807 0.0000 38.3575 0.0000
# 6 0.0000 0.0000 0.0000 -1.9645 0.0000 16.9449
#
#
#
# Elastic Compliance Matrix: (Units=1/GPa)
#
#
# Indices 1 2 3 4 5 6 
#
# 1 0.019464 -0.007418 -0.005460 0.000000 -0.006389 0.000000
# 2 -0.007418 0.023762 -0.000865 0.000000 0.001448 0.000000
# 3 -0.005460 -0.000865 0.011401 0.000000 -0.002797 0.000000
# 4 0.000000 0.000000 0.000000 0.056378 0.000000 0.006536
# 5 -0.006389 0.001448 -0.002797 0.000000 0.030578 0.000000
# 6 0.000000 0.000000 0.000000 0.006536 0.000000 0.059772
#
#
# Mechanical properties :
#
#
# Convention : Reuss Voigt Hill
#
# Bulk Modulus (GPa) = 36.84433 46.84430 41.84432
# Shear Modulus (GPa) = 21.01816 25.19764 23.10790
#
# Velocity S-wave (km/s) = 3.15331 3.45262 3.30635
# Velocity P-wave (km/s) = 5.53969 6.16890 5.86275
#
# Compressibility (1/GPa) = 0.02714122
#
# Stress axis : x y z
#
# Youngs Moduli (GPa) = 51.37560 42.08464 87.70999
#
# Poissons Ratio (x) = 0.31219 0.47891
# Poissons Ratio (y) = 0.38112 0.07584
# Poissons Ratio (z) = 0.28052 0.03639
#
# Static dielectric constant tensor:
#      x y z
#    x 1.842420 0.000000 0.060940 
#    y 0.000000 1.715200 0.000000 
#    z 0.060940 0.000000 1.896380 
# 
# From -- ./inp_files/20734.got.cif
#   From: 2010.05.17/outbox.cif.g08.bks.cpg/sg5_11_cif.got.tgz:20734.got - 2010.06.03 18:56:24.
