data_PCOD9121545
_publ_section_title
;
Structure prediction by ZEFSAII (Michael W. Deem and Ramdas Pophale) SiO2 
 PCOD9121545
Probable space group: C 2
;
_chemical_formula_sum "Si O2"
_cell_formula_units_Z 20
_cell_length_a 6.042708
_cell_length_b 19.836253
_cell_length_c 8.025497
_cell_angle_alpha 90.000000
_cell_angle_beta 57.907545
_cell_angle_gamma 90.000000
_cell_volume 814.976291
_symmetry_space_group_name_H-M "C 2"
_symmetry_group_IT_number 5
_symmetry_cell_setting 'monoclinic'
loop_
_space_group_symop_operation_xyz
x,y,z
-x,y,-z
1/2+x,1/2+y,z
1/2-x,1/2+y,-z
loop_
_atom_site_type_symbol
_atom_site_label
_atom_site_fract_x
_atom_site_fract_y
_atom_site_fract_z
Si Si1 0.500167 0.086560 0.807388
Si Si2 0.241975 0.214764 0.220245
Si Si3 0.500000 0.866467 0.000000
Si Si4 0.219878 0.455247 0.202747
Si Si5 0.561944 0.338200 0.668186
Si Si6 0.500000 0.681545 0.000000
O O1 0.736219 0.140579 0.704516
O O2 0.448870 0.023049 0.710626
O O3 0.500000 0.060847 0.000000
O O4 0.248253 0.133410 0.886901
O O5 0.269042 0.274856 0.338490
O O6 0.018281 0.219165 0.170470
O O7 0.500000 0.219235 0.000000
O O8 0.452430 0.910631 0.854301
O O9 0.779512 0.831281 0.869897
O O10 0.303502 0.407280 0.321810
O O11 0.500000 0.472075 0.000000
O O12 0.500000 0.338862 0.500000
#
# Coordination Sequence:
#
# PCOD9121545 Si02
#       6
#     4   4   2   4   4   2
#     4   9  16  29  57  93 121 157 206 262 322 377
#     4   9  19  34  59  90 122 164 210 259 318 381
#     4  10  22  41  66  90 123 166 208 268 313 378
#     4  10  19  34  62  92 123 166 211 259 320 380
#     4  11  25  41  61  92 133 170 215 258 316 381
#     4   8  16  31  58  88 121 156 208 264 307 382
#
# _framework density 24.540590000000002
#
# number of rings (size 3 to 8) (size 9 to 14) (size 15 to 20)
#    0.000    2.800    2.000    1.800    0.000    8.000 
#    0.000    0.000    8.800    0.000    0.000    0.000 
#    0.000    0.000    0.000    0.000    0.000    0.000 
#
# Total GULP energy -55861.845153 kJ/mol
# GULP energy per Si atom -5586.184515 kJ/mol
# Density = 2.448473 g / cm^3
# Si number density = 24.540590 Si / 1000 Ang^3
#
#
#
# Elastic Constant Matrix: (Units=GPa)
#
#
# Indices 1 2 3 4 5 6 
#
# 1 163.8496 83.0285 47.5584 0.0000 40.9339 0.0000
# 2 83.0285 187.2821 59.4099 0.0000 46.8380 0.0000
# 3 47.5584 59.4099 84.8522 0.0000 24.9164 0.0000
# 4 0.0000 0.0000 0.0000 -10.9077 0.0000 16.5989
# 5 40.9339 46.8380 24.9164 0.0000 60.2911 0.0000
# 6 0.0000 0.0000 0.0000 16.5989 0.0000 55.5968
#
#
#
# Elastic Compliance Matrix: (Units=1/GPa)
#
#
# Indices 1 2 3 4 5 6 
#
# 1 0.008763 -0.002355 -0.002336 0.000000 -0.003154 0.000000
# 2 -0.002355 0.008362 -0.003525 0.000000 -0.003441 0.000000
# 3 -0.002336 -0.003525 0.016267 0.000000 -0.002398 0.000000
# 4 0.000000 0.000000 0.000000 -0.063038 0.000000 0.018820
# 5 -0.003154 -0.003441 -0.002398 0.000000 0.022392 0.000000
# 6 0.000000 0.000000 0.000000 0.018820 0.000000 0.012368
#
#
# Mechanical properties :
#
#
# Convention : Reuss Voigt Hill
#
# Bulk Modulus (GPa) = 58.96219 90.66415 74.81317
# Shear Modulus (GPa) = 183.83900 37.39518 110.61709
#
# Velocity S-wave (km/s) = 8.66457 3.90783 6.72109
# Velocity P-wave (km/s) = 11.14353 7.57538 9.52798
#
# Compressibility (1/GPa) = 0.01696002
#
# Stress axis : x y z
#
# Youngs Moduli (GPa) = 114.12189 119.58745 61.47547
#
# Poissons Ratio (x) = 0.28159 0.14363
# Poissons Ratio (y) = 0.26872 0.21668
# Poissons Ratio (z) = 0.26663 0.42150
#
# Static dielectric constant tensor:
#      x y z
#    x 1.943970 0.000000 -0.023060 
#    y 0.000000 1.993970 0.000000 
#    z -0.023060 0.000000 2.026600 
# 
# From -- ./inp_files/12259.got.cif
#   From: 2010.05.17/outbox.cif.g08.bks.cpg/sg5_7_cif.got.tgz:12259.got - 2010.06.03 18:56:24.
