data_PCOD9121727
_publ_section_title
;
Structure prediction by ZEFSAII (Michael W. Deem and Ramdas Pophale) SiO2 
 PCOD9121727
Probable space group: C 2
;
_chemical_formula_sum "Si O2"
_cell_formula_units_Z 24
_cell_length_a 16.596194
_cell_length_b 7.779693
_cell_length_c 14.191415
_cell_angle_alpha 90.000000
_cell_angle_beta 35.337777
_cell_angle_gamma 90.000000
_cell_volume 1059.794465
_symmetry_space_group_name_H-M "C 2"
_symmetry_group_IT_number 5
_symmetry_cell_setting 'monoclinic'
loop_
_space_group_symop_operation_xyz
x,y,z
-x,y,-z
1/2+x,1/2+y,z
1/2-x,1/2+y,-z
loop_
_atom_site_type_symbol
_atom_site_label
_atom_site_fract_x
_atom_site_fract_y
_atom_site_fract_z
Si Si1 0.545614 0.225190 0.361116
Si Si2 0.833120 0.098176 0.743640
Si Si3 0.885043 0.562226 0.888366
Si Si4 0.107318 0.577881 0.818404
Si Si5 0.449749 0.751871 0.346265
Si Si6 0.690710 0.405197 0.524529
O O1 0.500000 0.131979 0.500000
O O2 0.616951 0.403840 0.325567
O O3 0.409454 0.267658 0.428350
O O4 0.637066 0.129627 0.196067
O O5 0.722151 0.168966 0.774868
O O6 0.753318 0.074636 0.919190
O O7 0.967189 0.211859 0.637905
O O8 0.001633 0.659476 0.842569
O O9 0.950804 0.372185 0.811586
O O10 0.206665 0.462156 0.658573
O O11 0.000000 0.500125 0.000000
O O12 0.404229 0.564274 0.352343
O O13 0.299895 0.843170 0.498191
#
# Coordination Sequence:
#
# PCOD9121727 Si02
#       6
#     4   4   4   4   4   4
#     4  11  21  37  62  90 124 162 207 260 302 373
#     4  10  20  38  64  89 120 163 215 246 304 379
#     4  10  21  38  60  92 124 162 202 258 313 363
#     4   9  18  34  58  84 116 158 204 244 296 370
#     4  10  21  35  62  88 121 161 203 254 305 363
#     4  10  19  36  56  89 118 160 206 250 309 363
#
# _framework density 22.645902
#
# number of rings (size 3 to 8) (size 9 to 14) (size 15 to 20)
#    0.000    2.000    1.667    3.000    0.000    0.000 
#    3.000    0.000    0.000    0.000    0.000    0.000 
#    0.000    0.000    0.000    0.000    0.000    0.000 
#
# Total GULP energy -66830.328027 kJ/mol
# GULP energy per Si atom -5569.194002 kJ/mol
# Density = 2.259436 g / cm^3
# Si number density = 22.645902 Si / 1000 Ang^3
#
#
#
# Elastic Constant Matrix: (Units=GPa)
#
#
# Indices 1 2 3 4 5 6 
#
# 1 125.1681 39.4527 35.4724 0.0000 -2.3268 0.0000
# 2 39.4527 42.9491 8.9278 0.0000 0.1664 0.0000
# 3 35.4724 8.9278 91.4163 0.0000 17.0257 0.0000
# 4 0.0000 0.0000 0.0000 21.8250 0.0000 -1.8866
# 5 -2.3268 0.1664 17.0257 0.0000 52.3644 0.0000
# 6 0.0000 0.0000 0.0000 -1.8866 0.0000 18.5878
#
#
#
# Elastic Compliance Matrix: (Units=1/GPa)
#
#
# Indices 1 2 3 4 5 6 
#
# 1 0.012590 -0.010698 -0.004206 0.000000 0.001961 0.000000
# 2 -0.010698 0.032882 0.001115 0.000000 -0.000943 0.000000
# 3 -0.004206 0.001115 0.013303 0.000000 -0.004516 0.000000
# 4 0.000000 0.000000 0.000000 0.046225 0.000000 0.004692
# 5 0.001961 -0.000943 -0.004516 0.000000 0.020655 0.000000
# 6 0.000000 0.000000 0.000000 0.004692 0.000000 0.054275
#
#
# Mechanical properties :
#
#
# Convention : Reuss Voigt Hill
#
# Bulk Modulus (GPa) = 32.05289 47.47103 39.76196
# Shear Modulus (GPa) = 22.94573 30.26748 26.60660
#
# Velocity S-wave (km/s) = 3.18660 3.65986 3.43140
# Velocity P-wave (km/s) = 5.26535 6.23436 5.77023
#
# Compressibility (1/GPa) = 0.03119843
#
# Stress axis : x y z
#
# Youngs Moduli (GPa) = 79.43089 30.41149 75.17131
#
# Poissons Ratio (x) = 0.32534 0.31614
# Poissons Ratio (y) = 0.84976 -0.08385
# Poissons Ratio (z) = 0.33405 -0.03392
#
# Static dielectric constant tensor:
#      x y z
#    x 1.885560 0.000000 0.003510 
#    y 0.000000 1.895640 0.000000 
#    z 0.003510 0.000000 1.853820 
# 
# From -- ./inp_files/54072.got.cif
#   From: 2010.05.17/outbox.cif.g08.bks.cpg/sg5_28_cif.got.tgz:54072.got - 2010.06.03 18:56:24.
