data_PCOD9121549
_publ_section_title
;
Structure prediction by ZEFSAII (Michael W. Deem and Ramdas Pophale) SiO2 
 PCOD9121549
Probable space group: C 2
;
_chemical_formula_sum "Si O2"
_cell_formula_units_Z 22
_cell_length_a 21.727258
_cell_length_b 8.824387
_cell_length_c 13.393835
_cell_angle_alpha 90.000000
_cell_angle_beta 23.425361
_cell_angle_gamma 90.000000
_cell_volume 1020.917450
_symmetry_space_group_name_H-M "C 2"
_symmetry_group_IT_number 5
_symmetry_cell_setting 'monoclinic'
loop_
_space_group_symop_operation_xyz
x,y,z
-x,y,-z
1/2+x,1/2+y,z
1/2-x,1/2+y,-z
loop_
_atom_site_type_symbol
_atom_site_label
_atom_site_fract_x
_atom_site_fract_y
_atom_site_fract_z
Si Si1 0.500308 0.008690 0.687983
Si Si2 0.000000 0.697228 0.500000
Si Si3 0.729422 0.081951 0.509476
Si Si4 0.243143 0.408979 0.787596
Si Si5 0.000000 0.397925 0.000000
Si Si6 0.000000 0.898087 0.000000
Si Si7 0.714525 0.726333 0.377641
O O1 0.443595 0.091305 0.673797
O O2 0.622108 0.108297 0.572515
O O3 0.593190 0.853414 0.525947
O O4 0.359683 0.968535 0.968468
O O5 0.871162 0.801482 0.641736
O O6 0.790333 0.210838 0.493908
O O7 0.609681 0.995103 0.762347
O O8 0.881747 0.995929 0.242569
O O9 0.306758 0.560940 0.638200
O O10 0.125783 0.323841 0.885568
O O11 0.112869 0.792060 0.898319
#
# Coordination Sequence:
#
# PCOD9121549 Si02
#       7
#     4   2   4   4   2   2   4
#     4  10  24  42  62  90 130 171 213 263 320 387
#     4  12  28  42  58  94 132 172 218 260 312 386
#     4   9  19  37  65  99 129 163 211 271 330 381
#     4  10  23  43  68  92 124 168 215 267 324 383
#     4   8  17  40  69  96 123 158 211 272 325 376
#     4  10  19  34  63 104 135 158 203 270 331 386
#     4  10  21  40  67  97 127 167 214 269 329 383
#
# _framework density 21.549244999999999
#
# number of rings (size 3 to 8) (size 9 to 14) (size 15 to 20)
#    0.000    2.182    0.000    3.273    0.000   16.727 
#    0.000    6.364    0.000    0.000    0.000    0.000 
#    0.000    0.000    0.000    0.000    0.000    0.000 
#
# Total GULP energy -61386.436752 kJ/mol
# GULP energy per Si atom -5580.585159 kJ/mol
# Density = 2.150020 g / cm^3
# Si number density = 21.549245 Si / 1000 Ang^3
#
#
#
# Elastic Constant Matrix: (Units=GPa)
#
#
# Indices 1 2 3 4 5 6 
#
# 1 131.5368 44.2705 28.9467 0.0000 -8.7854 0.0000
# 2 44.2705 78.1213 40.6749 0.0000 -6.6996 0.0000
# 3 28.9467 40.6749 77.8267 0.0000 11.2921 0.0000
# 4 0.0000 0.0000 0.0000 36.2615 0.0000 2.3737
# 5 -8.7854 -6.6996 11.2921 0.0000 31.1585 0.0000
# 6 0.0000 0.0000 0.0000 2.3737 0.0000 55.1774
#
#
#
# Elastic Compliance Matrix: (Units=1/GPa)
#
#
# Indices 1 2 3 4 5 6 
#
# 1 0.009593 -0.004397 -0.001610 0.000000 0.002343 0.000000
# 2 -0.004397 0.021439 -0.010616 0.000000 0.007217 0.000000
# 3 -0.001610 -0.010616 0.020470 0.000000 -0.010155 0.000000
# 4 0.000000 0.000000 0.000000 0.027655 0.000000 -0.001190
# 5 0.002343 0.007217 -0.010155 0.000000 0.037987 0.000000
# 6 0.000000 0.000000 0.000000 -0.001190 0.000000 0.018175
#
#
# Mechanical properties :
#
#
# Convention : Reuss Voigt Hill
#
# Bulk Modulus (GPa) = 54.77990 57.25212 56.01601
# Shear Modulus (GPa) = 28.62859 36.09232 32.36046
#
# Velocity S-wave (km/s) = 3.64884 4.09697 3.87938
# Velocity P-wave (km/s) = 6.57480 7.00042 6.79095
#
# Compressibility (1/GPa) = 0.01825487
#
# Stress axis : x y z
#
# Youngs Moduli (GPa) = 104.24125 46.64390 48.85252
#
# Poissons Ratio (x) = 0.20510 0.07864
# Poissons Ratio (y) = 0.45837 0.51864
# Poissons Ratio (z) = 0.16781 0.49519
#
# Static dielectric constant tensor:
#      x y z
#    x 1.786760 0.000000 0.003170 
#    y 0.000000 1.924080 0.000000 
#    z 0.003170 0.000000 1.766590 
# 
# From -- ./inp_files/52065.got.cif
#   From: 2010.05.17/outbox.cif.g08.bks.cpg/sg5_27_cif.got.tgz:52065.got - 2010.06.03 18:56:24.
