data_PCOD9121598
_publ_section_title
;
Structure prediction by ZEFSAII (Michael W. Deem and Ramdas Pophale) SiO2 
 PCOD9121598
Probable space group: C 2
;
_chemical_formula_sum "Si O2"
_cell_formula_units_Z 30
_cell_length_a 15.506403
_cell_length_b 8.586070
_cell_length_c 11.389022
_cell_angle_alpha 90.000000
_cell_angle_beta 93.465036
_cell_angle_gamma 90.000000
_cell_volume 1513.551660
_symmetry_space_group_name_H-M "C 2"
_symmetry_group_IT_number 5
_symmetry_cell_setting 'monoclinic'
loop_
_space_group_symop_operation_xyz
x,y,z
-x,y,-z
1/2+x,1/2+y,z
1/2-x,1/2+y,-z
loop_
_atom_site_type_symbol
_atom_site_label
_atom_site_fract_x
_atom_site_fract_y
_atom_site_fract_z
Si Si1 0.148058 0.629120 0.705842
Si Si2 0.436353 0.894430 0.150760
Si Si3 0.106896 0.540191 0.103829
Si Si4 0.041238 0.776152 0.257925
Si Si5 0.000000 0.298034 0.500000
Si Si6 0.765912 0.931090 0.256265
Si Si7 0.048057 0.090727 0.729623
Si Si8 0.141900 0.551697 0.440123
O O1 0.132574 0.460226 0.761307
O O2 0.218969 0.746979 0.762247
O O3 0.165237 0.615400 0.569803
O O4 0.054225 0.705874 0.724763
O O5 0.536080 0.947359 0.176974
O O6 0.442701 0.710263 0.161321
O O7 0.408945 0.978514 0.027885
O O8 0.079159 0.715695 0.136169
O O9 0.202661 0.502067 0.153267
O O10 0.101788 0.693956 0.360467
O O11 0.026283 0.960342 0.263558
O O12 0.969196 0.191244 0.389186
O O13 0.927175 0.415587 0.541418
O O14 0.859802 0.006864 0.269230
O O15 0.718886 0.974543 0.373743
#
# Coordination Sequence:
#
# PCOD9121598 Si02
#       8
#     4   4   4   4   2   4   4   4
#     4  10  19  35  57  84 116 167 200 253 309 380
#     4  10  20  41  67  84 120 165 216 253 325 377
#     4   9  20  43  65  85 115 172 209 262 313 392
#     4   9  19  37  61  87 119 159 211 250 315 378
#     4  12  22  36  62  86 130 176 206 254 320 380
#     4  10  24  36  56  91 128 155 220 259 315 376
#     4  11  23  37  58 101 128 159 210 277 315 381
#     4  11  20  39  60  84 124 174 209 248 315 392
#
# _framework density 19.820929
#
# number of rings (size 3 to 8) (size 9 to 14) (size 15 to 20)
#    0.000    1.867    2.667    1.600    5.600    1.067 
#    0.000   13.333    0.000    0.000    0.000    0.000 
#    0.000    0.000    0.000    0.000    0.000    0.000 
#
# Total GULP energy -83596.137951 kJ/mol
# GULP energy per Si atom -5573.075863 kJ/mol
# Density = 1.977582 g / cm^3
# Si number density = 19.820929 Si / 1000 Ang^3
#
#
#
# Elastic Constant Matrix: (Units=GPa)
#
#
# Indices 1 2 3 4 5 6 
#
# 1 63.0565 30.5330 2.8418 0.0000 1.1436 0.0000
# 2 30.5330 128.1079 31.1463 0.0000 -1.0809 0.0000
# 3 2.8418 31.1463 81.9531 0.0000 4.2132 0.0000
# 4 0.0000 0.0000 0.0000 21.7505 0.0000 2.5521
# 5 1.1436 -1.0809 4.2132 0.0000 19.6868 0.0000
# 6 0.0000 0.0000 0.0000 2.5521 0.0000 25.5863
#
#
#
# Elastic Compliance Matrix: (Units=1/GPa)
#
#
# Indices 1 2 3 4 5 6 
#
# 1 0.018066 -0.004612 0.001207 0.000000 -0.001561 0.000000
# 2 -0.004612 0.009806 -0.003648 0.000000 0.001587 0.000000
# 3 0.001207 -0.003648 0.013712 0.000000 -0.003205 0.000000
# 4 0.000000 0.000000 0.000000 0.046520 0.000000 -0.004640
# 5 -0.001561 0.001587 -0.003205 0.000000 0.051659 0.000000
# 6 0.000000 0.000000 0.000000 -0.004640 0.000000 0.039546
#
#
# Mechanical properties :
#
#
# Convention : Reuss Voigt Hill
#
# Bulk Modulus (GPa) = 36.39621 44.68441 40.54031
# Shear Modulus (GPa) = 24.68217 27.31116 25.99666
#
# Velocity S-wave (km/s) = 3.53265 3.71603 3.62550
# Velocity P-wave (km/s) = 5.91962 6.40350 6.16631
#
# Compressibility (1/GPa) = 0.02747539
#
# Stress axis : x y z
#
# Youngs Moduli (GPa) = 55.35222 101.98237 72.93125
#
# Poissons Ratio (x) = 0.47038 -0.08801
# Poissons Ratio (y) = 0.25531 0.26607
# Poissons Ratio (z) = -0.06680 0.37206
#
# Static dielectric constant tensor:
#      x y z
#    x 1.684620 0.000000 0.007020 
#    y 0.000000 1.758420 0.000000 
#    z 0.007020 0.000000 1.740890 
# 
# From -- ./inp_files/41744.got.cif
#   From: 2010.05.17/outbox.cif.g08.bks.cpg/sg5_21_cif.got.tgz:41744.got - 2010.06.03 18:56:24.
