data_PCOD9121422
_publ_section_title
;
Structure prediction by ZEFSAII (Michael W. Deem and Ramdas Pophale) SiO2 
 PCOD9121422
Probable space group: C 2
;
_chemical_formula_sum "Si O2"
_cell_formula_units_Z 18
_cell_length_a 17.602244
_cell_length_b 5.287537
_cell_length_c 10.376407
_cell_angle_alpha 90.000000
_cell_angle_beta 70.673636
_cell_angle_gamma 90.000000
_cell_volume 911.336642
_symmetry_space_group_name_H-M "C 2"
_symmetry_group_IT_number 5
_symmetry_cell_setting 'monoclinic'
loop_
_space_group_symop_operation_xyz
x,y,z
-x,y,-z
1/2+x,1/2+y,z
1/2-x,1/2+y,-z
loop_
_atom_site_type_symbol
_atom_site_label
_atom_site_fract_x
_atom_site_fract_y
_atom_site_fract_z
Si Si1 0.736276 0.526150 0.088328
Si Si2 0.771700 0.214792 0.298597
Si Si3 0.132261 0.336478 0.315421
Si Si4 0.641134 0.471960 0.542485
Si Si5 0.500000 0.142565 0.500000
O O1 0.787854 0.430112 0.183365
O O2 0.651997 0.621570 0.199542
O O3 0.730440 0.276649 0.002036
O O4 0.721633 0.332561 0.446049
O O5 0.844698 0.060353 0.319803
O O6 0.706725 0.029220 0.269560
O O7 0.134022 0.214355 0.455398
O O8 0.048498 0.481513 0.365897
O O9 0.565245 0.305300 0.542436
#
# Coordination Sequence:
#
# PCOD9121422 Si02
#       5
#     4   4   4   4   2
#     4  11  22  38  60  94 132 168 218 264 308 365
#     4  10  19  33  62  92 133 162 206 270 314 377
#     4  10  20  37  58  93 137 164 203 263 322 382
#     4  10  19  34  57  95 134 163 202 260 334 378
#     4  10  22  34  58  98 144 164 198 256 340 396
#
# _framework density 19.751207999999998
#
# number of rings (size 3 to 8) (size 9 to 14) (size 15 to 20)
#    0.000    1.778    4.444    0.667    0.000    0.000 
#    0.000    0.000    0.000    0.000    0.000   63.778 
#    0.000    0.000    0.000    0.000    0.000    0.000 
#
# Total GULP energy -50128.396956 kJ/mol
# GULP energy per Si atom -5569.821884 kJ/mol
# Density = 1.970625 g / cm^3
# Si number density = 19.751208 Si / 1000 Ang^3
#
#
#
# Elastic Constant Matrix: (Units=GPa)
#
#
# Indices 1 2 3 4 5 6 
#
# 1 81.2552 43.1477 50.0973 0.0000 0.6717 0.0000
# 2 43.1477 118.9370 59.3460 0.0000 7.6812 0.0000
# 3 50.0973 59.3460 97.2989 0.0000 13.0589 0.0000
# 4 0.0000 0.0000 0.0000 41.0632 0.0000 -4.7937
# 5 0.6717 7.6812 13.0589 0.0000 9.3931 0.0000
# 6 0.0000 0.0000 0.0000 -4.7937 0.0000 22.2551
#
#
#
# Elastic Compliance Matrix: (Units=1/GPa)
#
#
# Indices 1 2 3 4 5 6 
#
# 1 0.020484 -0.003062 -0.010842 0.000000 0.016112 0.000000
# 2 -0.003062 0.012545 -0.005812 0.000000 -0.001959 0.000000
# 3 -0.010842 -0.005812 0.022944 0.000000 -0.026370 0.000000
# 4 0.000000 0.000000 0.000000 0.024981 0.000000 0.005381
# 5 0.016112 -0.001959 -0.026370 0.000000 0.143572 0.000000
# 6 0.000000 0.000000 0.000000 0.005381 0.000000 0.046092
#
#
# Mechanical properties :
#
#
# Convention : Reuss Voigt Hill
#
# Bulk Modulus (GPa) = 60.45375 66.96368 63.70871
# Shear Modulus (GPa) = 15.84465 24.20230 20.02347
#
# Velocity S-wave (km/s) = 2.83541 3.50431 3.18745
# Velocity P-wave (km/s) = 6.43377 7.09583 6.77289
#
# Compressibility (1/GPa) = 0.01654157
#
# Stress axis : x y z
#
# Youngs Moduli (GPa) = 48.81860 79.71085 43.58428
#
# Poissons Ratio (x) = 0.24408 0.47252
# Poissons Ratio (y) = 0.14948 0.25333
# Poissons Ratio (z) = 0.52927 0.46330
#
# Static dielectric constant tensor:
#      x y z
#    x 1.728810 0.000000 -0.011070 
#    y 0.000000 1.820940 0.000000 
#    z -0.011070 0.000000 1.755020 
# 
# From -- ./inp_files/43518.got.cif
#   From: 2010.05.17/outbox.cif.g08.bks.cpg/sg5_22_cif.got.tgz:43518.got - 2010.06.03 18:56:24.
