data_PCOD9121680
_publ_section_title
;
Structure prediction by ZEFSAII (Michael W. Deem and Ramdas Pophale) SiO2 
 PCOD9121680
Probable space group: C 2
;
_chemical_formula_sum "Si O2"
_cell_formula_units_Z 32
_cell_length_a 5.631171
_cell_length_b 13.843214
_cell_length_c 16.752341
_cell_angle_alpha 90.000000
_cell_angle_beta 90.287423
_cell_angle_gamma 90.000000
_cell_volume 1305.887270
_symmetry_space_group_name_H-M "C 2"
_symmetry_group_IT_number 5
_symmetry_cell_setting 'monoclinic'
loop_
_space_group_symop_operation_xyz
x,y,z
-x,y,-z
1/2+x,1/2+y,z
1/2-x,1/2+y,-z
loop_
_atom_site_type_symbol
_atom_site_label
_atom_site_fract_x
_atom_site_fract_y
_atom_site_fract_z
Si Si1 0.259163 0.264320 0.687901
Si Si2 0.751875 0.149082 0.543271
Si Si3 0.904501 0.597427 0.288147
Si Si4 0.889815 0.064033 0.089956
Si Si5 0.380378 0.732148 0.820746
Si Si6 0.546121 0.901138 0.088174
Si Si7 0.336845 0.428740 0.789914
Si Si8 0.749193 0.857869 0.513702
O O1 0.356787 0.154695 0.687686
O O2 0.025334 0.262413 0.741868
O O3 0.425515 0.342964 0.733757
O O4 0.236888 0.307270 0.600045
O O5 0.500000 0.124214 0.500000
O O6 0.751703 0.108069 0.632239
O O7 0.744810 0.266376 0.546413
O O8 0.000000 0.126164 0.500000
O O9 0.816267 0.659407 0.212247
O O10 0.865059 0.487934 0.260985
O O11 0.945469 0.172219 0.118994
O O12 0.634411 0.011828 0.085503
O O13 0.991385 0.004739 0.167472
O O14 0.000000 0.049668 0.000000
O O15 0.283590 0.825085 0.867395
O O16 0.304887 0.888672 0.135349
O O17 0.500000 0.868451 0.000000
O O18 0.500000 0.911191 0.500000
O O19 0.000000 0.909841 0.500000
#
# Coordination Sequence:
#
# PCOD9121680 Si02
#       8
#     4   4   4   4   4   4   4   4
#     4  11  21  39  63  89 126 164 209 269 316 394
#     4  10  19  35  62  93 123 172 219 262 334 396
#     4  11  21  39  63  89 126 164 209 269 316 394
#     4  11  21  40  63  86 125 165 203 266 323 385
#     4  10  23  36  61  92 118 160 218 252 321 392
#     4  11  21  40  63  86 125 165 203 266 323 385
#     4  10  24  40  60  94 122 162 214 256 334 384
#     4  10  19  35  62  93 123 172 219 262 334 396
#
# _framework density 24.504411999999999
#
# number of rings (size 3 to 8) (size 9 to 14) (size 15 to 20)
#    0.000    1.500    3.750    3.375    0.000    0.000 
#    0.000    1.250    0.000    0.000    0.000    0.000 
#    0.000    0.000    0.000    0.000    0.000    0.000 
#
# Total GULP energy -89245.572133 kJ/mol
# GULP energy per Si atom -5577.848258 kJ/mol
# Density = 2.444864 g / cm^3
# Si number density = 24.504412 Si / 1000 Ang^3
#
#
#
# Elastic Constant Matrix: (Units=GPa)
#
#
# Indices 1 2 3 4 5 6 
#
# 1 101.0496 8.5209 26.7312 0.0000 1.2551 0.0000
# 2 8.5209 97.5043 5.9696 0.0000 1.0732 0.0000
# 3 26.7312 5.9696 106.1667 0.0000 -5.6884 0.0000
# 4 0.0000 0.0000 0.0000 -10.5922 0.0000 -9.9874
# 5 1.2551 1.0732 -5.6884 0.0000 35.0315 0.0000
# 6 0.0000 0.0000 0.0000 -9.9874 0.0000 7.9474
#
#
#
# Elastic Compliance Matrix: (Units=1/GPa)
#
#
# Indices 1 2 3 4 5 6 
#
# 1 0.010682 -0.000760 -0.002689 0.000000 -0.000796 0.000000
# 2 -0.000760 0.010351 -0.000410 0.000000 -0.000356 0.000000
# 3 -0.002689 -0.000410 0.010214 0.000000 0.001767 0.000000
# 4 0.000000 0.000000 0.000000 -0.043209 0.000000 -0.054301
# 5 -0.000796 -0.000356 0.001767 0.000000 0.028872 0.000000
# 6 0.000000 0.000000 0.000000 -0.054301 0.000000 0.057589
#
#
# Mechanical properties :
#
#
# Convention : Reuss Voigt Hill
#
# Bulk Modulus (GPa) = 42.50148 43.01821 42.75985
# Shear Modulus (GPa) = 55.51864 24.04394 39.78129
#
# Velocity S-wave (km/s) = 4.76506 3.13582 4.03356
# Velocity P-wave (km/s) = 6.90336 5.54117 6.25943
#
# Compressibility (1/GPa) = 0.02352859
#
# Stress axis : x y z
#
# Youngs Moduli (GPa) = 93.61947 96.60536 97.90447
#
# Poissons Ratio (x) = 0.07342 0.26330
# Poissons Ratio (y) = 0.07115 0.04012
# Poissons Ratio (z) = 0.25178 0.03959
#
# Static dielectric constant tensor:
#      x y z
#    x 2.120110 0.000000 0.105390 
#    y 0.000000 2.041610 0.000000 
#    z 0.105390 0.000000 1.926910 
# 
# From -- ./inp_files/58881.got.cif
#   From: 2010.05.17/outbox.cif.g08.bks.cpg/sg5_30_cif.got.tgz:58881.got - 2010.06.03 18:56:24.
