data_PCOD9121498
_publ_section_title
;
Structure prediction by ZEFSAII (Michael W. Deem and Ramdas Pophale) SiO2 
 PCOD9121498
Probable space group: C 2
;
_chemical_formula_sum "Si O2"
_cell_formula_units_Z 32
_cell_length_a 15.122218
_cell_length_b 17.867255
_cell_length_c 10.758082
_cell_angle_alpha 90.000000
_cell_angle_beta 149.989026
_cell_angle_gamma 90.000000
_cell_volume 1453.858793
_symmetry_space_group_name_H-M "C 2"
_symmetry_group_IT_number 5
_symmetry_cell_setting 'monoclinic'
loop_
_space_group_symop_operation_xyz
x,y,z
-x,y,-z
1/2+x,1/2+y,z
1/2-x,1/2+y,-z
loop_
_atom_site_type_symbol
_atom_site_label
_atom_site_fract_x
_atom_site_fract_y
_atom_site_fract_z
Si Si1 0.181100 0.511200 0.399700
Si Si2 0.831809 0.355894 0.717547
Si Si3 0.693294 0.925496 0.678916
Si Si4 0.686037 0.768908 0.563614
Si Si5 0.950137 0.668666 0.746046
Si Si6 0.444044 0.551083 0.074183
Si Si7 0.323383 0.691192 0.074303
Si Si8 0.325091 0.234649 0.351999
O O1 0.165996 0.444289 0.285284
O O2 0.178860 0.469502 0.530413
O O3 0.048388 0.580154 0.227720
O O4 0.376500 0.544155 0.631376
O O5 0.839200 0.318885 0.591630
O O6 0.664165 0.317792 0.579289
O O7 0.000000 0.330447 0.000000
O O8 0.500000 0.933058 0.500000
O O9 0.728636 0.836256 0.711509
O O10 0.842485 0.972218 0.933890
O O11 0.848149 0.713548 0.729998
O O12 0.504067 0.721337 0.357569
O O13 0.817460 0.682739 0.464978
O O14 0.146949 0.695508 0.945065
O O15 0.332686 0.609160 0.020750
O O16 0.500000 0.574950 0.000000
O O17 0.304264 0.737067 0.922266
O O18 0.500000 0.206481 0.500000
#
# Coordination Sequence:
#
# PCOD9121498 Si02
#       8
#     4   4   4   4   4   4   4   4
#     4  10  20  36  57  87 118 157 197 253 298 358
#     4  10  19  34  58  80 120 156 186 233 306 353
#     4  10  21  39  57  88 121 160 202 251 308 368
#     4  10  21  37  60  88 123 155 191 255 305 360
#     4  10  20  35  58  86 123 147 205 247 299 360
#     4  10  20  34  59  88 118 157 202 256 309 345
#     4  11  19  33  62  89 112 155 195 249 313 343
#     4   9  18  31  52  86 109 139 186 247 291 347
#
# _framework density 22.010392
#
# number of rings (size 3 to 8) (size 9 to 14) (size 15 to 20)
#    0.000    2.000    2.500    2.250    1.750    1.000 
#   13.500    1.250    2.750    0.000    0.000    0.000 
#    0.000    0.000    0.000    0.000    0.000    0.000 
#
# Total GULP energy -89128.380955 kJ/mol
# GULP energy per Si atom -5570.523810 kJ/mol
# Density = 2.196030 g / cm^3
# Si number density = 22.010392 Si / 1000 Ang^3
#
#
#
# Elastic Constant Matrix: (Units=GPa)
#
#
# Indices 1 2 3 4 5 6 
#
# 1 42.4674 33.4155 28.9028 0.0000 18.8071 0.0000
# 2 33.4155 136.6950 27.0781 0.0000 16.6458 0.0000
# 3 28.9028 27.0781 67.5317 0.0000 19.4061 0.0000
# 4 0.0000 0.0000 0.0000 27.6004 0.0000 4.7520
# 5 18.8071 16.6458 19.4061 0.0000 28.3539 0.0000
# 6 0.0000 0.0000 0.0000 4.7520 0.0000 8.6354
#
#
#
# Elastic Compliance Matrix: (Units=1/GPa)
#
#
# Indices 1 2 3 4 5 6 
#
# 1 0.044083 -0.006390 -0.011179 0.000000 -0.017838 0.000000
# 2 -0.006390 0.009097 -0.000742 0.000000 -0.000594 0.000000
# 3 -0.011179 -0.000742 0.021951 0.000000 -0.007173 0.000000
# 4 0.000000 0.000000 0.000000 0.040023 0.000000 -0.022025
# 5 -0.017838 -0.000594 -0.007173 0.000000 0.052359 0.000000
# 6 0.000000 0.000000 0.000000 -0.022025 0.000000 0.127922
#
#
# Mechanical properties :
#
#
# Convention : Reuss Voigt Hill
#
# Bulk Modulus (GPa) = 25.96745 47.27634 36.62189
# Shear Modulus (GPa) = 14.49721 23.40446 18.95084
#
# Velocity S-wave (km/s) = 2.56921 3.26442 2.93745
# Velocity P-wave (km/s) = 4.54142 5.97782 5.30843
#
# Compressibility (1/GPa) = 0.03850976
#
# Stress axis : x y z
#
# Youngs Moduli (GPa) = 22.68436 109.92749 45.55545
#
# Poissons Ratio (x) = 0.70239 0.50927
# Poissons Ratio (y) = 0.14494 0.03381
# Poissons Ratio (z) = 0.25359 0.08157
#
# Static dielectric constant tensor:
#      x y z
#    x 1.876060 0.000000 -0.071540 
#    y 0.000000 1.830230 0.000000 
#    z -0.071540 0.000000 1.944400 
# 
# From -- ./inp_files/43378.got.cif
#   From: 2010.05.17/outbox.cif.g08.bks.cpg/sg5_22_cif.got.tgz:43378.got - 2010.06.03 18:56:24.
