data_PCOD9121138
_publ_section_title
;
Structure prediction by ZEFSAII (Michael W. Deem and Ramdas Pophale) SiO2 
 PCOD9121138
Probable space group: C 2
;
_chemical_formula_sum "Si O2"
_cell_formula_units_Z 28
_cell_length_a 27.487353
_cell_length_b 9.126681
_cell_length_c 8.043699
_cell_angle_alpha 90.000000
_cell_angle_beta 42.926172
_cell_angle_gamma 90.000000
_cell_volume 1374.307927
_symmetry_space_group_name_H-M "C 2"
_symmetry_group_IT_number 5
_symmetry_cell_setting 'monoclinic'
loop_
_space_group_symop_operation_xyz
x,y,z
-x,y,-z
1/2+x,1/2+y,z
1/2-x,1/2+y,-z
loop_
_atom_site_type_symbol
_atom_site_label
_atom_site_fract_x
_atom_site_fract_y
_atom_site_fract_z
Si Si1 0.682279 0.037460 0.054096
Si Si2 0.223223 0.689543 0.388663
Si Si3 0.545064 0.714348 0.028069
Si Si4 0.683370 0.345328 0.173536
Si Si5 0.878380 0.105756 0.845033
Si Si6 0.442906 0.880531 0.500306
Si Si7 0.819100 0.405829 0.310139
O O1 0.698419 0.209301 0.014069
O O2 0.615959 0.005127 0.341556
O O3 0.665679 0.971290 0.913484
O O4 0.748693 0.948918 0.962274
O O5 0.173785 0.770274 0.377757
O O6 0.191559 0.542868 0.544239
O O7 0.247845 0.808037 0.464947
O O8 0.298939 0.645618 0.111234
O O9 0.568430 0.620142 0.130635
O O10 0.489766 0.840649 0.224946
O O11 0.500000 0.631908 0.000000
O O12 0.617853 0.796352 0.794094
O O13 0.624827 0.450950 0.239277
O O14 0.902137 0.231949 0.658103
O O15 0.500000 0.914747 0.500000
#
# Coordination Sequence:
#
# PCOD9121138 Si02
#       7
#     4   4   4   4   4   4   4
#     4  11  20  37  61  94 122 168 212 261 316 379
#     4  10  21  38  58  95 134 159 200 262 332 383
#     4  10  22  40  66  89 120 172 221 262 318 377
#     4  11  21  36  62  93 128 159 211 262 324 378
#     4  10  20  41  58  93 124 165 217 261 317 382
#     4  10  18  40  64  83 123 167 222 259 293 389
#     4  10  22  39  58  95 129 165 205 260 330 375
#
# _framework density 20.373892000000001
#
# number of rings (size 3 to 8) (size 9 to 14) (size 15 to 20)
#    0.000    1.714    7.143    0.000    4.000    0.000 
#   12.857    2.143    0.000    0.857    0.000    0.000 
#    0.000    0.000    0.000    0.000    0.000    0.000 
#
# Total GULP energy -78087.803181 kJ/mol
# GULP energy per Si atom -5577.700227 kJ/mol
# Density = 2.032752 g / cm^3
# Si number density = 20.373892 Si / 1000 Ang^3
#
#
#
# Elastic Constant Matrix: (Units=GPa)
#
#
# Indices 1 2 3 4 5 6 
#
# 1 117.7544 52.8956 5.6646 0.0000 -2.7322 0.0000
# 2 52.8956 116.6321 12.9639 0.0000 -3.9149 0.0000
# 3 5.6646 12.9639 44.1818 0.0000 -4.6799 0.0000
# 4 0.0000 0.0000 0.0000 17.7031 0.0000 12.4090
# 5 -2.7322 -3.9149 -4.6799 0.0000 10.5621 0.0000
# 6 0.0000 0.0000 0.0000 12.4090 0.0000 38.9202
#
#
#
# Elastic Compliance Matrix: (Units=1/GPa)
#
#
# Indices 1 2 3 4 5 6 
#
# 1 0.010676 -0.004824 0.000157 0.000000 0.001043 0.000000
# 2 -0.004824 0.011094 -0.002448 0.000000 0.001779 0.000000
# 3 0.000157 -0.002448 0.024385 0.000000 0.009938 0.000000
# 4 0.000000 0.000000 0.000000 0.072744 0.000000 -0.023193
# 5 0.001043 0.001779 0.009938 0.000000 0.100010 0.000000
# 6 0.000000 0.000000 0.000000 -0.023193 0.000000 0.033088
#
#
# Mechanical properties :
#
#
# Convention : Reuss Voigt Hill
#
# Bulk Modulus (GPa) = 31.32445 46.84630 39.08538
# Shear Modulus (GPa) = 18.05908 27.24004 22.64956
#
# Velocity S-wave (km/s) = 2.98045 3.66048 3.33783
# Velocity P-wave (km/s) = 5.22037 6.39599 5.83785
#
# Compressibility (1/GPa) = 0.03192394
#
# Stress axis : x y z
#
# Youngs Moduli (GPa) = 93.66829 90.14088 41.00954
#
# Poissons Ratio (x) = 0.43487 -0.00645
# Poissons Ratio (y) = 0.45188 0.10040
# Poissons Ratio (z) = -0.01473 0.22068
#
# Static dielectric constant tensor:
#      x y z
#    x 1.795650 0.000000 0.044380 
#    y 0.000000 1.728030 0.000000 
#    z 0.044380 0.000000 1.752160 
# 
# From -- ./inp_files/26779.got.cif
#   From: 2010.05.17/outbox.cif.g08.bks.cpg/sg5_14_cif.got.tgz:26779.got - 2010.06.03 18:56:24.
