data_PCOD9121297
_publ_section_title
;
Structure prediction by ZEFSAII (Michael W. Deem and Ramdas Pophale) SiO2 
 PCOD9121297
Probable space group: C 2
;
_chemical_formula_sum "Si O2"
_cell_formula_units_Z 24
_cell_length_a 7.127929
_cell_length_b 14.033617
_cell_length_c 11.115466
_cell_angle_alpha 90.000000
_cell_angle_beta 122.187923
_cell_angle_gamma 90.000000
_cell_volume 940.996064
_symmetry_space_group_name_H-M "C 2"
_symmetry_group_IT_number 5
_symmetry_cell_setting 'monoclinic'
loop_
_space_group_symop_operation_xyz
x,y,z
-x,y,-z
1/2+x,1/2+y,z
1/2-x,1/2+y,-z
loop_
_atom_site_type_symbol
_atom_site_label
_atom_site_fract_x
_atom_site_fract_y
_atom_site_fract_z
Si Si1 0.698526 0.120130 0.471182
Si Si2 0.457645 0.809562 0.613139
Si Si3 0.240963 0.196939 0.901445
Si Si4 0.989507 0.487862 0.237725
Si Si5 0.944903 0.017150 0.744938
Si Si6 0.801218 0.882235 0.033395
O O1 0.500000 0.118004 0.500000
O O2 0.797491 0.224701 0.517787
O O3 0.876039 0.047838 0.588987
O O4 0.624370 0.083080 0.314898
O O5 0.500000 0.859031 0.500000
O O6 0.658502 0.758801 0.756094
O O7 0.380681 0.894600 0.671890
O O8 0.081587 0.105933 0.848293
O O9 0.215615 0.274711 0.999755
O O10 0.500000 0.169770 0.000000
O O11 0.774157 0.500041 0.250608
O O12 0.883310 0.455747 0.077055
O O13 0.092133 0.923327 0.810289
O O14 0.000000 0.882914 0.000000
#
# Coordination Sequence:
#
# PCOD9121297 Si02
#       6
#     4   4   4   4   4   4
#     4   9  18  32  50  74 102 130 163 206 247 287
#     4  10  19  32  52  76 100 132 169 202 243 298
#     4   9  18  30  47  72 100 127 164 210 248 285
#     4   9  17  31  50  71  95 129 168 201 239 297
#     4   9  16  29  50  69  94 128 163 200 244 292
#     4   8  15  28  46  68  91 122 162 199 238 289
#
# _framework density 25.504891000000001
#
# number of rings (size 3 to 8) (size 9 to 14) (size 15 to 20)
#    0.000    3.000    0.000    2.500    0.000    1.333 
#    0.000    0.833    0.000   21.000    0.000    0.000 
#    0.000    0.000    0.000    0.000    0.000    0.000 
#
# Total GULP energy -67016.515318 kJ/mol
# GULP energy per Si atom -5584.709610 kJ/mol
# Density = 2.544684 g / cm^3
# Si number density = 25.504891 Si / 1000 Ang^3
#
#
#
# Elastic Constant Matrix: (Units=GPa)
#
#
# Indices 1 2 3 4 5 6 
#
# 1 81.7776 20.8242 20.2252 0.0000 6.5637 0.0000
# 2 20.8242 117.0030 52.2119 0.0000 12.4433 0.0000
# 3 20.2252 52.2119 79.4313 0.0000 20.0989 0.0000
# 4 0.0000 0.0000 0.0000 63.8116 0.0000 14.3626
# 5 6.5637 12.4433 20.0989 0.0000 20.7808 0.0000
# 6 0.0000 0.0000 0.0000 14.3626 0.0000 18.1091
#
#
#
# Elastic Compliance Matrix: (Units=1/GPa)
#
#
# Indices 1 2 3 4 5 6 
#
# 1 0.013193 -0.001213 -0.002239 0.000000 -0.001275 0.000000
# 2 -0.001213 0.012211 -0.007897 0.000000 0.000709 0.000000
# 3 -0.002239 -0.007897 0.022476 0.000000 -0.016302 0.000000
# 4 0.000000 0.000000 0.000000 0.019077 0.000000 -0.015130
# 5 -0.001275 0.000709 -0.016302 0.000000 0.063867 0.000000
# 6 0.000000 0.000000 0.000000 -0.015130 0.000000 0.067220
#
#
# Mechanical properties :
#
#
# Convention : Reuss Voigt Hill
#
# Bulk Modulus (GPa) = 39.71290 51.63718 45.67504
# Shear Modulus (GPa) = 21.82093 32.87034 27.34564
#
# Velocity S-wave (km/s) = 2.92817 3.59386 3.27796
# Velocity P-wave (km/s) = 5.19968 6.12463 5.68101
#
# Compressibility (1/GPa) = 0.02518074
#
# Stress axis : x y z
#
# Youngs Moduli (GPa) = 75.79550 81.89016 44.49222
#
# Poissons Ratio (x) = 0.09936 0.09963
# Poissons Ratio (y) = 0.09197 0.35137
# Poissons Ratio (z) = 0.16972 0.64672
#
# Static dielectric constant tensor:
#      x y z
#    x 2.082470 0.000000 0.059090 
#    y 0.000000 2.012050 0.000000 
#    z 0.059090 0.000000 2.001680 
# 
# From -- ./inp_files/46561.got.cif
#   From: 2010.05.17/outbox.cif.g08.bks.cpg/sg5_24_cif.got.tgz:46561.got - 2010.06.03 18:56:24.
