data_PCOD9121648
_publ_section_title
;
Structure prediction by ZEFSAII (Michael W. Deem and Ramdas Pophale) SiO2 
 PCOD9121648
Probable space group: C 2
;
_chemical_formula_sum "Si O2"
_cell_formula_units_Z 26
_cell_length_a 16.898755
_cell_length_b 14.341691
_cell_length_c 5.631938
_cell_angle_alpha 90.000000
_cell_angle_beta 117.151301
_cell_angle_gamma 90.000000
_cell_volume 1214.528096
_symmetry_space_group_name_H-M "C 2"
_symmetry_group_IT_number 5
_symmetry_cell_setting 'monoclinic'
loop_
_space_group_symop_operation_xyz
x,y,z
-x,y,-z
1/2+x,1/2+y,z
1/2-x,1/2+y,-z
loop_
_atom_site_type_symbol
_atom_site_label
_atom_site_fract_x
_atom_site_fract_y
_atom_site_fract_z
Si Si1 0.281973 0.582410 0.392250
Si Si2 0.896583 0.698819 0.876636
Si Si3 0.500000 0.871774 0.000000
Si Si4 0.917090 0.234713 0.501915
Si Si5 0.823943 0.756164 0.282318
Si Si6 0.335257 0.885327 0.049857
Si Si7 0.243015 0.046509 0.150268
O O1 0.178929 0.616596 0.230526
O O2 0.342833 0.672108 0.514381
O O3 0.296502 0.522729 0.647558
O O4 0.308844 0.543518 0.171081
O O5 0.876994 0.755152 0.604374
O O6 0.876765 0.752764 0.100413
O O7 0.000000 0.668833 0.000000
O O8 0.458059 0.805598 0.744003
O O9 0.586091 0.921322 0.011720
O O10 0.871398 0.295958 0.238222
O O11 0.000000 0.180501 0.500000
O O12 0.775790 0.653740 0.213735
O O13 0.753410 0.841325 0.187220
O O14 0.316846 0.968611 0.205305
#
# Coordination Sequence:
#
# PCOD9121648 Si02
#       7
#     4   4   2   4   4   4   4
#     4  10  21  41  59  92 124 165 216 254 317 379
#     4  10  19  35  60  88 117 164 210 254 305 370
#     4  10  22  36  62  98 132 164 212 260 336 388
#     4  10  21  38  65  96 125 171 212 268 327 383
#     4  10  21  39  61  88 120 168 210 255 316 371
#     4  11  22  39  63  95 131 171 208 269 320 390
#     4  10  22  37  63  90 123 169 212 252 318 380
#
# _framework density 21.407494
#
# number of rings (size 3 to 8) (size 9 to 14) (size 15 to 20)
#    0.000    1.846    3.077    2.308    4.308    0.000 
#    5.538    6.154    0.000    3.692    2.000    0.000 
#    0.000    0.000    0.000    0.000    0.000    0.000 
#
# Total GULP energy -72375.795444 kJ/mol
# GULP energy per Si atom -5567.368880 kJ/mol
# Density = 2.135877 g / cm^3
# Si number density = 21.407494 Si / 1000 Ang^3
#
#
#
# Elastic Constant Matrix: (Units=GPa)
#
#
# Indices 1 2 3 4 5 6 
#
# 1 90.7499 43.8828 33.2408 0.0000 -14.5814 0.0000
# 2 43.8828 52.6730 0.2806 0.0000 5.2986 0.0000
# 3 33.2408 0.2806 125.1540 0.0000 -28.2767 0.0000
# 4 0.0000 0.0000 0.0000 10.5509 0.0000 -14.7486
# 5 -14.5814 5.2986 -28.2767 0.0000 43.9443 0.0000
# 6 0.0000 0.0000 0.0000 -14.7486 0.0000 13.3510
#
#
#
# Elastic Compliance Matrix: (Units=1/GPa)
#
#
# Indices 1 2 3 4 5 6 
#
# 1 0.023870 -0.020610 -0.004613 0.000000 0.007437 0.000000
# 2 -0.020610 0.037061 0.003319 0.000000 -0.009172 0.000000
# 3 -0.004613 0.003319 0.010264 0.000000 0.004674 0.000000
# 4 0.000000 0.000000 0.000000 -0.174171 0.000000 -0.192402
# 5 0.007437 -0.009172 0.004674 0.000000 0.029337 0.000000
# 6 0.000000 0.000000 0.000000 -0.192402 0.000000 -0.137641
#
#
# Mechanical properties :
#
#
# Convention : Reuss Voigt Hill
#
# Bulk Modulus (GPa) = 36.51631 47.04282 41.77956
# Shear Modulus (GPa) = -31.57747 26.31409 -2.63169
#
# Velocity S-wave (km/s) = -3.84483 3.50980 -1.10996
# Velocity P-wave (km/s) = 1.61725 6.20061 4.23273
#
# Compressibility (1/GPa) = 0.02738502
#
# Stress axis : x y z
#
# Youngs Moduli (GPa) = 41.89279 26.98261 97.42825
#
# Poissons Ratio (x) = 0.55612 0.44948
# Poissons Ratio (y) = 0.86343 -0.32334
# Poissons Ratio (z) = 0.19327 -0.08955
#
# Static dielectric constant tensor:
#      x y z
#    x 1.834130 0.000000 -0.110260 
#    y 0.000000 1.777740 0.000000 
#    z -0.110260 0.000000 1.740440 
# 
# From -- ./inp_files/8501.got.cif
#   From: 2010.05.17/outbox.cif.g08.bks.cpg/sg5_5_cif.got.tgz:8501.got - 2010.06.03 18:56:24.
