data_PCOD9121201
_publ_section_title
;
Structure prediction by ZEFSAII (Michael W. Deem and Ramdas Pophale) SiO2 
 PCOD9121201
Probable space group: C 2
;
_chemical_formula_sum "Si O2"
_cell_formula_units_Z 28
_cell_length_a 8.742103
_cell_length_b 12.969348
_cell_length_c 14.491163
_cell_angle_alpha 90.000000
_cell_angle_beta 50.719725
_cell_angle_gamma 90.000000
_cell_volume 1271.776889
_symmetry_space_group_name_H-M "C 2"
_symmetry_group_IT_number 5
_symmetry_cell_setting 'monoclinic'
loop_
_space_group_symop_operation_xyz
x,y,z
-x,y,-z
1/2+x,1/2+y,z
1/2-x,1/2+y,-z
loop_
_atom_site_type_symbol
_atom_site_label
_atom_site_fract_x
_atom_site_fract_y
_atom_site_fract_z
Si Si1 0.058128 0.386550 0.244528
Si Si2 0.335099 0.317087 0.621443
Si Si3 0.813052 0.364887 0.009775
Si Si4 0.544137 0.531381 0.611151
Si Si5 0.820078 0.592493 0.339959
Si Si6 0.778538 0.691163 0.819429
Si Si7 0.911700 0.991459 0.193249
O O1 0.239149 0.407780 0.242607
O O2 0.866148 0.330701 0.360140
O O3 0.950935 0.494629 0.259404
O O4 0.144023 0.350139 0.114324
O O5 0.500000 0.257838 0.500000
O O6 0.452728 0.420438 0.611570
O O7 0.246474 0.265461 0.745290
O O8 0.770527 0.252985 0.070146
O O9 0.624680 0.440693 0.092509
O O10 0.000000 0.404514 0.000000
O O11 0.721953 0.564187 0.475947
O O12 0.361562 0.607438 0.659548
O O13 0.595070 0.527084 0.698171
O O14 0.984851 0.678136 0.277420
O O15 0.654801 0.587367 0.846434
#
# Coordination Sequence:
#
# PCOD9121201 Si02
#       7
#     4   4   4   4   4   4   4
#     4  10  21  41  66  94 132 178 234 285 356 421
#     4  11  20  42  69  98 138 184 227 288 359 420
#     4  12  23  46  71  91 136 189 237 294 359 424
#     4  10  18  42  70  97 142 183 226 283 361 432
#     4   9  20  40  67 101 138 186 230 285 359 425
#     4  11  25  41  67 103 139 181 245 295 347 436
#     4  11  25  43  69 104 137 185 237 295 367 426
#
# _framework density 22.016442000000001
#
# number of rings (size 3 to 8) (size 9 to 14) (size 15 to 20)
#    0.000    1.429    5.714    1.286    2.000    4.000 
#    2.571    0.000    0.000    0.000    0.000    0.000 
#    0.000    0.000    0.000    0.000    0.000    0.000 
#
# Total GULP energy -78072.811477 kJ/mol
# GULP energy per Si atom -5576.629391 kJ/mol
# Density = 2.196633 g / cm^3
# Si number density = 22.016442 Si / 1000 Ang^3
#
#
#
# Elastic Constant Matrix: (Units=GPa)
#
#
# Indices 1 2 3 4 5 6 
#
# 1 147.3446 34.4791 84.7277 0.0000 -16.7959 0.0001
# 2 34.4791 41.5690 24.4075 0.0000 -15.6074 0.0001
# 3 84.7277 24.4075 125.5167 0.0000 -14.0331 0.0001
# 4 0.0000 0.0000 0.0000 26.5158 0.0000 -14.3445
# 5 -16.7959 -15.6074 -14.0331 0.0000 38.4762 0.0000
# 6 0.0001 0.0001 0.0001 -14.3445 0.0000 26.5899
#
#
#
# Elastic Compliance Matrix: (Units=1/GPa)
#
#
# Indices 1 2 3 4 5 6 
#
# 1 0.012298 -0.005876 -0.007115 0.000000 0.000390 0.000000
# 2 -0.005876 0.033740 -0.001408 0.000000 0.010607 0.000000
# 3 -0.007115 -0.001408 0.013170 0.000000 0.001126 0.000000
# 4 0.000000 0.000000 0.000000 0.053256 0.000000 0.028730
# 5 0.000390 0.010607 0.001126 0.000000 0.030874 0.000000
# 6 0.000000 0.000000 0.000000 0.028730 0.000000 0.053107
#
#
# Mechanical properties :
#
#
# Convention : Reuss Voigt Hill
#
# Bulk Modulus (GPa) = 32.88613 66.85101 49.86857
# Shear Modulus (GPa) = 21.24229 29.70411 25.47320
#
# Velocity S-wave (km/s) = 3.10955 3.67710 3.40517
# Velocity P-wave (km/s) = 5.27844 6.96119 6.17738
#
# Compressibility (1/GPa) = 0.03040795
#
# Stress axis : x y z
#
# Youngs Moduli (GPa) = 81.31608 29.63844 75.93165
#
# Poissons Ratio (x) = 0.17416 0.54026
# Poissons Ratio (y) = 0.47784 0.10694
# Poissons Ratio (z) = 0.57857 0.04174
#
# Static dielectric constant tensor:
#      x y z
#    x 1.839380 0.000000 -0.033010 
#    y 0.000000 1.948610 0.000000 
#    z -0.033010 0.000000 1.815750 
# 
# From -- ./inp_files/50884.got.cif
#   From: 2010.05.17/outbox.cif.g08.bks.cpg/sg5_26_cif.got.tgz:50884.got - 2010.06.03 18:56:24.
