data_PCOD9121993
_publ_section_title
;
Structure prediction by ZEFSAII (Michael W. Deem and Ramdas Pophale) SiO2 
 PCOD9121993
Probable space group: C 2
;
_chemical_formula_sum "Si O2"
_cell_formula_units_Z 32
_cell_length_a 16.984464
_cell_length_b 14.999993
_cell_length_c 12.107080
_cell_angle_alpha 90.000000
_cell_angle_beta 30.100790
_cell_angle_gamma 90.000000
_cell_volume 1546.937900
_symmetry_space_group_name_H-M "C 2"
_symmetry_group_IT_number 5
_symmetry_cell_setting 'monoclinic'
loop_
_space_group_symop_operation_xyz
x,y,z
-x,y,-z
1/2+x,1/2+y,z
1/2-x,1/2+y,-z
loop_
_atom_site_type_symbol
_atom_site_label
_atom_site_fract_x
_atom_site_fract_y
_atom_site_fract_z
Si Si1 0.494887 0.286980 0.837407
Si Si2 0.325543 0.960731 0.084657
Si Si3 0.224774 0.160327 0.197400
Si Si4 0.187478 0.493864 0.646977
Si Si5 0.004414 0.982762 0.122019
Si Si6 0.201556 0.196647 0.463476
Si Si7 0.868262 0.798475 0.747563
Si Si8 0.123872 0.161522 0.071222
O O1 0.430863 0.382265 0.955193
O O2 0.673076 0.270860 0.657050
O O3 0.461441 0.284180 0.747955
O O4 0.394534 0.205558 0.006912
O O5 0.304660 0.945624 0.242552
O O6 0.248837 0.882290 0.107753
O O7 0.235725 0.054019 0.180383
O O8 0.507940 0.974952 0.830445
O O9 0.142474 0.195440 0.408094
O O10 0.168591 0.183021 0.143508
O O11 0.333195 0.472666 0.388980
O O12 0.213015 0.600223 0.631717
O O13 0.103936 0.057116 0.067497
O O14 0.000000 0.012938 0.000000
O O15 0.052807 0.198728 0.725533
O O16 0.000000 0.819636 0.500000
O O17 0.761626 0.713640 0.841784
#
# Coordination Sequence:
#
# PCOD9121993 Si02
#       8
#     4   4   4   4   4   4   4   4
#     4  11  22  38  63  91 125 163 209 257 314 377
#     4  10  19  38  64  94 123 155 207 271 326 362
#     4  10  19  37  65  93 126 154 201 266 321 369
#     4   9  20  36  62  96 120 154 215 264 314 367
#     4  11  23  40  60  89 128 174 211 247 307 383
#     4  10  19  37  64  95 120 158 203 265 317 363
#     4  11  25  42  61  90 125 168 211 259 318 371
#     4  10  24  40  58  91 126 168 211 250 307 378
#
# _framework density 20.686026999999999
#
# number of rings (size 3 to 8) (size 9 to 14) (size 15 to 20)
#    0.000    1.750    1.250    3.000    1.750    4.000 
#    2.250    0.000    0.000    0.000    0.000    0.000 
#    0.000    0.000    0.000    0.000    0.000    0.000 
#
# Total GULP energy -89180.692232 kJ/mol
# GULP energy per Si atom -5573.793264 kJ/mol
# Density = 2.063894 g / cm^3
# Si number density = 20.686027 Si / 1000 Ang^3
#
#
#
# Elastic Constant Matrix: (Units=GPa)
#
#
# Indices 1 2 3 4 5 6 
#
# 1 51.7350 15.7523 11.0534 0.0000 -3.6997 0.0000
# 2 15.7523 76.9262 -9.2728 0.0000 -11.1535 0.0000
# 3 11.0534 -9.2728 42.5030 0.0000 -3.3674 0.0000
# 4 0.0000 0.0000 0.0000 12.3885 0.0000 -2.2203
# 5 -3.6997 -11.1535 -3.3674 0.0000 24.2249 0.0000
# 6 0.0000 0.0000 0.0000 -2.2203 0.0000 31.8866
#
#
#
# Elastic Compliance Matrix: (Units=1/GPa)
#
#
# Indices 1 2 3 4 5 6 
#
# 1 0.022494 -0.005464 -0.007047 0.000000 -0.000060 0.000000
# 2 -0.005464 0.015819 0.005443 0.000000 0.007206 0.000000
# 3 -0.007047 0.005443 0.026958 0.000000 0.005177 0.000000
# 4 0.000000 0.000000 0.000000 0.081740 0.000000 0.005692
# 5 -0.000060 0.007206 0.005177 0.000000 0.045308 0.000000
# 6 0.000000 0.000000 0.000000 0.005692 0.000000 0.031757
#
#
# Mechanical properties :
#
#
# Convention : Reuss Voigt Hill
#
# Bulk Modulus (GPa) = 19.55578 22.91444 21.23511
# Shear Modulus (GPa) = 19.58801 23.94209 21.76505
#
# Velocity S-wave (km/s) = 3.08054 3.40576 3.24722
# Velocity P-wave (km/s) = 4.70395 5.15431 4.93427
#
# Compressibility (1/GPa) = 0.05113579
#
# Stress axis : x y z
#
# Youngs Moduli (GPa) = 44.45567 63.21408 37.09464
#
# Poissons Ratio (x) = 0.34542 0.26140
# Poissons Ratio (y) = 0.24292 -0.20191
# Poissons Ratio (z) = 0.31327 -0.34409
#
# Static dielectric constant tensor:
#      x y z
#    x 1.766590 0.000000 0.019930 
#    y 0.000000 1.743600 0.000000 
#    z 0.019930 0.000000 1.811870 
# 
# From -- ./inp_files/44969.got.cif
#   From: 2010.05.17/outbox.cif.g08.bks.cpg/sg5_23_cif.got.tgz:44969.got - 2010.06.03 18:56:24.
