data_PCOD9121046
_publ_section_title
;
Structure prediction by ZEFSAII (Michael W. Deem and Ramdas Pophale) SiO2 
 PCOD9121046
Probable space group: C 2
;
_chemical_formula_sum "Si O2"
_cell_formula_units_Z 28
_cell_length_a 14.503165
_cell_length_b 18.874223
_cell_length_c 8.657371
_cell_angle_alpha 90.000000
_cell_angle_beta 40.736064
_cell_angle_gamma 90.000000
_cell_volume 1546.495443
_symmetry_space_group_name_H-M "C 2"
_symmetry_group_IT_number 5
_symmetry_cell_setting 'monoclinic'
loop_
_space_group_symop_operation_xyz
x,y,z
-x,y,-z
1/2+x,1/2+y,z
1/2-x,1/2+y,-z
loop_
_atom_site_type_symbol
_atom_site_label
_atom_site_fract_x
_atom_site_fract_y
_atom_site_fract_z
Si Si1 0.708248 0.515450 0.481544
Si Si2 0.852455 0.282159 0.608786
Si Si3 0.854656 0.361887 0.279006
Si Si4 0.851040 0.664265 0.273430
Si Si5 0.000000 0.957096 0.500000
Si Si6 0.123256 0.869969 0.072741
Si Si7 0.096901 0.766288 0.529875
Si Si8 0.500000 0.483906 0.000000
O O1 0.791396 0.440708 0.383155
O O2 0.803965 0.583115 0.334060
O O3 0.597622 0.503945 0.484041
O O4 0.611593 0.525851 0.755735
O O5 0.873529 0.326876 0.424123
O O6 0.761068 0.214149 0.673406
O O7 0.000000 0.262855 0.500000
O O8 0.763576 0.329871 0.843340
O O9 0.739737 0.312638 0.334838
O O10 0.000000 0.364460 0.000000
O O11 0.865698 0.694379 0.429076
O O12 0.000000 0.671112 0.000000
O O13 0.100907 0.907451 0.266758
O O14 0.997748 0.812342 0.230806
O O15 0.088578 0.931777 0.997243
O O16 0.000000 0.757252 0.500000
#
# Coordination Sequence:
#
# PCOD9121046 Si02
#       8
#     4   4   4   4   2   4   4   2
#     4  11  22  41  61  92 123 165 209 255 312 376
#     4  11  25  39  63  93 130 161 208 263 309 369
#     4  11  23  38  63  95 125 154 210 275 310 352
#     4  11  24  43  62  86 127 174 204 250 314 381
#     4  10  22  34  72  92 116 160 206 264 308 368
#     4  11  17  38  66  93 113 155 211 253 306 369
#     4  11  21  40  67  91 120 162 213 250 310 380
#     4  10  18  38  64  86 120 158 204 258 306 366
#
# _framework density 18.105453000000001
#
# number of rings (size 3 to 8) (size 9 to 14) (size 15 to 20)
#    0.000    1.143    6.429    1.286    5.000    0.000 
#    5.143    3.571    0.000    0.000    0.000    0.000 
#    0.000    0.000    0.000    0.000    0.000    0.000 
#
# Total GULP energy -78130.397764 kJ/mol
# GULP energy per Si atom -5580.742697 kJ/mol
# Density = 1.806424 g / cm^3
# Si number density = 18.105453 Si / 1000 Ang^3
#
#
#
# Elastic Constant Matrix: (Units=GPa)
#
#
# Indices 1 2 3 4 5 6 
#
# 1 130.1926 53.4175 48.8217 0.0000 -5.4554 0.0000
# 2 53.4175 104.2173 37.4242 0.0001 -4.6408 0.0000
# 3 48.8217 37.4242 128.0524 0.0001 -11.7632 -0.0001
# 4 0.0000 0.0001 0.0001 29.0503 -0.0001 -11.9771
# 5 -5.4554 -4.6408 -11.7632 -0.0001 31.0531 0.0000
# 6 0.0000 0.0000 -0.0001 -11.9771 0.0000 18.2672
#
#
#
# Elastic Compliance Matrix: (Units=1/GPa)
#
#
# Indices 1 2 3 4 5 6 
#
# 1 0.010511 -0.004409 -0.002704 0.000000 0.000163 0.000000
# 2 -0.004409 0.012576 -0.001961 0.000000 0.000362 0.000000
# 3 -0.002704 -0.001961 0.009680 0.000000 0.002899 0.000000
# 4 0.000000 0.000000 0.000000 0.047176 0.000000 0.030931
# 5 0.000163 0.000362 0.002899 0.000000 0.033384 0.000000
# 6 0.000000 0.000000 0.000000 0.030931 0.000000 0.075023
#
#
# Mechanical properties :
#
#
# Convention : Reuss Voigt Hill
#
# Bulk Modulus (GPa) = 68.40868 71.30993 69.85930
# Shear Modulus (GPa) = 23.65527 30.52737 27.09132
#
# Velocity S-wave (km/s) = 3.61851 4.11065 3.87241
# Velocity P-wave (km/s) = 7.43799 7.87409 7.65915
#
# Compressibility (1/GPa) = 0.01461803
#
# Stress axis : x y z
#
# Youngs Moduli (GPa) = 95.14081 79.51900 103.31081
#
# Poissons Ratio (x) = 0.35061 0.27933
# Poissons Ratio (y) = 0.41949 0.20259
# Poissons Ratio (z) = 0.25724 0.15594
#
# Static dielectric constant tensor:
#      x y z
#    x 1.645060 0.000000 0.020250 
#    y 0.000000 1.602970 0.000000 
#    z 0.020250 0.000000 1.633970 
# 
# From -- ./inp_files/21837.got.cif
#   From: 2010.05.17/outbox.cif.g08.bks.cpg/sg5_11_cif.got.tgz:21837.got - 2010.06.03 18:56:24.
