data_PCOD9121249
_publ_section_title
;
Structure prediction by ZEFSAII (Michael W. Deem and Ramdas Pophale) SiO2 
 PCOD9121249
Probable space group: C 2
;
_chemical_formula_sum "Si O2"
_cell_formula_units_Z 24
_cell_length_a 21.839981
_cell_length_b 4.657098
_cell_length_c 10.477107
_cell_angle_alpha 90.000000
_cell_angle_beta 127.152756
_cell_angle_gamma 90.000000
_cell_volume 849.342171
_symmetry_space_group_name_H-M "C 2"
_symmetry_group_IT_number 5
_symmetry_cell_setting 'monoclinic'
loop_
_space_group_symop_operation_xyz
x,y,z
-x,y,-z
1/2+x,1/2+y,z
1/2-x,1/2+y,-z
loop_
_atom_site_type_symbol
_atom_site_label
_atom_site_fract_x
_atom_site_fract_y
_atom_site_fract_z
Si Si1 0.000000 0.941550 0.000000
Si Si2 0.061254 0.487356 0.928592
Si Si3 0.707490 0.726881 0.393412
Si Si4 0.000000 0.167279 0.500000
Si Si5 0.651014 0.691592 0.818408
Si Si6 0.916716 0.551681 0.603327
Si Si7 0.293167 0.224694 0.260860
O O1 0.070666 0.710791 0.058762
O O2 0.025555 0.187753 0.929974
O O3 0.124416 0.384500 0.904889
O O4 0.990568 0.661792 0.771555
O O5 0.726044 0.397349 0.444803
O O6 0.632384 0.848883 0.364901
O O7 0.718782 0.767993 0.256582
O O8 0.929743 0.042111 0.330601
O O9 0.956149 0.363154 0.544934
O O10 0.705051 0.415501 0.864568
O O11 0.689729 0.904716 0.764168
O O12 0.861316 0.764355 0.453593
#
# Coordination Sequence:
#
# PCOD9121249 Si02
#       7
#     2   4   4   2   4   4   4
#     4  10  22  38  54  78 102 130 182 234 272 306
#     4  10  21  37  56  78 103 136 177 224 273 308
#     4  10  19  31  46  71 109 146 174 199 235 301
#     4   8  16  28  44  72 104 128 160 196 238 310
#     4  10  19  31  50  74 103 136 166 204 258 312
#     4   9  19  32  51  76 108 142 169 203 255 311
#     4  10  19  31  48  77 110 139 167 197 240 316
#
# _framework density 28.257159000000001
#
# number of rings (size 3 to 8) (size 9 to 14) (size 15 to 20)
#    0.000    2.333    0.000    4.000    0.000   10.667 
#    0.000    0.000    0.000    0.000    0.000   23.333 
#    0.000    0.000    0.000    0.000    0.000    0.000 
#
# Total GULP energy -66851.317133 kJ/mol
# GULP energy per Si atom -5570.943094 kJ/mol
# Density = 2.819284 g / cm^3
# Si number density = 28.257159 Si / 1000 Ang^3
#
#
#
# Elastic Constant Matrix: (Units=GPa)
#
#
# Indices 1 2 3 4 5 6 
#
# 1 204.8574 41.0071 46.1730 0.0000 -56.1584 0.0000
# 2 41.0071 136.8545 4.6892 0.0001 -20.7482 0.0000
# 3 46.1730 4.6892 84.1774 0.0000 -6.9556 0.0000
# 4 0.0000 0.0001 0.0000 23.1838 0.0000 -25.1636
# 5 -56.1584 -20.7482 -6.9556 0.0000 57.4218 0.0000
# 6 0.0000 0.0000 0.0000 -25.1636 0.0000 50.0629
#
#
#
# Elastic Compliance Matrix: (Units=1/GPa)
#
#
# Indices 1 2 3 4 5 6 
#
# 1 0.007792 -0.001186 -0.003650 0.000000 0.006750 0.000000
# 2 -0.001186 0.007915 0.000354 0.000000 0.001742 0.000000
# 3 -0.003650 0.000354 0.013715 0.000000 -0.001781 0.000000
# 4 0.000000 0.000000 0.000000 0.094917 0.000000 0.047709
# 5 0.006750 0.001742 -0.001781 0.000000 0.024430 0.000000
# 6 0.000000 0.000000 0.000000 0.047709 0.000000 0.043955
#
#
# Mechanical properties :
#
#
# Convention : Reuss Voigt Hill
#
# Bulk Modulus (GPa) = 48.88550 67.73646 58.31098
# Shear Modulus (GPa) = 23.97989 48.40171 36.19080
#
# Velocity S-wave (km/s) = 2.91629 4.14321 3.58266
# Velocity P-wave (km/s) = 5.35513 6.84921 6.14773
#
# Compressibility (1/GPa) = 0.02045596
#
# Stress axis : x y z
#
# Youngs Moduli (GPa) = 128.33690 126.34958 72.91260
#
# Poissons Ratio (x) = 0.14990 0.26615
# Poissons Ratio (y) = 0.15226 -0.02580
# Poissons Ratio (z) = 0.46846 -0.04471
#
# Static dielectric constant tensor:
#      x y z
#    x 2.274860 0.000000 0.127180 
#    y 0.000000 2.054960 0.000000 
#    z 0.127180 0.000000 2.671310 
# 
# From -- ./inp_files/45329.got.cif
#   From: 2010.05.17/outbox.cif.g08.bks.cpg/sg5_23_cif.got.tgz:45329.got - 2010.06.03 18:56:24.
