data_PCOD9121141
_publ_section_title
;
Structure prediction by ZEFSAII (Michael W. Deem and Ramdas Pophale) SiO2 
 PCOD9121141
Probable space group: C 2
;
_chemical_formula_sum "Si O2"
_cell_formula_units_Z 32
_cell_length_a 19.687979
_cell_length_b 12.015410
_cell_length_c 11.266307
_cell_angle_alpha 90.000000
_cell_angle_beta 35.707775
_cell_angle_gamma 90.000000
_cell_volume 1555.517312
_symmetry_space_group_name_H-M "C 2"
_symmetry_group_IT_number 5
_symmetry_cell_setting 'monoclinic'
loop_
_space_group_symop_operation_xyz
x,y,z
-x,y,-z
1/2+x,1/2+y,z
1/2-x,1/2+y,-z
loop_
_atom_site_type_symbol
_atom_site_label
_atom_site_fract_x
_atom_site_fract_y
_atom_site_fract_z
Si Si1 0.088036 0.545990 0.269351
Si Si2 0.285322 0.606185 0.370857
Si Si3 0.796953 0.717837 0.067815
Si Si4 0.941862 0.311319 0.703693
Si Si5 0.360070 0.061761 0.191308
Si Si6 0.369710 0.809350 0.128480
Si Si7 0.009694 0.144916 0.208462
Si Si8 0.815817 0.969237 0.086925
O O1 0.057470 0.434071 0.235036
O O2 0.202441 0.502165 0.174277
O O3 0.000000 0.579562 0.500000
O O4 0.120544 0.648911 0.139247
O O5 0.191175 0.577190 0.603391
O O6 0.278081 0.730625 0.326787
O O7 0.409260 0.614391 0.261035
O O8 0.297491 0.519745 0.244994
O O9 0.677733 0.748766 0.165277
O O10 0.798252 0.643389 0.185123
O O11 0.839006 0.839156 0.049868
O O12 0.000000 0.350837 0.500000
O O13 0.030977 0.217119 0.624121
O O14 0.333720 0.936368 0.183935
O O15 0.500000 0.078459 0.000000
O O16 0.500000 0.808878 0.000000
O O17 0.397124 0.739050 0.970644
O O18 0.080396 0.033982 0.125255
#
# Coordination Sequence:
#
# PCOD9121141 Si02
#       8
#     4   4   4   4   4   4   4   4
#     4  10  22  40  65  91 122 165 205 252 307 366
#     4  10  22  38  64  88 120 164 207 249 311 366
#     4  11  23  40  61  93 125 161 204 257 313 366
#     4  10  20  37  65  93 117 159 212 259 295 357
#     4  11  24  38  58  90 126 161 202 259 304 368
#     4   8  18  37  59  83 108 154 201 248 290 351
#     4  10  18  40  64  87 119 158 210 251 302 366
#     4  10  22  40  63  90 125 161 202 256 313 370
#
# _framework density 20.571935
#
# number of rings (size 3 to 8) (size 9 to 14) (size 15 to 20)
#    0.000    2.000    1.250    2.625    3.500    1.000 
#    4.500    0.625    0.000    0.000    0.000    0.000 
#    0.000    0.000    0.000    0.000    0.000    0.000 
#
# Total GULP energy -89078.293416 kJ/mol
# GULP energy per Si atom -5567.393339 kJ/mol
# Density = 2.052511 g / cm^3
# Si number density = 20.571935 Si / 1000 Ang^3
#
#
#
# Elastic Constant Matrix: (Units=GPa)
#
#
# Indices 1 2 3 4 5 6 
#
# 1 50.3886 37.3722 -0.2777 0.0000 5.3844 0.0000
# 2 37.3722 190.0368 45.0518 0.0000 8.5008 0.0000
# 3 -0.2777 45.0518 74.9130 0.0000 6.3357 0.0000
# 4 0.0000 0.0000 0.0000 22.1598 0.0000 1.5158
# 5 5.3844 8.5008 6.3357 0.0000 22.3293 0.0000
# 6 0.0000 0.0000 0.0000 1.5158 0.0000 18.0108
#
#
#
# Elastic Compliance Matrix: (Units=1/GPa)
#
#
# Indices 1 2 3 4 5 6 
#
# 1 0.024465 -0.005496 0.003809 0.000000 -0.004888 0.000000
# 2 -0.005496 0.007410 -0.004457 0.000000 -0.000231 0.000000
# 3 0.003809 -0.004457 0.016370 0.000000 -0.003867 0.000000
# 4 0.000000 0.000000 0.000000 0.045388 0.000000 -0.003820
# 5 -0.004888 -0.000231 -0.003867 0.000000 0.047148 0.000000
# 6 0.000000 0.000000 0.000000 -0.003820 0.000000 0.055844
#
#
# Mechanical properties :
#
#
# Convention : Reuss Voigt Hill
#
# Bulk Modulus (GPa) = 27.81009 53.29235 40.55122
# Shear Modulus (GPa) = 22.63488 28.04613 25.34051
#
# Velocity S-wave (km/s) = 3.32064 3.69632 3.51351
# Velocity P-wave (km/s) = 5.31508 6.64670 6.01784
#
# Compressibility (1/GPa) = 0.03595817
#
# Stress axis : x y z
#
# Youngs Moduli (GPa) = 40.87462 134.95553 61.08604
#
# Poissons Ratio (x) = 0.74166 -0.23268
# Poissons Ratio (y) = 0.22463 0.27226
# Poissons Ratio (z) = -0.15569 0.60150
#
# Static dielectric constant tensor:
#      x y z
#    x 2.060730 0.000000 0.294160 
#    y 0.000000 1.772680 0.000000 
#    z 0.294160 0.000000 2.034290 
# 
# From -- ./inp_files/47496.got.cif
#   From: 2010.05.17/outbox.cif.g08.bks.cpg/sg5_24_cif.got.tgz:47496.got - 2010.06.03 18:56:24.
