data_PCOD9121750
_publ_section_title
;
Structure prediction by ZEFSAII (Michael W. Deem and Ramdas Pophale) SiO2 
 PCOD9121750
Probable space group: C 2
;
_chemical_formula_sum "Si O2"
_cell_formula_units_Z 26
_cell_length_a 15.888138
_cell_length_b 5.818432
_cell_length_c 11.812939
_cell_angle_alpha 90.000000
_cell_angle_beta 103.172596
_cell_angle_gamma 90.000000
_cell_volume 1063.302291
_symmetry_space_group_name_H-M "C 2"
_symmetry_group_IT_number 5
_symmetry_cell_setting 'monoclinic'
loop_
_space_group_symop_operation_xyz
x,y,z
-x,y,-z
1/2+x,1/2+y,z
1/2-x,1/2+y,-z
loop_
_atom_site_type_symbol
_atom_site_label
_atom_site_fract_x
_atom_site_fract_y
_atom_site_fract_z
Si Si1 0.387356 0.757260 0.228490
Si Si2 0.000000 0.977901 0.000000
Si Si3 0.424566 0.148074 0.644972
Si Si4 0.434037 0.638629 0.743681
Si Si5 0.128204 0.638315 0.627074
Si Si6 0.134055 0.594471 0.969592
Si Si7 0.242319 0.874703 0.840332
O O1 0.473656 0.632458 0.292018
O O2 0.319329 0.588242 0.155868
O O3 0.347377 0.884334 0.323080
O O4 0.411610 0.926893 0.133169
O O5 0.073016 0.807884 0.974040
O O6 0.043693 0.113374 0.116566
O O7 0.396050 0.384729 0.700334
O O8 0.529796 0.155641 0.651136
O O9 0.380884 0.159410 0.508381
O O10 0.402663 0.895881 0.695021
O O11 0.203495 0.790753 0.708257
O O12 0.165780 0.470564 0.092544
O O13 0.216193 0.675207 0.919912
#
# Coordination Sequence:
#
# PCOD9121750 Si02
#       7
#     4   2   4   4   4   4   4
#     4  10  19  36  58  89 129 165 207 276 322 396
#     4  12  24  42  62  98 136 180 222 272 332 418
#     4  10  21  36  59  95 130 167 213 281 325 392
#     4  11  22  38  59  91 133 167 217 265 331 383
#     4   9  20  32  58  91 129 166 216 268 346 382
#     4  11  23  38  61  96 137 175 222 269 338 392
#     4  11  19  37  60  92 132 173 214 277 331 399
#
# _framework density 24.452127000000001
#
# number of rings (size 3 to 8) (size 9 to 14) (size 15 to 20)
#    0.000    1.538    4.615    1.846    2.154    3.692 
#    0.000    0.000    0.000    0.000    4.000    0.000 
#    0.000    0.000    0.000    0.000    0.000    0.000 
#
# Total GULP energy -72441.833660 kJ/mol
# GULP energy per Si atom -5572.448743 kJ/mol
# Density = 2.439647 g / cm^3
# Si number density = 24.452127 Si / 1000 Ang^3
#
#
#
# Elastic Constant Matrix: (Units=GPa)
#
#
# Indices 1 2 3 4 5 6 
#
# 1 28.0533 24.4602 22.3802 0.0000 5.2014 0.0000
# 2 24.4602 170.6441 94.0170 0.0000 0.8928 0.0000
# 3 22.3802 94.0170 208.7218 0.0000 16.5949 0.0000
# 4 0.0000 0.0000 0.0000 31.3399 0.0000 -1.6688
# 5 5.2014 0.8928 16.5949 0.0000 26.0816 0.0000
# 6 0.0000 0.0000 0.0000 -1.6688 0.0000 21.8144
#
#
#
# Elastic Compliance Matrix: (Units=1/GPa)
#
#
# Indices 1 2 3 4 5 6 
#
# 1 0.042857 -0.005178 -0.001683 0.000000 -0.007299 0.000000
# 2 -0.005178 0.008528 -0.003523 0.000000 0.002982 0.000000
# 3 -0.001683 -0.003523 0.006870 0.000000 -0.003915 0.000000
# 4 0.000000 0.000000 0.000000 0.032039 0.000000 0.002451
# 5 -0.007299 0.002982 -0.003915 0.000000 0.042186 0.000000
# 6 0.000000 0.000000 0.000000 0.002451 0.000000 0.046029
#
#
# Mechanical properties :
#
#
# Convention : Reuss Voigt Hill
#
# Bulk Modulus (GPa) = 26.67594 76.57043 51.62319
# Shear Modulus (GPa) = 23.61041 33.61795 28.61418
#
# Velocity S-wave (km/s) = 3.11074 3.71192 3.42455
# Velocity P-wave (km/s) = 4.88216 7.05362 6.06585
#
# Compressibility (1/GPa) = 0.03748696
#
# Stress axis : x y z
#
# Youngs Moduli (GPa) = 23.33347 117.26227 145.56531
#
# Poissons Ratio (x) = 0.60717 0.24494
# Poissons Ratio (y) = 0.12082 0.51286
# Poissons Ratio (z) = 0.03926 0.41314
#
# Static dielectric constant tensor:
#      x y z
#    x 1.990390 0.000000 -0.011960 
#    y 0.000000 2.030980 0.000000 
#    z -0.011960 0.000000 1.916100 
# 
# From -- ./inp_files/45491.got.cif
#   From: 2010.05.17/outbox.cif.g08.bks.cpg/sg5_23_cif.got.tgz:45491.got - 2010.06.03 18:56:24.
