data_PCOD9121401
_publ_section_title
;
Structure prediction by ZEFSAII (Michael W. Deem and Ramdas Pophale) SiO2 
 PCOD9121401
Probable space group: C 2
;
_chemical_formula_sum "Si O2"
_cell_formula_units_Z 28
_cell_length_a 15.497676
_cell_length_b 17.296844
_cell_length_c 5.349689
_cell_angle_alpha 90.000000
_cell_angle_beta 112.153570
_cell_angle_gamma 90.000000
_cell_volume 1328.176289
_symmetry_space_group_name_H-M "C 2"
_symmetry_group_IT_number 5
_symmetry_cell_setting 'monoclinic'
loop_
_space_group_symop_operation_xyz
x,y,z
-x,y,-z
1/2+x,1/2+y,z
1/2-x,1/2+y,-z
loop_
_atom_site_type_symbol
_atom_site_label
_atom_site_fract_x
_atom_site_fract_y
_atom_site_fract_z
Si Si1 0.166472 0.717590 0.719273
Si Si2 0.704743 0.487643 0.096101
Si Si3 0.102911 0.395802 0.667436
Si Si4 0.110343 0.629021 0.152095
Si Si5 0.053811 0.861740 0.800032
Si Si6 0.745601 0.507098 0.642804
Si Si7 0.322498 0.836918 0.752284
O O1 0.134862 0.676948 0.428650
O O2 0.096538 0.785410 0.725380
O O3 0.262244 0.762372 0.759411
O O4 0.159288 0.662369 0.954235
O O5 0.812493 0.458003 0.229975
O O6 0.690643 0.530692 0.337697
O O7 0.636188 0.416130 0.990486
O O8 0.694837 0.534887 0.834602
O O9 0.130029 0.338829 0.467632
O O10 0.000000 0.427603 0.500000
O O11 0.108729 0.355138 0.943099
O O12 0.152480 0.544071 0.242904
O O13 0.000000 0.628069 0.000000
O O14 0.000000 0.898282 0.500000
O O15 0.000000 0.843210 0.000000
O O16 0.754643 0.413624 0.663793
#
# Coordination Sequence:
#
# PCOD9121401 Si02
#       7
#     4   4   4   4   4   4   4
#     4  12  23  42  60  92 139 179 214 267 322 406
#     4  10  21  38  59  91 127 160 224 268 324 383
#     4  10  19  33  57  89 119 152 201 274 330 361
#     4  12  26  40  60  99 140 180 213 257 347 431
#     4  12  23  36  63  96 132 170 217 284 330 381
#     4  10  21  39  60  83 128 175 207 265 313 385
#     4  10  21  38  62  86 125 164 225 268 308 379
#
# _framework density 21.08154
#
# number of rings (size 3 to 8) (size 9 to 14) (size 15 to 20)
#    0.000    1.143    2.857    5.571    4.000    4.571 
#    0.000    0.000    0.000    0.000    0.000   35.000 
#    0.000    0.000    0.000    0.000    0.000    0.000 
#
# Total GULP energy -78095.366537 kJ/mol
# GULP energy per Si atom -5578.240467 kJ/mol
# Density = 2.103356 g / cm^3
# Si number density = 21.081540 Si / 1000 Ang^3
#
#
#
# Elastic Constant Matrix: (Units=GPa)
#
#
# Indices 1 2 3 4 5 6 
#
# 1 53.3450 11.2541 34.3818 0.0000 -20.8452 0.0000
# 2 11.2541 46.0083 19.8317 0.0000 -0.2093 0.0000
# 3 34.3818 19.8317 169.0602 0.0000 -41.4294 0.0000
# 4 0.0000 0.0000 0.0000 21.2790 0.0000 2.3258
# 5 -20.8452 -0.2093 -41.4294 0.0000 45.1229 0.0000
# 6 0.0000 0.0000 0.0000 2.3258 0.0000 6.8439
#
#
#
# Elastic Compliance Matrix: (Units=1/GPa)
#
#
# Indices 1 2 3 4 5 6 
#
# 1 0.024929 -0.005136 -0.002130 0.000000 0.009537 0.000000
# 2 -0.005136 0.024280 -0.003042 0.000000 -0.005053 0.000000
# 3 -0.002130 -0.003042 0.008336 0.000000 0.006655 0.000000
# 4 0.000000 0.000000 0.000000 0.048808 0.000000 -0.016586
# 5 0.009537 -0.005053 0.006655 0.000000 0.032654 0.000000
# 6 0.000000 0.000000 0.000000 -0.016586 0.000000 0.151753
#
#
# Mechanical properties :
#
#
# Convention : Reuss Voigt Hill
#
# Bulk Modulus (GPa) = 27.07968 44.37207 35.72588
# Shear Modulus (GPa) = 15.44708 28.17889 21.81299
#
# Velocity S-wave (km/s) = 2.70984 3.66000 3.22016
# Velocity P-wave (km/s) = 4.76068 6.24134 5.55060
#
# Compressibility (1/GPa) = 0.03692806
#
# Stress axis : x y z
#
# Youngs Moduli (GPa) = 40.11388 41.18658 119.96025
#
# Poissons Ratio (x) = 0.21154 0.25555
# Poissons Ratio (y) = 0.20603 0.36490
# Poissons Ratio (z) = 0.08546 0.12528
#
# Static dielectric constant tensor:
#      x y z
#    x 1.820480 0.000000 -0.053570 
#    y 0.000000 1.753530 0.000000 
#    z -0.053570 0.000000 1.872550 
# 
# From -- ./inp_files/7343.got.cif
#   From: 2010.05.17/outbox.cif.g08.bks.cpg/sg5_4_cif.got.tgz:7343.got - 2010.06.03 18:56:24.
