data_PCOD9121805
_publ_section_title
;
Structure prediction by ZEFSAII (Michael W. Deem and Ramdas Pophale) SiO2 
 PCOD9121805
Probable space group: C 2
;
_chemical_formula_sum "Si O2"
_cell_formula_units_Z 24
_cell_length_a 8.325100
_cell_length_b 12.504917
_cell_length_c 9.586445
_cell_angle_alpha 90.000000
_cell_angle_beta 112.644616
_cell_angle_gamma 90.000000
_cell_volume 921.059174
_symmetry_space_group_name_H-M "C 2"
_symmetry_group_IT_number 5
_symmetry_cell_setting 'monoclinic'
loop_
_space_group_symop_operation_xyz
x,y,z
-x,y,-z
1/2+x,1/2+y,z
1/2-x,1/2+y,-z
loop_
_atom_site_type_symbol
_atom_site_label
_atom_site_fract_x
_atom_site_fract_y
_atom_site_fract_z
Si Si1 0.774503 0.105660 0.898096
Si Si2 0.000000 0.448212 0.500000
Si Si3 0.795608 0.779228 0.690226
Si Si4 0.500000 0.322784 0.500000
Si Si5 0.000000 0.556467 0.000000
Si Si6 0.983298 0.206078 0.212600
Si Si7 0.665359 0.935548 0.285608
Si Si8 0.500000 0.398979 0.000000
O O1 0.846513 0.133759 0.768040
O O2 0.582912 0.114225 0.894952
O O3 0.866512 0.186286 0.037707
O O4 0.843234 0.986287 0.954514
O O5 0.165260 0.375616 0.600818
O O6 0.076645 0.499386 0.384894
O O7 0.900467 0.755508 0.584493
O O8 0.655972 0.694386 0.707781
O O9 0.929248 0.825261 0.850700
O O10 0.360831 0.400137 0.379715
O O11 0.857968 0.486883 0.872000
O O12 0.056514 0.324829 0.245593
#
# Coordination Sequence:
#
# PCOD9121805 Si02
#       8
#     4   2   4   2   2   4   4   2
#     4  10  22  36  55  93 131 157 196 264 311 351
#     4   8  18  34  56  82 118 152 196 248 302 350
#     4  10  19  36  61  90 117 158 204 251 300 363
#     4  10  22  34  62 100 128 148 202 266 312 352
#     4  12  22  36  64  94 120 160 214 254 302 364
#     4   9  20  37  57  80 123 164 197 244 305 353
#     4  10  20  39  64  90 117 161 208 255 302 366
#     4  10  20  36  64  94 118 154 210 252 300 368
#
# _framework density 26.056958000000002
#
# number of rings (size 3 to 8) (size 9 to 14) (size 15 to 20)
#    0.000    2.333    0.000    4.000    0.000    4.667 
#    0.000    0.000    0.000  106.000    0.000    0.000 
#    0.000    0.000    0.000    0.000    0.000    0.000 
#
# Total GULP energy -66907.500116 kJ/mol
# GULP energy per Si atom -5575.625010 kJ/mol
# Density = 2.599765 g / cm^3
# Si number density = 26.056958 Si / 1000 Ang^3
#
#
#
# Elastic Constant Matrix: (Units=GPa)
#
#
# Indices 1 2 3 4 5 6 
#
# 1 166.1545 60.2123 70.2386 0.0000 -71.5910 0.0000
# 2 60.2123 74.9564 47.1929 0.0000 4.3728 0.0000
# 3 70.2386 47.1929 155.2288 0.0000 -15.9865 0.0000
# 4 0.0000 0.0000 0.0000 67.8740 0.0000 -24.3935
# 5 -71.5910 4.3728 -15.9865 0.0000 76.1122 0.0000
# 6 0.0000 0.0000 0.0000 -24.3935 0.0000 104.2285
#
#
#
# Elastic Compliance Matrix: (Units=1/GPa)
#
#
# Indices 1 2 3 4 5 6 
#
# 1 0.023890 -0.018817 -0.002722 0.000000 0.022980 0.000000
# 2 -0.018817 0.031639 -0.003183 0.000000 -0.020186 0.000000
# 3 -0.002722 -0.003183 0.008582 0.000000 -0.000575 0.000000
# 4 0.000000 0.000000 0.000000 0.016086 0.000000 0.003765
# 5 0.022980 -0.020186 -0.000575 0.000000 0.035792 0.000000
# 6 0.000000 0.000000 0.000000 0.003765 0.000000 0.010475
#
#
# Mechanical properties :
#
#
# Convention : Reuss Voigt Hill
#
# Bulk Modulus (GPa) = 68.18740 83.51415 75.85077
# Shear Modulus (GPa) = 27.65498 64.22266 45.93882
#
# Velocity S-wave (km/s) = 3.26134 4.96996 4.20338
# Velocity P-wave (km/s) = 6.35666 8.06562 7.26159
#
# Compressibility (1/GPa) = 0.01466547
#
# Stress axis : x y z
#
# Youngs Moduli (GPa) = 41.85870 31.60683 116.51709
#
# Poissons Ratio (x) = 0.59476 0.31719
# Poissons Ratio (y) = 0.78767 0.37089
# Poissons Ratio (z) = 0.11395 0.10061
#
# Static dielectric constant tensor:
#      x y z
#    x 2.122170 0.000000 0.010130 
#    y 0.000000 2.071240 0.000000 
#    z 0.010130 0.000000 1.971150 
# 
# From -- ./inp_files/15115.got.cif
#   From: 2010.05.17/outbox.cif.g08.bks.cpg/sg5_8_cif.got.tgz:15115.got - 2010.06.03 18:56:24.
