data_PCOD9121197
_publ_section_title
;
Structure prediction by ZEFSAII (Michael W. Deem and Ramdas Pophale) SiO2 
 PCOD9121197
Probable space group: C 2
;
_chemical_formula_sum "Si O2"
_cell_formula_units_Z 28
_cell_length_a 13.233481
_cell_length_b 5.510436
_cell_length_c 14.101914
_cell_angle_alpha 90.000000
_cell_angle_beta 82.967078
_cell_angle_gamma 90.000000
_cell_volume 1020.606006
_symmetry_space_group_name_H-M "C 2"
_symmetry_group_IT_number 5
_symmetry_cell_setting 'monoclinic'
loop_
_space_group_symop_operation_xyz
x,y,z
-x,y,-z
1/2+x,1/2+y,z
1/2-x,1/2+y,-z
loop_
_atom_site_type_symbol
_atom_site_label
_atom_site_fract_x
_atom_site_fract_y
_atom_site_fract_z
Si Si1 0.732215 0.806750 0.414839
Si Si2 0.867661 0.691731 0.170919
Si Si3 0.493101 0.450537 0.689549
Si Si4 0.500000 0.702385 0.500000
Si Si5 0.220157 0.433467 0.059669
Si Si6 0.018780 0.312398 0.155127
Si Si7 0.789870 0.796459 0.625628
Si Si8 0.500000 0.416821 0.000000
O O1 0.608990 0.820078 0.454033
O O2 0.789315 0.794398 0.509558
O O3 0.755904 0.562741 0.353354
O O4 0.761764 0.041957 0.352187
O O5 0.934268 0.808092 0.247669
O O6 0.902653 0.410756 0.171190
O O7 0.918250 0.760714 0.063254
O O8 0.762083 0.814354 0.154127
O O9 0.533595 0.538607 0.584132
O O10 0.460948 0.696969 0.745794
O O11 0.394499 0.298420 0.670374
O O12 0.104177 0.494062 0.106572
O O13 0.266843 0.694077 0.014781
O O14 0.032838 0.095096 0.079894
#
# Coordination Sequence:
#
# PCOD9121197 Si02
#       8
#     4   4   4   2   4   4   4   2
#     4   9  19  37  66  88 121 177 241 296 357 426
#     4  11  24  43  72 108 147 199 247 315 381 457
#     4  10  25  44  65 102 146 194 252 313 376 445
#     4  10  22  46  66  98 140 196 252 310 368 446
#     4  12  26  48  78 115 152 200 253 309 389 487
#     4  11  24  44  69 108 147 196 244 318 379 454
#     4   9  19  40  61  92 126 175 235 297 361 426
#     4  10  18  42  68  94 140 180 240 292 380 446
#
# _framework density 27.434681999999999
#
# number of rings (size 3 to 8) (size 9 to 14) (size 15 to 20)
#    0.000    1.714    1.429    2.143    8.000    2.286 
#    5.143    2.857    0.000    0.000    0.000    0.000 
#    0.000    0.000    0.000    0.000    0.000    0.000 
#
# Total GULP energy -78064.508569 kJ/mol
# GULP energy per Si atom -5576.036326 kJ/mol
# Density = 2.737224 g / cm^3
# Si number density = 27.434682 Si / 1000 Ang^3
#
#
#
# Elastic Constant Matrix: (Units=GPa)
#
#
# Indices 1 2 3 4 5 6 
#
# 1 112.4796 16.8326 41.6503 0.0000 24.0858 0.0000
# 2 16.8326 144.9758 42.8314 0.0000 10.7784 0.0000
# 3 41.6503 42.8314 140.8745 0.0000 38.8534 0.0000
# 4 0.0000 0.0000 0.0000 14.8148 0.0000 41.6253
# 5 24.0858 10.7784 38.8534 0.0000 53.1120 0.0000
# 6 0.0000 0.0000 0.0000 41.6253 0.0000 15.8133
#
#
#
# Elastic Compliance Matrix: (Units=1/GPa)
#
#
# Indices 1 2 3 4 5 6 
#
# 1 0.010387 -0.000352 -0.002110 0.000000 -0.003095 0.000000
# 2 -0.000352 0.007592 -0.002284 0.000000 0.000290 0.000000
# 3 -0.002110 -0.002284 0.010053 0.000000 -0.005934 0.000000
# 4 0.000000 0.000000 0.000000 -0.010553 0.000000 0.027780
# 5 -0.003095 0.000290 -0.005934 0.000000 0.024514 0.000000
# 6 0.000000 0.000000 0.000000 0.027780 0.000000 -0.009887
#
#
# Mechanical properties :
#
#
# Convention : Reuss Voigt Hill
#
# Bulk Modulus (GPa) = 53.93927 66.77315 60.35621
# Shear Modulus (GPa) = 104.64776 36.54906 70.59841
#
# Velocity S-wave (km/s) = 6.18281 3.65392 5.07830
# Velocity P-wave (km/s) = 8.40673 6.49564 7.51221
#
# Compressibility (1/GPa) = 0.01853937
#
# Stress axis : x y z
#
# Youngs Moduli (GPa) = 96.26968 131.72033 99.46844
#
# Poissons Ratio (x) = 0.04643 0.20990
# Poissons Ratio (y) = 0.03393 0.22718
# Poissons Ratio (z) = 0.20315 0.30085
#
# Static dielectric constant tensor:
#      x y z
#    x 3.500770 0.000000 -0.300760 
#    y 0.000000 2.245620 0.000000 
#    z -0.300760 0.000000 2.184690 
# 
# From -- ./inp_files/55208.got.cif
#   From: 2010.05.17/outbox.cif.g08.bks.cpg/sg5_28_cif.got.tgz:55208.got - 2010.06.03 18:56:24.
