data_PCOD9121288
_publ_section_title
;
Structure prediction by ZEFSAII (Michael W. Deem and Ramdas Pophale) SiO2 
 PCOD9121288
Probable space group: C 2
;
_chemical_formula_sum "Si O2"
_cell_formula_units_Z 28
_cell_length_a 16.113694
_cell_length_b 20.680076
_cell_length_c 16.692738
_cell_angle_alpha 90.000000
_cell_angle_beta 162.045049
_cell_angle_gamma 90.000000
_cell_volume 1714.765957
_symmetry_space_group_name_H-M "C 2"
_symmetry_group_IT_number 5
_symmetry_cell_setting 'monoclinic'
loop_
_space_group_symop_operation_xyz
x,y,z
-x,y,-z
1/2+x,1/2+y,z
1/2-x,1/2+y,-z
loop_
_atom_site_type_symbol
_atom_site_label
_atom_site_fract_x
_atom_site_fract_y
_atom_site_fract_z
Si Si1 0.188631 0.591360 0.541149
Si Si2 0.359439 0.666601 0.952356
Si Si3 0.211624 0.164565 0.527053
Si Si4 0.736502 0.743107 0.979405
Si Si5 0.097497 0.865392 0.947075
Si Si6 0.500000 0.675114 0.500000
Si Si7 0.000000 0.765397 0.000000
Si Si8 0.942508 0.443217 0.542790
O O1 0.249357 0.609222 0.504117
O O2 0.113612 0.517687 0.488543
O O3 0.933520 0.635733 0.330808
O O4 0.447649 0.612420 0.830353
O O5 0.333677 0.722368 0.994809
O O6 0.500000 0.687772 0.000000
O O7 0.493527 0.202628 0.794701
O O8 0.104302 0.140774 0.514745
O O9 0.000046 0.215801 0.294788
O O10 0.784954 0.819369 0.014188
O O11 0.041016 0.812218 0.963226
O O12 0.819642 0.901498 0.675166
O O13 0.308262 0.915697 0.177843
O O14 0.743402 0.720851 0.750695
O O15 0.000000 0.436234 0.500000
#
# Coordination Sequence:
#
# PCOD9121288 Si02
#       8
#     4   4   4   4   4   2   2   4
#     4  10  22  35  49  73 102 129 166 202 236 285
#     4  10  19  35  55  73  96 127 163 207 248 284
#     4  10  19  32  50  73  99 128 159 201 247 285
#     4  10  20  32  49  74 102 125 157 203 247 286
#     4  12  21  32  46  74 102 130 159 193 235 295
#     4  12  18  30  54  74 100 130 154 198 250 292
#     4  12  20  30  48  74 108 124 162 190 230 306
#     4  12  22  32  48  69  99 138 164 188 233 292
#
# _framework density 16.328759000000002
#
# number of rings (size 3 to 8) (size 9 to 14) (size 15 to 20)
#    0.000    1.143    4.286    3.857    0.000    0.000 
#    0.000    0.000    0.000    0.000    3.714    0.000 
#    0.000    0.000    0.000    0.000    0.000    0.000 
#
# Total GULP energy -78150.252119 kJ/mol
# GULP energy per Si atom -5582.160866 kJ/mol
# Density = 1.629159 g / cm^3
# Si number density = 16.328759 Si / 1000 Ang^3
#
#
#
# Elastic Constant Matrix: (Units=GPa)
#
#
# Indices 1 2 3 4 5 6 
#
# 1 118.5683 25.8731 -1.9931 0.0004 7.4719 0.0004
# 2 25.8731 48.6737 -16.0339 0.0010 5.5942 0.0012
# 3 -1.9931 -16.0339 51.4798 -0.0011 16.5357 0.0012
# 4 0.0004 0.0010 -0.0011 16.6792 -0.0014 4.1831
# 5 7.4719 5.5942 16.5357 -0.0014 17.8604 -0.0006
# 6 0.0004 0.0012 0.0012 4.1831 -0.0006 28.2727
#
#
#
# Elastic Compliance Matrix: (Units=1/GPa)
#
#
# Indices 1 2 3 4 5 6 
#
# 1 0.009659 -0.005128 -0.000628 0.000000 -0.001853 0.000000
# 2 -0.005128 0.031725 0.017342 -0.000002 -0.023847 -0.000002
# 3 -0.000628 0.017342 0.037663 -0.000001 -0.040039 -0.000003
# 4 0.000000 -0.000002 -0.000001 0.062265 0.000006 -0.009213
# 5 -0.001853 -0.023847 -0.040039 0.000006 0.101303 0.000004
# 6 0.000000 -0.000002 -0.000003 -0.009213 0.000004 0.036733
#
#
# Mechanical properties :
#
#
# Convention : Reuss Voigt Hill
#
# Bulk Modulus (GPa) = 9.78295 26.04601 17.91448
# Shear Modulus (GPa) = 17.22656 26.62086 21.92371
#
# Velocity S-wave (km/s) = 3.25157 4.04208 3.66819
# Velocity P-wave (km/s) = 4.48344 6.14575 5.37919
#
# Compressibility (1/GPa) = 0.10221866
#
# Stress axis : x y z
#
# Youngs Moduli (GPa) = 103.52758 31.52119 26.55129
#
# Poissons Ratio (x) = 0.16165 0.01668
# Poissons Ratio (y) = 0.53093 -0.46046
# Poissons Ratio (z) = 0.06502 -0.54665
#
# Static dielectric constant tensor:
#      x y z
#    x 1.605600 0.000000 0.002170 
#    y 0.000000 1.515020 0.000000 
#    z 0.002170 0.000000 1.557050 
# 
# From -- ./inp_files/9832.got.cif
#   From: 2010.05.17/outbox.cif.g08.bks.cpg/sg5_5_cif.got.tgz:9832.got - 2010.06.03 18:56:24.
