data_PCOD9121269
_publ_section_title
;
Structure prediction by ZEFSAII (Michael W. Deem and Ramdas Pophale) SiO2 
 PCOD9121269
Probable space group: C 2
;
_chemical_formula_sum "Si O2"
_cell_formula_units_Z 24
_cell_length_a 24.203522
_cell_length_b 6.447815
_cell_length_c 13.577691
_cell_angle_alpha 90.000000
_cell_angle_beta 28.161131
_cell_angle_gamma 90.000000
_cell_volume 1000.035947
_symmetry_space_group_name_H-M "C 2"
_symmetry_group_IT_number 5
_symmetry_cell_setting 'monoclinic'
loop_
_space_group_symop_operation_xyz
x,y,z
-x,y,-z
1/2+x,1/2+y,z
1/2-x,1/2+y,-z
loop_
_atom_site_type_symbol
_atom_site_label
_atom_site_fract_x
_atom_site_fract_y
_atom_site_fract_z
Si Si1 0.500000 0.152941 0.500000
Si Si2 0.332870 0.533168 0.760274
Si Si3 0.155070 0.286012 0.540874
Si Si4 0.155959 0.516583 0.879762
Si Si5 0.000000 0.778566 0.000000
Si Si6 0.312713 0.632528 0.294302
Si Si7 0.525122 0.771753 0.324625
O O1 0.388759 0.305224 0.666474
O O2 0.524593 0.002380 0.369261
O O3 0.204737 0.536886 0.913732
O O4 0.417745 0.666527 0.555103
O O5 0.360085 0.642337 0.822520
O O6 0.191336 0.521877 0.458763
O O7 0.023393 0.253632 0.709237
O O8 0.242002 0.124939 0.348599
O O9 0.177534 0.259225 0.620691
O O10 0.039366 0.636726 0.029714
O O11 0.149657 0.282598 0.851830
O O12 0.104838 0.935633 0.816034
#
# Coordination Sequence:
#
# PCOD9121269 Si02
#       7
#     2   4   4   4   2   4   4
#     4   8  12  24  40  70 102 138 162 204 278 302
#     4   8  15  26  46  69 103 137 167 213 262 305
#     4  10  19  31  53  82 110 137 175 219 274 308
#     4  10  19  35  51  78 110 139 180 218 261 326
#     4  10  24  36  52  78 108 146 178 212 266 316
#     4  11  20  35  54  82 109 144 172 222 267 320
#     4   8  15  26  42  74 108 129 165 219 259 315
#
# _framework density 23.999137999999999
#
# number of rings (size 3 to 8) (size 9 to 14) (size 15 to 20)
#    0.000    3.000    1.667    1.500    0.000    1.333 
#    0.000    0.000    0.000    0.000    8.667    0.000 
#    0.000    0.000    0.000    0.000    0.000    0.000 
#
# Total GULP energy -66992.985747 kJ/mol
# GULP energy per Si atom -5582.748812 kJ/mol
# Density = 2.394452 g / cm^3
# Si number density = 23.999138 Si / 1000 Ang^3
#
#
#
# Elastic Constant Matrix: (Units=GPa)
#
#
# Indices 1 2 3 4 5 6 
#
# 1 123.3704 42.7068 48.1260 0.0000 -34.5190 0.0000
# 2 42.7068 141.2889 31.5564 -0.0004 -17.4097 0.0000
# 3 48.1260 31.5564 69.9972 -0.0001 -18.3981 0.0000
# 4 0.0000 -0.0004 -0.0001 16.0467 0.0000 -6.1592
# 5 -34.5190 -17.4097 -18.3981 0.0000 47.7043 0.0000
# 6 0.0000 0.0000 0.0000 -6.1592 0.0000 10.5350
#
#
#
# Elastic Compliance Matrix: (Units=1/GPa)
#
#
# Indices 1 2 3 4 5 6 
#
# 1 0.012989 -0.001698 -0.006518 0.000000 0.006265 0.000000
# 2 -0.001698 0.008214 -0.002304 0.000000 0.000880 0.000000
# 3 -0.006518 -0.002304 0.020415 0.000000 0.002316 0.000000
# 4 0.000000 0.000000 0.000000 0.080349 0.000000 0.046975
# 5 0.006265 0.000880 0.002316 0.000000 0.026711 0.000000
# 6 0.000000 0.000000 0.000000 0.046975 0.000000 0.122386
#
#
# Mechanical properties :
#
#
# Convention : Reuss Voigt Hill
#
# Bulk Modulus (GPa) = 48.59693 64.38166 56.48929
# Shear Modulus (GPa) = 16.72439 29.00833 22.86636
#
# Velocity S-wave (km/s) = 2.64270 3.48044 3.09009
# Velocity P-wave (km/s) = 5.44107 6.56020 6.02667
#
# Compressibility (1/GPa) = 0.02057743
#
# Stress axis : x y z
#
# Youngs Moduli (GPa) = 76.98574 121.74155 48.98274
#
# Poissons Ratio (x) = 0.20676 0.31928
# Poissons Ratio (y) = 0.13075 0.11286
# Poissons Ratio (z) = 0.50181 0.28050
#
# Static dielectric constant tensor:
#      x y z
#    x 1.964950 0.000000 -0.029180 
#    y 0.000000 1.897710 0.000000 
#    z -0.029180 0.000000 2.047900 
# 
# From -- ./inp_files/43744.got.cif
#   From: 2010.05.17/outbox.cif.g08.bks.cpg/sg5_22_cif.got.tgz:43744.got - 2010.06.03 18:56:24.
