data_PCOD9121240
_publ_section_title
;
Structure prediction by ZEFSAII (Michael W. Deem and Ramdas Pophale) SiO2 
 PCOD9121240
Probable space group: C 2
;
_chemical_formula_sum "Si O2"
_cell_formula_units_Z 26
_cell_length_a 18.334694
_cell_length_b 14.437683
_cell_length_c 16.652015
_cell_angle_alpha 90.000000
_cell_angle_beta 160.060952
_cell_angle_gamma 90.000000
_cell_volume 1503.204906
_symmetry_space_group_name_H-M "C 2"
_symmetry_group_IT_number 5
_symmetry_cell_setting 'monoclinic'
loop_
_space_group_symop_operation_xyz
x,y,z
-x,y,-z
1/2+x,1/2+y,z
1/2-x,1/2+y,-z
loop_
_atom_site_type_symbol
_atom_site_label
_atom_site_fract_x
_atom_site_fract_y
_atom_site_fract_z
Si Si1 0.500000 0.207031 0.000000
Si Si2 0.141648 0.295204 0.869338
Si Si3 0.950635 0.640474 0.117938
Si Si4 0.410917 0.055293 0.495833
Si Si5 0.656699 0.852765 0.586263
Si Si6 0.768025 0.000529 0.996064
Si Si7 0.861361 0.142889 0.651891
O O1 0.427837 0.144784 0.999228
O O2 0.332437 0.277052 0.786832
O O3 0.315489 0.226300 0.012288
O O4 0.967934 0.323315 0.622429
O O5 0.688568 0.146593 0.400829
O O6 0.263216 0.391806 0.010547
O O7 0.842449 0.550466 0.043268
O O8 0.513577 0.733716 0.802849
O O9 0.500000 0.082579 0.500000
O O10 0.273144 0.128264 0.405119
O O11 0.273506 0.960042 0.346715
O O12 0.614288 0.024738 0.760962
O O13 0.500000 0.851000 0.500000
O O14 0.990702 0.052247 0.209154
#
# Coordination Sequence:
#
# PCOD9121240 Si02
#       7
#     2   4   4   4   4   4   4
#     4  12  20  30  56  82 116 146 176 226 286 328
#     4  10  19  35  54  78 111 149 189 225 271 333
#     4  10  21  33  53  84 108 149 190 221 279 331
#     4   9  20  34  53  84 113 143 185 223 283 341
#     4  10  19  30  49  82 117 142 172 226 281 335
#     4   9  21  36  53  79 114 147 187 229 270 334
#     4  10  20  35  54  79 115 151 183 231 280 323
#
# _framework density 17.296377
#
# number of rings (size 3 to 8) (size 9 to 14) (size 15 to 20)
#    0.000    2.154    3.077    0.000    2.154    1.846 
#    0.000    0.000    0.000    5.538    0.000    2.154 
#    0.000    0.000    0.000    0.000    0.000    0.000 
#
# Total GULP energy -72408.986650 kJ/mol
# GULP energy per Si atom -5569.922050 kJ/mol
# Density = 1.725701 g / cm^3
# Si number density = 17.296377 Si / 1000 Ang^3
#
#
#
# Elastic Constant Matrix: (Units=GPa)
#
#
# Indices 1 2 3 4 5 6 
#
# 1 99.0299 50.9059 22.5226 -0.0044 6.6123 -0.0040
# 2 50.9059 96.7133 15.9542 -0.0020 6.4302 -0.0019
# 3 22.5226 15.9542 49.7058 -0.0007 3.1091 -0.0019
# 4 -0.0044 -0.0020 -0.0007 92.7557 0.0053 42.5343
# 5 6.6123 6.4302 3.1091 0.0053 18.4138 0.0034
# 6 -0.0040 -0.0019 -0.0019 42.5343 0.0034 50.7922
#
#
#
# Elastic Compliance Matrix: (Units=1/GPa)
#
#
# Indices 1 2 3 4 5 6 
#
# 1 0.014790 -0.006924 -0.004344 0.000000 -0.002159 0.000001
# 2 -0.006924 0.014357 -0.001326 0.000000 -0.002303 0.000000
# 3 -0.004344 -0.001326 0.022625 0.000000 -0.001797 0.000001
# 4 0.000000 0.000000 0.000000 0.017502 -0.000002 -0.014656
# 5 -0.002159 -0.002303 -0.001797 -0.000002 0.056190 -0.000002
# 6 0.000001 0.000000 0.000001 -0.014656 -0.000002 0.031962
#
#
# Mechanical properties :
#
#
# Convention : Reuss Voigt Hill
#
# Bulk Modulus (GPa) = 37.62013 47.13495 42.37754
# Shear Modulus (GPa) = 26.11320 42.79677 34.45498
#
# Velocity S-wave (km/s) = 3.88976 4.97965 4.46806
# Velocity P-wave (km/s) = 6.47852 7.77001 7.15347
#
# Compressibility (1/GPa) = 0.02658151
#
# Stress axis : x y z
#
# Youngs Moduli (GPa) = 67.61532 69.65476 44.19938
#
# Poissons Ratio (x) = 0.48232 0.19199
# Poissons Ratio (y) = 0.46820 0.05863
# Poissons Ratio (z) = 0.29371 0.09239
#
# Static dielectric constant tensor:
#      x y z
#    x 1.574140 0.000000 -0.001180 
#    y 0.000000 1.611100 0.000000 
#    z -0.001180 0.000000 1.645930 
# 
# From -- ./inp_files/62456.got.cif
#   From: 2010.05.17/outbox.cif.g08.bks.cpg/sg5_32_cif.got.tgz:62456.got - 2010.06.03 18:56:24.
