data_PCOD9121311
_publ_section_title
;
Structure prediction by ZEFSAII (Michael W. Deem and Ramdas Pophale) SiO2 
 PCOD9121311
Probable space group: C 2
;
_chemical_formula_sum "Si O2"
_cell_formula_units_Z 24
_cell_length_a 7.612118
_cell_length_b 30.642262
_cell_length_c 8.606534
_cell_angle_alpha 90.000000
_cell_angle_beta 143.180744
_cell_angle_gamma 90.000000
_cell_volume 1203.077464
_symmetry_space_group_name_H-M "C 2"
_symmetry_group_IT_number 5
_symmetry_cell_setting 'monoclinic'
loop_
_space_group_symop_operation_xyz
x,y,z
-x,y,-z
1/2+x,1/2+y,z
1/2-x,1/2+y,-z
loop_
_atom_site_type_symbol
_atom_site_label
_atom_site_fract_x
_atom_site_fract_y
_atom_site_fract_z
Si Si1 0.346988 0.099240 0.559061
Si Si2 0.650009 0.818584 0.275209
Si Si3 0.848846 0.508494 0.724343
Si Si4 0.844193 0.238454 0.227498
Si Si5 0.149883 0.413945 0.275349
Si Si6 0.842571 0.146907 0.056866
O O1 0.500000 0.103505 0.500000
O O2 0.404546 0.050643 0.659941
O O3 0.013758 0.113653 0.292162
O O4 0.511045 0.131864 0.792551
O O5 0.516671 0.779252 0.277810
O O6 0.583196 0.866634 0.300438
O O7 0.000000 0.814070 0.500000
O O8 0.500000 0.817410 0.000000
O O9 0.500000 0.507557 0.500000
O O10 0.935524 0.461031 0.715057
O O11 0.000000 0.512924 0.000000
O O12 0.864835 0.195534 0.136109
O O13 0.000000 0.228214 0.500000
O O14 0.500000 0.249163 0.000000
O O15 0.500000 0.414180 0.500000
O O16 0.000000 0.413815 0.000000
O O17 0.000000 0.145170 0.000000
#
# Coordination Sequence:
#
# PCOD9121311 Si02
#       6
#     4   4   4   4   4   4
#     4  10  21  36  54  78 107 140 181 223 264 319
#     4  10  20  38  62  81 107 150 191 220 264 333
#     4  10  19  32  54  81 108 138 176 221 268 315
#     4  12  25  38  56  86 117 139 177 237 288 322
#     4   8  16  31  53  80 104 135 181 222 254 312
#     4  10  22  39  56  74 104 148 188 217 260 331
#
# _framework density 19.948839
#
# number of rings (size 3 to 8) (size 9 to 14) (size 15 to 20)
#    0.000    2.000    0.000    3.500    0.000    6.000 
#    0.000    0.833    0.000    3.000    0.000    0.000 
#    0.000    0.000    0.000    0.000    0.000    0.000 
#
# Total GULP energy -66957.771656 kJ/mol
# GULP energy per Si atom -5579.814305 kJ/mol
# Density = 1.990343 g / cm^3
# Si number density = 19.948839 Si / 1000 Ang^3
#
#
#
# Elastic Constant Matrix: (Units=GPa)
#
#
# Indices 1 2 3 4 5 6 
#
# 1 19.4027 20.9852 32.9990 0.0000 4.1470 0.0000
# 2 20.9852 181.7103 47.0735 0.0000 -13.8898 0.0000
# 3 32.9990 47.0735 163.1198 0.0000 7.9621 0.0000
# 4 0.0000 0.0000 0.0000 20.5333 0.0000 21.3374
# 5 4.1470 -13.8898 7.9621 0.0000 19.7242 0.0000
# 6 0.0000 0.0000 0.0000 21.3374 0.0000 -17.4769
#
#
#
# Elastic Compliance Matrix: (Units=1/GPa)
#
#
# Indices 1 2 3 4 5 6 
#
# 1 0.089283 -0.007847 -0.014905 0.000000 -0.018281 0.000000
# 2 -0.007847 0.007159 -0.000821 0.000000 0.007023 0.000000
# 3 -0.014905 -0.000821 0.009444 0.000000 -0.001257 0.000000
# 4 0.000000 0.000000 0.000000 0.021467 0.000000 0.026208
# 5 -0.018281 0.007023 -0.001257 0.000000 0.059995 0.000000
# 6 0.000000 0.000000 0.000000 0.026208 0.000000 -0.025221
#
#
# Mechanical properties :
#
#
# Convention : Reuss Voigt Hill
#
# Bulk Modulus (GPa) = 17.02432 62.92756 39.97594
# Shear Modulus (GPa) = 21.84791 22.10115 21.97453
#
# Velocity S-wave (km/s) = 3.31297 3.33211 3.32255
# Velocity P-wave (km/s) = 4.81527 6.81300 5.89931
#
# Compressibility (1/GPa) = 0.05873950
#
# Stress axis : x y z
#
# Youngs Moduli (GPa) = 11.20029 139.68237 105.88612
#
# Poissons Ratio (x) = 1.09611 1.57824
# Poissons Ratio (y) = 0.08789 0.08696
# Poissons Ratio (z) = 0.16694 0.11472
#
# Static dielectric constant tensor:
#      x y z
#    x 1.702380 0.000000 -0.010110 
#    y 0.000000 1.747880 0.000000 
#    z -0.010110 0.000000 1.700900 
# 
# From -- ./inp_files/3549.got.cif
#   From: 2010.05.17/outbox.cif.g08.bks.cpg/sg5_2_cif.got.tgz:3549.got - 2010.06.03 18:56:24.
