data_PCOD9121941
_publ_section_title
;
Structure prediction by ZEFSAII (Michael W. Deem and Ramdas Pophale) SiO2 
 PCOD9121941
Probable space group: C 2
;
_chemical_formula_sum "Si O2"
_cell_formula_units_Z 30
_cell_length_a 9.751385
_cell_length_b 13.220718
_cell_length_c 11.374767
_cell_angle_alpha 90.000000
_cell_angle_beta 105.020429
_cell_angle_gamma 90.000000
_cell_volume 1416.335404
_symmetry_space_group_name_H-M "C 2"
_symmetry_group_IT_number 5
_symmetry_cell_setting 'monoclinic'
loop_
_space_group_symop_operation_xyz
x,y,z
-x,y,-z
1/2+x,1/2+y,z
1/2-x,1/2+y,-z
loop_
_atom_site_type_symbol
_atom_site_label
_atom_site_fract_x
_atom_site_fract_y
_atom_site_fract_z
Si Si1 0.836111 0.933670 0.651182
Si Si2 0.500000 0.999198 0.000000
Si Si3 0.737012 0.672153 0.126088
Si Si4 0.631942 0.371006 0.771260
Si Si5 0.615365 0.968512 0.788394
Si Si6 0.210161 0.086674 0.869754
Si Si7 0.542605 0.656387 0.308009
Si Si8 0.645465 0.869109 0.393911
O O1 0.757883 0.927529 0.759774
O O2 0.723228 0.904285 0.527988
O O3 0.973914 0.863380 0.685854
O O4 0.893096 0.048227 0.638541
O O5 0.575088 0.936369 0.912528
O O6 0.378926 0.065818 0.908698
O O7 0.816689 0.778076 0.140169
O O8 0.850168 0.587356 0.192856
O O9 0.614010 0.674559 0.195901
O O10 0.681882 0.637954 0.987999
O O11 0.642256 0.475048 0.845562
O O12 0.740033 0.376321 0.685915
O O13 0.485776 0.938157 0.676272
O O14 0.126671 0.146531 0.749526
O O15 0.589577 0.753884 0.391204
#
# Coordination Sequence:
#
# PCOD9121941 Si02
#       8
#     4   2   4   4   4   4   4   4
#     4  10  22  41  64  92 130 168 211 273 308 377
#     4  10  20  38  64  88 126 170 200 268 324 380
#     4   9  20  37  63  91 125 167 209 259 319 388
#     4  10  21  40  63  93 127 169 219 253 323 386
#     4  10  21  40  63  91 128 163 214 259 325 369
#     4  10  19  37  61  88 126 160 215 257 313 380
#     4   9  21  39  62  91 123 169 214 254 323 386
#     4  11  21  40  65  95 125 173 216 258 319 384
#
# _framework density 21.181424
#
# number of rings (size 3 to 8) (size 9 to 14) (size 15 to 20)
#    0.000    2.133    1.333    1.200    0.000    4.267 
#    4.800    9.333   17.600    0.000    0.000    0.000 
#    0.000    0.000    0.000    0.000    0.000    0.000 
#
# Total GULP energy -83727.319958 kJ/mol
# GULP energy per Si atom -5581.821331 kJ/mol
# Density = 2.113321 g / cm^3
# Si number density = 21.181424 Si / 1000 Ang^3
#
#
#
# Elastic Constant Matrix: (Units=GPa)
#
#
# Indices 1 2 3 4 5 6 
#
# 1 95.8191 16.2046 36.5481 0.0000 27.2861 0.0000
# 2 16.2046 84.5960 48.0193 0.0000 14.1148 0.0000
# 3 36.5481 48.0193 84.4719 0.0000 19.4339 0.0000
# 4 0.0000 0.0000 0.0000 25.5923 0.0000 -0.8395
# 5 27.2861 14.1148 19.4339 0.0000 40.6555 0.0000
# 6 0.0000 0.0000 0.0000 -0.8395 0.0000 10.2416
#
#
#
# Elastic Compliance Matrix: (Units=1/GPa)
#
#
# Indices 1 2 3 4 5 6 
#
# 1 0.014391 0.001557 -0.005354 0.000000 -0.007640 0.000000
# 2 0.001557 0.017700 -0.010204 0.000000 -0.002313 0.000000
# 3 -0.005354 -0.010204 0.020576 0.000000 -0.002700 0.000000
# 4 0.000000 0.000000 0.000000 0.039180 0.000000 0.003212
# 5 -0.007640 -0.002313 -0.002700 0.000000 0.031818 0.000000
# 6 0.000000 0.000000 0.000000 0.003212 0.000000 0.097905
#
#
# Mechanical properties :
#
#
# Convention : Reuss Voigt Hill
#
# Bulk Modulus (GPa) = 40.54083 51.82565 46.18324
# Shear Modulus (GPa) = 19.39542 26.23887 22.81714
#
# Velocity S-wave (km/s) = 3.02930 3.52343 3.28567
# Velocity P-wave (km/s) = 5.60508 6.40885 6.02040
#
# Compressibility (1/GPa) = 0.02466649
#
# Stress axis : x y z
#
# Youngs Moduli (GPa) = 69.48947 56.49568 48.59948
#
# Poissons Ratio (x) = -0.08797 0.26020
# Poissons Ratio (y) = -0.10821 0.49590
# Poissons Ratio (z) = 0.37204 0.57647
#
# Static dielectric constant tensor:
#      x y z
#    x 1.796210 0.000000 -0.011500 
#    y 0.000000 1.768500 0.000000 
#    z -0.011500 0.000000 1.758860 
# 
# From -- ./inp_files/36467.got.cif
#   From: 2010.05.17/outbox.cif.g08.bks.cpg/sg5_19_cif.got.tgz:36467.got - 2010.06.03 18:56:24.
