data_PCOD9121928
_publ_section_title
;
Structure prediction by ZEFSAII (Michael W. Deem and Ramdas Pophale) SiO2 
 PCOD9121928
Probable space group: C 2
;
_chemical_formula_sum "Si O2"
_cell_formula_units_Z 30
_cell_length_a 20.147894
_cell_length_b 15.083648
_cell_length_c 15.085330
_cell_angle_alpha 90.000000
_cell_angle_beta 19.023441
_cell_angle_gamma 90.000000
_cell_volume 1494.336676
_symmetry_space_group_name_H-M "C 2"
_symmetry_group_IT_number 5
_symmetry_cell_setting 'monoclinic'
loop_
_space_group_symop_operation_xyz
x,y,z
-x,y,-z
1/2+x,1/2+y,z
1/2-x,1/2+y,-z
loop_
_atom_site_type_symbol
_atom_site_label
_atom_site_fract_x
_atom_site_fract_y
_atom_site_fract_z
Si Si1 0.063708 0.095430 0.657819
Si Si2 0.196886 0.361507 0.551949
Si Si3 0.494662 0.484340 0.905557
Si Si4 0.500000 0.323700 0.500000
Si Si5 0.047922 0.696754 0.837418
Si Si6 0.256471 0.934128 0.316789
Si Si7 0.728502 0.818213 0.177006
Si Si8 0.688106 0.773041 0.031418
O O1 0.292727 0.124931 0.397653
O O2 0.932951 0.181453 0.794149
O O3 0.116699 0.019341 0.519217
O O4 0.949930 0.056059 0.886949
O O5 0.278298 0.450347 0.404702
O O6 0.322428 0.285712 0.342867
O O7 0.249684 0.370213 0.588662
O O8 0.967644 0.335970 0.824698
O O9 0.500000 0.513585 0.000000
O O10 0.345101 0.400315 0.076915
O O11 0.654963 0.385013 0.361670
O O12 0.379303 0.265170 0.724855
O O13 0.000000 0.680124 0.000000
O O14 0.835187 0.723799 0.063245
O O15 0.500000 0.955753 0.000000
O O16 0.500000 0.817992 0.500000
O O17 0.740261 0.823382 0.056342
#
# Coordination Sequence:
#
# PCOD9121928 Si02
#       8
#     4   4   4   2   4   4   4   4
#     4  10  23  42  60  91 134 166 215 269 327 387
#     4   9  18  37  65  86 120 165 215 261 305 389
#     4  10  20  40  63  90 119 170 216 262 322 389
#     4  12  24  42  72  96 130 182 222 268 322 414
#     4  10  19  37  60  87 122 165 210 258 321 383
#     4  11  22  43  67  95 131 172 222 267 329 393
#     4  11  21  38  67  94 121 163 215 271 322 390
#     4  11  22  41  62  99 131 167 218 271 327 393
#
# _framework density 20.075797999999999
#
# number of rings (size 3 to 8) (size 9 to 14) (size 15 to 20)
#    0.000    1.600    1.333    6.800    0.000    0.000 
#   14.400    1.333    0.000    0.000    0.000    0.000 
#    0.000    0.000    0.000    0.000    0.000    0.000 
#
# Total GULP energy -83550.939099 kJ/mol
# GULP energy per Si atom -5570.062607 kJ/mol
# Density = 2.003010 g / cm^3
# Si number density = 20.075798 Si / 1000 Ang^3
#
#
#
# Elastic Constant Matrix: (Units=GPa)
#
#
# Indices 1 2 3 4 5 6 
#
# 1 79.9630 9.0589 28.8540 0.3655 6.9918 0.5816
# 2 9.0589 47.3908 12.7216 -0.0483 -2.3426 -0.0735
# 3 28.8540 12.7216 116.0162 0.3553 4.4121 0.5742
# 4 0.3655 -0.0483 0.3553 -585.8130 -0.0484 -955.6803
# 5 6.9918 -2.3426 4.4121 -0.0484 26.9113 -0.0870
# 6 0.5816 -0.0735 0.5742 -955.6803 -0.0870-1481.7653
#
#
#
# Elastic Compliance Matrix: (Units=1/GPa)
#
#
# Indices 1 2 3 4 5 6 
#
# 1 0.014173 -0.002021 -0.003176 0.000004 -0.003337 0.000002
# 2 -0.002021 0.022172 -0.002034 -0.000002 0.002789 -0.000002
# 3 -0.003176 -0.002034 0.009668 0.000004 -0.000937 0.000000
# 4 0.000004 -0.000002 0.000004 0.032719 -0.000011 -0.021103
# 5 -0.003337 0.002789 -0.000937 -0.000011 0.038422 0.000003
# 6 0.000002 -0.000002 0.000000 -0.021103 0.000003 0.012935
#
#
# Mechanical properties :
#
#
# Convention : Reuss Voigt Hill
#
# Bulk Modulus (GPa) = 31.69780 38.29323 34.99551
# Shear Modulus (GPa) = 32.24351 -395.28436 -181.52042
#
# Velocity S-wave (km/s) = 4.01195 -14.04719 -9.51913
# Velocity P-wave (km/s) = 6.10609 15.61993 10.16607
#
# Compressibility (1/GPa) = 0.03154793
#
# Stress axis : x y z
#
# Youngs Moduli (GPa) = 70.55817 45.10282 103.43231
#
# Poissons Ratio (x) = 0.09117 0.32853
# Poissons Ratio (y) = 0.14263 0.21043
# Poissons Ratio (z) = 0.22411 0.09176
#
# Static dielectric constant tensor:
#      x y z
#    x 14.629820 0.000030 2.123050 
#    y 0.000030 1.759290 0.000010 
#    z 2.123050 0.000010 2.105790 
# 
# From -- ./inp_files/57118.got.cif
#   From: 2010.05.17/outbox.cif.g08.bks.cpg/sg5_29_cif.got.tgz:57118.got - 2010.06.03 18:56:24.
