data_PCOD9121777
_publ_section_title
;
Structure prediction by ZEFSAII (Michael W. Deem and Ramdas Pophale) SiO2 
 PCOD9121777
Probable space group: C 2
;
_chemical_formula_sum "Si O2"
_cell_formula_units_Z 20
_cell_length_a 19.050443
_cell_length_b 6.738275
_cell_length_c 10.134749
_cell_angle_alpha 90.000000
_cell_angle_beta 141.533910
_cell_angle_gamma 90.000000
_cell_volume 809.269259
_symmetry_space_group_name_H-M "C 2"
_symmetry_group_IT_number 5
_symmetry_cell_setting 'monoclinic'
loop_
_space_group_symop_operation_xyz
x,y,z
-x,y,-z
1/2+x,1/2+y,z
1/2-x,1/2+y,-z
loop_
_atom_site_type_symbol
_atom_site_label
_atom_site_fract_x
_atom_site_fract_y
_atom_site_fract_z
Si Si1 0.562859 0.320420 0.280979
Si Si2 0.738017 0.187906 0.336245
Si Si3 0.371900 0.247625 0.334235
Si Si4 0.917512 0.381922 0.769206
Si Si5 0.322243 0.425932 0.983579
O O1 0.649903 0.335275 0.287466
O O2 0.616622 0.342510 0.504713
O O3 0.530783 0.081411 0.222886
O O4 0.448406 0.444567 0.111104
O O5 0.858376 0.239901 0.577131
O O6 0.682406 0.981596 0.292642
O O7 0.728979 0.237914 0.170412
O O8 0.500000 0.163932 0.500000
O O9 0.343625 0.388119 0.169053
O O10 0.269091 0.093208 0.181809
O O11 0.000000 0.296499 0.000000
#
# Coordination Sequence:
#
# PCOD9121777 Si02
#       5
#     4   4   4   4   4
#     4   9  19  39  62  85 115 154 190 243 298 338
#     4  10  19  36  64  88 115 148 198 240 296 344
#     4  10  23  39  60  84 121 157 198 235 290 348
#     4  10  19  36  60  89 115 150 186 244 297 336
#     4  11  19  40  62  83 120 159 191 243 289 348
#
# _framework density 24.713653000000001
#
# number of rings (size 3 to 8) (size 9 to 14) (size 15 to 20)
#    1.200    0.800    4.000    0.600    0.000    1.600 
#    0.000   10.000    0.000    0.000    0.000    0.000 
#    0.000    0.000    0.000    0.000    0.000    0.000 
#
# Total GULP energy -55797.732556 kJ/mol
# GULP energy per Si atom -5579.773256 kJ/mol
# Density = 2.465740 g / cm^3
# Si number density = 24.713653 Si / 1000 Ang^3
#
#
#
# Elastic Constant Matrix: (Units=GPa)
#
#
# Indices 1 2 3 4 5 6 
#
# 1 97.6326 32.9740 65.3381 0.0000 2.3101 0.0000
# 2 32.9740 57.0961 53.8822 0.0000 9.3507 0.0000
# 3 65.3381 53.8822 238.1617 0.0000 -8.2806 0.0000
# 4 0.0000 0.0000 0.0000 40.5864 0.0000 1.5746
# 5 2.3101 9.3507 -8.2806 0.0000 68.4420 0.0000
# 6 0.0000 0.0000 0.0000 1.5746 0.0000 36.8482
#
#
#
# Elastic Compliance Matrix: (Units=1/GPa)
#
#
# Indices 1 2 3 4 5 6 
#
# 1 0.013824 -0.005598 -0.002526 0.000000 -0.000007 0.000000
# 2 -0.005598 0.025492 -0.004364 0.000000 -0.003822 0.000000
# 3 -0.002526 -0.004364 0.005928 0.000000 0.001399 0.000000
# 4 0.000000 0.000000 0.000000 0.024680 0.000000 -0.001055
# 5 -0.000007 -0.003822 0.001399 0.000000 0.015303 0.000000
# 6 0.000000 0.000000 0.000000 -0.001055 0.000000 0.027183
#
#
# Mechanical properties :
#
#
# Convention : Reuss Voigt Hill
#
# Bulk Modulus (GPa) = 49.34350 77.47546 63.40948
# Shear Modulus (GPa) = 34.68773 45.22172 39.95473
#
# Velocity S-wave (km/s) = 3.75051 4.28229 4.02519
# Velocity P-wave (km/s) = 6.22612 7.47449 6.87868
#
# Compressibility (1/GPa) = 0.02026609
#
# Stress axis : x y z
#
# Youngs Moduli (GPa) = 72.33776 39.22776 168.69345
#
# Poissons Ratio (x) = 0.21961 0.42615
# Poissons Ratio (y) = 0.40498 0.73624
# Poissons Ratio (z) = 0.18274 0.17121
#
# Static dielectric constant tensor:
#      x y z
#    x 1.968640 0.000000 0.071560 
#    y 0.000000 2.075790 0.000000 
#    z 0.071560 0.000000 1.992510 
# 
# From -- ./inp_files/47149.got.cif
#   From: 2010.05.17/outbox.cif.g08.bks.cpg/sg5_24_cif.got.tgz:47149.got - 2010.06.03 18:56:24.
