data_PCOD9121496
_publ_section_title
;
Structure prediction by ZEFSAII (Michael W. Deem and Ramdas Pophale) SiO2 
 PCOD9121496
Probable space group: C 2
;
_chemical_formula_sum "Si O2"
_cell_formula_units_Z 28
_cell_length_a 22.112662
_cell_length_b 5.571606
_cell_length_c 8.863908
_cell_angle_alpha 90.000000
_cell_angle_beta 96.055322
_cell_angle_gamma 90.000000
_cell_volume 1085.967268
_symmetry_space_group_name_H-M "C 2"
_symmetry_group_IT_number 5
_symmetry_cell_setting 'monoclinic'
loop_
_space_group_symop_operation_xyz
x,y,z
-x,y,-z
1/2+x,1/2+y,z
1/2-x,1/2+y,-z
loop_
_atom_site_type_symbol
_atom_site_label
_atom_site_fract_x
_atom_site_fract_y
_atom_site_fract_z
Si Si1 0.409807 0.644720 0.115061
Si Si2 0.328351 0.416994 0.867980
Si Si3 0.939829 0.626680 0.589127
Si Si4 0.355095 0.338047 0.333083
Si Si5 0.524414 0.640352 0.328351
Si Si6 0.784888 0.095636 0.534008
Si Si7 0.804583 0.531983 0.069929
O O1 0.404871 0.417977 0.226714
O O2 0.475340 0.725935 0.188508
O O3 0.354998 0.832735 0.126041
O O4 0.388875 0.538168 0.950094
O O5 0.313282 0.506757 0.698683
O O6 0.267019 0.475967 0.951390
O O7 0.328619 0.137223 0.916140
O O8 0.882966 0.671958 0.466660
O O9 0.000000 0.608600 0.500000
O O10 0.931155 0.369039 0.661784
O O11 0.950031 0.870857 0.686900
O O12 0.333394 0.574507 0.412659
O O13 0.307533 0.207841 0.215241
O O14 0.500000 0.627445 0.500000
O O15 0.742540 0.862635 0.477743
#
# Coordination Sequence:
#
# PCOD9121496 Si02
#       7
#     4   4   4   4   4   4   4
#     4  11  22  37  64  95 125 168 212 267 330 377
#     4  11  24  38  60  93 128 170 213 270 311 392
#     4  10  19  35  59  94 122 153 210 267 313 363
#     4  11  23  39  66  95 127 175 211 268 328 385
#     4  10  19  34  57  93 125 150 206 269 313 362
#     4  12  28  45  64  93 137 177 218 260 320 392
#     4  11  21  38  61  89 126 164 217 260 324 376
#
# _framework density 25.783466000000001
#
# number of rings (size 3 to 8) (size 9 to 14) (size 15 to 20)
#    0.000    1.143    5.714    2.571    6.000    0.000 
#    0.000    0.000    0.000    0.857    0.000    0.000 
#    0.000    0.000    0.000    0.000    0.000    0.000 
#
# Total GULP energy -78097.582267 kJ/mol
# GULP energy per Si atom -5578.398733 kJ/mol
# Density = 2.572478 g / cm^3
# Si number density = 25.783466 Si / 1000 Ang^3
#
#
#
# Elastic Constant Matrix: (Units=GPa)
#
#
# Indices 1 2 3 4 5 6 
#
# 1 34.1086 11.8723 32.8590 0.0000 13.6286 0.0000
# 2 11.8723 115.0109 36.0649 0.0000 8.1611 0.0000
# 3 32.8590 36.0649 157.4204 0.0000 24.8361 0.0000
# 4 0.0000 0.0000 0.0000 31.7583 0.0000 18.4601
# 5 13.6286 8.1611 24.8361 0.0000 40.8952 0.0000
# 6 0.0000 0.0000 0.0000 18.4601 0.0000 30.0950
#
#
#
# Elastic Compliance Matrix: (Units=1/GPa)
#
#
# Indices 1 2 3 4 5 6 
#
# 1 0.039703 -0.001408 -0.006549 0.000000 -0.008973 0.000000
# 2 -0.001408 0.009432 -0.001818 0.000000 -0.000309 0.000000
# 3 -0.006549 -0.001818 0.008554 0.000000 -0.002650 0.000000
# 4 0.000000 0.000000 0.000000 0.048936 0.000000 -0.030017
# 5 -0.008973 -0.000309 -0.002650 0.000000 0.029114 0.000000
# 6 0.000000 0.000000 0.000000 -0.030017 0.000000 0.051640
#
#
# Mechanical properties :
#
#
# Convention : Reuss Voigt Hill
#
# Bulk Modulus (GPa) = 26.22056 52.01470 39.11763
# Shear Modulus (GPa) = 22.76430 35.59927 29.18178
#
# Velocity S-wave (km/s) = 2.97459 3.71981 3.36788
# Velocity P-wave (km/s) = 4.68926 6.21826 5.50709
#
# Compressibility (1/GPa) = 0.03813801
#
# Stress axis : x y z
#
# Youngs Moduli (GPa) = 25.18730 106.01902 116.90410
#
# Poissons Ratio (x) = 0.14928 0.76561
# Poissons Ratio (y) = 0.03547 0.21257
# Poissons Ratio (z) = 0.16495 0.19277
#
# Static dielectric constant tensor:
#      x y z
#    x 2.203630 0.000000 0.014380 
#    y 0.000000 2.195570 0.000000 
#    z 0.014380 0.000000 2.111170 
# 
# From -- ./inp_files/32099.got.cif
#   From: 2010.05.17/outbox.cif.g08.bks.cpg/sg5_17_cif.got.tgz:32099.got - 2010.06.03 18:56:24.
