data_PCOD9121073
_publ_section_title
;
Structure prediction by ZEFSAII (Michael W. Deem and Ramdas Pophale) SiO2 
 PCOD9121073
Probable space group: C 2
;
_chemical_formula_sum "Si O2"
_cell_formula_units_Z 20
_cell_length_a 9.477653
_cell_length_b 26.368775
_cell_length_c 8.352371
_cell_angle_alpha 90.000000
_cell_angle_beta 32.138748
_cell_angle_gamma 90.000000
_cell_volume 1110.423843
_symmetry_space_group_name_H-M "C 2"
_symmetry_group_IT_number 5
_symmetry_cell_setting 'monoclinic'
loop_
_space_group_symop_operation_xyz
x,y,z
-x,y,-z
1/2+x,1/2+y,z
1/2-x,1/2+y,-z
loop_
_atom_site_type_symbol
_atom_site_label
_atom_site_fract_x
_atom_site_fract_y
_atom_site_fract_z
Si Si1 0.767304 0.816930 0.344451
Si Si2 0.218033 0.393723 0.677353
Si Si3 0.000000 0.064220 0.500000
Si Si4 0.000000 0.491176 0.000000
Si Si5 0.440611 0.664098 0.737160
Si Si6 0.932342 0.716994 0.382085
O O1 0.500000 0.808392 0.500000
O O2 0.738810 0.862431 0.497092
O O3 0.860150 0.767429 0.353464
O O4 0.000000 0.829926 0.000000
O O5 0.500000 0.398187 0.500000
O O6 0.084366 0.449451 0.784278
O O7 0.000000 0.366357 0.000000
O O8 0.975942 0.104045 0.671155
O O9 0.749582 0.028051 0.764006
O O10 0.500000 0.685162 0.500000
O O11 0.670127 0.682947 0.631745
O O12 0.163773 0.685472 0.068807
O O13 0.000000 0.729436 0.500000
#
# Coordination Sequence:
#
# PCOD9121073 Si02
#       6
#     4   4   2   2   4   4
#     4  12  25  39  61  88 129 166 203 245 306 364
#     4  10  21  39  63  92 122 152 211 249 304 359
#     4  10  20  36  68  92 114 156 212 258 294 354
#     4  10  18  38  66  94 114 154 208 264 294 354
#     4  10  22  38  61  90 120 154 211 245 300 356
#     4  12  23  39  59  88 127 165 200 247 300 363
#
# _framework density 18.011140999999999
#
# number of rings (size 3 to 8) (size 9 to 14) (size 15 to 20)
#    1.200    0.000    1.000    7.200    0.000    1.600 
#    0.000    0.000    0.000   12.000    0.000    0.000 
#    0.000    0.000    0.000    0.000    0.000    0.000 
#
# Total GULP energy -55682.782129 kJ/mol
# GULP energy per Si atom -5568.278213 kJ/mol
# Density = 1.797015 g / cm^3
# Si number density = 18.011141 Si / 1000 Ang^3
#
#
#
# Elastic Constant Matrix: (Units=GPa)
#
#
# Indices 1 2 3 4 5 6 
#
# 1 105.8944 58.2346 53.0241 0.0000 -2.4181 0.0000
# 2 58.2346 150.1994 73.0235 0.0000 3.5044 0.0000
# 3 53.0241 73.0235 138.4325 0.0000 -16.1619 0.0000
# 4 0.0000 0.0000 0.0000 27.0079 0.0000 -5.4630
# 5 -2.4181 3.5044 -16.1619 0.0000 31.7777 0.0000
# 6 0.0000 0.0000 0.0000 -5.4630 0.0000 13.0995
#
#
#
# Elastic Compliance Matrix: (Units=1/GPa)
#
#
# Indices 1 2 3 4 5 6 
#
# 1 0.012924 -0.003477 -0.003143 0.000000 -0.000232 0.000000
# 2 -0.003477 0.010296 -0.004532 0.000000 -0.003705 0.000000
# 3 -0.003143 -0.004532 0.011533 0.000000 0.006126 0.000000
# 4 0.000000 0.000000 0.000000 0.040437 0.000000 0.016864
# 5 -0.000232 -0.003705 0.006126 0.000000 0.034975 0.000000
# 6 0.000000 0.000000 0.000000 0.016864 0.000000 0.083372
#
#
# Mechanical properties :
#
#
# Convention : Reuss Voigt Hill
#
# Bulk Modulus (GPa) = 80.32728 84.78783 82.55756
# Shear Modulus (GPa) = 22.72812 28.39328 25.56070
#
# Velocity S-wave (km/s) = 3.55617 3.97473 3.77126
# Velocity P-wave (km/s) = 7.84584 8.26088 8.05603
#
# Compressibility (1/GPa) = 0.01244907
#
# Stress axis : x y z
#
# Youngs Moduli (GPa) = 77.37389 97.12862 86.70560
#
# Poissons Ratio (x) = 0.33776 0.27252
# Poissons Ratio (y) = 0.26906 0.39291
# Poissons Ratio (z) = 0.24319 0.44014
#
# Static dielectric constant tensor:
#      x y z
#    x 1.622630 0.000000 -0.009620 
#    y 0.000000 1.641010 0.000000 
#    z -0.009620 0.000000 1.655730 
# 
# From -- ./inp_files/17395.got.cif
#   From: 2010.05.17/outbox.cif.g08.bks.cpg/sg5_9_cif.got.tgz:17395.got - 2010.06.03 18:56:24.
