data_PCOD9121568
_publ_section_title
;
Structure prediction by ZEFSAII (Michael W. Deem and Ramdas Pophale) SiO2 
 PCOD9121568
Probable space group: C 2
;
_chemical_formula_sum "Si O2"
_cell_formula_units_Z 28
_cell_length_a 5.133926
_cell_length_b 21.673253
_cell_length_c 15.551086
_cell_angle_alpha 90.000000
_cell_angle_beta 108.740880
_cell_angle_gamma 90.000000
_cell_volume 1638.610839
_symmetry_space_group_name_H-M "C 2"
_symmetry_group_IT_number 5
_symmetry_cell_setting 'monoclinic'
loop_
_space_group_symop_operation_xyz
x,y,z
-x,y,-z
1/2+x,1/2+y,z
1/2-x,1/2+y,-z
loop_
_atom_site_type_symbol
_atom_site_label
_atom_site_fract_x
_atom_site_fract_y
_atom_site_fract_z
Si Si1 0.199946 0.101140 0.183319
Si Si2 0.366697 0.734423 0.894105
Si Si3 0.629988 0.029471 0.107168
Si Si4 0.525887 0.457159 0.597332
Si Si5 0.507372 0.424639 0.779283
Si Si6 0.129002 0.815889 0.105501
Si Si7 0.103710 0.518718 0.662076
O O1 0.165774 0.173548 0.165330
O O2 0.417753 0.068358 0.142592
O O3 0.905395 0.070476 0.133326
O O4 0.308400 0.084077 0.290293
O O5 0.567322 0.787753 0.877188
O O6 0.068114 0.761205 0.883247
O O7 0.500000 0.716415 0.000000
O O8 0.735687 0.964099 0.157186
O O9 0.500000 0.019749 0.000000
O O10 0.500000 0.429039 0.500000
O O11 0.558320 0.411604 0.682836
O O12 0.259979 0.498453 0.592306
O O13 0.786149 0.502796 0.626393
O O14 0.413800 0.369755 0.830105
O O15 0.251999 0.472045 0.745314
O O16 0.000000 0.836420 0.000000
#
# Coordination Sequence:
#
# PCOD9121568 Si02
#       7
#     4   4   4   4   4   4   4
#     4  11  19  36  51  75 109 139 181 229 253 317
#     4  10  21  34  50  72 102 149 194 218 251 299
#     4  11  21  31  51  77 108 147 174 218 273 313
#     4  10  19  35  55  80 109 130 167 217 279 337
#     4   9  22  33  53  76 113 132 185 213 266 329
#     4  10  22  35  49  72 108 151 184 221 256 303
#     4   9  19  33  53  80 105 128 167 219 276 326
#
# _framework density 17.087643
#
# number of rings (size 3 to 8) (size 9 to 14) (size 15 to 20)
#    0.857    1.143    1.429    2.571    2.000    5.143 
#    0.000    0.000    0.000    0.000    0.000    4.000 
#    0.000    0.000    0.000    0.000    0.000    0.000 
#
# Total GULP energy -77943.025321 kJ/mol
# GULP energy per Si atom -5567.358951 kJ/mol
# Density = 1.704875 g / cm^3
# Si number density = 17.087643 Si / 1000 Ang^3
#
#
#
# Elastic Constant Matrix: (Units=GPa)
#
#
# Indices 1 2 3 4 5 6 
#
# 1 95.4823 -2.5593 16.7997 0.0000 -5.4476 0.0000
# 2 -2.5593 41.3908 29.1289 0.0000 -14.4012 0.0000
# 3 16.7997 29.1289 91.9503 0.0000 -17.1521 0.0000
# 4 0.0000 0.0000 0.0000 14.3234 0.0000 -5.1489
# 5 -5.4476 -14.4012 -17.1521 0.0000 22.8862 0.0000
# 6 0.0000 0.0000 0.0000 -5.1489 0.0000 14.9685
#
#
#
# Elastic Compliance Matrix: (Units=1/GPa)
#
#
# Indices 1 2 3 4 5 6 
#
# 1 0.011199 0.003564 -0.002627 0.000000 0.002939 0.000000
# 2 0.003564 0.036749 -0.009092 0.000000 0.017158 0.000000
# 3 -0.002627 -0.009092 0.015173 0.000000 0.005025 0.000000
# 4 0.000000 0.000000 0.000000 0.079667 0.000000 0.027404
# 5 0.002939 0.017158 0.005025 0.000000 0.058957 0.000000
# 6 0.000000 0.000000 0.000000 0.027404 0.000000 0.076233
#
#
# Mechanical properties :
#
#
# Convention : Reuss Voigt Hill
#
# Bulk Modulus (GPa) = 21.36286 35.06245 28.21266
# Shear Modulus (GPa) = 16.13472 22.79923 19.46698
#
# Velocity S-wave (km/s) = 3.07617 3.65670 3.37893
# Velocity P-wave (km/s) = 5.01460 6.19616 5.63642
#
# Compressibility (1/GPa) = 0.04681020
#
# Stress axis : x y z
#
# Youngs Moduli (GPa) = 89.29752 27.21177 65.90680
#
# Poissons Ratio (x) = -0.09697 0.17311
# Poissons Ratio (y) = -0.31823 0.59923
# Poissons Ratio (z) = 0.23455 0.24741
#
# Static dielectric constant tensor:
#      x y z
#    x 1.599520 0.000000 -0.021840 
#    y 0.000000 1.573750 0.000000 
#    z -0.021840 0.000000 1.607750 
# 
# From -- ./inp_files/49474.got.cif
#   From: 2010.05.17/outbox.cif.g08.bks.cpg/sg5_25_cif.got.tgz:49474.got - 2010.06.03 18:56:24.
