data_PCOD9121189
_publ_section_title
;
Structure prediction by ZEFSAII (Michael W. Deem and Ramdas Pophale) SiO2 
 PCOD9121189
Probable space group: C 2
;
_chemical_formula_sum "Si O2"
_cell_formula_units_Z 30
_cell_length_a 12.507756
_cell_length_b 9.905706
_cell_length_c 15.329922
_cell_angle_alpha 90.000000
_cell_angle_beta 46.595548
_cell_angle_gamma 90.000000
_cell_volume 1379.917491
_symmetry_space_group_name_H-M "C 2"
_symmetry_group_IT_number 5
_symmetry_cell_setting 'monoclinic'
loop_
_space_group_symop_operation_xyz
x,y,z
-x,y,-z
1/2+x,1/2+y,z
1/2-x,1/2+y,-z
loop_
_atom_site_type_symbol
_atom_site_label
_atom_site_fract_x
_atom_site_fract_y
_atom_site_fract_z
Si Si1 0.108407 0.883560 0.004399
Si Si2 0.914534 0.168378 0.384556
Si Si3 0.330663 0.041253 0.776668
Si Si4 0.882549 0.982059 0.635812
Si Si5 0.168333 0.473374 0.600531
Si Si6 0.000000 0.357319 0.000000
Si Si7 0.576224 0.630060 0.820611
Si Si8 0.695198 0.335563 0.146559
O O1 0.125043 0.831295 0.091561
O O2 0.025140 0.023265 0.073472
O O3 0.000000 0.805237 0.000000
O O4 0.258356 0.916642 0.869249
O O5 0.848638 0.319285 0.423529
O O6 0.962581 0.146152 0.257964
O O7 0.787117 0.062282 0.481818
O O8 0.051478 0.127522 0.370689
O O9 0.241405 0.067062 0.736718
O O10 0.280735 0.177612 0.852083
O O11 0.504903 0.032152 0.679942
O O12 0.730813 0.979892 0.665745
O O13 0.883021 0.893923 0.723650
O O14 0.000000 0.925601 0.500000
O O15 0.951596 0.268108 0.111256
O O16 0.846809 0.422075 0.057470
#
# Coordination Sequence:
#
# PCOD9121189 Si02
#       8
#     4   4   4   4   4   2   4   4
#     4  10  20  38  61  94 135 171 218 281 340 412
#     4  11  25  46  71  97 136 184 229 292 352 407
#     4  10  23  39  64  98 129 172 235 277 329 433
#     4  10  24  45  68  96 138 180 231 287 342 409
#     4  11  26  46  68  99 139 179 235 289 351 414
#     4  10  20  36  64  94 128 164 234 272 332 426
#     4  10  18  42  63  91 129 173 221 277 340 403
#     4  11  21  39  68  91 133 181 223 281 346 406
#
# _framework density 21.740431000000001
#
# number of rings (size 3 to 8) (size 9 to 14) (size 15 to 20)
#    0.000    1.600    4.667    1.600    7.467    0.533 
#   12.000    0.000    0.000    0.000    0.000    0.000 
#    0.000    0.000    0.000    0.000    0.000    0.000 
#
# Total GULP energy -83540.871362 kJ/mol
# GULP energy per Si atom -5569.391424 kJ/mol
# Density = 2.169095 g / cm^3
# Si number density = 21.740431 Si / 1000 Ang^3
#
#
#
# Elastic Constant Matrix: (Units=GPa)
#
#
# Indices 1 2 3 4 5 6 
#
# 1 94.9006 33.5191 43.4250 0.0000 10.7702 0.0000
# 2 33.5191 48.3445 -2.7878 0.0000 2.4446 0.0000
# 3 43.4250 -2.7878 77.9029 0.0000 10.6945 0.0000
# 4 0.0000 0.0000 0.0000 9.2580 0.0000 -5.1816
# 5 10.7702 2.4446 10.6945 0.0000 46.2785 0.0000
# 6 0.0000 0.0000 0.0000 -5.1816 0.0000 18.3864
#
#
#
# Elastic Compliance Matrix: (Units=1/GPa)
#
#
# Indices 1 2 3 4 5 6 
#
# 1 0.022209 -0.016065 -0.012767 0.000000 -0.001370 0.000000
# 2 -0.016065 0.032426 0.010160 0.000000 -0.000322 0.000000
# 3 -0.012767 0.010160 0.020637 0.000000 -0.002335 0.000000
# 4 0.000000 0.000000 0.000000 0.128242 0.000000 0.036141
# 5 -0.001370 -0.000322 -0.002335 0.000000 0.022484 0.000000
# 6 0.000000 0.000000 0.000000 0.036141 0.000000 0.064573
#
#
# Mechanical properties :
#
#
# Convention : Reuss Voigt Hill
#
# Bulk Modulus (GPa) = 26.36629 41.05117 33.70873
# Shear Modulus (GPa) = 14.68186 24.58404 19.63295
#
# Velocity S-wave (km/s) = 2.60152 3.36638 3.00836
# Velocity P-wave (km/s) = 4.60195 5.83382 5.25411
#
# Compressibility (1/GPa) = 0.03792722
#
# Stress axis : x y z
#
# Youngs Moduli (GPa) = 45.02705 30.83979 48.45665
#
# Poissons Ratio (x) = 0.49545 0.61863
# Poissons Ratio (y) = 0.72337 -0.49230
# Poissons Ratio (z) = 0.57484 -0.31332
#
# Static dielectric constant tensor:
#      x y z
#    x 2.011170 0.000000 -0.025570 
#    y 0.000000 1.814490 0.000000 
#    z -0.025570 0.000000 1.793660 
# 
# From -- ./inp_files/52882.got.cif
#   From: 2010.05.17/outbox.cif.g08.bks.cpg/sg5_27_cif.got.tgz:52882.got - 2010.06.03 18:56:24.
