data_PCOD9121140
_publ_section_title
;
Structure prediction by ZEFSAII (Michael W. Deem and Ramdas Pophale) SiO2 
 PCOD9121140
Probable space group: C 2
;
_chemical_formula_sum "Si O2"
_cell_formula_units_Z 20
_cell_length_a 14.965784
_cell_length_b 14.123045
_cell_length_c 8.743898
_cell_angle_alpha 90.000000
_cell_angle_beta 34.080873
_cell_angle_gamma 90.000000
_cell_volume 1035.623718
_symmetry_space_group_name_H-M "C 2"
_symmetry_group_IT_number 5
_symmetry_cell_setting 'monoclinic'
loop_
_space_group_symop_operation_xyz
x,y,z
-x,y,-z
1/2+x,1/2+y,z
1/2-x,1/2+y,-z
loop_
_atom_site_type_symbol
_atom_site_label
_atom_site_fract_x
_atom_site_fract_y
_atom_site_fract_z
Si Si1 0.849877 0.524980 0.413145
Si Si2 0.500000 0.095722 0.500000
Si Si3 0.566639 0.331606 0.152045
Si Si4 0.000000 0.682456 0.000000
Si Si5 0.000000 0.358221 0.000000
Si Si6 0.720615 0.271892 0.217925
Si Si7 0.000000 0.987941 0.000000
O O1 0.964203 0.535829 0.399188
O O2 0.666799 0.535113 0.722115
O O3 0.885124 0.613696 0.254910
O O4 0.894135 0.429328 0.257007
O O5 0.652821 0.167390 0.272227
O O6 0.702170 0.331535 0.088015
O O7 0.407598 0.308530 0.474892
O O8 0.543439 0.424309 0.085873
O O9 0.587798 0.248885 0.997619
O O10 0.110228 0.291366 0.947672
#
# Coordination Sequence:
#
# PCOD9121140 Si02
#       7
#     4   2   4   2   2   4   2
#     4  11  23  38  62  95 126 161 205 267 310 355
#     4  10  22  42  60  86 132 172 196 252 324 364
#     4   9  19  38  64  81 123 172 201 240 315 377
#     4  10  18  40  64  86 120 170 202 248 310 368
#     4  11  24  38  66  97 122 158 222 259 300 368
#     4  10  19  41  64  89 118 175 201 252 299 391
#     4  11  22  38  60  95 126 164 198 261 312 372
#
# _framework density 19.312033
#
# number of rings (size 3 to 8) (size 9 to 14) (size 15 to 20)
#    0.000    2.000    6.000    0.000    2.800    0.800 
#    0.000    0.000    0.000    2.400    0.000    0.000 
#    0.000    0.000    0.000    0.000    0.000    0.000 
#
# Total GULP energy -55742.169640 kJ/mol
# GULP energy per Si atom -5574.216964 kJ/mol
# Density = 1.926808 g / cm^3
# Si number density = 19.312033 Si / 1000 Ang^3
#
#
#
# Elastic Constant Matrix: (Units=GPa)
#
#
# Indices 1 2 3 4 5 6 
#
# 1 173.8782 35.9486 46.9288 0.0000 -5.9895 0.0000
# 2 35.9486 43.9923 25.6228 0.0000 -4.8442 0.0000
# 3 46.9288 25.6228 95.3227 0.0000 -2.5811 0.0001
# 4 0.0000 0.0000 0.0000 -2.0743 0.0000 3.9051
# 5 -5.9895 -4.8442 -2.5811 0.0000 37.8362 0.0000
# 6 0.0000 0.0000 0.0001 3.9051 0.0000 5.1525
#
#
#
# Elastic Compliance Matrix: (Units=1/GPa)
#
#
# Indices 1 2 3 4 5 6 
#
# 1 0.007354 -0.004578 -0.002379 0.000000 0.000416 0.000000
# 2 -0.004578 0.030136 -0.005773 0.000000 0.002740 0.000000
# 3 -0.002379 -0.005773 0.013208 0.000000 -0.000215 0.000000
# 4 0.000000 0.000000 0.000000 -0.198648 0.000000 0.150556
# 5 0.000416 0.002740 -0.000215 0.000000 0.026832 0.000000
# 6 0.000000 0.000000 0.000000 0.150556 0.000000 0.079973
#
#
# Mechanical properties :
#
#
# Convention : Reuss Voigt Hill
#
# Bulk Modulus (GPa) = 39.62108 58.91040 49.26574
# Shear Modulus (GPa) = -687.40639 21.82906 -332.78866
#
# Velocity S-wave (km/s) = -18.88703 3.36569 -13.14139
# Velocity P-wave (km/s) = 21.33227 6.75830 14.30719
#
# Compressibility (1/GPa) = 0.02523909
#
# Stress axis : x y z
#
# Youngs Moduli (GPa) = 135.98118 33.18269 75.71426
#
# Poissons Ratio (x) = 0.15192 0.18009
# Poissons Ratio (y) = 0.62254 0.43706
# Poissons Ratio (z) = 0.32344 0.19155
#
# Static dielectric constant tensor:
#      x y z
#    x 1.689170 0.000000 0.000820 
#    y 0.000000 1.706490 0.000000 
#    z 0.000820 0.000000 1.699830 
# 
# From -- ./inp_files/15649.got.cif
#   From: 2010.05.17/outbox.cif.g08.bks.cpg/sg5_8_cif.got.tgz:15649.got - 2010.06.03 18:56:24.
