data_PCOD9121081
_publ_section_title
;
Structure prediction by ZEFSAII (Michael W. Deem and Ramdas Pophale) SiO2 
 PCOD9121081
Probable space group: C 2
;
_chemical_formula_sum "Si O2"
_cell_formula_units_Z 26
_cell_length_a 14.100676
_cell_length_b 8.442926
_cell_length_c 18.764988
_cell_angle_alpha 90.000000
_cell_angle_beta 25.266787
_cell_angle_gamma 90.000000
_cell_volume 953.542216
_symmetry_space_group_name_H-M "C 2"
_symmetry_group_IT_number 5
_symmetry_cell_setting 'monoclinic'
loop_
_space_group_symop_operation_xyz
x,y,z
-x,y,-z
1/2+x,1/2+y,z
1/2-x,1/2+y,-z
loop_
_atom_site_type_symbol
_atom_site_label
_atom_site_fract_x
_atom_site_fract_y
_atom_site_fract_z
Si Si1 0.584073 0.522990 0.299080
Si Si2 0.299123 0.903291 0.340372
Si Si3 0.299729 0.098634 0.542232
Si Si4 0.500000 0.857095 0.500000
Si Si5 0.786360 0.355715 0.836657
Si Si6 0.835644 0.707080 0.805824
Si Si7 0.021289 0.700228 0.835606
O O1 0.420952 0.485481 0.476535
O O2 0.425903 0.530185 0.336034
O O3 0.680517 0.700658 0.236263
O O4 0.740315 0.372639 0.177084
O O5 0.242959 0.720866 0.363938
O O6 0.479202 0.882209 0.281349
O O7 0.416166 0.013227 0.202689
O O8 0.418403 0.191881 0.397523
O O9 0.472392 0.968584 0.450096
O O10 0.261781 0.775790 0.659867
O O11 0.724914 0.538601 0.862920
O O12 0.608838 0.285619 0.013423
O O13 0.870494 0.715987 0.866908
#
# Coordination Sequence:
#
# PCOD9121081 Si02
#       7
#     4   4   4   2   4   4   4
#     4  10  18  38  67  95 117 168 227 273 319 380
#     4   9  21  38  69  91 123 172 232 276 317 392
#     4  10  20  39  64  98 123 177 223 269 326 406
#     4  12  26  38  66  94 144 170 218 266 356 394
#     4  10  22  34  63 103 129 162 224 288 321 374
#     4  10  21  37  65  92 130 167 225 272 322 388
#     4  11  23  39  58 100 134 176 208 280 331 397
#
# _framework density 27.266753000000001
#
# number of rings (size 3 to 8) (size 9 to 14) (size 15 to 20)
#    0.000    1.846    4.615    0.000    6.462    0.615 
#    0.000    0.769    0.000    0.000    0.000    0.000 
#    0.000    0.000    0.000    0.000    0.000    0.000 
#
# Total GULP energy -72691.241630 kJ/mol
# GULP energy per Si atom -5591.633972 kJ/mol
# Density = 2.720469 g / cm^3
# Si number density = 27.266753 Si / 1000 Ang^3
#
#
#
# Elastic Constant Matrix: (Units=GPa)
#
#
# Indices 1 2 3 4 5 6 
#
# 1 74.7202 44.7670 21.4121 -0.0002 -7.8070 -0.0005
# 2 44.7670 247.4733 55.6051 -0.0045 18.8984 0.0005
# 3 21.4121 55.6051 115.4504 -0.0107 -3.1161 0.0026
# 4 -0.0002 -0.0045 -0.0107 28.0021 0.0032 17.0805
# 5 -7.8070 18.8984 -3.1161 0.0032 36.0478 -0.0004
# 6 -0.0005 0.0005 0.0026 17.0805 -0.0004 34.0174
#
#
#
# Elastic Compliance Matrix: (Units=1/GPa)
#
#
# Indices 1 2 3 4 5 6 
#
# 1 0.016080 -0.002965 -0.001422 -0.000002 0.004914 0.000002
# 2 -0.002965 0.005328 -0.002114 0.000001 -0.003618 0.000000
# 3 -0.001422 -0.002114 0.009989 0.000005 0.001664 -0.000003
# 4 -0.000002 0.000001 0.000005 0.051478 -0.000005 -0.025848
# 5 0.004914 -0.003618 0.001664 -0.000005 0.030846 0.000003
# 6 0.000002 0.000000 -0.000003 -0.025848 0.000003 0.042375
#
#
# Mechanical properties :
#
#
# Convention : Reuss Voigt Hill
#
# Bulk Modulus (GPa) = 54.35954 75.69026 65.02490
# Shear Modulus (GPa) = 28.53391 40.67078 34.60234
#
# Velocity S-wave (km/s) = 3.23843 3.86630 3.56621
# Velocity P-wave (km/s) = 5.82776 6.91017 6.39192
#
# Compressibility (1/GPa) = 0.01839603
#
# Stress axis : x y z
#
# Youngs Moduli (GPa) = 62.18778 187.67021 100.11391
#
# Poissons Ratio (x) = 0.55638 0.14235
# Poissons Ratio (y) = 0.18436 0.21166
# Poissons Ratio (z) = 0.08842 0.39678
#
# Static dielectric constant tensor:
#      x y z
#    x 2.125340 0.000000 0.054180 
#    y 0.000000 2.266090 0.000000 
#    z 0.054180 0.000000 2.072680 
# 
# From -- ./inp_files/69145.got.cif
#   From: 2010.05.17/outbox.cif.g08.bks.cpg/sg5_35_cif.got.tgz:69145.got - 2010.06.03 18:56:24.
