data_PCOD9121245
_publ_section_title
;
Structure prediction by ZEFSAII (Michael W. Deem and Ramdas Pophale) SiO2 
 PCOD9121245
Probable space group: C 2
;
_chemical_formula_sum "Si O2"
_cell_formula_units_Z 28
_cell_length_a 28.954200
_cell_length_b 9.798491
_cell_length_c 8.924087
_cell_angle_alpha 90.000000
_cell_angle_beta 29.738925
_cell_angle_gamma 90.000000
_cell_volume 1255.910982
_symmetry_space_group_name_H-M "C 2"
_symmetry_group_IT_number 5
_symmetry_cell_setting 'monoclinic'
loop_
_space_group_symop_operation_xyz
x,y,z
-x,y,-z
1/2+x,1/2+y,z
1/2-x,1/2+y,-z
loop_
_atom_site_type_symbol
_atom_site_label
_atom_site_fract_x
_atom_site_fract_y
_atom_site_fract_z
Si Si1 0.611165 0.842830 0.107193
Si Si2 0.144192 0.149806 0.563864
Si Si3 0.345817 0.104827 0.867263
Si Si4 0.249436 0.616433 0.179536
Si Si5 0.880959 0.885696 0.905733
Si Si6 0.980297 0.099271 0.801514
Si Si7 0.807133 0.421426 0.436594
O O1 0.692628 0.751491 0.951596
O O2 0.597411 0.967665 0.259745
O O3 0.646276 0.911053 0.853873
O O4 0.536975 0.731769 0.253840
O O5 0.246596 0.098306 0.235408
O O6 0.146369 0.313828 0.579134
O O7 0.074772 0.110545 0.626714
O O8 0.101554 0.100666 0.841754
O O9 0.393901 0.241619 0.792043
O O10 0.315773 0.121209 0.779798
O O11 0.326056 0.493545 0.952749
O O12 0.194411 0.569347 0.483446
O O13 0.800127 0.870361 0.261306
O O14 0.965470 0.963971 0.745861
#
# Coordination Sequence:
#
# PCOD9121245 Si02
#       7
#     4   4   4   4   4   4   4
#     4  10  19  30  55  79 100 139 176 215 262 310
#     4   9  18  31  57  76 106 137 177 210 266 312
#     4  11  19  31  54  82 103 140 173 214 266 311
#     4   9  19  32  50  77 110 131 175 224 254 304
#     4   8  17  30  51  71 108 130 169 215 253 307
#     4   9  17  35  52  80 106 137 172 223 253 315
#     4   8  17  31  51  76 100 132 181 218 247 297
#
# _framework density 22.294574000000001
#
# number of rings (size 3 to 8) (size 9 to 14) (size 15 to 20)
#    0.857    2.000    0.000    1.714    4.000    0.000 
#    0.000    2.857    3.143    1.714    0.000    0.000 
#    0.000    0.000    0.000    0.000    0.000    0.000 
#
# Total GULP energy -78137.544515 kJ/mol
# GULP energy per Si atom -5581.253180 kJ/mol
# Density = 2.224383 g / cm^3
# Si number density = 22.294574 Si / 1000 Ang^3
#
#
#
# Elastic Constant Matrix: (Units=GPa)
#
#
# Indices 1 2 3 4 5 6 
#
# 1 138.5235 73.0959 26.4158 0.0000 -4.0354 0.0000
# 2 73.0959 149.6768 0.8967 0.0000 -2.1496 0.0000
# 3 26.4158 0.8967 65.1793 0.0000 4.6794 0.0000
# 4 0.0000 0.0000 0.0000 15.3227 0.0000 0.2620
# 5 -4.0354 -2.1496 4.6794 0.0000 26.7989 0.0000
# 6 0.0000 0.0000 0.0000 0.2620 0.0000 28.2529
#
#
#
# Elastic Compliance Matrix: (Units=1/GPa)
#
#
# Indices 1 2 3 4 5 6 
#
# 1 0.010919 -0.005277 -0.004497 0.000000 0.002006 0.000000
# 2 -0.005277 0.009240 0.002041 0.000000 -0.000410 0.000000
# 3 -0.004497 0.002041 0.017392 0.000000 -0.003550 0.000000
# 4 0.000000 0.000000 0.000000 0.065273 0.000000 -0.000605
# 5 0.002006 -0.000410 -0.003550 0.000000 0.038204 0.000000
# 6 0.000000 0.000000 0.000000 -0.000605 0.000000 0.035400
#
#
# Mechanical properties :
#
#
# Convention : Reuss Voigt Hill
#
# Bulk Modulus (GPa) = 45.27887 61.57738 53.42813
# Shear Modulus (GPa) = 25.09340 30.93966 28.01653
#
# Velocity S-wave (km/s) = 3.35854 3.72931 3.54878
# Velocity P-wave (km/s) = 5.94922 6.79879 6.38815
#
# Compressibility (1/GPa) = 0.02208536
#
# Stress axis : x y z
#
# Youngs Moduli (GPa) = 91.57976 108.22582 57.49907
#
# Poissons Ratio (x) = 0.57109 0.25857
# Poissons Ratio (y) = 0.48325 -0.11735
# Poissons Ratio (z) = 0.41182 -0.22088
#
# Static dielectric constant tensor:
#      x y z
#    x 1.768330 0.000000 -0.007150 
#    y 0.000000 1.812670 0.000000 
#    z -0.007150 0.000000 1.942970 
# 
# From -- ./inp_files/32488.got.cif
#   From: 2010.05.17/outbox.cif.g08.bks.cpg/sg5_17_cif.got.tgz:32488.got - 2010.06.03 18:56:24.
