data_PCOD9121113
_publ_section_title
;
Structure prediction by ZEFSAII (Michael W. Deem and Ramdas Pophale) SiO2 
 PCOD9121113
Probable space group: C 2
;
_chemical_formula_sum "Si O2"
_cell_formula_units_Z 26
_cell_length_a 14.727990
_cell_length_b 10.463932
_cell_length_c 13.493378
_cell_angle_alpha 90.000000
_cell_angle_beta 32.214398
_cell_angle_gamma 90.000000
_cell_volume 1108.558757
_symmetry_space_group_name_H-M "C 2"
_symmetry_group_IT_number 5
_symmetry_cell_setting 'monoclinic'
loop_
_space_group_symop_operation_xyz
x,y,z
-x,y,-z
1/2+x,1/2+y,z
1/2-x,1/2+y,-z
loop_
_atom_site_type_symbol
_atom_site_label
_atom_site_fract_x
_atom_site_fract_y
_atom_site_fract_z
Si Si1 0.600651 0.201020 0.209505
Si Si2 0.560606 0.472822 0.335633
Si Si3 0.980543 0.118848 0.905899
Si Si4 0.204227 0.698504 0.903878
Si Si5 0.576264 0.721621 0.625969
Si Si6 0.804394 0.878768 0.272137
Si Si7 0.000000 0.562914 0.500000
O O1 0.592207 0.350746 0.240126
O O2 0.788396 0.139586 0.048653
O O3 0.500532 0.137974 0.394371
O O4 0.571920 0.189353 0.117280
O O5 0.500000 0.433874 0.500000
O O6 0.732856 0.556368 0.180997
O O7 0.426501 0.577605 0.416904
O O8 0.037977 0.970989 0.848508
O O9 0.000000 0.162521 0.000000
O O10 0.093541 0.202056 0.726593
O O11 0.381685 0.764337 0.780427
O O12 0.167316 0.772427 0.837377
O O13 0.711077 0.813093 0.451065
O O14 0.667146 0.975958 0.351287
#
# Coordination Sequence:
#
# PCOD9121113 Si02
#       7
#     4   4   4   4   4   4   2
#     4  11  24  38  62 106 133 174 223 288 342 393
#     4  10  18  39  67  98 128 169 237 282 316 397
#     4  11  25  42  61 100 149 175 211 284 362 396
#     4   9  20  37  70  99 125 174 238 280 321 392
#     4   9  20  42  65  98 127 180 229 277 330 397
#     4  12  21  43  72  96 133 181 232 278 333 427
#     4  12  22  38  68 100 124 180 242 272 330 394
#
# _framework density 23.453876000000001
#
# number of rings (size 3 to 8) (size 9 to 14) (size 15 to 20)
#    0.923    0.615    5.385    0.000    4.308    0.000 
#    5.538    0.000    0.000    0.923    0.000    0.000 
#    0.000    0.000    0.000    0.000    0.000    0.000 
#
# Total GULP energy -72605.248518 kJ/mol
# GULP energy per Si atom -5585.019117 kJ/mol
# Density = 2.340049 g / cm^3
# Si number density = 23.453876 Si / 1000 Ang^3
#
#
#
# Elastic Constant Matrix: (Units=GPa)
#
#
# Indices 1 2 3 4 5 6 
#
# 1 66.1391 16.3041 40.3899 0.0000 17.5463 0.0000
# 2 16.3041 98.5255 42.1553 0.0000 12.7045 0.0000
# 3 40.3899 42.1553 155.4684 0.0000 49.2809 0.0000
# 4 0.0000 0.0000 0.0000 47.9608 0.0000 0.8041
# 5 17.5463 12.7045 49.2809 0.0000 55.0115 0.0000
# 6 0.0000 0.0000 0.0000 0.8041 0.0000 22.0860
#
#
#
# Elastic Compliance Matrix: (Units=1/GPa)
#
#
# Indices 1 2 3 4 5 6 
#
# 1 0.018269 -0.001140 -0.003734 0.000000 -0.002219 0.000000
# 2 -0.001140 0.011554 -0.002942 0.000000 0.000330 0.000000
# 3 -0.003734 -0.002942 0.010624 0.000000 -0.007647 0.000000
# 4 0.000000 0.000000 0.000000 0.020863 0.000000 -0.000760
# 5 -0.002219 0.000330 -0.007647 0.000000 0.025660 0.000000
# 6 0.000000 0.000000 0.000000 -0.000760 0.000000 0.045305
#
#
# Mechanical properties :
#
#
# Convention : Reuss Voigt Hill
#
# Bulk Modulus (GPa) = 40.29430 57.53684 48.91557
# Shear Modulus (GPa) = 32.01476 39.76391 35.88934
#
# Velocity S-wave (km/s) = 3.69861 4.12200 3.91603
# Velocity P-wave (km/s) = 5.95459 6.87311 6.43027
#
# Compressibility (1/GPa) = 0.02481741
#
# Stress axis : x y z
#
# Youngs Moduli (GPa) = 54.73608 86.54845 94.12892
#
# Poissons Ratio (x) = 0.09862 0.35147
# Poissons Ratio (y) = 0.06237 0.27689
# Poissons Ratio (z) = 0.20438 0.25459
#
# Static dielectric constant tensor:
#      x y z
#    x 1.943520 0.000000 -0.010990 
#    y 0.000000 1.851080 0.000000 
#    z -0.010990 0.000000 1.926380 
# 
# From -- ./inp_files/44579.got.cif
#   From: 2010.05.17/outbox.cif.g08.bks.cpg/sg5_23_cif.got.tgz:44579.got - 2010.06.03 18:56:24.
