data_PCOD9121100
_publ_section_title
;
Structure prediction by ZEFSAII (Michael W. Deem and Ramdas Pophale) SiO2 
 PCOD9121100
Probable space group: C 2
;
_chemical_formula_sum "Si O2"
_cell_formula_units_Z 28
_cell_length_a 15.043410
_cell_length_b 9.116504
_cell_length_c 21.048137
_cell_angle_alpha 90.000000
_cell_angle_beta 27.811709
_cell_angle_gamma 90.000000
_cell_volume 1346.798659
_symmetry_space_group_name_H-M "C 2"
_symmetry_group_IT_number 5
_symmetry_cell_setting 'monoclinic'
loop_
_space_group_symop_operation_xyz
x,y,z
-x,y,-z
1/2+x,1/2+y,z
1/2-x,1/2+y,-z
loop_
_atom_site_type_symbol
_atom_site_label
_atom_site_fract_x
_atom_site_fract_y
_atom_site_fract_z
Si Si1 0.382055 0.316330 0.515887
Si Si2 0.384226 0.770955 0.973789
Si Si3 0.227166 0.753850 0.214797
Si Si4 0.575933 0.801605 0.619965
Si Si5 0.934659 0.950641 0.882926
Si Si6 0.210609 0.026199 0.598252
Si Si7 0.680167 0.413658 0.839526
O O1 0.500000 0.380325 0.500000
O O2 0.525877 0.313389 0.365121
O O3 0.177995 0.371243 0.618714
O O4 0.332173 0.145169 0.561929
O O5 0.602517 0.816476 0.848852
O O6 0.392366 0.604710 0.943851
O O7 0.282817 0.778222 0.106698
O O8 0.260243 0.864580 0.003912
O O9 0.234267 0.577891 0.219535
O O10 0.639742 0.632641 0.585819
O O11 0.350375 0.815925 0.758652
O O12 0.666525 0.891567 0.504646
O O13 0.090328 0.870178 0.828815
O O14 0.034879 0.979288 0.752405
O O15 0.500000 0.418769 0.000000
#
# Coordination Sequence:
#
# PCOD9121100 Si02
#       7
#     4   4   4   4   4   4   4
#     4  10  20  36  64  89 114 156 214 247 294 362
#     4  10  22  38  60  92 121 157 202 258 295 369
#     4  10  18  39  62  84 118 165 205 243 305 367
#     4  10  23  38  64  87 123 157 204 254 303 360
#     4  11  23  38  62  92 124 160 210 246 306 361
#     4  10  23  39  66  88 120 162 204 253 304 360
#     4  11  20  37  61  89 123 161 204 243 304 367
#
# _framework density 20.790042
#
# number of rings (size 3 to 8) (size 9 to 14) (size 15 to 20)
#    0.857    0.857    4.286    2.571    2.000    0.000 
#    0.000    4.286    3.143    0.000    0.000    0.000 
#    0.000    0.000    0.000    0.000    0.000    0.000 
#
# Total GULP energy -78038.540480 kJ/mol
# GULP energy per Si atom -5574.181463 kJ/mol
# Density = 2.074272 g / cm^3
# Si number density = 20.790042 Si / 1000 Ang^3
#
#
#
# Elastic Constant Matrix: (Units=GPa)
#
#
# Indices 1 2 3 4 5 6 
#
# 1 97.5705 24.5040 24.2237 -0.0003 -27.7560 0.0001
# 2 24.5040 25.8410 19.6721 -0.0002 -10.4763 0.0000
# 3 24.2237 19.6721 87.1109 -0.0007 -17.7534 0.0001
# 4 -0.0003 -0.0002 -0.0007 16.8345 0.0004 -11.7377
# 5 -27.7560 -10.4763 -17.7534 0.0004 33.0946 -0.0001
# 6 0.0001 0.0000 0.0001 -11.7377 -0.0001 24.7850
#
#
#
# Elastic Compliance Matrix: (Units=1/GPa)
#
#
# Indices 1 2 3 4 5 6 
#
# 1 0.015793 -0.011088 0.000108 0.000000 0.009793 0.000000
# 2 -0.011088 0.057835 -0.009141 0.000000 0.004106 0.000000
# 3 0.000108 -0.009141 0.014531 0.000001 0.004992 0.000000
# 4 0.000000 0.000000 0.000001 0.088686 -0.000001 0.042000
# 5 0.009793 0.004106 0.004992 -0.000001 0.042407 0.000000
# 6 0.000000 0.000000 0.000000 0.042000 0.000000 0.060238
#
#
# Mechanical properties :
#
#
# Convention : Reuss Voigt Hill
#
# Bulk Modulus (GPa) = 20.86876 38.59134 29.73005
# Shear Modulus (GPa) = 14.89408 24.41766 19.65587
#
# Velocity S-wave (km/s) = 2.67948 3.43080 3.07815
# Velocity P-wave (km/s) = 4.43085 5.85633 5.19274
#
# Compressibility (1/GPa) = 0.04791852
#
# Stress axis : x y z
#
# Youngs Moduli (GPa) = 63.32090 17.29046 68.81710
#
# Poissons Ratio (x) = 0.19171 -0.00744
# Poissons Ratio (y) = 0.70207 0.62905
# Poissons Ratio (z) = -0.00685 0.15805
#
# Static dielectric constant tensor:
#      x y z
#    x 1.810880 0.000000 -0.002840 
#    y 0.000000 1.738790 0.000000 
#    z -0.002840 0.000000 1.741710 
# 
# From -- ./inp_files/65965.got.cif
#   From: 2010.05.17/outbox.cif.g08.bks.cpg/sg5_33_cif.got.tgz:65965.got - 2010.06.03 18:56:24.
