data_PCOD9121017
_publ_section_title
;
Structure prediction by ZEFSAII (Michael W. Deem and Ramdas Pophale) SiO2 
 PCOD9121017
Probable space group: C 2
;
_chemical_formula_sum "Si O2"
_cell_formula_units_Z 30
_cell_length_a 10.806719
_cell_length_b 16.625408
_cell_length_c 16.811426
_cell_angle_alpha 90.000000
_cell_angle_beta 149.424988
_cell_angle_gamma 90.000000
_cell_volume 1536.396875
_symmetry_space_group_name_H-M "C 2"
_symmetry_group_IT_number 5
_symmetry_cell_setting 'monoclinic'
loop_
_space_group_symop_operation_xyz
x,y,z
-x,y,-z
1/2+x,1/2+y,z
1/2-x,1/2+y,-z
loop_
_atom_site_type_symbol
_atom_site_label
_atom_site_fract_x
_atom_site_fract_y
_atom_site_fract_z
Si Si1 0.652368 0.542760 0.783972
Si Si2 0.964801 0.450023 0.090266
Si Si3 0.863602 0.470911 0.508622
Si Si4 0.189077 0.721011 0.165358
Si Si5 0.709095 0.010081 0.846289
Si Si6 0.958500 0.691136 0.212532
Si Si7 0.000000 0.301560 0.000000
Si Si8 0.638146 0.791408 0.492004
O O1 0.366129 0.530032 0.618670
O O2 0.730148 0.635419 0.827093
O O3 0.791985 0.502676 0.786695
O O4 0.765297 0.494757 0.922411
O O5 0.869209 0.451397 0.125904
O O6 0.021570 0.362861 0.086041
O O7 0.757804 0.380546 0.462203
O O8 0.000000 0.475025 0.500000
O O9 0.064090 0.487801 0.686506
O O10 0.431494 0.771602 0.314185
O O11 0.059444 0.706646 0.179121
O O12 0.000000 0.760011 0.000000
O O13 0.618912 0.099186 0.820997
O O14 0.000000 0.009836 0.000000
O O15 0.167274 0.720840 0.389062
O O16 0.729289 0.746471 0.107149
O O17 0.500000 0.794830 0.500000
#
# Coordination Sequence:
#
# PCOD9121017 Si02
#       8
#     4   4   4   4   4   4   2   4
#     4  10  18  38  61  88 124 161 215 258 314 376
#     4  10  21  39  65  96 122 171 215 258 317 383
#     4  11  24  40  60  88 127 173 213 262 322 379
#     4  11  20  36  65  93 122 158 210 268 317 372
#     4  12  24  39  64  95 130 163 220 268 315 375
#     4  11  21  41  63  93 126 171 211 259 321 383
#     4  10  22  40  68  88 136 174 202 256 328 388
#     4   9  21  37  57  84 118 160 205 251 313 372
#
# _framework density 19.526205000000001
#
# number of rings (size 3 to 8) (size 9 to 14) (size 15 to 20)
#    0.000    1.600    3.333    3.200    0.000    4.267 
#    0.000    0.000    2.933    0.000    0.000    0.000 
#    0.000    0.000    0.000    0.000    0.000    0.000 
#
# Total GULP energy -83756.075677 kJ/mol
# GULP energy per Si atom -5583.738378 kJ/mol
# Density = 1.948176 g / cm^3
# Si number density = 19.526205 Si / 1000 Ang^3
#
#
#
# Elastic Constant Matrix: (Units=GPa)
#
#
# Indices 1 2 3 4 5 6 
#
# 1 93.1198 13.3621 46.2284 -0.0006 -4.2629 -0.0004
# 2 13.3621 51.7725 1.6656 0.0001 0.1957 0.0008
# 3 46.2284 1.6656 115.2081 0.0035 0.8395 0.0027
# 4 -0.0006 0.0001 0.0035 21.0805 0.0005 8.1583
# 5 -4.2629 0.1957 0.8395 0.0005 31.9134 0.0004
# 6 -0.0004 0.0008 0.0027 8.1583 0.0004 14.7938
#
#
#
# Elastic Compliance Matrix: (Units=1/GPa)
#
#
# Indices 1 2 3 4 5 6 
#
# 1 0.014128 -0.003473 -0.005634 0.000001 0.002057 0.000001
# 2 -0.003473 0.020178 0.001106 0.000000 -0.000617 -0.000001
# 3 -0.005634 0.001106 0.010932 -0.000001 -0.001047 -0.000001
# 4 0.000001 0.000000 -0.000001 0.060308 0.000000 -0.033258
# 5 0.002057 -0.000617 -0.001047 0.000000 0.031641 0.000000
# 6 0.000001 -0.000001 -0.000001 -0.033258 0.000000 0.085937
#
#
# Mechanical properties :
#
#
# Convention : Reuss Voigt Hill
#
# Bulk Modulus (GPa) = 34.20223 42.51252 38.35737
# Shear Modulus (GPa) = 20.09068 26.81382 23.45225
#
# Velocity S-wave (km/s) = 3.21114 3.70972 3.46940
# Velocity P-wave (km/s) = 5.59488 6.33788 5.97793
#
# Compressibility (1/GPa) = 0.02923786
#
# Stress axis : x y z
#
# Youngs Moduli (GPa) = 70.78031 49.55805 91.47265
#
# Poissons Ratio (x) = 0.17211 0.51535
# Poissons Ratio (y) = 0.24581 -0.10120
# Poissons Ratio (z) = 0.39877 -0.05483
#
# Static dielectric constant tensor:
#      x y z
#    x 1.663560 0.000000 -0.009350 
#    y 0.000000 1.688730 0.000000 
#    z -0.009350 0.000000 1.689060 
# 
# From -- ./inp_files/60658.got.cif
#   From: 2010.05.17/outbox.cif.g08.bks.cpg/sg5_31_cif.got.tgz:60658.got - 2010.06.03 18:56:24.
