data_PCOD9121462
_publ_section_title
;
Structure prediction by ZEFSAII (Michael W. Deem and Ramdas Pophale) SiO2 
 PCOD9121462
Probable space group: C 2
;
_chemical_formula_sum "Si O2"
_cell_formula_units_Z 28
_cell_length_a 24.520048
_cell_length_b 5.067644
_cell_length_c 15.231910
_cell_angle_alpha 90.000000
_cell_angle_beta 143.022914
_cell_angle_gamma 90.000000
_cell_volume 1138.450678
_symmetry_space_group_name_H-M "C 2"
_symmetry_group_IT_number 5
_symmetry_cell_setting 'monoclinic'
loop_
_space_group_symop_operation_xyz
x,y,z
-x,y,-z
1/2+x,1/2+y,z
1/2-x,1/2+y,-z
loop_
_atom_site_type_symbol
_atom_site_label
_atom_site_fract_x
_atom_site_fract_y
_atom_site_fract_z
Si Si1 0.608212 0.887700 0.750966
Si Si2 0.767169 0.026519 0.465520
Si Si3 0.730392 0.087603 0.066159
Si Si4 0.353604 0.300945 0.810736
Si Si5 0.504051 0.309364 0.150025
Si Si6 0.961819 0.283470 0.692009
Si Si7 0.761662 0.585515 0.208263
O O1 0.662520 0.609618 0.818610
O O2 0.507941 0.849639 0.658004
O O3 0.635158 0.030547 0.693655
O O4 0.664264 0.029996 0.901649
O O5 0.733239 0.235100 0.495759
O O6 0.696548 0.051467 0.295413
O O7 0.863324 0.147570 0.558884
O O8 0.713370 0.376033 0.081312
O O9 0.727448 0.869976 0.137305
O O10 0.414267 0.409471 0.808452
O O11 0.273620 0.488991 0.743802
O O12 0.482887 0.553441 0.186435
O O13 0.424422 0.242485 0.979230
O O14 0.531814 0.049238 0.240879
#
# Coordination Sequence:
#
# PCOD9121462 Si02
#       7
#     4   4   4   4   4   4   4
#     4  10  21  34  61  92 126 169 210 266 319 386
#     4  12  25  48  65  95 131 181 220 264 338 405
#     4  10  19  34  55  92 129 161 211 251 329 379
#     4  11  24  44  67  96 139 168 221 275 340 389
#     4  11  26  40  67 104 128 171 223 283 325 384
#     4  12  24  43  69  99 134 170 228 273 319 401
#     4  10  21  34  56  91 122 170 200 263 322 389
#
# _framework density 24.594832
#
# number of rings (size 3 to 8) (size 9 to 14) (size 15 to 20)
#    0.857    0.286    4.286    1.714    2.000    5.714 
#    0.000    0.714    0.000    0.000    3.714    0.000 
#    0.000    0.000    0.000    0.000    0.000    0.000 
#
# Total GULP energy -78139.476035 kJ/mol
# GULP energy per Si atom -5581.391145 kJ/mol
# Density = 2.453885 g / cm^3
# Si number density = 24.594832 Si / 1000 Ang^3
#
#
#
# Elastic Constant Matrix: (Units=GPa)
#
#
# Indices 1 2 3 4 5 6 
#
# 1 159.5303 -2.3646 20.5323 0.0013 25.0215 0.0009
# 2 -2.3646 95.1051 10.9123 0.0029 -8.6281 0.0030
# 3 20.5323 10.9123 73.4377 -0.0003 0.8126 -0.0002
# 4 0.0013 0.0029 -0.0003 21.0340 -0.0003 -5.3284
# 5 25.0215 -8.6281 0.8126 -0.0003 24.1839 -0.0001
# 6 0.0009 0.0030 -0.0002 -5.3284 -0.0001 33.3918
#
#
#
# Elastic Compliance Matrix: (Units=1/GPa)
#
#
# Indices 1 2 3 4 5 6 
#
# 1 0.007799 -0.000307 -0.002045 -0.000001 -0.008110 0.000000
# 2 -0.000307 0.011084 -0.001609 -0.000002 0.004326 -0.000001
# 3 -0.002045 -0.001609 0.014416 0.000001 0.001058 0.000000
# 4 -0.000001 -0.000002 0.000001 0.049545 0.000001 0.007906
# 5 -0.008110 0.004326 0.001058 0.000001 0.051249 0.000000
# 6 0.000000 -0.000001 0.000000 0.007906 0.000000 0.031209
#
#
# Mechanical properties :
#
#
# Convention : Reuss Voigt Hill
#
# Bulk Modulus (GPa) = 39.40617 42.91478 41.16047
# Shear Modulus (GPa) = 27.52034 35.65481 31.58757
#
# Velocity S-wave (km/s) = 3.34870 3.81161 3.58763
# Velocity P-wave (km/s) = 5.56854 6.07105 5.82522
#
# Compressibility (1/GPa) = 0.02537673
#
# Stress axis : x y z
#
# Youngs Moduli (GPa) = 128.22008 90.21881 69.36652
#
# Poissons Ratio (x) = 0.02771 0.14186
# Poissons Ratio (y) = 0.03939 0.11161
# Poissons Ratio (z) = 0.26223 0.14516
#
# Static dielectric constant tensor:
#      x y z
#    x 2.161500 0.000000 0.064130 
#    y 0.000000 1.890900 0.000000 
#    z 0.064130 0.000000 1.937620 
# 
# From -- ./inp_files/55503.got.cif
#   From: 2010.05.17/outbox.cif.g08.bks.cpg/sg5_28_cif.got.tgz:55503.got - 2010.06.03 18:56:24.
