data_PCOD9121429
_publ_section_title
;
Structure prediction by ZEFSAII (Michael W. Deem and Ramdas Pophale) SiO2 
 PCOD9121429
Probable space group: C 2
;
_chemical_formula_sum "Si O2"
_cell_formula_units_Z 20
_cell_length_a 21.376264
_cell_length_b 5.362001
_cell_length_c 8.403837
_cell_angle_alpha 90.000000
_cell_angle_beta 57.072511
_cell_angle_gamma 90.000000
_cell_volume 808.507687
_symmetry_space_group_name_H-M "C 2"
_symmetry_group_IT_number 5
_symmetry_cell_setting 'monoclinic'
loop_
_space_group_symop_operation_xyz
x,y,z
-x,y,-z
1/2+x,1/2+y,z
1/2-x,1/2+y,-z
loop_
_atom_site_type_symbol
_atom_site_label
_atom_site_fract_x
_atom_site_fract_y
_atom_site_fract_z
Si Si1 0.153316 0.017960 0.640317
Si Si2 0.878109 0.540967 0.810104
Si Si3 0.005851 0.842720 0.179000
Si Si4 0.695689 0.016982 0.758262
Si Si5 0.084623 0.040994 0.324065
O O1 0.154975 0.286058 0.724828
O O2 0.074843 0.953346 0.667940
O O3 0.220475 0.009317 0.422316
O O4 0.166679 0.787590 0.741986
O O5 0.881627 0.307134 0.689355
O O6 0.960159 0.601494 0.776847
O O7 0.866097 0.795132 0.730007
O O8 0.820184 0.502987 0.032263
O O9 0.067868 0.040487 0.153189
O O10 0.000000 0.800130 0.000000
O O11 0.000000 0.008700 0.500000
#
# Coordination Sequence:
#
# PCOD9121429 Si02
#       5
#     4   4   4   4   4
#     4  10  20  31  52  78 120 143 179 216 286 324
#     4  10  20  33  56  75 110 141 185 221 273 320
#     4  10  20  33  57  84 111 135 182 235 270 318
#     4  10  19  34  49  81 114 152 170 223 276 343
#     4  10  22  36  55  79 110 148 180 227 274 327
#
# _framework density 24.736933000000001
#
# number of rings (size 3 to 8) (size 9 to 14) (size 15 to 20)
#    1.200    0.800    2.000    3.000    2.800    0.800 
#    0.000    0.000    0.000    2.400    0.000    0.000 
#    0.000    0.000    0.000    0.000    0.000    0.000 
#
# Total GULP energy -55791.688235 kJ/mol
# GULP energy per Si atom -5579.168823 kJ/mol
# Density = 2.468063 g / cm^3
# Si number density = 24.736933 Si / 1000 Ang^3
#
#
#
# Elastic Constant Matrix: (Units=GPa)
#
#
# Indices 1 2 3 4 5 6 
#
# 1 38.4700 0.9945 -5.9741 0.0000 2.8535 0.0000
# 2 0.9945 172.6338 40.4892 0.0000 -6.6808 0.0000
# 3 -5.9741 40.4892 116.7813 0.0000 -27.3990 0.0000
# 4 0.0000 0.0000 0.0000 40.6170 0.0000 -0.4668
# 5 2.8535 -6.6808 -27.3990 0.0000 37.4441 0.0000
# 6 0.0000 0.0000 0.0000 -0.4668 0.0000 19.9489
#
#
#
# Elastic Compliance Matrix: (Units=1/GPa)
#
#
# Indices 1 2 3 4 5 6 
#
# 1 0.026287 -0.000487 0.001235 0.000000 -0.001186 0.000000
# 2 -0.000487 0.006325 -0.002347 0.000000 -0.000552 0.000000
# 3 0.001235 -0.002347 0.011251 0.000000 0.007720 0.000000
# 4 0.000000 0.000000 0.000000 0.024627 0.000000 0.000576
# 5 -0.001186 -0.000552 0.007720 0.000000 0.032347 0.000000
# 6 0.000000 0.000000 0.000000 0.000576 0.000000 0.050142
#
#
# Mechanical properties :
#
#
# Convention : Reuss Voigt Hill
#
# Bulk Modulus (GPa) = 24.59143 44.32271 34.45707
# Shear Modulus (GPa) = 29.80960 39.09368 34.45164
#
# Velocity S-wave (km/s) = 3.47517 3.97971 3.73597
# Velocity P-wave (km/s) = 5.10541 6.25092 5.70698
#
# Compressibility (1/GPa) = 0.04066457
#
# Stress axis : x y z
#
# Youngs Moduli (GPa) = 38.04203 158.11365 88.87901
#
# Poissons Ratio (x) = 0.07701 -0.10979
# Poissons Ratio (y) = 0.01853 0.20862
# Poissons Ratio (z) = -0.04699 0.37113
#
# Static dielectric constant tensor:
#      x y z
#    x 1.966580 0.000000 0.066310 
#    y 0.000000 2.026450 0.000000 
#    z 0.066310 0.000000 2.159550 
# 
# From -- ./inp_files/28195.got.cif
#   From: 2010.05.17/outbox.cif.g08.bks.cpg/sg5_15_cif.got.tgz:28195.got - 2010.06.03 18:56:24.
