data_PCOD9121785
_publ_section_title
;
Structure prediction by ZEFSAII (Michael W. Deem and Ramdas Pophale) SiO2 
 PCOD9121785
Probable space group: C 2
;
_chemical_formula_sum "Si O2"
_cell_formula_units_Z 26
_cell_length_a 5.030229
_cell_length_b 26.701538
_cell_length_c 9.481892
_cell_angle_alpha 90.000000
_cell_angle_beta 90.827993
_cell_angle_gamma 90.000000
_cell_volume 1273.425928
_symmetry_space_group_name_H-M "C 2"
_symmetry_group_IT_number 5
_symmetry_cell_setting 'monoclinic'
loop_
_space_group_symop_operation_xyz
x,y,z
-x,y,-z
1/2+x,1/2+y,z
1/2-x,1/2+y,-z
loop_
_atom_site_type_symbol
_atom_site_label
_atom_site_fract_x
_atom_site_fract_y
_atom_site_fract_z
Si Si1 0.500000 0.879761 0.000000
Si Si2 0.385188 0.297971 0.145814
Si Si3 0.246257 0.197138 0.098509
Si Si4 0.441698 0.933505 0.721734
Si Si5 0.981341 0.090761 0.831771
Si Si6 0.981632 0.550292 0.668062
Si Si7 0.083167 0.872789 0.351651
O O1 0.685721 0.840945 0.088031
O O2 0.430875 0.918641 0.124604
O O3 0.293861 0.244385 0.203629
O O4 0.596076 0.327452 0.241404
O O5 0.500000 0.279354 0.000000
O O6 0.131149 0.147502 0.170940
O O7 0.500000 0.182037 0.000000
O O8 0.000000 0.215043 0.000000
O O9 0.151274 0.909628 0.701148
O O10 0.653978 0.904684 0.627826
O O11 0.420123 0.991575 0.688603
O O12 0.762175 0.059006 0.746902
O O13 0.258174 0.081883 0.751676
O O14 0.000000 0.077872 0.000000
O O15 0.000000 0.561399 0.500000
O O16 0.000000 0.850597 0.500000
#
# Coordination Sequence:
#
# PCOD9121785 Si02
#       7
#     2   4   4   4   4   4   4
#     4  10  20  36  60  94 122 156 204 266 296 372
#     4  10  19  36  60  91 125 162 205 258 316 377
#     4  10  20  37  65  94 127 163 214 268 332 384
#     4  11  24  39  63  87 129 166 215 252 320 375
#     4  11  24  43  67  97 126 168 224 281 325 383
#     4  12  25  44  67  93 132 178 220 268 336 392
#     4  11  22  38  59  89 129 168 208 251 310 386
#
# _framework density 20.417362000000001
#
# number of rings (size 3 to 8) (size 9 to 14) (size 15 to 20)
#    0.000    1.231    2.308    5.077    2.154    0.000 
#    0.000    0.769    0.000    7.385    0.000    0.000 
#    0.000    0.000    0.000    0.000    0.000    0.000 
#
# Total GULP energy -72385.998514 kJ/mol
# GULP energy per Si atom -5568.153732 kJ/mol
# Density = 2.037089 g / cm^3
# Si number density = 20.417362 Si / 1000 Ang^3
#
#
#
# Elastic Constant Matrix: (Units=GPa)
#
#
# Indices 1 2 3 4 5 6 
#
# 1 96.4395 11.9992 22.5538 0.0000 -3.2019 0.0000
# 2 11.9992 90.8696 34.6001 0.0000 -0.3042 0.0000
# 3 22.5538 34.6001 108.0570 0.0000 -3.9675 0.0000
# 4 0.0000 0.0000 0.0000 -8.4945 0.0000 -4.8673
# 5 -3.2019 -0.3042 -3.9675 0.0000 32.7951 0.0000
# 6 0.0000 0.0000 0.0000 -4.8673 0.0000 26.8590
#
#
#
# Elastic Compliance Matrix: (Units=1/GPa)
#
#
# Indices 1 2 3 4 5 6 
#
# 1 0.010957 -0.000666 -0.002044 0.000000 0.000816 0.000000
# 2 -0.000666 0.012578 -0.003904 0.000000 -0.000421 0.000000
# 3 -0.002044 -0.003904 0.010971 0.000000 0.001092 0.000000
# 4 0.000000 0.000000 0.000000 -0.106649 0.000000 -0.019327
# 5 0.000816 -0.000421 0.001092 0.000000 0.030700 0.000000
# 6 0.000000 0.000000 0.000000 -0.019327 0.000000 0.033729
#
#
# Mechanical properties :
#
#
# Convention : Reuss Voigt Hill
#
# Bulk Modulus (GPa) = 46.99520 48.18582 47.59051
# Shear Modulus (GPa) = 396.63501 25.31280 210.97390
#
# Velocity S-wave (km/s) = 13.95297 3.52485 10.17620
# Velocity P-wave (km/s) = 16.81213 6.34175 12.70562
#
# Compressibility (1/GPa) = 0.02127877
#
# Stress axis : x y z
#
# Youngs Moduli (GPa) = 91.26488 79.50530 91.14891
#
# Poissons Ratio (x) = 0.05295 0.18629
# Poissons Ratio (y) = 0.06078 0.35583
# Poissons Ratio (z) = 0.18652 0.31038
#
# Static dielectric constant tensor:
#      x y z
#    x 1.808570 0.000000 -0.069520 
#    y 0.000000 1.809620 0.000000 
#    z -0.069520 0.000000 1.780390 
# 
# From -- ./inp_files/13049.got.cif
#   From: 2010.05.17/outbox.cif.g08.bks.cpg/sg5_7_cif.got.tgz:13049.got - 2010.06.03 18:56:24.
