data_PCOD9121684
_publ_section_title
;
Structure prediction by ZEFSAII (Michael W. Deem and Ramdas Pophale) SiO2 
 PCOD9121684
Probable space group: C 2
;
_chemical_formula_sum "Si O2"
_cell_formula_units_Z 30
_cell_length_a 16.435826
_cell_length_b 7.924067
_cell_length_c 11.367476
_cell_angle_alpha 90.000000
_cell_angle_beta 104.424575
_cell_angle_gamma 90.000000
_cell_volume 1433.813828
_symmetry_space_group_name_H-M "C 2"
_symmetry_group_IT_number 5
_symmetry_cell_setting 'monoclinic'
loop_
_space_group_symop_operation_xyz
x,y,z
-x,y,-z
1/2+x,1/2+y,z
1/2-x,1/2+y,-z
loop_
_atom_site_type_symbol
_atom_site_label
_atom_site_fract_x
_atom_site_fract_y
_atom_site_fract_z
Si Si1 0.057747 0.428280 0.872203
Si Si2 0.000000 0.128237 0.000000
Si Si3 0.400441 0.405406 0.779960
Si Si4 0.251831 0.814097 0.426011
Si Si5 0.460822 0.467174 0.361390
Si Si6 0.069069 0.367607 0.612853
Si Si7 0.731177 0.435242 0.670301
Si Si8 0.873085 0.545940 0.878513
O O1 0.077591 0.446414 0.743920
O O2 0.054420 0.241449 0.928223
O O3 0.961869 0.483746 0.858648
O O4 0.118947 0.531721 0.978883
O O5 0.933888 0.028856 0.894248
O O6 0.321373 0.425923 0.662037
O O7 0.480740 0.397963 0.721398
O O8 0.371478 0.237969 0.837469
O O9 0.343202 0.877364 0.421887
O O10 0.252734 0.621982 0.379431
O O11 0.242758 0.815213 0.562926
O O12 0.500000 0.410523 0.500000
O O13 0.459106 0.673248 0.367832
O O14 0.363396 0.418721 0.317738
O O15 0.000000 0.441102 0.500000
O O16 0.799875 0.431729 0.797678
#
# Coordination Sequence:
#
# PCOD9121684 Si02
#       8
#     4   2   4   4   4   4   4   4
#     4  10  20  40  60  84 116 160 202 245 294 368
#     4  10  20  34  66  80 110 160 214 234 292 364
#     4  11  20  39  57  90 117 161 199 253 298 354
#     4  10  22  36  61  86 125 151 208 245 302 351
#     4  10  19  35  63  88 121 148 204 250 291 350
#     4  10  20  37  62  91 114 156 199 251 291 356
#     4  10  20  38  58  90 117 165 192 254 299 356
#     4   9  21  36  60  80 127 156 190 249 309 344
#
# _framework density 20.923217000000001
#
# number of rings (size 3 to 8) (size 9 to 14) (size 15 to 20)
#    0.000    2.133    2.667    1.600    0.000    2.133 
#    4.800    0.667    0.000    0.000    0.000    0.000 
#    0.000    0.000    0.000    0.000    0.000    0.000 
#
# Total GULP energy -83660.761817 kJ/mol
# GULP energy per Si atom -5577.384121 kJ/mol
# Density = 2.087560 g / cm^3
# Si number density = 20.923217 Si / 1000 Ang^3
#
#
#
# Elastic Constant Matrix: (Units=GPa)
#
#
# Indices 1 2 3 4 5 6 
#
# 1 51.9580 2.4846 34.9145 0.0000 12.6039 0.0000
# 2 2.4846 25.0481 18.7660 0.0000 4.6295 0.0000
# 3 34.9145 18.7660 131.0482 0.0000 10.7542 0.0000
# 4 0.0000 0.0000 0.0000 19.9064 0.0000 7.5591
# 5 12.6039 4.6295 10.7542 0.0000 33.1144 0.0000
# 6 0.0000 0.0000 0.0000 7.5591 0.0000 -2.8385
#
#
#
# Elastic Compliance Matrix: (Units=1/GPa)
#
#
# Indices 1 2 3 4 5 6 
#
# 1 0.025527 0.003990 -0.006708 0.000000 -0.008095 0.000000
# 2 0.003990 0.045945 -0.007182 0.000000 -0.005609 0.000000
# 3 -0.006708 -0.007182 0.010433 0.000000 0.000169 0.000000
# 4 0.000000 0.000000 0.000000 0.024977 0.000000 0.066516
# 5 -0.008095 -0.005609 0.000169 0.000000 0.034009 0.000000
# 6 0.000000 0.000000 0.000000 0.066516 0.000000 -0.175164
#
#
# Mechanical properties :
#
#
# Convention : Reuss Voigt Hill
#
# Bulk Modulus (GPa) = 16.10207 35.59830 25.85019
# Shear Modulus (GPa) = 802.91862 20.16241 411.54052
#
# Velocity S-wave (km/s) = 19.61067 3.10762 14.03987
# Velocity P-wave (km/s) = 22.81411 5.47057 16.58932
#
# Compressibility (1/GPa) = 0.06210381
#
# Stress axis : x y z
#
# Youngs Moduli (GPa) = 39.17436 21.76524 95.85406
#
# Poissons Ratio (x) = -0.08684 0.64299
# Poissons Ratio (y) = -0.15629 0.68842
# Poissons Ratio (z) = 0.26278 0.15632
#
# Static dielectric constant tensor:
#      x y z
#    x 1.701440 0.000000 0.024410 
#    y 0.000000 1.839670 0.000000 
#    z 0.024410 0.000000 1.798270 
# 
# From -- ./inp_files/42003.got.cif
#   From: 2010.05.17/outbox.cif.g08.bks.cpg/sg5_22_cif.got.tgz:42003.got - 2010.06.03 18:56:24.
