data_PCOD9121486
_publ_section_title
;
Structure prediction by ZEFSAII (Michael W. Deem and Ramdas Pophale) SiO2 
 PCOD9121486
Probable space group: C 2
;
_chemical_formula_sum "Si O2"
_cell_formula_units_Z 32
_cell_length_a 14.042825
_cell_length_b 7.747872
_cell_length_c 15.243046
_cell_angle_alpha 90.000000
_cell_angle_beta 60.063685
_cell_angle_gamma 90.000000
_cell_volume 1437.201481
_symmetry_space_group_name_H-M "C 2"
_symmetry_group_IT_number 5
_symmetry_cell_setting 'monoclinic'
loop_
_space_group_symop_operation_xyz
x,y,z
-x,y,-z
1/2+x,1/2+y,z
1/2-x,1/2+y,-z
loop_
_atom_site_type_symbol
_atom_site_label
_atom_site_fract_x
_atom_site_fract_y
_atom_site_fract_z
Si Si1 0.390591 0.152310 0.096574
Si Si2 0.566550 0.338983 0.756666
Si Si3 0.575282 0.872331 0.550890
Si Si4 0.724976 0.433351 0.274544
Si Si5 0.321184 0.197805 0.845024
Si Si6 0.287058 0.824813 0.942128
Si Si7 0.543351 0.666251 0.254631
Si Si8 0.736224 0.107921 0.571399
O O1 0.410990 0.315667 0.150901
O O2 0.309218 0.217298 0.059767
O O3 0.337458 0.009687 0.183512
O O4 0.500000 0.090067 0.000000
O O5 0.449235 0.243196 0.797713
O O6 0.549713 0.531595 0.730208
O O7 0.662024 0.244504 0.659204
O O8 0.500000 0.896457 0.500000
O O9 0.499505 0.827852 0.669729
O O10 0.652965 0.704665 0.505220
O O11 0.657978 0.028523 0.533374
O O12 0.705866 0.245549 0.242703
O O13 0.630450 0.559772 0.276111
O O14 0.730853 0.456279 0.375477
O O15 0.294268 0.010038 0.893075
O O16 0.247174 0.324143 0.940752
O O17 0.396865 0.727212 0.861577
#
# Coordination Sequence:
#
# PCOD9121486 Si02
#       8
#     4   4   4   4   4   4   4   4
#     4  10  19  34  57  83 125 170 209 265 323 385
#     4  10  21  39  65  91 129 169 216 272 337 403
#     4  12  25  47  71  97 136 174 225 290 347 408
#     4   9  21  40  62  86 128 173 216 271 334 400
#     4  11  21  38  60  94 131 173 224 266 328 401
#     4  11  22  36  60  92 131 177 219 266 326 400
#     4  10  21  42  66  90 129 175 213 277 346 392
#     4  11  24  46  68 102 129 175 226 278 352 409
#
# _framework density 22.265491999999998
#
# number of rings (size 3 to 8) (size 9 to 14) (size 15 to 20)
#    0.000    1.500    2.500    3.750    0.000    1.000 
#    6.750    0.625    0.000    0.000    0.000    0.000 
#    0.000    0.000    0.000    0.000    0.000    0.000 
#
# Total GULP energy -89443.863531 kJ/mol
# GULP energy per Si atom -5590.241471 kJ/mol
# Density = 2.221482 g / cm^3
# Si number density = 22.265492 Si / 1000 Ang^3
#
#
#
# Elastic Constant Matrix: (Units=GPa)
#
#
# Indices 1 2 3 4 5 6 
#
# 1 72.4752 5.6684 23.7912 0.0000 12.5382 0.0000
# 2 5.6684 51.3823 -14.5324 0.0000 4.5793 0.0000
# 3 23.7912 -14.5324 58.1097 0.0000 -7.2264 0.0000
# 4 0.0000 0.0000 0.0000 26.2395 0.0000 -2.1803
# 5 12.5382 4.5793 -7.2264 0.0000 22.6220 0.0000
# 6 0.0000 0.0000 0.0000 -2.1803 0.0000 31.5472
#
#
#
# Elastic Compliance Matrix: (Units=1/GPa)
#
#
# Indices 1 2 3 4 5 6 
#
# 1 0.020113 -0.004091 -0.010977 0.000000 -0.013826 0.000000
# 2 -0.004091 0.021932 0.007175 0.000000 0.000120 0.000000
# 3 -0.010977 0.007175 0.025069 0.000000 0.012640 0.000000
# 4 0.000000 0.000000 0.000000 0.038331 0.000000 0.002649
# 5 -0.013826 0.000120 0.012640 0.000000 0.055881 0.000000
# 6 0.000000 0.000000 0.000000 0.002649 0.000000 0.031882
#
#
# Mechanical properties :
#
#
# Convention : Reuss Voigt Hill
#
# Bulk Modulus (GPa) = 19.48302 23.53576 21.50939
# Shear Modulus (GPa) = 22.11367 27.21775 24.66571
#
# Velocity S-wave (km/s) = 3.15490 3.50010 3.33197
# Velocity P-wave (km/s) = 4.69473 5.18920 4.94814
#
# Compressibility (1/GPa) = 0.05132675
#
# Stress axis : x y z
#
# Youngs Moduli (GPa) = 49.71853 45.59579 39.88933
#
# Poissons Ratio (x) = 0.18655 0.43788
# Poissons Ratio (y) = 0.20342 -0.28620
# Poissons Ratio (z) = 0.54578 -0.32714
#
# Static dielectric constant tensor:
#      x y z
#    x 1.822740 0.000000 0.005280 
#    y 0.000000 1.840180 0.000000 
#    z 0.005280 0.000000 1.818590 
# 
# From -- ./inp_files/54176.got.cif
#   From: 2010.05.17/outbox.cif.g08.bks.cpg/sg5_28_cif.got.tgz:54176.got - 2010.06.03 18:56:24.
