data_PCOD9121261
_publ_section_title
;
Structure prediction by ZEFSAII (Michael W. Deem and Ramdas Pophale) SiO2 
 PCOD9121261
Probable space group: C 2
;
_chemical_formula_sum "Si O2"
_cell_formula_units_Z 30
_cell_length_a 25.398851
_cell_length_b 5.560751
_cell_length_c 12.134719
_cell_angle_alpha 90.000000
_cell_angle_beta 69.026781
_cell_angle_gamma 90.000000
_cell_volume 1600.320060
_symmetry_space_group_name_H-M "C 2"
_symmetry_group_IT_number 5
_symmetry_cell_setting 'monoclinic'
loop_
_space_group_symop_operation_xyz
x,y,z
-x,y,-z
1/2+x,1/2+y,z
1/2-x,1/2+y,-z
loop_
_atom_site_type_symbol
_atom_site_label
_atom_site_fract_x
_atom_site_fract_y
_atom_site_fract_z
Si Si1 0.168371 0.978330 0.098503
Si Si2 0.288570 0.055889 0.346217
Si Si3 0.320442 0.083599 0.717969
Si Si4 0.731159 0.253410 0.863181
Si Si5 0.500000 0.992401 0.500000
Si Si6 0.098926 0.832036 0.481495
Si Si7 0.675575 0.557697 0.578485
Si Si8 0.584300 0.696626 0.300037
O O1 0.173766 0.772917 0.187819
O O2 0.220647 0.158004 0.087862
O O3 0.107649 0.104186 0.164652
O O4 0.180327 0.855939 0.973082
O O5 0.282201 0.055616 0.218529
O O6 0.317674 0.309606 0.357599
O O7 0.227450 0.066343 0.451754
O O8 0.319169 0.812099 0.362900
O O9 0.342044 0.194627 0.587949
O O10 0.259728 0.966813 0.771100
O O11 0.364586 0.869797 0.703304
O O12 0.547518 0.149320 0.527189
O O13 0.529245 0.838642 0.380431
O O14 0.115796 0.023277 0.560811
O O15 0.084538 0.970006 0.380164
#
# Coordination Sequence:
#
# PCOD9121261 Si02
#       8
#     4   4   4   4   2   4   4   4
#     4  10  19  31  50  77 115 159 198 234 296 340
#     4  10  23  34  54  77 117 164 214 235 282 342
#     4   9  18  30  50  74 107 153 193 239 280 347
#     4  11  20  31  50  78 114 165 205 238 278 352
#     4  10  20  34  58  84 114 150 192 254 314 364
#     4  10  20  34  56  78 114 152 197 245 307 353
#     4  10  22  37  52  79 113 166 206 246 282 349
#     4   9  19  33  51  80 111 147 184 243 300 364
#
# _framework density 18.746251999999998
#
# number of rings (size 3 to 8) (size 9 to 14) (size 15 to 20)
#    0.000    2.133    1.333    2.800   11.200    0.000 
#    0.000    0.000    0.000    0.000    0.000    0.000 
#    0.000   25.600    0.000    0.267    0.800    0.000 
#
# Total GULP energy -83545.682596 kJ/mol
# GULP energy per Si atom -5569.712173 kJ/mol
# Density = 1.870358 g / cm^3
# Si number density = 18.746252 Si / 1000 Ang^3
#
#
#
# Elastic Constant Matrix: (Units=GPa)
#
#
# Indices 1 2 3 4 5 6 
#
# 1 49.4148 29.1245 46.7177 0.0000 -10.3697 0.0000
# 2 29.1245 91.5043 46.6993 0.0000 -13.5116 0.0000
# 3 46.7177 46.6993 86.1541 0.0000 -15.3212 0.0000
# 4 0.0000 0.0000 0.0000 24.1382 0.0000 -5.4788
# 5 -10.3697 -13.5116 -15.3212 0.0000 23.7199 0.0000
# 6 0.0000 0.0000 0.0000 -5.4788 0.0000 33.0629
#
#
#
# Elastic Compliance Matrix: (Units=1/GPa)
#
#
# Indices 1 2 3 4 5 6 
#
# 1 0.042172 -0.002138 -0.021067 0.000000 0.003611 0.000000
# 2 -0.002138 0.015517 -0.006604 0.000000 0.003638 0.000000
# 3 -0.021067 -0.006604 0.027458 0.000000 0.004764 0.000000
# 4 0.000000 0.000000 0.000000 0.043047 0.000000 0.007133
# 5 0.003611 0.003638 0.004764 0.000000 0.048887 0.000000
# 6 0.000000 0.000000 0.000000 0.007133 0.000000 0.031427
#
#
# Mechanical properties :
#
#
# Convention : Reuss Voigt Hill
#
# Bulk Modulus (GPa) = 39.17316 52.46180 45.81748
# Shear Modulus (GPa) = 18.07434 23.15298 20.61366
#
# Velocity S-wave (km/s) = 3.10846 3.51817 3.31964
# Velocity P-wave (km/s) = 5.81595 6.67453 6.25998
#
# Compressibility (1/GPa) = 0.02552768
#
# Stress axis : x y z
#
# Youngs Moduli (GPa) = 23.71260 64.44656 36.41953
#
# Poissons Ratio (x) = 0.13778 0.76725
# Poissons Ratio (y) = 0.05070 0.24053
# Poissons Ratio (z) = 0.49955 0.42563
#
# Static dielectric constant tensor:
#      x y z
#    x 1.688530 0.000000 0.001180 
#    y 0.000000 1.755680 0.000000 
#    z 0.001180 0.000000 1.684050 
# 
# From -- ./inp_files/46925.got.cif
#   From: 2010.05.17/outbox.cif.g08.bks.cpg/sg5_24_cif.got.tgz:46925.got - 2010.06.03 18:56:24.
