data_PCOD9121944
_publ_section_title
;
Structure prediction by ZEFSAII (Michael W. Deem and Ramdas Pophale) SiO2 
 PCOD9121944
Probable space group: C 2
;
_chemical_formula_sum "Si O2"
_cell_formula_units_Z 26
_cell_length_a 12.492348
_cell_length_b 20.679500
_cell_length_c 8.421228
_cell_angle_alpha 90.000000
_cell_angle_beta 145.712857
_cell_angle_gamma 90.000000
_cell_volume 1225.548866
_symmetry_space_group_name_H-M "C 2"
_symmetry_group_IT_number 5
_symmetry_cell_setting 'monoclinic'
loop_
_space_group_symop_operation_xyz
x,y,z
-x,y,-z
1/2+x,1/2+y,z
1/2-x,1/2+y,-z
loop_
_atom_site_type_symbol
_atom_site_label
_atom_site_fract_x
_atom_site_fract_y
_atom_site_fract_z
Si Si1 0.500000 0.559600 0.000000
Si Si2 0.829533 0.862953 0.894653
Si Si3 0.449442 0.774258 0.617735
Si Si4 0.126656 0.752547 0.809761
Si Si5 0.219207 0.615990 0.057365
Si Si6 0.353495 0.641713 0.556346
Si Si7 0.308743 0.990734 0.164867
O O1 0.646024 0.603552 0.279809
O O2 0.630612 0.518554 0.044357
O O3 0.667838 0.837885 0.572526
O O4 0.745271 0.914985 0.915319
O O5 0.910318 0.801251 0.089171
O O6 0.000000 0.890404 0.000000
O O7 0.500000 0.749712 0.500000
O O8 0.327204 0.718131 0.547332
O O9 0.651570 0.772415 0.952885
O O10 0.000000 0.762755 0.500000
O O11 0.112034 0.677855 0.850103
O O12 0.222574 0.620426 0.251274
O O13 0.432210 0.628082 0.247698
O O14 0.163444 0.543384 0.939446
O O15 0.500000 0.992300 0.500000
#
# Coordination Sequence:
#
# PCOD9121944 Si02
#       7
#     2   4   4   4   4   4   4
#     4  10  22  36  60  92 122 154 210 260 300 380
#     4  11  22  41  60  87 125 167 208 257 313 370
#     4   9  16  36  62  82 115 165 203 242 312 369
#     4  10  19  37  61  92 121 157 213 253 305 374
#     4   9  17  35  62  88 121 163 203 256 310 370
#     4   9  15  35  59  88 120 157 202 254 313 358
#     4  11  22  40  61  87 123 167 207 251 311 373
#
# _framework density 21.214986
#
# number of rings (size 3 to 8) (size 9 to 14) (size 15 to 20)
#    0.000    2.154    5.385    1.846    0.000    0.000 
#   16.615    0.769    0.000    1.846    0.000    0.000 
#    0.000    0.000    0.000    0.000    0.000    0.000 
#
# Total GULP energy -72421.501182 kJ/mol
# GULP energy per Si atom -5570.884706 kJ/mol
# Density = 2.116670 g / cm^3
# Si number density = 21.214986 Si / 1000 Ang^3
#
#
#
# Elastic Constant Matrix: (Units=GPa)
#
#
# Indices 1 2 3 4 5 6 
#
# 1 17.5885 17.3868 18.8607 0.0000 0.1062 0.0000
# 2 17.3868 131.7295 50.9881 0.0000 -4.4839 0.0000
# 3 18.8607 50.9881 137.4994 0.0000 -9.9202 0.0000
# 4 0.0000 0.0000 0.0000 20.6278 0.0000 18.7526
# 5 0.1062 -4.4839 -9.9202 0.0000 22.0247 0.0000
# 6 0.0000 0.0000 0.0000 18.7526 0.0000 -31.2435
#
#
#
# Elastic Compliance Matrix: (Units=1/GPa)
#
#
# Indices 1 2 3 4 5 6 
#
# 1 0.071774 -0.006649 -0.007754 0.000000 -0.005192 0.000000
# 2 -0.006649 0.009482 -0.002545 0.000000 0.000816 0.000000
# 3 -0.007754 -0.002545 0.009556 0.000000 0.003823 0.000000
# 4 0.000000 0.000000 0.000000 0.031364 0.000000 0.018825
# 5 -0.005192 0.000816 0.003823 0.000000 0.047317 0.000000
# 6 0.000000 0.000000 0.000000 0.018825 0.000000 -0.020708
#
#
# Mechanical properties :
#
#
# Convention : Reuss Voigt Hill
#
# Bulk Modulus (GPa) = 17.56982 51.25429 34.41206
# Shear Modulus (GPa) = 24.79489 15.58726 20.19107
#
# Velocity S-wave (km/s) = 3.42240 2.71353 3.08837
# Velocity P-wave (km/s) = 4.89049 5.83349 5.38268
#
# Compressibility (1/GPa) = 0.05691579
#
# Stress axis : x y z
#
# Youngs Moduli (GPa) = 13.93254 105.46510 104.64533
#
# Poissons Ratio (x) = 0.70121 0.81146
# Poissons Ratio (y) = 0.09263 0.26634
# Poissons Ratio (z) = 0.10804 0.26843
#
# Static dielectric constant tensor:
#      x y z
#    x 1.830380 0.000000 0.062240 
#    y 0.000000 1.834330 0.000000 
#    z 0.062240 0.000000 1.785570 
# 
# From -- ./inp_files/25466.got.cif
#   From: 2010.05.17/outbox.cif.g08.bks.cpg/sg5_13_cif.got.tgz:25466.got - 2010.06.03 18:56:24.
