data_PCOD9121378
_publ_section_title
;
Structure prediction by ZEFSAII (Michael W. Deem and Ramdas Pophale) SiO2 
 PCOD9121378
Probable space group: C 2
;
_chemical_formula_sum "Si O2"
_cell_formula_units_Z 28
_cell_length_a 7.926121
_cell_length_b 33.712899
_cell_length_c 5.357529
_cell_angle_alpha 90.000000
_cell_angle_beta 58.903898
_cell_angle_gamma 90.000000
_cell_volume 1225.881243
_symmetry_space_group_name_H-M "C 2"
_symmetry_group_IT_number 5
_symmetry_cell_setting 'monoclinic'
loop_
_space_group_symop_operation_xyz
x,y,z
-x,y,-z
1/2+x,1/2+y,z
1/2-x,1/2+y,-z
loop_
_atom_site_type_symbol
_atom_site_label
_atom_site_fract_x
_atom_site_fract_y
_atom_site_fract_z
Si Si1 0.227562 0.426410 0.858248
Si Si2 0.134390 0.183582 0.146803
Si Si3 0.218868 0.767500 0.067901
Si Si4 0.763365 0.391183 0.644135
Si Si5 0.134304 0.097109 0.147700
Si Si6 0.133043 0.011180 0.147666
Si Si7 0.774397 0.800974 0.432156
O O1 0.307268 0.421710 0.515454
O O2 0.238177 0.471709 0.939887
O O3 0.312735 0.399294 0.016804
O O4 0.000000 0.414587 0.000000
O O5 0.236514 0.140177 0.076069
O O6 0.000000 0.187982 0.500000
O O7 0.273573 0.221341 0.005888
O O8 0.000000 0.183970 0.000000
O O9 0.308719 0.778282 0.265877
O O10 0.997220 0.784164 0.250189
O O11 0.315842 0.790649 0.765672
O O12 0.722577 0.348190 0.558685
O O13 0.000000 0.394846 0.500000
O O14 0.239527 0.054304 0.062948
O O15 0.000000 0.097029 0.500000
O O16 0.000000 0.097265 0.000000
O O17 0.000000 0.010638 0.500000
O O18 0.000000 0.009084 0.000000
#
# Coordination Sequence:
#
# PCOD9121378 Si02
#       7
#     4   4   4   4   4   4   4
#     4  10  21  38  57  81 114 145 181 236 280 331
#     4  10  19  33  55  85 108 146 190 225 273 330
#     4  10  21  36  53  77 108 145 178 235 281 323
#     4  10  21  38  57  77 104 146 190 229 276 332
#     4   8  16  30  52  78 113 139 176 227 265 323
#     4  10  19  35  55  88 113 146 186 224 279 330
#     4  10  21  38  53  75 107 146 180 233 284 326
#
# _framework density 22.840712
#
# number of rings (size 3 to 8) (size 9 to 14) (size 15 to 20)
#    0.000    2.286    0.000    2.571    0.000    1.714 
#   15.429    0.000    3.143    0.000    7.429    0.000 
#    0.000    0.000    0.000    0.000    0.000    0.000 
#
# Total GULP energy -78110.494489 kJ/mol
# GULP energy per Si atom -5579.321035 kJ/mol
# Density = 2.278873 g / cm^3
# Si number density = 22.840712 Si / 1000 Ang^3
#
#
#
# Elastic Constant Matrix: (Units=GPa)
#
#
# Indices 1 2 3 4 5 6 
#
# 1 77.1258 16.3487 37.7380 0.0000 21.1365 0.0000
# 2 16.3487 168.0697 13.2790 0.0000 25.3908 0.0000
# 3 37.7380 13.2790 144.1275 0.0000 44.8679 0.0000
# 4 0.0000 0.0000 0.0000 45.2326 0.0000 8.8864
# 5 21.1365 25.3908 44.8679 0.0000 39.0607 0.0000
# 6 0.0000 0.0000 0.0000 8.8864 0.0000 17.2602
#
#
#
# Elastic Compliance Matrix: (Units=1/GPa)
#
#
# Indices 1 2 3 4 5 6 
#
# 1 0.015731 -0.000520 -0.002376 0.000000 -0.005445 0.000000
# 2 -0.000520 0.006736 0.001231 0.000000 -0.005512 0.000000
# 3 -0.002376 0.001231 0.011357 0.000000 -0.012560 0.000000
# 4 0.000000 0.000000 0.000000 0.024596 0.000000 -0.012663
# 5 -0.005445 -0.005512 -0.012560 0.000000 0.046558 0.000000
# 6 0.000000 0.000000 0.000000 -0.012663 0.000000 0.064456
#
#
# Mechanical properties :
#
#
# Convention : Reuss Voigt Hill
#
# Bulk Modulus (GPa) = 32.79228 58.22826 45.51027
# Shear Modulus (GPa) = 27.33316 41.77450 34.55383
#
# Velocity S-wave (km/s) = 3.46307 4.28126 3.89372
# Velocity P-wave (km/s) = 5.51167 7.07018 6.33901
#
# Compressibility (1/GPa) = 0.03049498
#
# Stress axis : x y z
#
# Youngs Moduli (GPa) = 63.56935 148.45922 88.05088
#
# Poissons Ratio (x) = 0.07717 0.20920
# Poissons Ratio (y) = 0.03305 -0.10842
# Poissons Ratio (z) = 0.15103 -0.18280
#
# Static dielectric constant tensor:
#      x y z
#    x 1.829170 0.000000 0.013480 
#    y 0.000000 1.859420 0.000000 
#    z 0.013480 0.000000 1.716270 
# 
# From -- ./inp_files/3879.got.cif
#   From: 2010.05.17/outbox.cif.g08.bks.cpg/sg5_2_cif.got.tgz:3879.got - 2010.06.03 18:56:24.
