data_PCOD9121650
_publ_section_title
;
Structure prediction by ZEFSAII (Michael W. Deem and Ramdas Pophale) SiO2 
 PCOD9121650
Probable space group: C 2
;
_chemical_formula_sum "Si O2"
_cell_formula_units_Z 24
_cell_length_a 9.371237
_cell_length_b 17.907656
_cell_length_c 8.465741
_cell_angle_alpha 90.000000
_cell_angle_beta 127.629856
_cell_angle_gamma 90.000000
_cell_volume 1125.149546
_symmetry_space_group_name_H-M "C 2"
_symmetry_group_IT_number 5
_symmetry_cell_setting 'monoclinic'
loop_
_space_group_symop_operation_xyz
x,y,z
-x,y,-z
1/2+x,1/2+y,z
1/2-x,1/2+y,-z
loop_
_atom_site_type_symbol
_atom_site_label
_atom_site_fract_x
_atom_site_fract_y
_atom_site_fract_z
Si Si1 0.196864 0.362480 0.208905
Si Si2 0.326537 0.107714 0.947750
Si Si3 0.298019 0.906757 0.421539
Si Si4 0.192422 0.212277 0.079033
Si Si5 0.816449 0.252175 0.278988
Si Si6 0.463585 0.485964 0.289593
O O1 0.343823 0.554800 0.154762
O O2 0.340634 0.411683 0.210519
O O3 0.252587 0.275544 0.239428
O O4 0.000000 0.370764 0.000000
O O5 0.333347 0.150426 0.119513
O O6 0.296680 0.175244 0.800003
O O7 0.500000 0.065386 0.000000
O O8 0.500000 0.926279 0.500000
O O9 0.240731 0.830230 0.292599
O O10 0.143212 0.969318 0.311516
O O11 0.691489 0.888162 0.385666
O O12 0.150694 0.257298 0.886735
O O13 0.000000 0.179962 0.000000
O O14 0.000000 0.240510 0.500000
O O15 0.500000 0.500796 0.500000
#
# Coordination Sequence:
#
# PCOD9121650 Si02
#       6
#     4   4   4   4   4   4
#     4  10  19  35  60  88 126 151 203 253 304 354
#     4  10  22  37  60  87 123 166 205 242 307 366
#     4  10  20  36  61  96 116 159 205 254 300 361
#     4   9  19  34  57  86 123 152 203 249 299 347
#     4   9  18  33  61  86 119 159 202 250 294 359
#     4  10  22  39  59  85 127 165 199 246 316 359
#
# _framework density 21.330500000000001
#
# number of rings (size 3 to 8) (size 9 to 14) (size 15 to 20)
#    1.000    1.333    0.000    5.000    2.333    0.000 
#    0.000    9.167    0.000    0.000    0.000    0.000 
#    0.000    0.000    0.000    0.000    0.000    0.000 
#
# Total GULP energy -66835.469317 kJ/mol
# GULP energy per Si atom -5569.622443 kJ/mol
# Density = 2.128195 g / cm^3
# Si number density = 21.330500 Si / 1000 Ang^3
#
#
#
# Elastic Constant Matrix: (Units=GPa)
#
#
# Indices 1 2 3 4 5 6 
#
# 1 126.9682 50.3515 16.6322 0.0000 24.4135 0.0000
# 2 50.3515 64.5430 5.0207 0.0000 24.4030 0.0000
# 3 16.6322 5.0207 24.9676 0.0000 4.9966 0.0000
# 4 0.0000 0.0000 0.0000 19.0970 0.0000 9.5723
# 5 24.4135 24.4030 4.9966 0.0000 23.1672 0.0000
# 6 0.0000 0.0000 0.0000 9.5723 0.0000 27.6727
#
#
#
# Elastic Compliance Matrix: (Units=1/GPa)
#
#
# Indices 1 2 3 4 5 6 
#
# 1 0.012491 -0.007961 -0.006024 0.000000 -0.003478 0.000000
# 2 -0.007961 0.030823 0.004101 0.000000 -0.024963 0.000000
# 3 -0.006024 0.004101 0.044766 0.000000 -0.007626 0.000000
# 4 0.000000 0.000000 0.000000 0.063348 0.000000 -0.021913
# 5 -0.003478 -0.024963 -0.007626 0.000000 0.074769 0.000000
# 6 0.000000 0.000000 0.000000 -0.021913 0.000000 0.043716
#
#
# Mechanical properties :
#
#
# Convention : Reuss Voigt Hill
#
# Bulk Modulus (GPa) = 14.63873 40.05418 27.34646
# Shear Modulus (GPa) = 16.00243 23.61900 19.81071
#
# Velocity S-wave (km/s) = 2.74197 3.33120 3.05085
# Velocity P-wave (km/s) = 4.11124 5.79781 5.02577
#
# Compressibility (1/GPa) = 0.06831196
#
# Stress axis : x y z
#
# Youngs Moduli (GPa) = 80.05844 32.44326 22.33819
#
# Poissons Ratio (x) = 0.25827 0.13456
# Poissons Ratio (y) = 0.63733 -0.09160
# Poissons Ratio (z) = 0.48227 -0.13304
#
# Static dielectric constant tensor:
#      x y z
#    x 1.777110 0.000000 0.029350 
#    y 0.000000 1.830060 0.000000 
#    z 0.029350 0.000000 1.801460 
# 
# From -- ./inp_files/36909.got.cif
#   From: 2010.05.17/outbox.cif.g08.bks.cpg/sg5_19_cif.got.tgz:36909.got - 2010.06.03 18:56:24.
