data_PCOD9121624
_publ_section_title
;
Structure prediction by ZEFSAII (Michael W. Deem and Ramdas Pophale) SiO2 
 PCOD9121624
Probable space group: C 2
;
_chemical_formula_sum "Si O2"
_cell_formula_units_Z 30
_cell_length_a 16.571166
_cell_length_b 9.048553
_cell_length_c 12.833875
_cell_angle_alpha 90.000000
_cell_angle_beta 137.596043
_cell_angle_gamma 90.000000
_cell_volume 1297.709696
_symmetry_space_group_name_H-M "C 2"
_symmetry_group_IT_number 5
_symmetry_cell_setting 'monoclinic'
loop_
_space_group_symop_operation_xyz
x,y,z
-x,y,-z
1/2+x,1/2+y,z
1/2-x,1/2+y,-z
loop_
_atom_site_type_symbol
_atom_site_label
_atom_site_fract_x
_atom_site_fract_y
_atom_site_fract_z
Si Si1 0.890069 0.050630 0.958148
Si Si2 0.218946 0.315398 0.258415
Si Si3 0.320193 0.705044 0.492459
Si Si4 0.000000 0.277195 0.500000
Si Si5 0.077064 0.816551 0.680839
Si Si6 0.361114 0.386851 0.596510
Si Si7 0.644229 0.980809 0.800776
Si Si8 0.496819 0.837326 0.825898
O O1 0.816793 0.148330 0.803915
O O2 0.786871 0.964075 0.920075
O O3 0.947168 0.181412 0.083729
O O4 0.000000 0.977151 0.000000
O O5 0.295472 0.380352 0.236215
O O6 0.302846 0.311139 0.438947
O O7 0.094444 0.392333 0.171480
O O8 0.399966 0.682679 0.465712
O O9 0.310265 0.551185 0.542889
O O10 0.194303 0.790473 0.363127
O O11 0.405139 0.806973 0.644134
O O12 0.923980 0.379264 0.348928
O O13 0.104627 0.648864 0.740857
O O14 0.000000 0.818030 0.500000
O O15 0.001209 0.888962 0.702150
O O16 0.598210 0.936419 0.871349
#
# Coordination Sequence:
#
# PCOD9121624 Si02
#       8
#     4   4   4   2   4   4   4   4
#     4   9  18  36  57  78 107 155 200 231 271 342
#     4   8  17  32  55  77 108 142 188 229 274 332
#     4  10  23  36  56  84 122 150 187 236 295 347
#     4  10  22  36  58  84 118 150 184 244 300 334
#     4   9  17  30  54  83 108 144 192 225 274 344
#     4  10  21  34  55  86 118 150 188 235 292 343
#     4  10  19  35  59  83 114 149 194 239 291 340
#     4   9  19  36  54  84 110 148 190 242 281 334
#
# _framework density 23.117650999999999
#
# number of rings (size 3 to 8) (size 9 to 14) (size 15 to 20)
#    0.000    2.667    0.667    0.000    8.400    3.200 
#    4.800    0.000    0.000    0.000    0.000    0.000 
#    0.000    0.000    0.000    0.000    0.000    0.000 
#
# Total GULP energy -83585.252547 kJ/mol
# GULP energy per Si atom -5572.350170 kJ/mol
# Density = 2.306503 g / cm^3
# Si number density = 23.117651 Si / 1000 Ang^3
#
#
#
# Elastic Constant Matrix: (Units=GPa)
#
#
# Indices 1 2 3 4 5 6 
#
# 1 197.5417 47.1505 36.1295 0.0000 71.7206 0.0000
# 2 47.1505 51.3868 -0.1537 0.0000 23.5930 0.0000
# 3 36.1295 -0.1537 68.5491 0.0000 17.4508 0.0000
# 4 0.0000 0.0000 0.0000 12.0713 0.0000 12.6995
# 5 71.7206 23.5930 17.4508 0.0000 40.7205 0.0000
# 6 0.0000 0.0000 0.0000 12.6995 0.0000 29.1622
#
#
#
# Elastic Compliance Matrix: (Units=1/GPa)
#
#
# Indices 1 2 3 4 5 6 
#
# 1 0.014374 -0.002597 -0.001706 0.000000 -0.023081 0.000000
# 2 -0.002597 0.028253 0.004978 0.000000 -0.013929 0.000000
# 3 -0.001706 0.004978 0.017362 0.000000 -0.007320 0.000000
# 4 0.000000 0.000000 0.000000 0.152884 0.000000 -0.066578
# 5 -0.023081 -0.013929 -0.007320 0.000000 0.076417 0.000000
# 6 0.000000 0.000000 0.000000 -0.066578 0.000000 0.063284
#
#
# Mechanical properties :
#
#
# Convention : Reuss Voigt Hill
#
# Bulk Modulus (GPa) = 16.30287 53.74781 35.02534
# Shear Modulus (GPa) = 13.45277 32.01422 22.73349
#
# Velocity S-wave (km/s) = 2.41493 3.72538 3.13929
# Velocity P-wave (km/s) = 3.85270 6.46566 5.32203
#
# Compressibility (1/GPa) = 0.06133888
#
# Stress axis : x y z
#
# Youngs Moduli (GPa) = 69.56986 35.39439 57.59750
#
# Poissons Ratio (x) = 0.09192 0.09826
# Poissons Ratio (y) = 0.18068 -0.28672
# Poissons Ratio (z) = 0.11869 -0.17619
#
# Static dielectric constant tensor:
#      x y z
#    x 2.039810 0.000000 0.036250 
#    y 0.000000 1.835560 0.000000 
#    z 0.036250 0.000000 1.905520 
# 
# From -- ./inp_files/62176.got.cif
#   From: 2010.05.17/outbox.cif.g08.bks.cpg/sg5_32_cif.got.tgz:62176.got - 2010.06.03 18:56:24.
