data_PCOD9121726
_publ_section_title
;
Structure prediction by ZEFSAII (Michael W. Deem and Ramdas Pophale) SiO2 
 PCOD9121726
Probable space group: C 2
;
_chemical_formula_sum "Si O2"
_cell_formula_units_Z 28
_cell_length_a 6.215802
_cell_length_b 13.276016
_cell_length_c 19.431534
_cell_angle_alpha 90.000000
_cell_angle_beta 60.680526
_cell_angle_gamma 90.000000
_cell_volume 1398.106137
_symmetry_space_group_name_H-M "C 2"
_symmetry_group_IT_number 5
_symmetry_cell_setting 'monoclinic'
loop_
_space_group_symop_operation_xyz
x,y,z
-x,y,-z
1/2+x,1/2+y,z
1/2-x,1/2+y,-z
loop_
_atom_site_type_symbol
_atom_site_label
_atom_site_fract_x
_atom_site_fract_y
_atom_site_fract_z
Si Si1 0.000159 0.267310 0.640746
Si Si2 0.522673 0.524644 0.145433
Si Si3 0.500000 0.525167 0.000000
Si Si4 0.473405 0.896152 0.780597
Si Si5 0.989462 0.386942 0.928078
Si Si6 0.000000 0.806852 0.500000
Si Si7 0.892914 0.065749 0.718055
Si Si8 0.237326 0.429939 0.422826
O O1 0.035819 0.326781 0.706490
O O2 0.851426 0.167329 0.682503
O O3 0.859698 0.340642 0.610808
O O4 0.264855 0.245614 0.564316
O O5 0.496063 0.578569 0.075214
O O6 0.298383 0.444493 0.185457
O O7 0.535180 0.587056 0.213832
O O8 0.776974 0.461793 0.104787
O O9 0.259246 0.453778 0.035696
O O10 0.496558 0.839712 0.850778
O O11 0.662170 0.990138 0.752696
O O12 0.000000 0.329652 0.000000
O O13 0.911811 0.879321 0.452298
O O14 0.117608 0.008376 0.646229
O O15 0.000000 0.473049 0.500000
#
# Coordination Sequence:
#
# PCOD9121726 Si02
#       8
#     4   4   2   4   4   2   4   4
#     4  11  23  39  60  87 116 153 200 244 294 354
#     4   9  17  32  56  87 119 158 194 236 293 339
#     4   8  14  28  54  90 120 154 198 232 282 352
#     4  10  19  36  56  86 121 152 197 246 286 349
#     4   8  15  28  54  88 116 157 196 231 292 345
#     4  10  22  44  60  80 120 154 190 252 300 344
#     4  11  22  37  61  87 114 157 197 239 300 348
#     4  10  22  42  58  83 117 148 194 249 296 356
#
# _framework density 20.027090999999999
#
# number of rings (size 3 to 8) (size 9 to 14) (size 15 to 20)
#    0.000    2.286    2.857    0.000    1.000    1.143 
#    3.857    0.000    1.571    0.000   92.857    0.000 
#    0.000    0.000    0.000    0.000    0.000    0.000 
#
# Total GULP energy -78016.364610 kJ/mol
# GULP energy per Si atom -5572.597472 kJ/mol
# Density = 1.998151 g / cm^3
# Si number density = 20.027091 Si / 1000 Ang^3
#
#
#
# Elastic Constant Matrix: (Units=GPa)
#
#
# Indices 1 2 3 4 5 6 
#
# 1 90.8870 15.4462 46.4255 0.0000 3.3904 0.0000
# 2 15.4462 40.6051 28.7533 0.0000 1.7141 0.0000
# 3 46.4255 28.7533 136.7484 0.0000 19.4885 0.0000
# 4 0.0000 0.0000 0.0000 6.4372 0.0000 1.6948
# 5 3.3904 1.7141 19.4885 0.0000 45.3653 0.0000
# 6 0.0000 0.0000 0.0000 1.6948 0.0000 8.8052
#
#
#
# Elastic Compliance Matrix: (Units=1/GPa)
#
#
# Indices 1 2 3 4 5 6 
#
# 1 0.013513 -0.002161 -0.004262 0.000000 0.000903 0.000000
# 2 -0.002161 0.029393 -0.005658 0.000000 0.001481 0.000000
# 3 -0.004262 -0.005658 0.010517 0.000000 -0.003986 0.000000
# 4 0.000000 0.000000 0.000000 0.163639 0.000000 -0.031497
# 5 0.000903 0.001481 -0.003986 0.000000 0.023632 0.000000
# 6 0.000000 0.000000 0.000000 -0.031497 0.000000 0.119632
#
#
# Mechanical properties :
#
#
# Convention : Reuss Voigt Hill
#
# Bulk Modulus (GPa) = 34.17311 49.94339 42.05825
# Shear Modulus (GPa) = 12.68255 23.96257 18.32256
#
# Velocity S-wave (km/s) = 2.51922 3.46281 3.02799
# Velocity P-wave (km/s) = 5.05593 6.40157 5.76812
#
# Compressibility (1/GPa) = 0.02926278
#
# Stress axis : x y z
#
# Youngs Moduli (GPa) = 74.00136 34.02135 95.08088
#
# Poissons Ratio (x) = 0.07350 0.40524
# Poissons Ratio (y) = 0.15988 0.53797
# Poissons Ratio (z) = 0.31540 0.19249
#
# Static dielectric constant tensor:
#      x y z
#    x 1.698750 0.000000 0.023850 
#    y 0.000000 1.645740 0.000000 
#    z 0.023850 0.000000 1.763930 
# 
# From -- ./inp_files/58704.got.cif
#   From: 2010.05.17/outbox.cif.g08.bks.cpg/sg5_30_cif.got.tgz:58704.got - 2010.06.03 18:56:24.
