data_PCOD9121902
_publ_section_title
;
Structure prediction by ZEFSAII (Michael W. Deem and Ramdas Pophale) SiO2 
 PCOD9121902
Probable space group: C 2
;
_chemical_formula_sum "Si O2"
_cell_formula_units_Z 28
_cell_length_a 27.716127
_cell_length_b 8.694384
_cell_length_c 21.464767
_cell_angle_alpha 90.000000
_cell_angle_beta 166.349342
_cell_angle_gamma 90.000000
_cell_volume 1220.708813
_symmetry_space_group_name_H-M "C 2"
_symmetry_group_IT_number 5
_symmetry_cell_setting 'monoclinic'
loop_
_space_group_symop_operation_xyz
x,y,z
-x,y,-z
1/2+x,1/2+y,z
1/2-x,1/2+y,-z
loop_
_atom_site_type_symbol
_atom_site_label
_atom_site_fract_x
_atom_site_fract_y
_atom_site_fract_z
Si Si1 0.189621 0.937390 0.591706
Si Si2 0.801062 0.616658 0.627052
Si Si3 0.727164 0.345337 0.775047
Si Si4 0.078017 0.131040 0.161643
Si Si5 0.101359 0.330555 0.878780
Si Si6 0.228034 0.015087 0.005383
Si Si7 0.544420 0.398942 0.230102
O O1 0.201686 0.949284 0.681324
O O2 0.262500 0.765936 0.660058
O O3 0.966159 0.982327 0.284356
O O4 0.332508 0.063356 0.736668
O O5 0.603810 0.729372 0.371808
O O6 0.730146 0.456788 0.507146
O O7 0.965435 0.720024 0.798877
O O8 0.500000 0.280385 0.500000
O O9 0.815291 0.401054 0.952243
O O10 0.892454 0.222525 0.960888
O O11 0.106421 0.996390 0.246924
O O12 0.000000 0.058414 0.000000
O O13 0.257795 0.194707 0.054511
O O14 0.088409 0.443528 0.803804
O O15 0.156551 0.944785 0.982060
#
# Coordination Sequence:
#
# PCOD9121902 Si02
#       7
#     4   4   4   4   4   4   4
#     4   9  20  36  58  87 113 145 196 239 288 344
#     4  10  21  36  61  86 118 145 194 244 288 340
#     4  11  19  36  61  85 111 154 193 233 285 351
#     4  10  20  37  60  85 113 150 192 240 289 350
#     4  10  21  36  56  88 115 151 192 238 285 340
#     4  10  20  35  56  86 116 148 195 238 283 341
#     4  10  19  37  58  83 116 147 195 236 293 334
#
# _framework density 22.937493
#
# number of rings (size 3 to 8) (size 9 to 14) (size 15 to 20)
#    0.000    2.286    4.286    1.714    0.000    2.286 
#    0.000    2.143    0.000    0.000    0.000    0.000 
#    0.000    0.000    0.000    0.000    0.000    0.000 
#
# Total GULP energy -77972.310466 kJ/mol
# GULP energy per Si atom -5569.450748 kJ/mol
# Density = 2.288529 g / cm^3
# Si number density = 22.937493 Si / 1000 Ang^3
#
#
#
# Elastic Constant Matrix: (Units=GPa)
#
#
# Indices 1 2 3 4 5 6 
#
# 1 155.8851 46.8261 14.2570 0.0002 -28.0842 0.0002
# 2 46.8261 76.5836 1.2728 0.0005 -12.1422 0.0003
# 3 14.2570 1.2728 54.0434 0.0013 -0.1468 -0.0005
# 4 0.0002 0.0005 0.0013 21.4406 0.0003 2.6272
# 5 -28.0842 -12.1422 -0.1468 0.0003 34.2070 0.0002
# 6 0.0002 0.0003 -0.0005 2.6272 0.0002 42.6769
#
#
#
# Elastic Compliance Matrix: (Units=1/GPa)
#
#
# Indices 1 2 3 4 5 6 
#
# 1 0.009037 -0.004571 -0.002261 0.000000 0.005788 0.000000
# 2 -0.004571 0.016153 0.000831 0.000000 0.001985 0.000000
# 3 -0.002261 0.000831 0.019076 -0.000001 -0.001479 0.000000
# 4 0.000000 0.000000 -0.000001 0.046995 0.000000 -0.002893
# 5 0.005788 0.001985 -0.001479 0.000000 0.034684 0.000000
# 6 0.000000 0.000000 0.000000 -0.002893 0.000000 0.023610
#
#
# Mechanical properties :
#
#
# Convention : Reuss Voigt Hill
#
# Bulk Modulus (GPa) = 30.99260 45.69153 38.34207
# Shear Modulus (GPa) = 29.01712 34.60867 31.81289
#
# Velocity S-wave (km/s) = 3.56062 3.88857 3.72820
# Velocity P-wave (km/s) = 5.51771 6.33440 5.94010
#
# Compressibility (1/GPa) = 0.03226577
#
# Stress axis : x y z
#
# Youngs Moduli (GPa) = 110.65121 61.90743 52.42057
#
# Poissons Ratio (x) = 0.28295 0.11851
# Poissons Ratio (y) = 0.50574 -0.04355
# Poissons Ratio (z) = 0.25016 -0.05143
#
# Static dielectric constant tensor:
#      x y z
#    x 2.018140 0.000000 0.045100 
#    y 0.000000 1.887840 0.000000 
#    z 0.045100 0.000000 1.951740 
# 
# From -- ./inp_files/67538.got.cif
#   From: 2010.05.17/outbox.cif.g08.bks.cpg/sg5_34_cif.got.tgz:67538.got - 2010.06.03 18:56:24.
