data_PCOD9121331
_publ_section_title
;
Structure prediction by ZEFSAII (Michael W. Deem and Ramdas Pophale) SiO2 
 PCOD9121331
Probable space group: C 2
;
_chemical_formula_sum "Si O2"
_cell_formula_units_Z 32
_cell_length_a 13.706024
_cell_length_b 5.558560
_cell_length_c 18.112160
_cell_angle_alpha 90.000000
_cell_angle_beta 96.938010
_cell_angle_gamma 90.000000
_cell_volume 1369.784278
_symmetry_space_group_name_H-M "C 2"
_symmetry_group_IT_number 5
_symmetry_cell_setting 'monoclinic'
loop_
_space_group_symop_operation_xyz
x,y,z
-x,y,-z
1/2+x,1/2+y,z
1/2-x,1/2+y,-z
loop_
_atom_site_type_symbol
_atom_site_label
_atom_site_fract_x
_atom_site_fract_y
_atom_site_fract_z
Si Si1 0.205422 0.338970 0.741915
Si Si2 0.910105 0.838970 0.547877
Si Si3 0.611823 0.338972 0.979122
Si Si4 0.184213 0.338972 0.914551
Si Si5 0.217818 0.838970 0.692582
Si Si6 0.016074 0.338970 0.279908
Si Si7 0.494715 0.338970 0.723800
Si Si8 0.328981 0.838970 0.570953
O O1 0.187711 0.338971 0.826809
O O2 0.258801 0.581823 0.722140
O O3 0.095086 0.338970 0.696769
O O4 0.258801 0.096117 0.722140
O O5 0.851678 0.589022 0.533493
O O6 0.000000 0.838970 0.500000
O O7 0.946931 0.838970 0.637319
O O8 0.851678 0.088918 0.533493
O O9 0.632117 0.087107 0.937009
O O10 0.632117 0.590837 0.937009
O O11 0.500000 0.338971 0.000000
O O12 0.702519 0.338972 0.046270
O O13 0.110550 0.838970 0.718043
O O14 0.226504 0.838970 0.605589
O O15 0.026522 0.588790 0.238368
O O16 0.092498 0.338970 0.353672
O O17 0.026522 0.089150 0.238368
#
# Coordination Sequence:
#
# PCOD9121331 Si02
#       8
#     4   4   4   4   4   4   4   4
#     4  10  19  35  52  79 104 136 173 212 266 317
#     4  10  19  33  51  69  95 131 175 213 249 311
#     4  10  21  40  60  84 116 160 193 230 292 332
#     4  10  21  38  61  84 118 153 193 240 282 335
#     4  10  19  33  53  73 107 134 162 215 270 321
#     4   8  16  30  48  66  97 129 161 195 252 316
#     4   8  16  30  48  65  92 134 155 190 262 310
#     4  10  19  33  49  74  98 130 168 210 265 313
#
# _framework density 23.361345
#
# number of rings (size 3 to 8) (size 9 to 14) (size 15 to 20)
#    0.000    2.500    0.000    2.250    0.000    0.000 
#    4.500    1.250    0.000    0.000    0.000    0.000 
#    0.000    0.000    0.000    0.000    0.000    0.000 
#
# Total GULP energy -89241.352144 kJ/mol
# GULP energy per Si atom -5577.584509 kJ/mol
# Density = 2.330817 g / cm^3
# Si number density = 23.361345 Si / 1000 Ang^3
#
#
#
# Elastic Constant Matrix: (Units=GPa)
#
#
# Indices 1 2 3 4 5 6 
#
# 1 125.4363 30.2202 25.5591 0.0000 -12.2887 0.0000
# 2 30.2202 306.3351 50.1598 0.0000 -20.7067 0.0000
# 3 25.5591 50.1598 90.6551 0.0000 -9.3076 0.0000
# 4 0.0000 0.0000 0.0000 19.7570 0.0000 -13.8197
# 5 -12.2887 -20.7067 -9.3076 0.0000 20.8238 0.0000
# 6 0.0000 0.0000 0.0000 -13.8197 0.0000 17.8147
#
#
#
# Elastic Compliance Matrix: (Units=1/GPa)
#
#
# Indices 1 2 3 4 5 6 
#
# 1 0.008829 -0.000282 -0.001915 0.000000 0.004074 0.000000
# 2 -0.000282 0.003763 -0.001714 0.000000 0.002809 0.000000
# 3 -0.001915 -0.001714 0.012816 0.000000 0.002894 0.000000
# 4 0.000000 0.000000 0.000000 0.110664 0.000000 0.085848
# 5 0.004074 0.002809 0.002894 0.000000 0.054513 0.000000
# 6 0.000000 0.000000 0.000000 0.085848 0.000000 0.122729
#
#
# Mechanical properties :
#
#
# Convention : Reuss Voigt Hill
#
# Bulk Modulus (GPa) = 56.86260 81.58941 69.22600
# Shear Modulus (GPa) = 15.29055 39.44493 27.36774
#
# Velocity S-wave (km/s) = 2.56114 4.11356 3.42643
# Velocity P-wave (km/s) = 5.75667 7.58700 6.73431
#
# Compressibility (1/GPa) = 0.01758625
#
# Stress axis : x y z
#
# Youngs Moduli (GPa) = 113.25721 265.76257 78.02609
#
# Poissons Ratio (x) = 0.07497 0.14942
# Poissons Ratio (y) = 0.03195 0.13374
# Poissons Ratio (z) = 0.21689 0.45552
#
# Static dielectric constant tensor:
#      x y z
#    x 1.930860 0.000000 0.052930 
#    y 0.000000 1.964470 0.000000 
#    z 0.052930 0.000000 1.818720 
# 
# From -- ./inp_files/61224.got.cif
#   From: 2010.05.17/outbox.cif.g08.bks.cpg/sg5_31_cif.got.tgz:61224.got - 2010.06.03 18:56:24.
