data_PCOD9121163
_publ_section_title
;
Structure prediction by ZEFSAII (Michael W. Deem and Ramdas Pophale) SiO2 
 PCOD9121163
Probable space group: C 2
;
_chemical_formula_sum "Si O2"
_cell_formula_units_Z 28
_cell_length_a 13.463936
_cell_length_b 17.488281
_cell_length_c 8.265783
_cell_angle_alpha 90.000000
_cell_angle_beta 41.686561
_cell_angle_gamma 90.000000
_cell_volume 1294.377218
_symmetry_space_group_name_H-M "C 2"
_symmetry_group_IT_number 5
_symmetry_cell_setting 'monoclinic'
loop_
_space_group_symop_operation_xyz
x,y,z
-x,y,-z
1/2+x,1/2+y,z
1/2-x,1/2+y,-z
loop_
_atom_site_type_symbol
_atom_site_label
_atom_site_fract_x
_atom_site_fract_y
_atom_site_fract_z
Si Si1 0.000000 0.065640 0.500000
Si Si2 0.018998 0.462467 0.284266
Si Si3 0.476059 0.135795 0.334633
Si Si4 0.000000 0.037403 0.000000
Si Si5 0.475721 0.296594 0.224146
Si Si6 0.622308 0.819515 0.704952
Si Si7 0.150061 0.153709 0.572083
Si Si8 0.850970 0.946399 0.920478
O O1 0.872366 0.118742 0.577209
O O2 0.923889 0.009371 0.718572
O O3 0.000000 0.465113 0.500000
O O4 0.016146 0.550297 0.227724
O O5 0.907197 0.401125 0.343870
O O6 0.185600 0.432454 0.060524
O O7 0.500000 0.134436 0.500000
O O8 0.547398 0.215621 0.190953
O O9 0.311993 0.148708 0.457077
O O10 0.058932 0.095352 0.794608
O O11 0.873311 0.983476 0.073353
O O12 0.303994 0.310154 0.495822
O O13 0.563778 0.367547 0.187871
O O14 0.500000 0.299383 0.000000
O O15 0.589634 0.740179 0.649482
O O16 0.500000 0.817939 0.000000
#
# Coordination Sequence:
#
# PCOD9121163 Si02
#       8
#     2   4   4   2   4   4   4   4
#     4  10  26  40  70 104 134 186 228 296 344 424
#     4  11  25  43  66 103 136 182 232 292 354 421
#     4  10  24  44  71 101 141 187 234 292 357 424
#     4  10  18  40  68  88 136 180 232 284 342 436
#     4  11  25  46  72 103 144 191 235 292 357 429
#     4  11  26  44  70 101 139 185 233 297 355 412
#     4  10  22  44  67 102 139 180 234 287 358 420
#     4  11  24  41  69  99 137 184 237 285 356 417
#
# _framework density 21.632026
#
# number of rings (size 3 to 8) (size 9 to 14) (size 15 to 20)
#    0.000    1.429    1.429    2.571    8.000    4.000 
#    5.143    0.000    0.000    0.000    0.000    0.000 
#    0.000    0.000    0.000    0.000    0.000    0.000 
#
# Total GULP energy -77995.813049 kJ/mol
# GULP energy per Si atom -5571.129503 kJ/mol
# Density = 2.158279 g / cm^3
# Si number density = 21.632026 Si / 1000 Ang^3
#
#
#
# Elastic Constant Matrix: (Units=GPa)
#
#
# Indices 1 2 3 4 5 6 
#
# 1 74.9623 64.2332 6.9432 0.0000 -0.6819 0.0000
# 2 64.2332 207.7463 40.3274 0.0000 -6.1084 0.0000
# 3 6.9432 40.3274 54.4596 0.0000 -0.6794 0.0000
# 4 0.0000 0.0000 0.0000 27.5627 0.0000 -4.4112
# 5 -0.6819 -6.1084 -0.6794 0.0000 24.5447 0.0000
# 6 0.0000 0.0000 0.0000 -4.4112 0.0000 50.1604
#
#
#
# Elastic Compliance Matrix: (Units=1/GPa)
#
#
# Indices 1 2 3 4 5 6 
#
# 1 0.018389 -0.006139 0.002189 0.000000 -0.000956 0.000000
# 2 -0.006139 0.007712 -0.004908 0.000000 0.001613 0.000000
# 3 0.002189 -0.004908 0.021710 0.000000 -0.000560 0.000000
# 4 0.000000 0.000000 0.000000 0.036799 0.000000 0.003236
# 5 -0.000956 0.001613 -0.000560 0.000000 0.041101 0.000000
# 6 0.000000 0.000000 0.000000 0.003236 0.000000 0.020221
#
#
# Mechanical properties :
#
#
# Convention : Reuss Voigt Hill
#
# Bulk Modulus (GPa) = 33.22648 62.24174 47.73411
# Shear Modulus (GPa) = 28.78893 35.49785 32.14339
#
# Velocity S-wave (km/s) = 3.65204 4.05530 3.85894
# Velocity P-wave (km/s) = 5.75989 7.12480 6.47839
#
# Compressibility (1/GPa) = 0.03009648
#
# Stress axis : x y z
#
# Youngs Moduli (GPa) = 54.38136 129.67304 46.06106
#
# Poissons Ratio (x) = 0.79603 -0.10084
# Poissons Ratio (y) = 0.33383 0.22606
# Poissons Ratio (z) = -0.11906 0.63640
#
# Static dielectric constant tensor:
#      x y z
#    x 1.806230 0.000000 0.042360 
#    y 0.000000 1.796710 0.000000 
#    z 0.042360 0.000000 1.817510 
# 
# From -- ./inp_files/25191.got.cif
#   From: 2010.05.17/outbox.cif.g08.bks.cpg/sg5_13_cif.got.tgz:25191.got - 2010.06.03 18:56:24.
