data_PCOD9121070
_publ_section_title
;
Structure prediction by ZEFSAII (Michael W. Deem and Ramdas Pophale) SiO2 
 PCOD9121070
Probable space group: C 2
;
_chemical_formula_sum "Si O2"
_cell_formula_units_Z 24
_cell_length_a 7.384622
_cell_length_b 12.672903
_cell_length_c 12.267577
_cell_angle_alpha 90.000000
_cell_angle_beta 66.934261
_cell_angle_gamma 90.000000
_cell_volume 1056.275984
_symmetry_space_group_name_H-M "C 2"
_symmetry_group_IT_number 5
_symmetry_cell_setting 'monoclinic'
loop_
_space_group_symop_operation_xyz
x,y,z
-x,y,-z
1/2+x,1/2+y,z
1/2-x,1/2+y,-z
loop_
_atom_site_type_symbol
_atom_site_label
_atom_site_fract_x
_atom_site_fract_y
_atom_site_fract_z
Si Si1 0.063319 0.423280 0.253939
Si Si2 0.368436 0.468072 0.740160
Si Si3 0.500000 0.915016 0.500000
Si Si4 0.500000 0.215979 0.000000
Si Si5 0.719963 0.685412 0.256579
Si Si6 0.220407 0.400510 0.995886
Si Si7 0.622918 0.283518 0.574567
O O1 0.121341 0.298469 0.253462
O O2 0.843757 0.444818 0.264124
O O3 0.080992 0.470490 0.371652
O O4 0.199665 0.455411 0.118977
O O5 0.426648 0.587539 0.699421
O O6 0.344021 0.459920 0.875444
O O7 0.505966 0.377402 0.662252
O O8 0.327974 0.839133 0.495297
O O9 0.619589 0.159121 0.875635
O O10 0.335985 0.291123 0.984199
O O11 0.830027 0.697970 0.345270
O O12 0.000000 0.384642 0.000000
O O13 0.500000 0.247478 0.500000
#
# Coordination Sequence:
#
# PCOD9121070 Si02
#       7
#     4   4   2   2   4   4   4
#     4   9  20  39  61  91 130 162 204 268 305 367
#     4  11  21  42  68  93 122 174 213 262 328 376
#     4  10  20  40  66  88 130 172 204 262 316 364
#     4  10  18  38  66  90 130 170 202 256 336 362
#     4  10  23  39  66  97 125 168 213 265 314 385
#     4   9  19  35  66  88 128 165 206 264 316 370
#     4  11  22  44  67  90 132 171 212 268 320 377
#
# _framework density 22.721336000000001
#
# number of rings (size 3 to 8) (size 9 to 14) (size 15 to 20)
#    0.000    2.000    3.333    0.000    3.500    0.000 
#    7.500    3.333   14.667    0.000    0.000    0.000 
#    0.000    0.000    0.000    0.000    0.000    0.000 
#
# Total GULP energy -66970.170541 kJ/mol
# GULP energy per Si atom -5580.847545 kJ/mol
# Density = 2.266962 g / cm^3
# Si number density = 22.721336 Si / 1000 Ang^3
#
#
#
# Elastic Constant Matrix: (Units=GPa)
#
#
# Indices 1 2 3 4 5 6 
#
# 1 71.8451 1.4280 11.4496 0.0000 10.2168 0.0000
# 2 1.4280 65.6910 23.6849 0.0000 6.2396 0.0000
# 3 11.4496 23.6849 157.2936 0.0000 25.4341 0.0000
# 4 0.0000 0.0000 0.0000 -58.1383 0.0000 -14.4548
# 5 10.2168 6.2396 25.4341 0.0000 35.2630 0.0000
# 6 0.0000 0.0000 0.0000 -14.4548 0.0000 18.8416
#
#
#
# Elastic Compliance Matrix: (Units=1/GPa)
#
#
# Indices 1 2 3 4 5 6 
#
# 1 0.014545 0.000222 -0.000458 0.000000 -0.003923 0.000000
# 2 0.000222 0.016148 -0.002236 0.000000 -0.001309 0.000000
# 3 -0.000458 -0.002236 0.007519 0.000000 -0.004895 0.000000
# 4 0.000000 0.000000 0.000000 -0.014445 0.000000 -0.011082
# 5 -0.003923 -0.001309 -0.004895 0.000000 0.033257 0.000000
# 6 0.000000 0.000000 0.000000 -0.011082 0.000000 0.044572
#
#
# Mechanical properties :
#
#
# Convention : Reuss Voigt Hill
#
# Bulk Modulus (GPa) = 30.05876 40.88385 35.47131
# Shear Modulus (GPa) = 42.50565 16.41107 29.45836
#
# Velocity S-wave (km/s) = 4.32989 2.69043 3.60461
# Velocity P-wave (km/s) = 6.18509 5.26155 5.74192
#
# Compressibility (1/GPa) = 0.03326817
#
# Stress axis : x y z
#
# Youngs Moduli (GPa) = 68.75081 61.92526 132.99503
#
# Poissons Ratio (x) = -0.01372 0.06088
# Poissons Ratio (y) = -0.01523 0.29739
# Poissons Ratio (z) = 0.03147 0.13847
#
# Static dielectric constant tensor:
#      x y z
#    x 1.833430 0.000000 -0.004870 
#    y 0.000000 1.866330 0.000000 
#    z -0.004870 0.000000 1.919890 
# 
# From -- ./inp_files/35389.got.cif
#   From: 2010.05.17/outbox.cif.g08.bks.cpg/sg5_18_cif.got.tgz:35389.got - 2010.06.03 18:56:24.
