data_PCOD9121110
_publ_section_title
;
Structure prediction by ZEFSAII (Michael W. Deem and Ramdas Pophale) SiO2 
 PCOD9121110
Probable space group: C 2
;
_chemical_formula_sum "Si O2"
_cell_formula_units_Z 32
_cell_length_a 21.511113
_cell_length_b 13.813208
_cell_length_c 15.588874
_cell_angle_alpha 90.000000
_cell_angle_beta 20.326162
_cell_angle_gamma 90.000000
_cell_volume 1609.002881
_symmetry_space_group_name_H-M "C 2"
_symmetry_group_IT_number 5
_symmetry_cell_setting 'monoclinic'
loop_
_space_group_symop_operation_xyz
x,y,z
-x,y,-z
1/2+x,1/2+y,z
1/2-x,1/2+y,-z
loop_
_atom_site_type_symbol
_atom_site_label
_atom_site_fract_x
_atom_site_fract_y
_atom_site_fract_z
Si Si1 0.289906 0.037300 0.650098
Si Si2 0.634625 0.458397 0.247830
Si Si3 0.094340 0.850862 0.134822
Si Si4 0.573974 0.639090 0.078357
Si Si5 0.336479 0.466689 0.364181
Si Si6 0.842208 0.633268 0.890590
Si Si7 0.498087 0.843440 0.791339
Si Si8 0.504734 0.854103 0.404149
O O1 0.465322 0.090555 0.385311
O O2 0.173835 0.999680 0.720794
O O3 0.368605 0.941894 0.592976
O O4 0.180541 0.101375 0.857776
O O5 0.500000 0.473729 0.500000
O O6 0.531402 0.404258 0.303182
O O7 0.731601 0.556909 0.091171
O O8 0.799205 0.386279 0.057088
O O9 0.122060 0.736844 0.111875
O O10 0.970300 0.880656 0.216747
O O11 0.293528 0.892581 0.865512
O O12 0.422112 0.560543 0.298808
O O13 0.487167 0.743701 0.177096
O O14 0.719643 0.648877 0.965347
O O15 0.139627 0.424685 0.636727
O O16 0.532694 0.817955 0.644690
O O17 0.500000 0.794473 0.500000
#
# Coordination Sequence:
#
# PCOD9121110 Si02
#       8
#     4   4   4   4   4   4   4   4
#     4  11  23  38  68 102 136 167 224 289 341 397
#     4  11  23  45  66  96 133 180 232 282 345 409
#     4  11  23  39  68  98 131 184 226 284 340 412
#     4  12  23  40  70 101 133 179 228 282 338 403
#     4  11  23  43  63  97 146 176 210 281 357 407
#     4  12  22  42  68 102 131 178 233 287 334 397
#     4  10  24  42  63 102 142 173 225 288 341 411
#     4  10  18  39  65  94 130 175 223 279 330 393
#
# _framework density 19.888095
#
# number of rings (size 3 to 8) (size 9 to 14) (size 15 to 20)
#    0.000    1.000    7.500    2.250    3.500    1.500 
#    0.000    0.625    0.000    0.000    6.500    0.000 
#    0.000    0.000    0.000    0.000    0.000    0.000 
#
# Total GULP energy -89245.719531 kJ/mol
# GULP energy per Si atom -5577.857471 kJ/mol
# Density = 1.984283 g / cm^3
# Si number density = 19.888095 Si / 1000 Ang^3
#
#
#
# Elastic Constant Matrix: (Units=GPa)
#
#
# Indices 1 2 3 4 5 6 
#
# 1 68.7347 37.3974 30.9694 -0.0003 -10.4732 0.0002
# 2 37.3974 133.1857 44.8005 -0.0006 10.8687 0.0001
# 3 30.9694 44.8005 97.6430 -0.0010 12.3124 0.0003
# 4 -0.0003 -0.0006 -0.0010 22.9593 0.0004 -3.1672
# 5 -10.4732 10.8687 12.3124 0.0004 38.7423 -0.0002
# 6 0.0002 0.0001 0.0003 -3.1672 -0.0002 32.6502
#
#
#
# Elastic Compliance Matrix: (Units=1/GPa)
#
#
# Indices 1 2 3 4 5 6 
#
# 1 0.020975 -0.004725 -0.005591 0.000000 0.008773 0.000000
# 2 -0.004725 0.010001 -0.002683 0.000000 -0.003230 0.000000
# 3 -0.005591 -0.002683 0.013898 0.000001 -0.005176 0.000000
# 4 0.000000 0.000000 0.000001 0.044146 -0.000001 0.004282
# 5 0.008773 -0.003230 -0.005176 -0.000001 0.030734 0.000000
# 6 0.000000 0.000000 0.000000 0.004282 0.000000 0.031043
#
#
# Mechanical properties :
#
#
# Convention : Reuss Voigt Hill
#
# Bulk Modulus (GPa) = 52.97395 58.43310 55.70352
# Shear Modulus (GPa) = 27.30935 31.29676 29.30306
#
# Velocity S-wave (km/s) = 3.70962 3.97122 3.84265
# Velocity P-wave (km/s) = 6.71135 7.10438 6.91066
#
# Compressibility (1/GPa) = 0.01887720
#
# Stress axis : x y z
#
# Youngs Moduli (GPa) = 47.67538 99.98961 71.95170
#
# Poissons Ratio (x) = 0.47244 0.40228
# Poissons Ratio (y) = 0.22526 0.19303
# Poissons Ratio (z) = 0.26655 0.26825
#
# Static dielectric constant tensor:
#      x y z
#    x 1.769390 0.000000 0.006340 
#    y 0.000000 1.728910 0.000000 
#    z 0.006340 0.000000 1.710070 
# 
# From -- ./inp_files/57177.got.cif
#   From: 2010.05.17/outbox.cif.g08.bks.cpg/sg5_29_cif.got.tgz:57177.got - 2010.06.03 18:56:24.
