data_PCOD9121477
_publ_section_title
;
Structure prediction by ZEFSAII (Michael W. Deem and Ramdas Pophale) SiO2 
 PCOD9121477
Probable space group: C 2
;
_chemical_formula_sum "Si O2"
_cell_formula_units_Z 20
_cell_length_a 12.882104
_cell_length_b 18.896238
_cell_length_c 5.175133
_cell_angle_alpha 90.000000
_cell_angle_beta 52.328629
_cell_angle_gamma 90.000000
_cell_volume 997.127045
_symmetry_space_group_name_H-M "C 2"
_symmetry_group_IT_number 5
_symmetry_cell_setting 'monoclinic'
loop_
_space_group_symop_operation_xyz
x,y,z
-x,y,-z
1/2+x,1/2+y,z
1/2-x,1/2+y,-z
loop_
_atom_site_type_symbol
_atom_site_label
_atom_site_fract_x
_atom_site_fract_y
_atom_site_fract_z
Si Si1 0.138187 0.643700 0.159431
Si Si2 0.157374 0.771908 0.769064
Si Si3 0.137522 0.091870 0.873357
Si Si4 0.774217 0.015999 0.777401
Si Si5 0.160360 0.856797 0.262013
O O1 0.179833 0.694879 0.862545
O O2 0.250152 0.645415 0.207598
O O3 0.000000 0.662431 0.500000
O O4 0.144972 0.562350 0.049072
O O5 0.201826 0.826769 0.921891
O O6 0.197594 0.800758 0.428731
O O7 0.000000 0.775470 0.000000
O O8 0.182878 0.044002 0.566161
O O9 0.127972 0.042365 0.142505
O O10 0.000000 0.124749 0.000000
O O11 0.774206 0.932169 0.782986
O O12 0.000000 0.864900 0.500000
#
# Coordination Sequence:
#
# PCOD9121477 Si02
#       5
#     4   4   4   4   4
#     4  10  24  37  61  94 132 159 204 248 316 369
#     4  10  21  34  56  86 125 154 197 254 309 353
#     4  10  21  36  59  89 120 159 202 256 299 355
#     4  10  22  35  61  89 124 160 202 255 308 358
#     4  10  19  34  56  87 120 154 199 260 305 347
#
# _framework density 20.057625000000002
#
# number of rings (size 3 to 8) (size 9 to 14) (size 15 to 20)
#    1.200    0.800    0.000    4.800    5.600    1.600 
#    0.000    0.000    0.000    0.000   10.400    0.000 
#    0.000    0.000    0.000    0.000    0.000    0.000 
#
# Total GULP energy -55690.040127 kJ/mol
# GULP energy per Si atom -5569.004013 kJ/mol
# Density = 2.001197 g / cm^3
# Si number density = 20.057625 Si / 1000 Ang^3
#
#
#
# Elastic Constant Matrix: (Units=GPa)
#
#
# Indices 1 2 3 4 5 6 
#
# 1 92.5479 42.4986 37.8614 0.0000 24.6662 0.0000
# 2 42.4986 144.6611 30.6970 0.0000 13.8626 0.0000
# 3 37.8614 30.6970 72.6025 0.0000 35.4476 0.0000
# 4 0.0000 0.0000 0.0000 6.4744 0.0000 8.1041
# 5 24.6662 13.8626 35.4476 0.0000 35.9954 0.0000
# 6 0.0000 0.0000 0.0000 8.1041 0.0000 26.2054
#
#
#
# Elastic Compliance Matrix: (Units=1/GPa)
#
#
# Indices 1 2 3 4 5 6 
#
# 1 0.015319 -0.003127 -0.004101 0.000000 -0.005255 0.000000
# 2 -0.003127 0.008236 -0.002599 0.000000 0.001530 0.000000
# 3 -0.004101 -0.002599 0.029181 0.000000 -0.024925 0.000000
# 4 0.000000 0.000000 0.000000 0.252008 0.000000 -0.077934
# 5 -0.005255 0.001530 -0.024925 0.000000 0.055339 0.000000
# 6 0.000000 0.000000 0.000000 -0.077934 0.000000 0.062262
#
#
# Mechanical properties :
#
#
# Convention : Reuss Voigt Hill
#
# Bulk Modulus (GPa) = 30.22714 59.10285 44.66500
# Shear Modulus (GPa) = 11.03690 26.98532 19.01111
#
# Velocity S-wave (km/s) = 2.34831 3.67193 3.08202
# Velocity P-wave (km/s) = 4.73873 6.89260 5.91454
#
# Compressibility (1/GPa) = 0.03308285
#
# Stress axis : x y z
#
# Youngs Moduli (GPa) = 65.27685 121.41655 34.26908
#
# Poissons Ratio (x) = 0.37963 0.14055
# Poissons Ratio (y) = 0.20410 0.08906
# Poissons Ratio (z) = 0.26772 0.31553
#
# Static dielectric constant tensor:
#      x y z
#    x 1.722770 0.000000 0.012440 
#    y 0.000000 1.741080 0.000000 
#    z 0.012440 0.000000 1.733890 
# 
# From -- ./inp_files/5020.got.cif
#   From: 2010.05.17/outbox.cif.g08.bks.cpg/sg5_3_cif.got.tgz:5020.got - 2010.06.03 18:56:24.
