data_PCOD9121996
_publ_section_title
;
Structure prediction by ZEFSAII (Michael W. Deem and Ramdas Pophale) SiO2 
 PCOD9121996
Probable space group: C 2
;
_chemical_formula_sum "Si O2"
_cell_formula_units_Z 30
_cell_length_a 14.957156
_cell_length_b 10.755419
_cell_length_c 8.575240
_cell_angle_alpha 90.000000
_cell_angle_beta 112.088686
_cell_angle_gamma 90.000000
_cell_volume 1278.251462
_symmetry_space_group_name_H-M "C 2"
_symmetry_group_IT_number 5
_symmetry_cell_setting 'monoclinic'
loop_
_space_group_symop_operation_xyz
x,y,z
-x,y,-z
1/2+x,1/2+y,z
1/2-x,1/2+y,-z
loop_
_atom_site_type_symbol
_atom_site_label
_atom_site_fract_x
_atom_site_fract_y
_atom_site_fract_z
Si Si1 0.347758 0.485970 0.347549
Si Si2 0.875707 0.646412 0.160407
Si Si3 0.023296 0.436154 0.690698
Si Si4 0.944809 0.008054 0.099522
Si Si5 0.872183 0.503834 0.851579
Si Si6 0.920325 0.176922 0.621102
Si Si7 0.670066 0.733194 0.132876
Si Si8 0.000000 0.785623 0.500000
O O1 0.368867 0.462294 0.177588
O O2 0.233703 0.494894 0.293886
O O3 0.386263 0.619333 0.435663
O O4 0.408332 0.376929 0.471749
O O5 0.776694 0.713849 0.138652
O O6 0.873860 0.502180 0.218666
O O7 0.960690 0.711285 0.320742
O O8 0.880485 0.618941 0.977183
O O9 0.954199 0.499939 0.774510
O O10 0.994318 0.291921 0.674915
O O11 0.000000 0.472512 0.500000
O O12 0.027896 0.062348 0.262606
O O13 0.893921 0.123906 0.981546
O O14 0.000000 0.931487 0.000000
O O15 0.877128 0.366628 0.935809
O O16 0.834901 0.217690 0.682370
#
# Coordination Sequence:
#
# PCOD9121996 Si02
#       8
#     4   4   4   4   4   4   4   2
#     4  12  22  42  72 101 144 184 247 301 374 438
#     4  12  24  46  71 100 149 197 239 302 382 442
#     4  11  24  44  70 104 143 188 247 305 379 435
#     4  10  19  37  64  99 133 178 233 301 357 427
#     4  11  25  44  72 105 143 202 245 303 366 453
#     4  10  22  39  72 104 138 186 246 307 367 436
#     4  10  22  41  70 105 144 184 245 311 365 437
#     4  12  26  44  70 104 154 194 230 316 378 438
#
# _framework density 23.469560000000001
#
# number of rings (size 3 to 8) (size 9 to 14) (size 15 to 20)
#    0.000    1.067    4.667    2.000    1.867    2.133 
#    0.000    1.333    5.867    0.000    0.000    0.000 
#    0.000    0.000    0.000    0.000    0.000    0.000 
#
# Total GULP energy -83557.074298 kJ/mol
# GULP energy per Si atom -5570.471620 kJ/mol
# Density = 2.341614 g / cm^3
# Si number density = 23.469560 Si / 1000 Ang^3
#
#
#
# Elastic Constant Matrix: (Units=GPa)
#
#
# Indices 1 2 3 4 5 6 
#
# 1 106.3780 43.7468 42.8699 0.0000 -6.0905 0.0000
# 2 43.7468 103.0170 44.5404 0.0000 -7.2107 0.0000
# 3 42.8699 44.5404 99.4492 0.0000 -12.4223 0.0000
# 4 0.0000 0.0000 0.0000 46.3527 0.0000 4.7578
# 5 -6.0905 -7.2107 -12.4223 0.0000 46.0474 0.0000
# 6 0.0000 0.0000 0.0000 4.7578 0.0000 32.2763
#
#
#
# Elastic Compliance Matrix: (Units=1/GPa)
#
#
# Indices 1 2 3 4 5 6 
#
# 1 0.012400 -0.003663 -0.003696 0.000000 0.000069 0.000000
# 2 -0.003663 0.013129 -0.004248 0.000000 0.000425 0.000000
# 3 -0.003696 -0.004248 0.013875 0.000000 0.002589 0.000000
# 4 0.000000 0.000000 0.000000 0.021905 0.000000 -0.003229
# 5 0.000069 0.000425 0.002589 0.000000 0.022491 0.000000
# 6 0.000000 0.000000 0.000000 -0.003229 0.000000 0.031458
#
#
# Mechanical properties :
#
#
# Convention : Reuss Voigt Hill
#
# Bulk Modulus (GPa) = 61.76758 63.46205 62.61482
# Shear Modulus (GPa) = 34.75372 36.78110 35.76741
#
# Velocity S-wave (km/s) = 3.85229 3.96306 3.90807
# Velocity P-wave (km/s) = 6.79427 6.93109 6.86302
#
# Compressibility (1/GPa) = 0.01618972
#
# Stress axis : x y z
#
# Youngs Moduli (GPa) = 80.64313 76.16702 72.07371
#
# Poissons Ratio (x) = 0.27899 0.26640
# Poissons Ratio (y) = 0.29539 0.30617
# Poissons Ratio (z) = 0.29808 0.32356
#
# Static dielectric constant tensor:
#      x y z
#    x 1.919970 0.000000 -0.043720 
#    y 0.000000 1.972440 0.000000 
#    z -0.043720 0.000000 1.957170 
# 
# From -- ./inp_files/23922.got.cif
#   From: 2010.05.17/outbox.cif.g08.bks.cpg/sg5_12_cif.got.tgz:23922.got - 2010.06.03 18:56:24.
