data_PCOD9121631
_publ_section_title
;
Structure prediction by ZEFSAII (Michael W. Deem and Ramdas Pophale) SiO2 
 PCOD9121631
Probable space group: C 2
;
_chemical_formula_sum "Si O2"
_cell_formula_units_Z 24
_cell_length_a 16.675361
_cell_length_b 12.561971
_cell_length_c 13.998732
_cell_angle_alpha 90.000000
_cell_angle_beta 24.460524
_cell_angle_gamma 90.000000
_cell_volume 1214.203567
_symmetry_space_group_name_H-M "C 2"
_symmetry_group_IT_number 5
_symmetry_cell_setting 'monoclinic'
loop_
_space_group_symop_operation_xyz
x,y,z
-x,y,-z
1/2+x,1/2+y,z
1/2-x,1/2+y,-z
loop_
_atom_site_type_symbol
_atom_site_label
_atom_site_fract_x
_atom_site_fract_y
_atom_site_fract_z
Si Si1 0.519050 0.960310 0.088892
Si Si2 0.915681 0.222625 0.696715
Si Si3 0.972411 0.704718 0.139620
Si Si4 0.648141 0.517528 0.131557
Si Si5 0.214496 0.899113 0.563263
Si Si6 0.504940 0.974384 0.382847
O O1 0.383534 0.890093 0.302295
O O2 0.429211 0.079947 0.190253
O O3 0.500000 0.926857 0.000000
O O4 0.732542 0.972153 0.905014
O O5 0.000000 0.194016 0.500000
O O6 0.962503 0.346440 0.659323
O O7 0.959600 0.126636 0.721442
O O8 0.683921 0.218904 0.952746
O O9 0.827277 0.785282 0.344899
O O10 0.000000 0.736503 0.000000
O O11 0.483679 0.440652 0.268529
O O12 0.820378 0.528376 0.865831
O O13 0.300570 0.982302 0.548541
O O14 0.500000 0.003433 0.500000
#
# Coordination Sequence:
#
# PCOD9121631 Si02
#       6
#     4   4   4   4   4   4
#     4   9  22  39  58  86 116 144 190 239 277 336
#     4  10  20  35  59  86 115 143 188 243 279 332
#     4  10  19  35  59  88 112 145 190 234 285 334
#     4  10  22  35  55  92 113 147 188 231 289 337
#     4  11  22  33  59  87 116 149 182 237 289 331
#     4  10  21  39  58  85 117 145 190 239 278 334
#
# _framework density 19.766044000000001
#
# number of rings (size 3 to 8) (size 9 to 14) (size 15 to 20)
#    0.000    2.000    1.667    2.000    9.333    0.000 
#    0.000    0.000    0.000   14.000    0.000    0.000 
#    0.000    0.000    0.000    0.000    0.000    0.000 
#
# Total GULP energy -66894.801072 kJ/mol
# GULP energy per Si atom -5574.566756 kJ/mol
# Density = 1.972106 g / cm^3
# Si number density = 19.766044 Si / 1000 Ang^3
#
#
#
# Elastic Constant Matrix: (Units=GPa)
#
#
# Indices 1 2 3 4 5 6 
#
# 1 109.1764 1.4821 27.5874 -0.0008 12.7555 0.0002
# 2 1.4821 54.7634 31.1095 -0.0012 21.4844 0.0006
# 3 27.5874 31.1095 74.5289 -0.0021 10.0737 0.0009
# 4 -0.0008 -0.0012 -0.0021 -0.5762 0.0012 15.0638
# 5 12.7555 21.4844 10.0737 0.0012 41.9684 -0.0003
# 6 0.0002 0.0006 0.0009 15.0638 -0.0003 32.8726
#
#
#
# Elastic Compliance Matrix: (Units=1/GPa)
#
#
# Indices 1 2 3 4 5 6 
#
# 1 0.010945 0.004411 -0.005310 -0.000001 -0.004310 0.000000
# 2 0.004411 0.030827 -0.012595 -0.000005 -0.014098 0.000002
# 3 -0.005310 -0.012595 0.020206 -0.000003 0.003211 0.000001
# 4 -0.000001 -0.000005 -0.000003 -0.133705 0.000008 0.061270
# 5 -0.004310 -0.014098 0.003211 0.000008 0.031584 -0.000003
# 6 0.000000 0.000002 0.000001 0.061270 -0.000003 0.002344
#
#
# Mechanical properties :
#
#
# Convention : Reuss Voigt Hill
#
# Bulk Modulus (GPa) = 28.57896 39.86965 34.22431
# Shear Modulus (GPa) = 5867.75280 26.73891 2947.24586
#
# Velocity S-wave (km/s) = 54.54399 3.68199 38.65620
# Velocity P-wave (km/s) = 63.09691 6.18794 44.83029
#
# Compressibility (1/GPa) = 0.03499077
#
# Stress axis : x y z
#
# Youngs Moduli (GPa) = 91.36621 32.43934 49.48926
#
# Poissons Ratio (x) = -0.14310 0.26279
# Poissons Ratio (y) = -0.40304 0.62331
# Poissons Ratio (z) = 0.48516 0.40857
#
# Static dielectric constant tensor:
#      x y z
#    x 1.786030 0.000000 -0.030770 
#    y 0.000000 1.700650 0.000000 
#    z -0.030770 0.000000 1.695160 
# 
# From -- ./inp_files/42881.got.cif
#   From: 2010.05.17/outbox.cif.g08.bks.cpg/sg5_22_cif.got.tgz:42881.got - 2010.06.03 18:56:24.
