data_PCOD9121042
_publ_section_title
;
Structure prediction by ZEFSAII (Michael W. Deem and Ramdas Pophale) SiO2 
 PCOD9121042
Probable space group: C 2
;
_chemical_formula_sum "Si O2"
_cell_formula_units_Z 26
_cell_length_a 10.815304
_cell_length_b 14.584103
_cell_length_c 13.501597
_cell_angle_alpha 90.000000
_cell_angle_beta 32.478669
_cell_angle_gamma 90.000000
_cell_volume 1143.579123
_symmetry_space_group_name_H-M "C 2"
_symmetry_group_IT_number 5
_symmetry_cell_setting 'monoclinic'
loop_
_space_group_symop_operation_xyz
x,y,z
-x,y,-z
1/2+x,1/2+y,z
1/2-x,1/2+y,-z
loop_
_atom_site_type_symbol
_atom_site_label
_atom_site_fract_x
_atom_site_fract_y
_atom_site_fract_z
Si Si1 0.207702 0.360380 0.495664
Si Si2 0.343947 0.298972 0.935507
Si Si3 0.056804 0.548216 0.357647
Si Si4 0.500000 0.723294 0.500000
Si Si5 0.500000 0.836235 0.000000
Si Si6 0.755818 0.436056 0.319386
Si Si7 0.529310 0.119482 0.793424
Si Si8 0.000000 0.935279 0.000000
O O1 0.434590 0.327449 0.283049
O O2 0.014145 0.291328 0.584644
O O3 0.228979 0.365337 0.599416
O O4 0.126747 0.463969 0.525019
O O5 0.369552 0.193654 0.954052
O O6 0.368625 0.371298 0.008275
O O7 0.121983 0.295037 0.014343
O O8 0.000000 0.594906 0.500000
O O9 0.026469 0.615957 0.285824
O O10 0.306398 0.500105 0.180539
O O11 0.278606 0.660515 0.646062
O O12 0.292824 0.892550 0.188510
O O13 0.500000 0.475705 0.500000
O O14 0.955118 0.512873 0.190698
#
# Coordination Sequence:
#
# PCOD9121042 Si02
#       8
#     4   4   4   2   2   4   4   2
#     4  10  19  39  69  90 127 174 229 264 325 411
#     4  11  23  43  67 102 133 180 227 282 343 399
#     4  11  21  42  69  99 126 179 228 280 335 408
#     4  10  18  38  64 100 124 174 226 270 328 410
#     4  12  26  42  70 100 138 176 230 282 334 416
#     4  11  22  43  67  97 131 176 220 282 339 406
#     4  10  23  39  65  97 139 170 219 279 351 393
#     4  12  24  44  78  92 134 184 240 278 322 428
#
# _framework density 22.735637000000001
#
# number of rings (size 3 to 8) (size 9 to 14) (size 15 to 20)
#    0.000    1.231    4.615    2.769    0.000    1.231 
#    5.538    0.000   10.154    0.000    0.000    0.000 
#    0.000    0.000    0.000    0.000    0.000    0.000 
#
# Total GULP energy -72507.460428 kJ/mol
# GULP energy per Si atom -5577.496956 kJ/mol
# Density = 2.268389 g / cm^3
# Si number density = 22.735637 Si / 1000 Ang^3
#
#
#
# Elastic Constant Matrix: (Units=GPa)
#
#
# Indices 1 2 3 4 5 6 
#
# 1 111.4127 20.4505 11.3836 -0.0001 -5.0818 -0.0026
# 2 20.4505 52.8936 7.9178 -0.0107 -0.4343 0.0035
# 3 11.3836 7.9178 71.4458 -0.0202 -1.5730 0.0075
# 4 -0.0001 -0.0107 -0.0202 13.1076 0.0081 -1.8988
# 5 -5.0818 -0.4343 -1.5730 0.0081 32.3536 -0.0011
# 6 -0.0026 0.0035 0.0075 -1.8988 -0.0011 27.8015
#
#
#
# Elastic Compliance Matrix: (Units=1/GPa)
#
#
# Indices 1 2 3 4 5 6 
#
# 1 0.009821 -0.003616 -0.001132 -0.000005 0.001439 0.000001
# 2 -0.003616 0.020557 -0.001710 0.000014 -0.000375 -0.000002
# 3 -0.001132 -0.001710 0.014378 0.000020 0.000498 -0.000002
# 4 -0.000005 0.000014 0.000020 0.077054 -0.000019 0.005263
# 5 0.001439 -0.000375 0.000498 -0.000019 0.031154 0.000000
# 6 0.000001 -0.000002 -0.000002 0.005263 0.000000 0.036329
#
#
# Mechanical properties :
#
#
# Convention : Reuss Voigt Hill
#
# Bulk Modulus (GPa) = 31.40876 35.02845 33.21861
# Shear Modulus (GPa) = 23.49396 27.71922 25.60659
#
# Velocity S-wave (km/s) = 3.21807 3.49549 3.35964
# Velocity P-wave (km/s) = 5.25859 5.63308 5.44905
#
# Compressibility (1/GPa) = 0.03183825
#
# Stress axis : x y z
#
# Youngs Moduli (GPa) = 101.82617 48.64573 69.55287
#
# Poissons Ratio (x) = 0.17589 0.07876
# Poissons Ratio (y) = 0.36817 0.11896
# Poissons Ratio (z) = 0.11530 0.08320
#
# Static dielectric constant tensor:
#      x y z
#    x 1.927550 0.000000 -0.064250 
#    y 0.000000 1.854680 0.000000 
#    z -0.064250 0.000000 1.861790 
# 
# From -- ./inp_files/53168.got.cif
#   From: 2010.05.17/outbox.cif.g08.bks.cpg/sg5_27_cif.got.tgz:53168.got - 2010.06.03 18:56:24.
