data_PCOD9121169
_publ_section_title
;
Structure prediction by ZEFSAII (Michael W. Deem and Ramdas Pophale) SiO2 
 PCOD9121169
Probable space group: C 2
;
_chemical_formula_sum "Si O2"
_cell_formula_units_Z 30
_cell_length_a 11.205545
_cell_length_b 10.557418
_cell_length_c 18.582216
_cell_angle_alpha 90.000000
_cell_angle_beta 144.826025
_cell_angle_gamma 90.000000
_cell_volume 1266.358728
_symmetry_space_group_name_H-M "C 2"
_symmetry_group_IT_number 5
_symmetry_cell_setting 'monoclinic'
loop_
_space_group_symop_operation_xyz
x,y,z
-x,y,-z
1/2+x,1/2+y,z
1/2-x,1/2+y,-z
loop_
_atom_site_type_symbol
_atom_site_label
_atom_site_fract_x
_atom_site_fract_y
_atom_site_fract_z
Si Si1 0.603510 0.268710 0.292879
Si Si2 0.504415 0.027549 0.333209
Si Si3 0.703816 0.644783 0.733669
Si Si4 0.773989 0.909888 0.355310
Si Si5 0.847930 0.158801 0.773316
Si Si6 0.848373 0.308773 0.988494
Si Si7 0.000000 0.561913 0.000000
Si Si8 0.184949 0.028363 0.393938
O O1 0.610943 0.143799 0.344022
O O2 0.768120 0.258700 0.308899
O O3 0.385047 0.276196 0.144145
O O4 0.617202 0.383622 0.354312
O O5 0.265722 0.070551 0.223373
O O6 0.595481 0.026695 0.458610
O O7 0.595539 0.912084 0.329778
O O8 0.777842 0.518973 0.727335
O O9 0.468683 0.614700 0.635828
O O10 0.843353 0.643858 0.874363
O O11 0.788413 0.779834 0.318223
O O12 0.000000 0.935853 0.500000
O O13 0.851297 0.075707 0.704139
O O14 0.060287 0.229969 0.899903
O O15 0.000000 0.261593 0.000000
O O16 0.879594 0.461412 0.993983
#
# Coordination Sequence:
#
# PCOD9121169 Si02
#       8
#     4   4   4   4   4   4   2   4
#     4  11  25  43  67 100 133 177 233 278 337 413
#     4  11  24  43  69  98 131 178 228 284 337 414
#     4  11  23  41  68  99 125 179 228 275 343 399
#     4  11  21  41  69  94 132 174 232 278 333 414
#     4  12  25  42  66 104 132 182 226 278 352 405
#     4  10  19  41  71  90 134 173 223 288 327 407
#     4  10  18  40  70  90 128 172 236 272 334 408
#     4  12  25  43  65  96 146 176 219 289 342 414
#
# _framework density 23.689972000000001
#
# number of rings (size 3 to 8) (size 9 to 14) (size 15 to 20)
#    0.400    0.533    5.333    2.000    3.733    1.067 
#    2.400    0.000    1.467    0.000    0.000    0.000 
#    0.000    0.000    0.000    0.000    0.000    0.000 
#
# Total GULP energy -83715.216915 kJ/mol
# GULP energy per Si atom -5581.014461 kJ/mol
# Density = 2.363605 g / cm^3
# Si number density = 23.689972 Si / 1000 Ang^3
#
#
#
# Elastic Constant Matrix: (Units=GPa)
#
#
# Indices 1 2 3 4 5 6 
#
# 1 44.1228 4.6281 -24.1039 0.0000 17.8785 0.0001
# 2 4.6281 42.9639 3.4528 0.0000 4.4608 0.0000
# 3 -24.1039 3.4528 87.8101 -0.0004 -7.2481 0.0006
# 4 0.0000 0.0000 -0.0004 -80.2603 -0.0001 102.2471
# 5 17.8785 4.4608 -7.2481 -0.0001 27.2518 0.0001
# 6 0.0001 0.0000 0.0006 102.2471 0.0001 -95.8458
#
#
#
# Elastic Compliance Matrix: (Units=1/GPa)
#
#
# Indices 1 2 3 4 5 6 
#
# 1 0.035900 -0.002349 0.008215 0.000000 -0.020983 0.000000
# 2 -0.002349 0.023973 -0.001824 0.000000 -0.002868 0.000000
# 3 0.008215 -0.001824 0.013593 0.000000 -0.001475 0.000000
# 4 0.000000 0.000000 0.000000 0.034703 0.000000 0.037021
# 5 -0.020983 -0.002868 -0.001475 0.000000 0.050538 0.000000
# 6 0.000000 0.000000 0.000000 0.037021 0.000000 0.029060
#
#
# Mechanical properties :
#
#
# Convention : Reuss Voigt Hill
#
# Bulk Modulus (GPa) = 12.26233 15.87231 14.06732
# Shear Modulus (GPa) = 24.17012 -17.04287 3.56363
#
# Velocity S-wave (km/s) = 3.19763 -2.68510 1.22782
# Velocity P-wave (km/s) = 4.33826 1.70248 2.82153
#
# Compressibility (1/GPa) = 0.08155058
#
# Stress axis : x y z
#
# Youngs Moduli (GPa) = 27.85479 41.71404 73.56636
#
# Poissons Ratio (x) = 0.09798 -0.60435
# Poissons Ratio (y) = 0.06543 0.13419
# Poissons Ratio (z) = -0.22883 0.07609
#
# Static dielectric constant tensor:
#      x y z
#    x 2.008670 0.000000 0.066240 
#    y 0.000000 1.959510 0.000000 
#    z 0.066240 0.000000 2.152790 
# 
# From -- ./inp_files/65374.got.cif
#   From: 2010.05.17/outbox.cif.g08.bks.cpg/sg5_33_cif.got.tgz:65374.got - 2010.06.03 18:56:24.
