data_PCOD9121998
_publ_section_title
;
Structure prediction by ZEFSAII (Michael W. Deem and Ramdas Pophale) SiO2 
 PCOD9121998
Probable space group: C 2
;
_chemical_formula_sum "Si O2"
_cell_formula_units_Z 24
_cell_length_a 17.249137
_cell_length_b 12.238832
_cell_length_c 9.376159
_cell_angle_alpha 90.000000
_cell_angle_beta 149.781179
_cell_angle_gamma 90.000000
_cell_volume 996.236704
_symmetry_space_group_name_H-M "C 2"
_symmetry_group_IT_number 5
_symmetry_cell_setting 'monoclinic'
loop_
_space_group_symop_operation_xyz
x,y,z
-x,y,-z
1/2+x,1/2+y,z
1/2-x,1/2+y,-z
loop_
_atom_site_type_symbol
_atom_site_label
_atom_site_fract_x
_atom_site_fract_y
_atom_site_fract_z
Si Si1 0.178759 0.531730 0.286221
Si Si2 0.444413 0.178337 0.251976
Si Si3 0.316062 0.995207 0.382273
Si Si4 0.652729 0.666829 0.941565
Si Si5 0.716856 0.308180 0.594046
Si Si6 0.181846 0.246461 0.559488
O O1 0.236761 0.530555 0.542437
O O2 0.277360 0.437038 0.370617
O O3 0.191508 0.649959 0.235413
O O4 0.000000 0.498424 0.000000
O O5 0.500000 0.212864 0.500000
O O6 0.261474 0.186372 0.977759
O O7 0.545292 0.257566 0.312947
O O8 0.516369 0.055638 0.356300
O O9 0.313693 0.865698 0.362390
O O10 0.207371 0.051115 0.092796
O O11 0.700482 0.749862 0.143524
O O12 0.473883 0.685808 0.643067
O O13 0.807024 0.281402 0.591257
#
# Coordination Sequence:
#
# PCOD9121998 Si02
#       6
#     4   4   4   4   4   4
#     4  11  21  34  54  84 121 149 188 252 298 340
#     4   8  16  35  61  83 108 147 192 239 290 350
#     4   9  19  37  59  84 117 145 195 244 289 349
#     4  10  19  37  65  83 111 150 201 236 291 357
#     4   9  17  34  59  81 107 143 192 236 291 345
#     4  11  20  35  57  88 113 151 192 240 296 347
#
# _framework density 24.090661999999998
#
# number of rings (size 3 to 8) (size 9 to 14) (size 15 to 20)
#    0.000    2.667    3.333    2.500    0.000    0.000 
#    9.000    0.000    7.333    0.000    0.000    0.000 
#    0.000    0.000    0.000    0.000    0.000    0.000 
#
# Total GULP energy -67011.985603 kJ/mol
# GULP energy per Si atom -5584.332134 kJ/mol
# Density = 2.403583 g / cm^3
# Si number density = 24.090662 Si / 1000 Ang^3
#
#
#
# Elastic Constant Matrix: (Units=GPa)
#
#
# Indices 1 2 3 4 5 6 
#
# 1 83.3513 32.6917 31.5496 0.0000 24.7185 0.0000
# 2 32.6917 200.2637 58.3634 0.0000 23.7201 0.0000
# 3 31.5496 58.3634 96.9552 0.0000 23.6474 0.0000
# 4 0.0000 0.0000 0.0000 21.8123 0.0000 0.3100
# 5 24.7185 23.7201 23.6474 0.0000 32.9443 0.0000
# 6 0.0000 0.0000 0.0000 0.3100 0.0000 11.5120
#
#
#
# Elastic Compliance Matrix: (Units=1/GPa)
#
#
# Indices 1 2 3 4 5 6 
#
# 1 0.016116 -0.000773 -0.002383 0.000000 -0.009826 0.000000
# 2 -0.000773 0.006217 -0.003080 0.000000 -0.001686 0.000000
# 3 -0.002383 -0.003080 0.014506 0.000000 -0.006407 0.000000
# 4 0.000000 0.000000 0.000000 0.045863 0.000000 -0.001235
# 5 -0.009826 -0.001686 -0.006407 0.000000 0.043539 0.000000
# 6 0.000000 0.000000 0.000000 -0.001235 0.000000 0.086899
#
#
# Mechanical properties :
#
#
# Convention : Reuss Voigt Hill
#
# Bulk Modulus (GPa) = 41.03602 69.53107 55.28355
# Shear Modulus (GPa) = 21.39189 30.45142 25.92165
#
# Velocity S-wave (km/s) = 2.98312 3.55918 3.28381
# Velocity P-wave (km/s) = 5.37925 6.76870 6.11358
#
# Compressibility (1/GPa) = 0.02436883
#
# Stress axis : x y z
#
# Youngs Moduli (GPa) = 62.04934 160.85621 68.93730
#
# Poissons Ratio (x) = 0.12429 0.16426
# Poissons Ratio (y) = 0.04794 0.21230
# Poissons Ratio (z) = 0.14784 0.49538
#
# Static dielectric constant tensor:
#      x y z
#    x 1.993700 0.000000 -0.044220 
#    y 0.000000 1.925300 0.000000 
#    z -0.044220 0.000000 2.031350 
# 
# From -- ./inp_files/44725.got.cif
#   From: 2010.05.17/outbox.cif.g08.bks.cpg/sg5_23_cif.got.tgz:44725.got - 2010.06.03 18:56:24.
