data_PCOD9121304
_publ_section_title
;
Structure prediction by ZEFSAII (Michael W. Deem and Ramdas Pophale) SiO2 
 PCOD9121304
Probable space group: C 2
;
_chemical_formula_sum "Si O2"
_cell_formula_units_Z 32
_cell_length_a 14.287483
_cell_length_b 21.172428
_cell_length_c 14.434932
_cell_angle_alpha 90.000000
_cell_angle_beta 159.368591
_cell_angle_gamma 90.000000
_cell_volume 1538.584117
_symmetry_space_group_name_H-M "C 2"
_symmetry_group_IT_number 5
_symmetry_cell_setting 'monoclinic'
loop_
_space_group_symop_operation_xyz
x,y,z
-x,y,-z
1/2+x,1/2+y,z
1/2-x,1/2+y,-z
loop_
_atom_site_type_symbol
_atom_site_label
_atom_site_fract_x
_atom_site_fract_y
_atom_site_fract_z
Si Si1 0.226656 0.945880 0.986133
Si Si2 0.825177 0.304419 0.057366
Si Si3 0.721391 0.155059 0.779034
Si Si4 0.902175 0.113522 0.512461
Si Si5 0.663903 0.170055 0.948858
Si Si6 0.901354 0.826941 0.507455
Si Si7 0.721863 0.003908 0.774087
Si Si8 0.218028 0.968702 0.565365
O O1 0.268876 0.872490 0.051527
O O2 0.308462 0.987547 0.148180
O O3 0.462957 0.961914 0.133693
O O4 0.936573 0.962227 0.677541
O O5 0.124429 0.302752 0.294517
O O6 0.744598 0.243177 0.041077
O O7 0.629318 0.307553 0.789043
O O8 0.500000 0.175165 0.500000
O O9 0.679536 0.164488 0.850560
O O10 0.730139 0.079275 0.775499
O O11 0.000000 0.181755 0.000000
O O12 0.627185 0.148199 0.286816
O O13 0.000000 0.132863 0.500000
O O14 0.855806 0.037803 0.467445
O O15 0.120029 0.129244 0.793728
O O16 0.880738 0.903173 0.482510
O O17 0.000000 0.805062 0.500000
O O18 0.500000 0.979430 0.500000
O O19 0.000000 0.976412 0.000000
#
# Coordination Sequence:
#
# PCOD9121304 Si02
#       8
#     4   4   4   4   4   4   4   4
#     4  10  20  37  59  84 116 153 192 244 307 359
#     4  10  23  39  58  83 117 162 203 239 292 363
#     4  10  21  36  58  89 120 153 193 240 300 368
#     4  12  25  42  65  92 122 165 213 259 309 362
#     4  12  25  43  62  87 127 169 208 255 300 358
#     4  10  20  37  61  91 121 150 189 247 306 367
#     4  10  19  32  52  80 110 139 184 240 292 349
#     4  10  20  36  62  90 118 149 191 248 311 368
#
# _framework density 20.798342999999999
#
# number of rings (size 3 to 8) (size 9 to 14) (size 15 to 20)
#    0.000    1.500    0.000    5.625    0.000    3.500 
#    0.000    5.625    0.000    0.000    0.000    0.000 
#    0.000    0.000    0.000    0.000    0.000    0.000 
#
# Total GULP energy -89264.090341 kJ/mol
# GULP energy per Si atom -5579.005646 kJ/mol
# Density = 2.075100 g / cm^3
# Si number density = 20.798343 Si / 1000 Ang^3
#
#
#
# Elastic Constant Matrix: (Units=GPa)
#
#
# Indices 1 2 3 4 5 6 
#
# 1 91.4793 35.0847 49.0331 -0.0016 25.1997 0.0002
# 2 35.0847 106.6545 40.4760 -0.0041 27.2892 0.0004
# 3 49.0331 40.4760 162.0682 -0.0054 53.1580 0.0002
# 4 -0.0016 -0.0041 -0.0054 8.9190 -0.0028 6.8205
# 5 25.1997 27.2892 53.1580 -0.0028 71.3711 -0.0007
# 6 0.0002 0.0004 0.0002 6.8205 -0.0007 -16.9056
#
#
#
# Elastic Compliance Matrix: (Units=1/GPa)
#
#
# Indices 1 2 3 4 5 6 
#
# 1 0.014166 -0.003121 -0.002987 -0.000001 -0.001584 0.000000
# 2 -0.003121 0.011451 -0.001113 0.000002 -0.002448 0.000001
# 3 -0.002987 -0.001113 0.009086 0.000002 -0.005287 0.000001
# 4 -0.000001 0.000002 0.000002 0.085685 0.000002 0.034569
# 5 -0.001584 -0.002448 -0.005287 0.000002 0.019444 0.000000
# 6 0.000000 0.000001 0.000001 0.034569 0.000000 -0.045205
#
#
# Mechanical properties :
#
#
# Convention : Reuss Voigt Hill
#
# Bulk Modulus (GPa) = 49.35499 67.70997 58.53248
# Shear Modulus (GPa) = 43.16936 28.38410 35.77673
#
# Velocity S-wave (km/s) = 4.56083 3.69823 4.15200
# Velocity P-wave (km/s) = 7.17751 7.13176 7.15467
#
# Compressibility (1/GPa) = 0.02026137
#
# Stress axis : x y z
#
# Youngs Moduli (GPa) = 70.59316 87.32560 110.05881
#
# Poissons Ratio (x) = 0.27256 0.32873
# Poissons Ratio (y) = 0.22033 0.12248
# Poissons Ratio (z) = 0.21085 0.09718
#
# Static dielectric constant tensor:
#      x y z
#    x 1.679470 -0.000010 0.002330 
#    y -0.000010 1.786730 0.000000 
#    z 0.002330 0.000000 1.740590 
# 
# From -- ./inp_files/55026.got.cif
#   From: 2010.05.17/outbox.cif.g08.bks.cpg/sg5_28_cif.got.tgz:55026.got - 2010.06.03 18:56:24.
