data_PCOD9121471
_publ_section_title
;
Structure prediction by ZEFSAII (Michael W. Deem and Ramdas Pophale) SiO2 
 PCOD9121471
Probable space group: C 2
;
_chemical_formula_sum "Si O2"
_cell_formula_units_Z 24
_cell_length_a 17.391748
_cell_length_b 7.782728
_cell_length_c 13.969778
_cell_angle_alpha 90.000000
_cell_angle_beta 33.333232
_cell_angle_gamma 90.000000
_cell_volume 1039.054232
_symmetry_space_group_name_H-M "C 2"
_symmetry_group_IT_number 5
_symmetry_cell_setting 'monoclinic'
loop_
_space_group_symop_operation_xyz
x,y,z
-x,y,-z
1/2+x,1/2+y,z
1/2-x,1/2+y,-z
loop_
_atom_site_type_symbol
_atom_site_label
_atom_site_fract_x
_atom_site_fract_y
_atom_site_fract_z
Si Si1 0.500000 0.040610 0.500000
Si Si2 0.000000 0.262950 0.000000
Si Si3 0.193680 0.860265 0.339452
Si Si4 0.688208 0.278540 0.556120
Si Si5 0.961403 0.083284 0.232828
Si Si6 0.179971 0.924061 0.146436
Si Si7 0.942074 0.544362 0.766736
O O1 0.629772 0.168960 0.389173
O O2 0.464406 0.955157 0.639345
O O3 0.860064 0.367553 0.161938
O O4 0.022010 0.148981 0.070615
O O5 0.159058 0.884059 0.486687
O O6 0.148671 0.961431 0.291002
O O7 0.629024 0.410429 0.694472
O O8 0.589814 0.109819 0.655288
O O9 0.847897 0.219713 0.390227
O O10 0.085176 0.038564 0.175905
O O11 0.134435 0.727111 0.176141
O O12 0.340465 0.949230 0.946273
#
# Coordination Sequence:
#
# PCOD9121471 Si02
#       7
#     2   2   4   4   4   4   4
#     4   8  14  30  50  72 102 144 178 208 256 326
#     4  10  20  36  58  82 110 150 186 218 272 342
#     4   9  18  33  55  79 107 145 185 217 266 334
#     4   9  20  36  54  78 108 145 185 227 272 326
#     4  10  20  35  56  81 111 147 185 226 273 327
#     4  10  19  34  56  83 111 145 184 229 273 325
#     4   9  18  31  53  77 107 141 181 224 270 321
#
# _framework density 23.097929000000001
#
# number of rings (size 3 to 8) (size 9 to 14) (size 15 to 20)
#    0.000    2.667    0.000    3.000    0.000    4.000 
#    0.000    3.333    0.000   12.000    0.000    2.333 
#    0.000    0.000    0.000    0.000    0.000    0.000 
#
# Total GULP energy -66958.024984 kJ/mol
# GULP energy per Si atom -5579.835415 kJ/mol
# Density = 2.304536 g / cm^3
# Si number density = 23.097929 Si / 1000 Ang^3
#
#
#
# Elastic Constant Matrix: (Units=GPa)
#
#
# Indices 1 2 3 4 5 6 
#
# 1 92.5479 18.7983 17.8458 0.0000 10.0797 0.0000
# 2 18.7983 43.6381 7.0505 0.0000 9.9615 0.0000
# 3 17.8458 7.0505 113.8898 0.0000 -1.4310 0.0000
# 4 0.0000 0.0000 0.0000 24.6638 0.0000 -1.8594
# 5 10.0797 9.9615 -1.4310 0.0000 34.0393 0.0000
# 6 0.0000 0.0000 0.0000 -1.8594 0.0000 25.0167
#
#
#
# Elastic Compliance Matrix: (Units=1/GPa)
#
#
# Indices 1 2 3 4 5 6 
#
# 1 0.012301 -0.004479 -0.001680 0.000000 -0.002402 0.000000
# 2 -0.004479 0.026486 -0.001019 0.000000 -0.006468 0.000000
# 3 -0.001680 -0.001019 0.009122 0.000000 0.001179 0.000000
# 4 0.000000 0.000000 0.000000 0.040774 0.000000 0.003031
# 5 -0.002402 -0.006468 0.001179 0.000000 0.032032 0.000000
# 6 0.000000 0.000000 0.000000 0.003031 0.000000 0.040199
#
#
# Mechanical properties :
#
#
# Convention : Reuss Voigt Hill
#
# Bulk Modulus (GPa) = 29.80473 37.49611 33.65042
# Shear Modulus (GPa) = 26.81640 30.50270 28.65955
#
# Velocity S-wave (km/s) = 3.41102 3.63792 3.52630
# Velocity P-wave (km/s) = 5.33339 5.82364 5.58390
#
# Compressibility (1/GPa) = 0.03355172
#
# Stress axis : x y z
#
# Youngs Moduli (GPa) = 81.29653 37.75543 109.62962
#
# Poissons Ratio (x) = 0.16910 0.18422
# Poissons Ratio (y) = 0.36412 0.11172
# Poissons Ratio (z) = 0.13661 0.03848
#
# Static dielectric constant tensor:
#      x y z
#    x 1.908800 0.000000 -0.006290 
#    y 0.000000 1.890610 0.000000 
#    z -0.006290 0.000000 1.886800 
# 
# From -- ./inp_files/26573.got.cif
#   From: 2010.05.17/outbox.cif.g08.bks.cpg/sg5_14_cif.got.tgz:26573.got - 2010.06.03 18:56:24.
