data_PCOD9121062
_publ_section_title
;
Structure prediction by ZEFSAII (Michael W. Deem and Ramdas Pophale) SiO2 
 PCOD9121062
Probable space group: C 2
;
_chemical_formula_sum "Si O2"
_cell_formula_units_Z 32
_cell_length_a 16.921211
_cell_length_b 13.935057
_cell_length_c 11.987370
_cell_angle_alpha 90.000000
_cell_angle_beta 145.068833
_cell_angle_gamma 90.000000
_cell_volume 1618.487387
_symmetry_space_group_name_H-M "C 2"
_symmetry_group_IT_number 5
_symmetry_cell_setting 'monoclinic'
loop_
_space_group_symop_operation_xyz
x,y,z
-x,y,-z
1/2+x,1/2+y,z
1/2-x,1/2+y,-z
loop_
_atom_site_type_symbol
_atom_site_label
_atom_site_fract_x
_atom_site_fract_y
_atom_site_fract_z
Si Si1 0.059658 0.386310 0.810240
Si Si2 0.229466 0.298281 0.479249
Si Si3 0.547577 0.252650 0.435255
Si Si4 0.626900 0.030420 0.516078
Si Si5 0.846697 0.562817 0.940466
Si Si6 0.328625 0.094483 0.670650
Si Si7 0.156100 0.900084 0.169701
Si Si8 0.210328 0.756150 0.030024
O O1 0.927230 0.334560 0.713128
O O2 0.998049 0.455319 0.641400
O O3 0.137499 0.460232 0.982527
O O4 0.160683 0.307456 0.877902
O O5 0.320216 0.300536 0.471665
O O6 0.245590 0.190138 0.545409
O O7 0.300040 0.356417 0.661055
O O8 0.500000 0.290609 0.500000
O O9 0.583157 0.139000 0.488737
O O10 0.419572 0.260747 0.203050
O O11 0.687623 0.032312 0.459392
O O12 0.740311 0.988253 0.729838
O O13 0.795504 0.554497 0.754219
O O14 0.762321 0.645404 0.906049
O O15 0.004026 0.606634 0.127484
O O16 0.173326 0.817402 0.097597
O O17 0.000000 0.932627 0.000000
#
# Coordination Sequence:
#
# PCOD9121062 Si02
#       8
#     4   4   4   4   4   4   4   4
#     4  10  23  38  61 101 131 167 218 275 323 385
#     4  10  19  39  64  95 123 164 222 270 325 381
#     4  11  23  43  65  88 135 182 207 260 340 404
#     4   9  21  38  63  94 132 169 212 270 337 389
#     4  10  18  38  65  91 129 175 219 262 324 395
#     4   9  16  36  66  90 115 169 219 261 316 394
#     4  11  20  36  67  98 124 162 228 279 311 387
#     4  12  22  39  66  98 129 175 227 267 321 399
#
# _framework density 19.771547999999999
#
# number of rings (size 3 to 8) (size 9 to 14) (size 15 to 20)
#    0.000    1.750    6.250    0.000    1.750    1.500 
#   11.250    5.000    0.000    0.000    0.000    0.000 
#    0.000    0.000    0.000    0.000    0.000    0.000 
#
# Total GULP energy -89228.261160 kJ/mol
# GULP energy per Si atom -5576.766323 kJ/mol
# Density = 1.972655 g / cm^3
# Si number density = 19.771548 Si / 1000 Ang^3
#
#
#
# Elastic Constant Matrix: (Units=GPa)
#
#
# Indices 1 2 3 4 5 6 
#
# 1 131.7477 42.8560 40.3872 0.0000 -0.1502 0.0000
# 2 42.8560 89.8379 38.1855 0.0000 8.4189 0.0000
# 3 40.3872 38.1855 53.5761 0.0000 -4.0419 0.0000
# 4 0.0000 0.0000 0.0000 35.0635 0.0000 12.3685
# 5 -0.1502 8.4189 -4.0419 0.0000 33.1815 0.0000
# 6 0.0000 0.0000 0.0000 12.3685 0.0000 12.4766
#
#
#
# Elastic Compliance Matrix: (Units=1/GPa)
#
#
# Indices 1 2 3 4 5 6 
#
# 1 0.010190 -0.002268 -0.006074 0.000000 -0.000118 0.000000
# 2 -0.002268 0.017530 -0.011224 0.000000 -0.005825 0.000000
# 3 -0.006074 -0.011224 0.031747 0.000000 0.006687 0.000000
# 4 0.000000 0.000000 0.000000 0.043855 0.000000 -0.043476
# 5 -0.000118 -0.005825 0.006687 0.000000 0.032429 0.000000
# 6 0.000000 0.000000 0.000000 -0.043476 0.000000 0.123249
#
#
# Mechanical properties :
#
#
# Convention : Reuss Voigt Hill
#
# Bulk Modulus (GPa) = 49.17384 57.55767 53.36575
# Shear Modulus (GPa) = 16.39826 26.39319 21.39572
#
# Velocity S-wave (km/s) = 2.88303 3.65760 3.29317
# Velocity P-wave (km/s) = 6.00062 6.85653 6.44280
#
# Compressibility (1/GPa) = 0.02033602
#
# Stress axis : x y z
#
# Youngs Moduli (GPa) = 98.13688 57.04629 31.49862
#
# Poissons Ratio (x) = 0.12940 0.19131
# Poissons Ratio (y) = 0.22260 0.35353
# Poissons Ratio (z) = 0.59605 0.64026
#
# Static dielectric constant tensor:
#      x y z
#    x 1.742120 0.000000 0.004800 
#    y 0.000000 1.738510 0.000000 
#    z 0.004800 0.000000 1.695500 
# 
# From -- ./inp_files/43096.got.cif
#   From: 2010.05.17/outbox.cif.g08.bks.cpg/sg5_22_cif.got.tgz:43096.got - 2010.06.03 18:56:24.
