data_PCOD9121222
_publ_section_title
;
Structure prediction by ZEFSAII (Michael W. Deem and Ramdas Pophale) SiO2 
 PCOD9121222
Probable space group: C 2
;
_chemical_formula_sum "Si O2"
_cell_formula_units_Z 16
_cell_length_a 27.477136
_cell_length_b 5.092811
_cell_length_c 9.356571
_cell_angle_alpha 90.000000
_cell_angle_beta 151.618696
_cell_angle_gamma 90.000000
_cell_volume 622.368347
_symmetry_space_group_name_H-M "C 2"
_symmetry_group_IT_number 5
_symmetry_cell_setting 'monoclinic'
loop_
_space_group_symop_operation_xyz
x,y,z
-x,y,-z
1/2+x,1/2+y,z
1/2-x,1/2+y,-z
loop_
_atom_site_type_symbol
_atom_site_label
_atom_site_fract_x
_atom_site_fract_y
_atom_site_fract_z
Si Si1 0.190219 0.650960 0.507708
Si Si2 0.000000 0.789929 0.500000
Si Si3 0.700926 0.146779 0.136847
Si Si4 0.114780 0.004452 0.535782
Si Si5 0.000000 0.352165 0.000000
O O1 0.276824 0.433367 0.745204
O O2 0.245091 0.929274 0.623118
O O3 0.135966 0.718968 0.520261
O O4 0.091975 0.531708 0.174643
O O5 0.938876 0.969364 0.453692
O O6 0.916216 0.616305 0.202038
O O7 0.771905 0.128981 0.177999
O O8 0.048139 0.166385 0.247133
#
# Coordination Sequence:
#
# PCOD9121222 Si02
#       5
#     4   2   4   4   2
#     4   9  20  42  71 100 143 194 237 295 365 431
#     4  12  24  46  78 116 146 202 242 310 380 434
#     4   9  23  42  67 107 150 188 241 302 356 445
#     4   9  23  42  78 109 146 193 246 306 367 448
#     4  10  18  46  80 106 146 206 234 312 386 426
#
# _framework density 25.708248999999999
#
# number of rings (size 3 to 8) (size 9 to 14) (size 15 to 20)
#    1.500    1.000    0.000    0.750    3.500    1.000 
#   13.500    0.000   33.000    0.000    0.000    0.000 
#    0.000    0.000    0.000    0.000    0.000    0.000 
#
# Total GULP energy -44673.784361 kJ/mol
# GULP energy per Si atom -5584.223045 kJ/mol
# Density = 2.564974 g / cm^3
# Si number density = 25.708249 Si / 1000 Ang^3
#
#
#
# Elastic Constant Matrix: (Units=GPa)
#
#
# Indices 1 2 3 4 5 6 
#
# 1 137.3084 -0.5827 27.0961 0.0000 -3.1222 0.0000
# 2 -0.5827 133.0472 37.4065 0.0000 -2.1072 0.0000
# 3 27.0961 37.4065 154.6656 0.0000 20.8672 0.0000
# 4 0.0000 0.0000 0.0000 7.5938 0.0000 -20.3485
# 5 -3.1222 -2.1072 20.8672 0.0000 33.0305 0.0000
# 6 0.0000 0.0000 0.0000 -20.3485 0.0000 -9.1403
#
#
#
# Elastic Compliance Matrix: (Units=1/GPa)
#
#
# Indices 1 2 3 4 5 6 
#
# 1 0.007668 0.000548 -0.001725 0.000000 0.001850 0.000000
# 2 0.000548 0.008215 -0.002362 0.000000 0.002068 0.000000
# 3 -0.001725 -0.002362 0.008069 0.000000 -0.005412 0.000000
# 4 0.000000 0.000000 0.000000 0.018906 0.000000 -0.042088
# 5 0.001850 0.002068 -0.005412 0.000000 0.034001 0.000000
# 6 0.000000 0.000000 0.000000 -0.042088 0.000000 -0.015707
#
#
# Mechanical properties :
#
#
# Convention : Reuss Voigt Hill
#
# Bulk Modulus (GPa) = 59.26436 61.42899 60.34668
# Shear Modulus (GPa) = 67.70039 30.37024 49.03531
#
# Velocity S-wave (km/s) = 5.13724 3.44079 4.37209
# Velocity P-wave (km/s) = 7.63486 6.30333 7.00082
#
# Compressibility (1/GPa) = 0.01687355
#
# Stress axis : x y z
#
# Youngs Moduli (GPa) = 130.41629 121.72336 123.92811
#
# Poissons Ratio (x) = -0.06670 0.21383
# Poissons Ratio (y) = -0.07147 0.29271
# Poissons Ratio (z) = 0.22502 0.28750
#
# Static dielectric constant tensor:
#      x y z
#    x 2.132870 0.000000 -0.054210 
#    y 0.000000 1.999820 0.000000 
#    z -0.054210 0.000000 2.012690 
# 
# From -- ./inp_files/31463.got.cif
#   From: 2010.05.17/outbox.cif.g08.bks.cpg/sg5_16_cif.got.tgz:31463.got - 2010.06.03 18:56:24.
