data_PCOD9121885
_publ_section_title
;
Structure prediction by ZEFSAII (Michael W. Deem and Ramdas Pophale) SiO2 
 PCOD9121885
Probable space group: C 2
;
_chemical_formula_sum "Si O2"
_cell_formula_units_Z 22
_cell_length_a 11.240728
_cell_length_b 17.860309
_cell_length_c 6.264190
_cell_angle_alpha 90.000000
_cell_angle_beta 119.513936
_cell_angle_gamma 90.000000
_cell_volume 1094.423283
_symmetry_space_group_name_H-M "C 2"
_symmetry_group_IT_number 5
_symmetry_cell_setting 'monoclinic'
loop_
_space_group_symop_operation_xyz
x,y,z
-x,y,-z
1/2+x,1/2+y,z
1/2-x,1/2+y,-z
loop_
_atom_site_type_symbol
_atom_site_label
_atom_site_fract_x
_atom_site_fract_y
_atom_site_fract_z
Si Si1 0.669839 0.381200 0.813019
Si Si2 0.500000 0.295187 0.000000
Si Si3 0.500000 0.520652 0.500000
Si Si4 0.631465 0.964457 0.740149
Si Si5 0.645608 0.240246 0.509362
Si Si6 0.500000 0.059807 0.000000
Si Si7 0.744566 0.587807 0.465294
O O1 0.612374 0.461659 0.690304
O O2 0.696228 0.319560 0.653256
O O3 0.554624 0.345443 0.858616
O O4 0.790915 0.396839 0.081760
O O5 0.614504 0.249370 0.229060
O O6 0.595158 0.570756 0.430390
O O7 0.500000 0.936296 0.500000
O O8 0.718545 0.018800 0.661298
O O9 0.576049 0.014065 0.884239
O O10 0.500000 0.223225 0.500000
O O11 0.742481 0.169127 0.633981
O O12 0.630665 0.091796 0.250014
#
# Coordination Sequence:
#
# PCOD9121885 Si02
#       7
#     4   2   2   4   4   2   4
#     4  11  21  40  64  99 129 172 223 277 320 396
#     4  10  19  36  70  88 129 170 222 260 339 378
#     4  12  22  42  68  96 138 170 218 274 330 382
#     4  10  22  37  67  93 130 173 222 271 328 386
#     4  10  21  37  64  98 130 167 222 274 325 395
#     4  10  19  38  62  92 133 164 216 272 323 386
#     4  11  23  39  65  99 132 172 219 275 330 388
#
# _framework density 20.10191
#
# number of rings (size 3 to 8) (size 9 to 14) (size 15 to 20)
#    0.000    1.455    4.545    3.273    0.000    1.455 
#    0.000    0.000    6.000    0.000    0.000    0.000 
#    0.000    0.000    0.000    0.000    0.000    0.000 
#
# Total GULP energy -61234.674461 kJ/mol
# GULP energy per Si atom -5566.788587 kJ/mol
# Density = 2.005616 g / cm^3
# Si number density = 20.101910 Si / 1000 Ang^3
#
#
#
# Elastic Constant Matrix: (Units=GPa)
#
#
# Indices 1 2 3 4 5 6 
#
# 1 90.3137 43.0453 10.3779 0.0000 -2.7069 0.0000
# 2 43.0453 107.8992 36.0536 0.0000 10.7521 0.0000
# 3 10.3779 36.0536 90.1917 0.0000 6.2465 0.0000
# 4 0.0000 0.0000 0.0000 10.4004 0.0000 3.9338
# 5 -2.7069 10.7521 6.2465 0.0000 22.5000 0.0000
# 6 0.0000 0.0000 0.0000 3.9338 0.0000 63.1627
#
#
#
# Elastic Compliance Matrix: (Units=1/GPa)
#
#
# Indices 1 2 3 4 5 6 
#
# 1 0.014138 -0.006284 0.000570 0.000000 0.004545 0.000000
# 2 -0.006284 0.013855 -0.004389 0.000000 -0.006158 0.000000
# 3 0.000570 -0.004389 0.012874 0.000000 -0.001408 0.000000
# 4 0.000000 0.000000 0.000000 0.098470 0.000000 -0.006133
# 5 0.004545 -0.006158 -0.001408 0.000000 0.048325 0.000000
# 6 0.000000 0.000000 0.000000 -0.006133 0.000000 0.016214
#
#
# Mechanical properties :
#
#
# Convention : Reuss Voigt Hill
#
# Bulk Modulus (GPa) = 48.39750 51.92867 50.16309
# Shear Modulus (GPa) = 21.64799 32.47447 27.06123
#
# Velocity S-wave (km/s) = 3.28519 4.02368 3.67304
# Velocity P-wave (km/s) = 6.20631 6.89024 6.55720
#
# Compressibility (1/GPa) = 0.02066222
#
# Stress axis : x y z
#
# Youngs Moduli (GPa) = 70.73030 72.17626 77.67696
#
# Poissons Ratio (x) = 0.45354 -0.04430
# Poissons Ratio (y) = 0.44446 0.34091
# Poissons Ratio (z) = -0.04034 0.31677
#
# Static dielectric constant tensor:
#      x y z
#    x 1.683570 0.000000 -0.003130 
#    y 0.000000 1.778200 0.000000 
#    z -0.003130 0.000000 1.735420 
# 
# From -- ./inp_files/5065.got.cif
#   From: 2010.05.17/outbox.cif.g08.bks.cpg/sg5_3_cif.got.tgz:5065.got - 2010.06.03 18:56:24.
