data_PCOD9121409
_publ_section_title
;
Structure prediction by ZEFSAII (Michael W. Deem and Ramdas Pophale) SiO2 
 PCOD9121409
Probable space group: C 2
;
_chemical_formula_sum "Si O2"
_cell_formula_units_Z 28
_cell_length_a 19.068165
_cell_length_b 7.785170
_cell_length_c 13.997222
_cell_angle_alpha 90.000000
_cell_angle_beta 33.491445
_cell_angle_gamma 90.000000
_cell_volume 1146.595842
_symmetry_space_group_name_H-M "C 2"
_symmetry_group_IT_number 5
_symmetry_cell_setting 'monoclinic'
loop_
_space_group_symop_operation_xyz
x,y,z
-x,y,-z
1/2+x,1/2+y,z
1/2-x,1/2+y,-z
loop_
_atom_site_type_symbol
_atom_site_label
_atom_site_fract_x
_atom_site_fract_y
_atom_site_fract_z
Si Si1 0.405058 0.248330 0.362529
Si Si2 0.875337 0.012294 0.185101
Si Si3 0.617897 0.044623 0.418976
Si Si4 0.665240 0.127248 0.999479
Si Si5 0.345019 0.606881 0.438952
Si Si6 0.298959 0.798544 0.144672
Si Si7 0.898343 0.287287 0.829655
O O1 0.407980 0.110612 0.445081
O O2 0.542008 0.246805 0.154432
O O3 0.361312 0.421403 0.468145
O O4 0.294130 0.187784 0.414923
O O5 0.747413 0.936079 0.283649
O O6 0.874557 0.036624 0.298062
O O7 0.864954 0.209571 0.159133
O O8 0.000000 0.930891 0.000000
O O9 0.500000 0.961242 0.500000
O O10 0.341093 0.214386 0.689513
O O11 0.640088 0.984459 0.111220
O O12 0.800286 0.211235 0.866028
O O13 0.678245 0.000793 0.893344
O O14 0.455055 0.734821 0.348604
O O15 0.361204 0.718447 0.978071
#
# Coordination Sequence:
#
# PCOD9121409 Si02
#       7
#     4   4   4   4   4   4   4
#     4  11  23  35  59  88 122 153 207 244 304 349
#     4   9  16  33  54  78 106 152 199 233 286 357
#     4   9  18  32  55  85 107 150 194 240 284 360
#     4  10  20  36  57  92 114 157 200 247 291 364
#     4  11  21  35  57  85 116 158 197 257 292 358
#     4   8  19  33  59  80 112 151 201 232 293 361
#     4  10  19  33  59  85 117 148 202 241 299 347
#
# _framework density 24.420114999999999
#
# number of rings (size 3 to 8) (size 9 to 14) (size 15 to 20)
#    1.714    0.571    1.429    2.571    2.000    0.000 
#    0.000    0.000    3.143    0.000    7.429    0.000 
#    0.000    0.000    0.000    0.000    0.000    0.000 
#
# Total GULP energy -77971.903602 kJ/mol
# GULP energy per Si atom -5569.421686 kJ/mol
# Density = 2.436453 g / cm^3
# Si number density = 24.420115 Si / 1000 Ang^3
#
#
#
# Elastic Constant Matrix: (Units=GPa)
#
#
# Indices 1 2 3 4 5 6 
#
# 1 60.4636 15.9419 35.4338 0.0000 -35.6929 0.0000
# 2 15.9419 77.4926 -0.8322 0.0000 -11.9372 0.0000
# 3 35.4338 -0.8322 107.8146 0.0000 -40.1767 0.0000
# 4 0.0000 0.0000 0.0000 32.7479 0.0000 -2.0922
# 5 -35.6929 -11.9372 -40.1767 0.0000 48.6956 0.0000
# 6 0.0000 0.0000 0.0000 -2.0922 0.0000 29.6016
#
#
#
# Elastic Compliance Matrix: (Units=1/GPa)
#
#
# Indices 1 2 3 4 5 6 
#
# 1 0.030363 -0.003346 -0.002912 0.000000 0.019032 0.000000
# 2 -0.003346 0.014060 0.002280 0.000000 0.002875 0.000000
# 3 -0.002912 0.002280 0.013952 0.000000 0.009936 0.000000
# 4 0.000000 0.000000 0.000000 0.030675 0.000000 0.002168
# 5 0.019032 0.002875 0.009936 0.000000 0.043388 0.000000
# 6 0.000000 0.000000 0.000000 0.002168 0.000000 0.033935
#
#
# Mechanical properties :
#
#
# Convention : Reuss Voigt Hill
#
# Bulk Modulus (GPa) = 19.83417 38.53977 29.18697
# Shear Modulus (GPa) = 26.15919 35.22416 30.69167
#
# Velocity S-wave (km/s) = 3.27649 3.80205 3.54901
# Velocity P-wave (km/s) = 4.73852 5.92371 5.36395
#
# Compressibility (1/GPa) = 0.05041805
#
# Stress axis : x y z
#
# Youngs Moduli (GPa) = 32.93482 71.12314 71.67206
#
# Poissons Ratio (x) = 0.23796 0.20874
# Poissons Ratio (y) = 0.11019 -0.16338
# Poissons Ratio (z) = 0.09592 -0.16213
#
# Static dielectric constant tensor:
#      x y z
#    x 1.940730 0.000000 0.011590 
#    y 0.000000 2.022800 0.000000 
#    z 0.011590 0.000000 2.043020 
# 
# From -- ./inp_files/62714.got.cif
#   From: 2010.05.17/outbox.cif.g08.bks.cpg/sg5_32_cif.got.tgz:62714.got - 2010.06.03 18:56:24.
