data_PCOD9121823
_publ_section_title
;
Structure prediction by ZEFSAII (Michael W. Deem and Ramdas Pophale) SiO2 
 PCOD9121823
Probable space group: C 2
;
_chemical_formula_sum "Si O2"
_cell_formula_units_Z 22
_cell_length_a 16.636679
_cell_length_b 4.970071
_cell_length_c 11.893736
_cell_angle_alpha 90.000000
_cell_angle_beta 65.095073
_cell_angle_gamma 90.000000
_cell_volume 891.987049
_symmetry_space_group_name_H-M "C 2"
_symmetry_group_IT_number 5
_symmetry_cell_setting 'monoclinic'
loop_
_space_group_symop_operation_xyz
x,y,z
-x,y,-z
1/2+x,1/2+y,z
1/2-x,1/2+y,-z
loop_
_atom_site_type_symbol
_atom_site_label
_atom_site_fract_x
_atom_site_fract_y
_atom_site_fract_z
Si Si1 0.500000 0.717981 0.000000
Si Si2 0.702650 0.224849 0.371046
Si Si3 0.383384 0.997943 0.249555
Si Si4 0.677901 0.884426 0.168408
Si Si5 0.864312 0.012766 0.396370
Si Si6 0.633531 0.384654 0.068016
O O1 0.437171 0.906012 0.110968
O O2 0.556970 0.521087 0.043734
O O3 0.780191 0.427982 0.283479
O O4 0.673068 0.021209 0.292532
O O5 0.630434 0.391975 0.482929
O O6 0.759293 0.053922 0.429824
O O7 0.406966 0.795762 0.338948
O O8 0.395253 0.296799 0.285969
O O9 0.623238 0.082150 0.117313
O O10 0.648300 0.579546 0.167077
O O11 0.778566 0.900641 0.061774
#
# Coordination Sequence:
#
# PCOD9121823 Si02
#       6
#     2   4   4   4   4   4
#     4  12  24  44  64  86 132 162 200 240 316 376
#     4  10  19  36  62  88 121 152 202 259 287 347
#     4  10  22  34  57  94 113 160 197 251 286 363
#     4  10  22  37  59  87 120 149 208 247 304 333
#     4  10  20  34  59  94 118 150 212 248 293 336
#     4  10  23  38  57  87 118 161 193 252 293 370
#
# _framework density 24.664033
#
# number of rings (size 3 to 8) (size 9 to 14) (size 15 to 20)
#    1.091    0.727    3.636    0.000    2.545    5.818 
#    0.000    0.000    0.000    6.545    0.000    0.000 
#    0.000    0.000    0.000    0.000    0.000    0.000 
#
# Total GULP energy -61575.955750 kJ/mol
# GULP energy per Si atom -5597.814159 kJ/mol
# Density = 2.460790 g / cm^3
# Si number density = 24.664033 Si / 1000 Ang^3
#
#
#
# Elastic Constant Matrix: (Units=GPa)
#
#
# Indices 1 2 3 4 5 6 
#
# 1 43.8190 4.7304 6.5223 -0.0001 8.0788 0.0004
# 2 4.7304 109.8649 8.2355 0.0001 -6.0794 0.0021
# 3 6.5223 8.2355 98.8117 -0.0002 -4.1380 0.0001
# 4 -0.0001 0.0001 -0.0002 31.2527 -0.0001 -0.7744
# 5 8.0788 -6.0794 -4.1380 -0.0001 26.1634 0.0002
# 6 0.0004 0.0021 0.0001 -0.7744 0.0002 18.9376
#
#
#
# Elastic Compliance Matrix: (Units=1/GPa)
#
#
# Indices 1 2 3 4 5 6 
#
# 1 0.024772 -0.001384 -0.001866 0.000000 -0.008266 0.000000
# 2 -0.001384 0.009344 -0.000582 0.000000 0.002506 -0.000001
# 3 -0.001866 -0.000582 0.010379 0.000000 0.002082 0.000000
# 4 0.000000 0.000000 0.000000 0.032030 0.000000 0.001310
# 5 -0.008266 0.002506 0.002082 0.000000 0.041686 -0.000001
# 6 0.000000 -0.000001 0.000000 0.001310 -0.000001 0.052858
#
#
# Mechanical properties :
#
#
# Convention : Reuss Voigt Hill
#
# Bulk Modulus (GPa) = 27.15147 32.38578 29.76862
# Shear Modulus (GPa) = 26.17649 30.80457 28.49053
#
# Velocity S-wave (km/s) = 3.26133 3.53791 3.40243
# Velocity P-wave (km/s) = 5.02137 5.46336 5.24702
#
# Compressibility (1/GPa) = 0.03683042
#
# Stress axis : x y z
#
# Youngs Moduli (GPa) = 40.36769 107.02008 96.34678
#
# Poissons Ratio (x) = 0.14813 0.17978
# Poissons Ratio (y) = 0.05587 0.05612
# Poissons Ratio (z) = 0.07532 0.06233
#
# Static dielectric constant tensor:
#      x y z
#    x 1.982080 0.000000 0.009380 
#    y 0.000000 1.939110 0.000000 
#    z 0.009380 0.000000 1.978970 
# 
# From -- ./inp_files/43713.got.cif
#   From: 2010.05.17/outbox.cif.g08.bks.cpg/sg5_22_cif.got.tgz:43713.got - 2010.06.03 18:56:24.
