data_PCOD9121443
_publ_section_title
;
Structure prediction by ZEFSAII (Michael W. Deem and Ramdas Pophale) SiO2 
 PCOD9121443
Probable space group: C 2
;
_chemical_formula_sum "Si O2"
_cell_formula_units_Z 28
_cell_length_a 18.643640
_cell_length_b 17.390922
_cell_length_c 5.000408
_cell_angle_alpha 90.000000
_cell_angle_beta 108.736105
_cell_angle_gamma 90.000000
_cell_volume 1535.367806
_symmetry_space_group_name_H-M "C 2"
_symmetry_group_IT_number 5
_symmetry_cell_setting 'monoclinic'
loop_
_space_group_symop_operation_xyz
x,y,z
-x,y,-z
1/2+x,1/2+y,z
1/2-x,1/2+y,-z
loop_
_atom_site_type_symbol
_atom_site_label
_atom_site_fract_x
_atom_site_fract_y
_atom_site_fract_z
Si Si1 0.762353 0.357480 0.227176
Si Si2 0.413446 0.759862 0.361965
Si Si3 0.574798 0.442831 0.439679
Si Si4 0.549582 0.263017 0.327776
Si Si5 0.209476 0.767805 0.664364
Si Si6 0.857096 0.169709 0.806133
Si Si7 0.340886 0.493996 0.962278
O O1 0.848523 0.326974 0.286449
O O2 0.738626 0.332363 0.494354
O O3 0.736934 0.446136 0.172285
O O4 0.709931 0.308329 0.955962
O O5 0.500000 0.786902 0.500000
O O6 0.388186 0.696842 0.555442
O O7 0.409064 0.714489 0.079324
O O8 0.500000 0.474033 0.500000
O O9 0.567771 0.350827 0.440123
O O10 0.594706 0.456619 0.154198
O O11 0.360858 0.479256 0.295624
O O12 0.500000 0.225775 0.500000
O O13 0.634050 0.231062 0.448521
O O14 0.500000 0.262808 0.000000
O O15 0.274092 0.704617 0.744278
O O16 0.847752 0.081317 0.874729
#
# Coordination Sequence:
#
# PCOD9121443 Si02
#       7
#     4   4   4   4   4   4   4
#     4  10  19  34  55  74 101 140 178 222 258 304
#     4  10  21  38  56  78 105 140 184 223 266 320
#     4  11  22  31  47  76 111 135 167 204 251 311
#     4  11  19  30  50  74 100 134 170 208 253 297
#     4  10  19  36  50  74 102 135 179 220 247 316
#     4  10  23  34  55  77 106 141 175 216 275 318
#     4  12  20  35  51  77 107 145 173 212 264 321
#
# _framework density 18.236673
#
# number of rings (size 3 to 8) (size 9 to 14) (size 15 to 20)
#    0.000    1.429    2.857    4.286    0.000    3.429 
#    0.000    0.000    0.000    0.857    0.000    4.000 
#    0.000    0.000    0.000    0.000    0.000    0.000 
#
# Total GULP energy -77952.124132 kJ/mol
# GULP energy per Si atom -5568.008867 kJ/mol
# Density = 1.819517 g / cm^3
# Si number density = 18.236673 Si / 1000 Ang^3
#
#
#
# Elastic Constant Matrix: (Units=GPa)
#
#
# Indices 1 2 3 4 5 6 
#
# 1 60.4785 17.8605 18.3238 0.0000 20.7320 0.0000
# 2 17.8605 27.3322 6.3740 0.0000 14.2965 0.0000
# 3 18.3238 6.3740 87.0309 0.0000 9.3274 0.0000
# 4 0.0000 0.0000 0.0000 10.5602 0.0000 -0.8257
# 5 20.7320 14.2965 9.3274 0.0000 41.2673 0.0000
# 6 0.0000 0.0000 0.0000 -0.8257 0.0000 7.3292
#
#
#
# Elastic Compliance Matrix: (Units=1/GPa)
#
#
# Indices 1 2 3 4 5 6 
#
# 1 0.023135 -0.010572 -0.003324 0.000000 -0.007209 0.000000
# 2 -0.010572 0.049749 -0.000143 0.000000 -0.011891 0.000000
# 3 -0.003324 -0.000143 0.012315 0.000000 -0.001064 0.000000
# 4 0.000000 0.000000 0.000000 0.095537 0.000000 0.010763
# 5 -0.007209 -0.011891 -0.001064 0.000000 0.032214 0.000000
# 6 0.000000 0.000000 0.000000 0.010763 0.000000 0.137653
#
#
# Mechanical properties :
#
#
# Convention : Reuss Voigt Hill
#
# Bulk Modulus (GPa) = 17.50712 28.88424 23.19568
# Shear Modulus (GPa) = 12.57164 20.65021 16.61093
#
# Velocity S-wave (km/s) = 2.62842 3.36868 3.02131
# Velocity P-wave (km/s) = 4.33961 5.56809 4.99179
#
# Compressibility (1/GPa) = 0.05711963
#
# Stress axis : x y z
#
# Youngs Moduli (GPa) = 43.22398 20.10109 81.20479
#
# Poissons Ratio (x) = 0.21251 0.26993
# Poissons Ratio (y) = 0.45697 0.01163
# Poissons Ratio (z) = 0.14368 0.00288
#
# Static dielectric constant tensor:
#      x y z
#    x 1.707150 0.000000 0.045180 
#    y 0.000000 1.629580 0.000000 
#    z 0.045180 0.000000 1.693430 
# 
# From -- ./inp_files/8690.got.cif
#   From: 2010.05.17/outbox.cif.g08.bks.cpg/sg5_5_cif.got.tgz:8690.got - 2010.06.03 18:56:24.
