data_PCOD9121649
_publ_section_title
;
Structure prediction by ZEFSAII (Michael W. Deem and Ramdas Pophale) SiO2 
 PCOD9121649
Probable space group: C 2
;
_chemical_formula_sum "Si O2"
_cell_formula_units_Z 32
_cell_length_a 9.015789
_cell_length_b 22.984932
_cell_length_c 15.508350
_cell_angle_alpha 90.000000
_cell_angle_beta 149.678548
_cell_angle_gamma 90.000000
_cell_volume 1622.466165
_symmetry_space_group_name_H-M "C 2"
_symmetry_group_IT_number 5
_symmetry_cell_setting 'monoclinic'
loop_
_space_group_symop_operation_xyz
x,y,z
-x,y,-z
1/2+x,1/2+y,z
1/2-x,1/2+y,-z
loop_
_atom_site_type_symbol
_atom_site_label
_atom_site_fract_x
_atom_site_fract_y
_atom_site_fract_z
Si Si1 0.808460 0.410330 0.985506
Si Si2 0.152563 0.597043 0.315001
Si Si3 0.808673 0.240264 0.774860
Si Si4 0.807841 0.546171 0.985760
Si Si5 0.035855 0.727911 0.818324
Si Si6 0.682409 0.108683 0.674481
Si Si7 0.330636 0.328521 0.822385
Si Si8 0.822645 0.360254 0.677844
O O1 0.523193 0.371705 0.860601
O O2 0.738754 0.477968 0.939658
O O3 0.000000 0.389659 0.000000
O O4 0.006782 0.400324 0.169202
O O5 0.500000 0.588005 0.500000
O O6 0.000523 0.556083 0.168030
O O7 0.084941 0.662827 0.248823
O O8 0.989529 0.592064 0.324787
O O9 0.602795 0.249928 0.755136
O O10 0.714156 0.178760 0.687802
O O11 0.800192 0.295786 0.708953
O O12 0.144395 0.231353 0.975566
O O13 0.506675 0.581698 0.840035
O O14 0.000000 0.565517 0.000000
O O15 0.824159 0.768265 0.768119
O O16 0.500000 0.088905 0.500000
O O17 0.016012 0.353506 0.689375
O O18 0.500000 0.321335 0.000000
O O19 0.500000 0.382967 0.500000
#
# Coordination Sequence:
#
# PCOD9121649 Si02
#       8
#     4   4   4   4   4   4   4   4
#     4  10  22  43  64  84 113 159 205 245 302 369
#     4  11  24  40  61  93 128 164 208 252 305 366
#     4  10  19  36  60  88 125 161 196 244 304 366
#     4  11  24  42  66  90 117 164 211 257 315 361
#     4  10  19  35  60  88 120 164 201 241 302 364
#     4  11  23  41  63  93 127 163 204 254 307 369
#     4  10  20  35  59  88 116 156 197 240 299 359
#     4  11  23  37  59  93 123 152 197 251 303 355
#
# _framework density 19.72306
#
# number of rings (size 3 to 8) (size 9 to 14) (size 15 to 20)
#    0.000    1.500    3.750    2.250    0.000    8.000 
#    0.000    4.375    0.000    0.000    0.000    0.000 
#    0.000    0.000    0.000    0.000    0.000    0.000 
#
# Total GULP energy -89423.176262 kJ/mol
# GULP energy per Si atom -5588.948516 kJ/mol
# Density = 1.967817 g / cm^3
# Si number density = 19.723060 Si / 1000 Ang^3
#
#
#
# Elastic Constant Matrix: (Units=GPa)
#
#
# Indices 1 2 3 4 5 6 
#
# 1 126.8743 31.2633 23.0642 0.0006 9.1818 0.0005
# 2 31.2633 34.2350 -5.6441 0.0002 -4.1828 0.0001
# 3 23.0642 -5.6441 67.6453 0.0013 5.3519 0.0008
# 4 0.0006 0.0002 0.0013 3.5276 0.0007 -2.4133
# 5 9.1818 -4.1828 5.3519 0.0007 24.8788 0.0004
# 6 0.0005 0.0001 0.0008 -2.4133 0.0004 23.4503
#
#
#
# Elastic Compliance Matrix: (Units=1/GPa)
#
#
# Indices 1 2 3 4 5 6 
#
# 1 0.012296 -0.012710 -0.004807 0.000002 -0.005641 0.000000
# 2 -0.012710 0.043265 0.007118 -0.000006 0.010434 -0.000001
# 3 -0.004807 0.007118 0.017071 -0.000007 -0.000702 -0.000001
# 4 0.000002 -0.000006 -0.000007 0.304949 -0.000009 0.031383
# 5 -0.005641 0.010434 -0.000702 -0.000009 0.044182 -0.000002
# 6 0.000000 -0.000001 -0.000001 0.031383 -0.000002 0.045873
#
#
# Mechanical properties :
#
#
# Convention : Reuss Voigt Hill
#
# Bulk Modulus (GPa) = 19.29204 36.23571 27.76387
# Shear Modulus (GPa) = 9.88707 22.37606 16.13157
#
# Velocity S-wave (km/s) = 2.24139 3.37191 2.86300
# Velocity P-wave (km/s) = 4.06216 5.79412 5.00365
#
# Compressibility (1/GPa) = 0.05183485
#
# Stress axis : x y z
#
# Youngs Moduli (GPa) = 81.32903 23.11335 58.57802
#
# Poissons Ratio (x) = 0.29377 0.28156
# Poissons Ratio (y) = 1.03370 -0.41696
# Poissons Ratio (z) = 0.39091 -0.16452
#
# Static dielectric constant tensor:
#      x y z
#    x 1.683940 0.000000 -0.002980 
#    y 0.000000 1.671110 0.000000 
#    z -0.002980 0.000000 1.685380 
# 
# From -- ./inp_files/25641.got.cif
#   From: 2010.05.17/outbox.cif.g08.bks.cpg/sg5_13_cif.got.tgz:25641.got - 2010.06.03 18:56:24.
