data_PCOD9121423
_publ_section_title
;
Structure prediction by ZEFSAII (Michael W. Deem and Ramdas Pophale) SiO2 
 PCOD9121423
Probable space group: C 2
;
_chemical_formula_sum "Si O2"
_cell_formula_units_Z 26
_cell_length_a 13.763002
_cell_length_b 5.056168
_cell_length_c 16.446877
_cell_angle_alpha 90.000000
_cell_angle_beta 117.159867
_cell_angle_gamma 90.000000
_cell_volume 1018.308661
_symmetry_space_group_name_H-M "C 2"
_symmetry_group_IT_number 5
_symmetry_cell_setting 'monoclinic'
loop_
_space_group_symop_operation_xyz
x,y,z
-x,y,-z
1/2+x,1/2+y,z
1/2-x,1/2+y,-z
loop_
_atom_site_type_symbol
_atom_site_label
_atom_site_fract_x
_atom_site_fract_y
_atom_site_fract_z
Si Si1 0.285998 0.859450 0.204966
Si Si2 0.151032 0.267071 0.347941
Si Si3 0.281566 0.761512 0.386904
Si Si4 0.983691 0.072840 0.182439
Si Si5 0.000000 0.591879 0.500000
Si Si6 0.683266 0.438481 0.006760
Si Si7 0.024220 0.671245 0.679813
O O1 0.264908 0.729859 0.283163
O O2 0.380498 0.718839 0.186765
O O3 0.188046 0.893207 0.105061
O O4 0.347334 0.124389 0.257991
O O5 0.247042 0.473217 0.402394
O O6 0.045920 0.398573 0.350953
O O7 0.196888 0.981620 0.387681
O O8 0.096232 0.234109 0.236503
O O9 0.396408 0.897026 0.449464
O O10 0.005569 0.824510 0.249939
O O11 0.934145 0.999202 0.077023
O O12 0.003426 0.775896 0.581738
O O13 0.765172 0.682707 0.018515
#
# Coordination Sequence:
#
# PCOD9121423 Si02
#       7
#     4   4   4   4   2   4   4
#     4   9  21  37  65  96 131 170 220 277 309 374
#     4  11  24  43  69  89 135 174 209 262 337 393
#     4  11  25  44  66  95 130 172 215 270 329 386
#     4  10  20  40  69  96 132 174 221 265 324 388
#     4  10  26  44  70 100 126 164 228 276 326 384
#     4  10  19  33  63 100 128 170 223 268 316 374
#     4  10  20  44  66  97 130 172 214 275 319 388
#
# _framework density 25.532534999999999
#
# number of rings (size 3 to 8) (size 9 to 14) (size 15 to 20)
#    0.000    1.846    3.077    0.000    4.308    1.846 
#    5.538    0.769    3.385    0.000    0.000    0.000 
#    0.000    0.000    0.000    0.000    0.000    0.000 
#
# Total GULP energy -72541.164793 kJ/mol
# GULP energy per Si atom -5580.089599 kJ/mol
# Density = 2.547442 g / cm^3
# Si number density = 25.532535 Si / 1000 Ang^3
#
#
#
# Elastic Constant Matrix: (Units=GPa)
#
#
# Indices 1 2 3 4 5 6 
#
# 1 60.5707 7.3984 33.3400 0.0000 27.1180 0.0000
# 2 7.3984 97.2332 10.8176 0.0000 10.8164 0.0000
# 3 33.3400 10.8176 230.8163 0.0000 6.5154 0.0000
# 4 0.0000 0.0000 0.0000 16.5040 0.0000 9.8739
# 5 27.1180 10.8164 6.5154 0.0000 28.7963 0.0000
# 6 0.0000 0.0000 0.0000 9.8739 0.0000 28.5569
#
#
#
# Elastic Compliance Matrix: (Units=1/GPa)
#
#
# Indices 1 2 3 4 5 6 
#
# 1 0.031593 0.001286 -0.003794 0.000000 -0.029376 0.000000
# 2 0.001286 0.010821 -0.000547 0.000000 -0.005152 0.000000
# 3 -0.003794 -0.000547 0.004830 0.000000 0.002686 0.000000
# 4 0.000000 0.000000 0.000000 0.076394 0.000000 -0.026414
# 5 -0.029376 -0.005152 0.002686 0.000000 0.063718 0.000000
# 6 0.000000 0.000000 0.000000 -0.026414 0.000000 0.044151
#
#
# Mechanical properties :
#
#
# Convention : Reuss Voigt Hill
#
# Bulk Modulus (GPa) = 24.31165 54.63689 39.47427
# Shear Modulus (GPa) = 19.89416 37.24240 28.56828
#
# Velocity S-wave (km/s) = 2.79439 3.82334 3.34862
# Velocity P-wave (km/s) = 4.46699 6.39812 5.51769
#
# Compressibility (1/GPa) = 0.04113255
#
# Stress axis : x y z
#
# Youngs Moduli (GPa) = 31.65245 92.41553 207.02321
#
# Poissons Ratio (x) = -0.11886 0.78555
# Poissons Ratio (y) = -0.04071 0.11334
# Poissons Ratio (z) = 0.12010 0.05060
#
# Static dielectric constant tensor:
#      x y z
#    x 2.055930 0.000000 -0.045030 
#    y 0.000000 2.109590 0.000000 
#    z -0.045030 0.000000 2.060040 
# 
# From -- ./inp_files/61147.got.cif
#   From: 2010.05.17/outbox.cif.g08.bks.cpg/sg5_31_cif.got.tgz:61147.got - 2010.06.03 18:56:24.
