data_PCOD9121621
_publ_section_title
;
Structure prediction by ZEFSAII (Michael W. Deem and Ramdas Pophale) SiO2 
 PCOD9121621
Probable space group: C 2
;
_chemical_formula_sum "Si O2"
_cell_formula_units_Z 24
_cell_length_a 5.760942
_cell_length_b 14.089127
_cell_length_c 12.606001
_cell_angle_alpha 90.000000
_cell_angle_beta 85.249353
_cell_angle_gamma 90.000000
_cell_volume 1019.671700
_symmetry_space_group_name_H-M "C 2"
_symmetry_group_IT_number 5
_symmetry_cell_setting 'monoclinic'
loop_
_space_group_symop_operation_xyz
x,y,z
-x,y,-z
1/2+x,1/2+y,z
1/2-x,1/2+y,-z
loop_
_atom_site_type_symbol
_atom_site_label
_atom_site_fract_x
_atom_site_fract_y
_atom_site_fract_z
Si Si1 0.423039 0.464180 0.278258
Si Si2 0.316823 0.704462 0.416737
Si Si3 0.953847 0.251948 0.187791
Si Si4 0.000000 0.872373 0.500000
Si Si5 0.964774 0.787147 0.118828
Si Si6 0.425482 0.967985 0.274463
Si Si7 0.000000 0.531839 0.500000
O O1 0.400832 0.433855 0.404350
O O2 0.439779 0.366870 0.210102
O O3 0.676726 0.510826 0.251208
O O4 0.182699 0.511105 0.246565
O O5 0.500000 0.723698 0.500000
O O6 0.438082 0.698778 0.299732
O O7 0.188408 0.608069 0.451023
O O8 0.150778 0.795150 0.428066
O O9 0.709624 0.233839 0.135469
O O10 0.940996 0.364303 0.220999
O O11 0.210499 0.236112 0.128609
O O12 0.000000 0.829073 0.000000
O O13 0.410988 0.971209 0.403746
#
# Coordination Sequence:
#
# PCOD9121621 Si02
#       7
#     4   4   4   2   4   4   2
#     4  10  20  32  58  82 112 153 187 235 286 347
#     4  11  23  35  52  81 124 164 186 237 289 355
#     4  10  21  37  59  85 117 160 193 235 303 352
#     4  11  18  32  52  78 113 152 192 213 286 356
#     4  10  19  35  58  92 118 140 196 261 296 329
#     4  10  20  35  52  78 115 150 197 226 278 342
#     4  11  26  34  52  86 123 164 192 241 280 346
#
# _framework density 23.536988999999998
#
# number of rings (size 3 to 8) (size 9 to 14) (size 15 to 20)
#    0.000    1.667    3.333    3.500    5.833    0.000 
#    0.000    0.000    0.000    0.000    0.000   18.667 
#    0.000    0.000    0.000    0.000    0.000    0.000 
#
# Total GULP energy -66874.906661 kJ/mol
# GULP energy per Si atom -5572.908888 kJ/mol
# Density = 2.348342 g / cm^3
# Si number density = 23.536989 Si / 1000 Ang^3
#
#
#
# Elastic Constant Matrix: (Units=GPa)
#
#
# Indices 1 2 3 4 5 6 
#
# 1 235.1535 17.8071 18.9593 0.0000 -5.2923 0.0000
# 2 17.8071 71.9633 -7.9671 0.0000 -1.6592 0.0000
# 3 18.9593 -7.9671 93.4314 0.0000 -12.2560 0.0000
# 4 0.0000 0.0000 0.0000 7.1549 0.0000 6.1349
# 5 -5.2923 -1.6592 -12.2560 0.0000 24.8803 0.0000
# 6 0.0000 0.0000 0.0000 6.1349 0.0000 25.6757
#
#
#
# Elastic Compliance Matrix: (Units=1/GPa)
#
#
# Indices 1 2 3 4 5 6 
#
# 1 0.004428 -0.001192 -0.000948 0.000000 0.000395 0.000000
# 2 -0.001192 0.014411 0.001672 0.000000 0.001531 0.000000
# 3 -0.000948 0.001672 0.011788 0.000000 0.005716 0.000000
# 4 0.000000 0.000000 0.000000 0.175777 0.000000 -0.041999
# 5 0.000395 0.001531 0.005716 0.000000 0.043194 0.000000
# 6 0.000000 0.000000 0.000000 -0.041999 0.000000 0.048982
#
#
# Mechanical properties :
#
#
# Convention : Reuss Voigt Hill
#
# Bulk Modulus (GPa) = 33.68099 50.90520 42.29309
# Shear Modulus (GPa) = 16.15956 36.32545 26.24250
#
# Velocity S-wave (km/s) = 2.62307 3.93279 3.34271
# Velocity P-wave (km/s) = 4.84922 6.50363 5.73638
#
# Compressibility (1/GPa) = 0.02969034
#
# Stress axis : x y z
#
# Youngs Moduli (GPa) = 225.82888 69.39053 84.83300
#
# Poissons Ratio (x) = 0.08269 0.08045
# Poissons Ratio (y) = 0.26910 -0.14180
# Poissons Ratio (z) = 0.21416 -0.11599
#
# Static dielectric constant tensor:
#      x y z
#    x 1.985030 0.000000 -0.045990 
#    y 0.000000 1.889240 0.000000 
#    z -0.045990 0.000000 1.835290 
# 
# From -- ./inp_files/33522.got.cif
#   From: 2010.05.17/outbox.cif.g08.bks.cpg/sg5_17_cif.got.tgz:33522.got - 2010.06.03 18:56:24.
