data_PCOD9121866
_publ_section_title
;
Structure prediction by ZEFSAII (Michael W. Deem and Ramdas Pophale) SiO2 
 PCOD9121866
Probable space group: C 2
;
_chemical_formula_sum "Si O2"
_cell_formula_units_Z 32
_cell_length_a 11.489266
_cell_length_b 16.122573
_cell_length_c 17.533781
_cell_angle_alpha 90.000000
_cell_angle_beta 28.542447
_cell_angle_gamma 90.000000
_cell_volume 1551.876544
_symmetry_space_group_name_H-M "C 2"
_symmetry_group_IT_number 5
_symmetry_cell_setting 'monoclinic'
loop_
_space_group_symop_operation_xyz
x,y,z
-x,y,-z
1/2+x,1/2+y,z
1/2-x,1/2+y,-z
loop_
_atom_site_type_symbol
_atom_site_label
_atom_site_fract_x
_atom_site_fract_y
_atom_site_fract_z
Si Si1 0.417093 0.795590 0.684112
Si Si2 0.929395 0.855453 0.944472
Si Si3 0.915778 0.488912 0.911784
Si Si4 0.474909 0.552906 0.748589
Si Si5 0.661136 0.381858 0.644817
Si Si6 0.980409 0.235104 0.216754
Si Si7 0.808210 0.334113 0.179318
Si Si8 0.682512 0.616577 0.324314
O O1 0.589755 0.842278 0.526496
O O2 0.575390 0.773619 0.667880
O O3 0.310365 0.711757 0.707780
O O4 0.179588 0.846541 0.848237
O O5 0.054551 0.856697 0.787853
O O6 0.772008 0.940687 0.035818
O O7 0.748422 0.775984 0.048299
O O8 0.100996 0.416825 0.829816
O O9 0.066153 0.569662 0.799634
O O10 0.762557 0.514098 0.074477
O O11 0.675864 0.481556 0.636707
O O12 0.522926 0.637261 0.766886
O O13 0.419422 0.572410 0.692918
O O14 0.452818 0.352034 0.705935
O O15 0.821314 0.263826 0.236759
O O16 0.000000 0.317157 0.000000
O O17 0.500000 0.610493 0.500000
#
# Coordination Sequence:
#
# PCOD9121866 Si02
#       8
#     4   4   4   4   4   4   4   4
#     4  11  24  39  58  95 128 170 212 264 327 396
#     4  10  20  37  62  92 121 166 217 259 316 392
#     4  10  19  36  65  92 118 164 219 271 315 377
#     4  10  20  36  61  93 122 167 212 266 317 382
#     4  11  21  38  66  89 131 175 214 261 330 393
#     4  10  22  37  64  96 125 161 221 274 319 371
#     4  11  18  39  66  96 119 168 225 266 315 387
#     4  11  21  35  58  92 126 157 214 277 318 366
#
# _framework density 20.620196
#
# number of rings (size 3 to 8) (size 9 to 14) (size 15 to 20)
#    0.000    1.500    5.000    2.625    0.000    4.500 
#    0.000    0.000   22.000    9.000    0.000    0.000 
#    0.000    0.000    0.000    0.000    0.000    0.000 
#
# Total GULP energy -89274.662387 kJ/mol
# GULP energy per Si atom -5579.666399 kJ/mol
# Density = 2.057326 g / cm^3
# Si number density = 20.620196 Si / 1000 Ang^3
#
#
#
# Elastic Constant Matrix: (Units=GPa)
#
#
# Indices 1 2 3 4 5 6 
#
# 1 55.2030 32.2953 -9.7883 0.0096 -5.5807 -0.0051
# 2 32.2953 113.6700 28.0293 0.0116 14.2165 -0.0030
# 3 -9.7883 28.0293 73.4159 0.0254 6.3952 -0.0144
# 4 0.0096 0.0116 0.0254 32.9559 -0.0185 7.9860
# 5 -5.5807 14.2165 6.3952 -0.0185 16.9602 0.0063
# 6 -0.0051 -0.0030 -0.0144 7.9860 0.0063 32.5885
#
#
#
# Elastic Compliance Matrix: (Units=1/GPa)
#
#
# Indices 1 2 3 4 5 6 
#
# 1 0.027709 -0.011559 0.006689 -0.000001 0.016284 0.000003
# 2 -0.011559 0.015402 -0.006168 -0.000006 -0.014388 0.000001
# 3 0.006689 -0.006168 0.016777 -0.000015 0.001045 0.000011
# 4 -0.000001 -0.000006 -0.000015 0.032259 0.000048 -0.007905
# 5 0.016284 -0.014388 0.001045 0.000048 0.075986 -0.000025
# 6 0.000003 0.000001 0.000011 -0.007905 -0.000025 0.032623
#
#
# Mechanical properties :
#
#
# Convention : Reuss Voigt Hill
#
# Bulk Modulus (GPa) = 26.44649 38.15127 32.29888
# Shear Modulus (GPa) = 21.23723 29.28441 25.26082
#
# Velocity S-wave (km/s) = 3.21272 3.77262 3.50387
# Velocity P-wave (km/s) = 5.15902 6.12527 5.66279
#
# Compressibility (1/GPa) = 0.03781220
#
# Stress axis : x y z
#
# Youngs Moduli (GPa) = 36.08891 64.92778 59.60669
#
# Poissons Ratio (x) = 0.75048 -0.39870
# Poissons Ratio (y) = 0.41714 0.36765
# Poissons Ratio (z) = -0.24139 0.40047
#
# Static dielectric constant tensor:
#      x y z
#    x 1.828920 -0.000010 0.006260 
#    y -0.000010 1.761170 0.000000 
#    z 0.006260 0.000000 1.730400 
# 
# From -- ./inp_files/60673.got.cif
#   From: 2010.05.17/outbox.cif.g08.bks.cpg/sg5_31_cif.got.tgz:60673.got - 2010.06.03 18:56:24.
