data_PCOD9121986
_publ_section_title
;
Structure prediction by ZEFSAII (Michael W. Deem and Ramdas Pophale) SiO2 
 PCOD9121986
Probable space group: C 2
;
_chemical_formula_sum "Si O2"
_cell_formula_units_Z 28
_cell_length_a 15.382158
_cell_length_b 12.291976
_cell_length_c 7.497351
_cell_angle_alpha 90.000000
_cell_angle_beta 112.456405
_cell_angle_gamma 90.000000
_cell_volume 1310.083233
_symmetry_space_group_name_H-M "C 2"
_symmetry_group_IT_number 5
_symmetry_cell_setting 'monoclinic'
loop_
_space_group_symop_operation_xyz
x,y,z
-x,y,-z
1/2+x,1/2+y,z
1/2-x,1/2+y,-z
loop_
_atom_site_type_symbol
_atom_site_label
_atom_site_fract_x
_atom_site_fract_y
_atom_site_fract_z
Si Si1 0.185422 0.092900 0.251296
Si Si2 0.500000 0.489348 0.000000
Si Si3 0.285300 0.687452 0.364302
Si Si4 0.796507 0.794529 0.381202
Si Si5 0.579956 0.313281 0.835249
Si Si6 0.178388 0.491434 0.158350
Si Si7 0.278359 0.890709 0.169591
Si Si8 0.500000 0.118558 0.000000
O O1 0.091448 0.063247 0.076200
O O2 0.160610 0.124984 0.435758
O O3 0.241774 0.198536 0.231304
O O4 0.252245 0.988467 0.282663
O O5 0.492763 0.406992 0.162005
O O6 0.201854 0.746013 0.417897
O O7 0.247232 0.595477 0.204931
O O8 0.329664 0.788914 0.299506
O O9 0.892100 0.812589 0.350025
O O10 0.730205 0.899914 0.315939
O O11 0.544772 0.199183 0.887294
O O12 0.678105 0.346525 0.012567
O O13 0.167475 0.440890 0.954634
O O14 0.080354 0.541179 0.144226
#
# Coordination Sequence:
#
# PCOD9121986 Si02
#       8
#     4   2   4   4   4   4   4   2
#     4   9  20  34  63  87 126 158 203 256 313 352
#     4   9  18  35  62  96 124 161 205 254 306 362
#     4  10  21  37  64  87 127 157 218 256 299 369
#     4   9  21  37  61  90 118 166 206 243 311 371
#     4   9  18  36  61  89 118 159 216 249 297 361
#     4  11  22  37  64  90 120 163 214 252 310 368
#     4  10  19  37  64  90 114 165 219 248 290 387
#     4  11  20  35  62  92 124 153 207 264 306 354
#
# _framework density 21.372689000000001
#
# number of rings (size 3 to 8) (size 9 to 14) (size 15 to 20)
#    0.857    1.429    1.429    1.714    2.000    0.571 
#    0.000    0.714    3.143    7.714    0.000    0.000 
#    0.000    0.000    0.000    0.000    0.000    0.000 
#
# Total GULP energy -78032.710059 kJ/mol
# GULP energy per Si atom -5573.765004 kJ/mol
# Density = 2.132404 g / cm^3
# Si number density = 21.372689 Si / 1000 Ang^3
#
#
#
# Elastic Constant Matrix: (Units=GPa)
#
#
# Indices 1 2 3 4 5 6 
#
# 1 50.3477 20.2367 -2.3793 0.0000 -1.0049 0.0000
# 2 20.2367 137.4609 23.6248 0.0000 3.6351 0.0000
# 3 -2.3793 23.6248 49.1263 0.0000 -19.2414 0.0000
# 4 0.0000 0.0000 0.0000 34.7228 0.0000 -0.4084
# 5 -1.0049 3.6351 -19.2414 0.0000 21.0190 0.0000
# 6 0.0000 0.0000 0.0000 -0.4084 0.0000 29.9462
#
#
#
# Elastic Compliance Matrix: (Units=1/GPa)
#
#
# Indices 1 2 3 4 5 6 
#
# 1 0.022119 -0.004516 0.006179 0.000000 0.007495 0.000000
# 2 -0.004516 0.009711 -0.008779 0.000000 -0.009932 0.000000
# 3 0.006179 -0.008779 0.039889 0.000000 0.038329 0.000000
# 4 0.000000 0.000000 0.000000 0.028804 0.000000 0.000393
# 5 0.007495 -0.009932 0.038329 0.000000 0.084739 0.000000
# 6 0.000000 0.000000 0.000000 0.000393 0.000000 0.033399
#
#
# Mechanical properties :
#
#
# Convention : Reuss Voigt Hill
#
# Bulk Modulus (GPa) = 17.39555 35.54437 26.46996
# Shear Modulus (GPa) = 19.83687 30.16778 25.00233
#
# Velocity S-wave (km/s) = 3.04985 3.76108 3.42398
# Velocity P-wave (km/s) = 4.53419 5.96052 5.29560
#
# Compressibility (1/GPa) = 0.05748595
#
# Stress axis : x y z
#
# Youngs Moduli (GPa) = 45.21046 102.97507 25.06953
#
# Poissons Ratio (x) = 0.46507 -0.15490
# Poissons Ratio (y) = 0.20419 0.22008
# Poissons Ratio (z) = -0.27934 0.90399
#
# Static dielectric constant tensor:
#      x y z
#    x 1.766810 0.000000 -0.009410 
#    y 0.000000 1.766320 0.000000 
#    z -0.009410 0.000000 1.824130 
# 
# From -- ./inp_files/27084.got.cif
#   From: 2010.05.17/outbox.cif.g08.bks.cpg/sg5_14_cif.got.tgz:27084.got - 2010.06.03 18:56:24.
