data_PCOD9121609
_publ_section_title
;
Structure prediction by ZEFSAII (Michael W. Deem and Ramdas Pophale) SiO2 
 PCOD9121609
Probable space group: C 2
;
_chemical_formula_sum "Si O2"
_cell_formula_units_Z 28
_cell_length_a 9.156970
_cell_length_b 33.737192
_cell_length_c 5.132553
_cell_angle_alpha 90.000000
_cell_angle_beta 119.775058
_cell_angle_gamma 90.000000
_cell_volume 1376.273484
_symmetry_space_group_name_H-M "C 2"
_symmetry_group_IT_number 5
_symmetry_cell_setting 'monoclinic'
loop_
_space_group_symop_operation_xyz
x,y,z
-x,y,-z
1/2+x,1/2+y,z
1/2-x,1/2+y,-z
loop_
_atom_site_type_symbol
_atom_site_label
_atom_site_fract_x
_atom_site_fract_y
_atom_site_fract_z
Si Si1 0.705388 0.703800 0.661219
Si Si2 0.119141 0.914882 0.857799
Si Si3 0.298387 0.748137 0.844044
Si Si4 0.684145 0.070531 0.795186
Si Si5 0.383891 0.983992 0.147621
Si Si6 0.305736 0.613959 0.410024
Si Si7 0.882000 0.825658 0.143952
O O1 0.500000 0.704962 0.500000
O O2 0.763864 0.735396 0.496512
O O3 0.753077 0.659505 0.621936
O O4 0.763830 0.716221 0.999213
O O5 0.190769 0.870076 0.948149
O O6 0.000000 0.916997 0.500000
O O7 0.262825 0.947638 0.976814
O O8 0.000000 0.921798 0.000000
O O9 0.246854 0.790659 0.909955
O O10 0.500000 0.746579 0.000000
O O11 0.500000 0.072868 0.500000
O O12 0.795708 0.091468 0.674875
O O13 0.717102 0.024054 0.871700
O O14 0.704340 0.092274 0.089122
O O15 0.500000 0.974571 0.500000
O O16 0.500000 0.992864 0.000000
O O17 0.500000 0.614676 0.500000
O O18 0.000000 0.826934 0.500000
O O19 0.000000 0.817678 0.000000
#
# Coordination Sequence:
#
# PCOD9121609 Si02
#       7
#     4   4   4   4   4   4   4
#     4   9  19  35  56  82 113 144 188 244 286 319
#     4  10  22  40  62  88 118 153 190 237 288 340
#     4  10  19  35  58  82 109 149 192 232 278 338
#     4  11  23  40  58  84 122 154 184 237 300 344
#     4  11  23  41  62  86 118 155 191 236 289 343
#     4  11  22  39  62  86 112 153 201 241 281 341
#     4  10  21  38  57  82 119 150 180 231 291 337
#
# _framework density 20.344795000000001
#
# number of rings (size 3 to 8) (size 9 to 14) (size 15 to 20)
#    0.000    1.714    0.000    5.143    0.000    4.571 
#    0.000    9.286    0.000    0.000    0.000    0.000 
#    0.000    0.000    0.000    0.000    0.000    0.000 
#
# Total GULP energy -78203.552975 kJ/mol
# GULP energy per Si atom -5585.968070 kJ/mol
# Density = 2.029849 g / cm^3
# Si number density = 20.344795 Si / 1000 Ang^3
#
#
#
# Elastic Constant Matrix: (Units=GPa)
#
#
# Indices 1 2 3 4 5 6 
#
# 1 68.2292 58.5404 22.4962 0.0000 -34.4284 0.0000
# 2 58.5404 152.6517 27.1969 0.0000 -14.3733 0.0000
# 3 22.4962 27.1969 87.7138 0.0000 -30.8080 0.0000
# 4 0.0000 0.0000 0.0000 42.7755 0.0000 -1.3201
# 5 -34.4284 -14.3733 -30.8080 0.0000 35.0189 0.0000
# 6 0.0000 0.0000 0.0000 -1.3201 0.0000 34.4254
#
#
#
# Elastic Compliance Matrix: (Units=1/GPa)
#
#
# Indices 1 2 3 4 5 6 
#
# 1 0.054264 -0.017530 0.011185 0.000000 0.055994 0.000000
# 2 -0.017530 0.012644 -0.005289 0.000000 -0.016698 0.000000
# 3 0.011185 -0.005289 0.019207 0.000000 0.025723 0.000000
# 4 0.000000 0.000000 0.000000 0.023406 0.000000 0.000898
# 5 0.055994 -0.016698 0.025723 0.000000 0.099381 0.000000
# 6 0.000000 0.000000 0.000000 0.000898 0.000000 0.029083
#
#
# Mechanical properties :
#
#
# Convention : Reuss Voigt Hill
#
# Bulk Modulus (GPa) = 15.91210 58.34022 37.12616
# Shear Modulus (GPa) = 17.71788 35.80137 26.75963
#
# Velocity S-wave (km/s) = 2.95427 4.19947 3.63065
# Velocity P-wave (km/s) = 4.41306 7.22856 5.98862
#
# Compressibility (1/GPa) = 0.06284527
#
# Stress axis : x y z
#
# Youngs Moduli (GPa) = 18.42852 79.09144 52.06510
#
# Poissons Ratio (x) = 1.38649 -0.58235
# Poissons Ratio (y) = 0.32305 0.27539
# Poissons Ratio (z) = -0.20612 0.41834
#
# Static dielectric constant tensor:
#      x y z
#    x 1.714760 0.000000 0.005570 
#    y 0.000000 1.731880 0.000000 
#    z 0.005570 0.000000 1.693760 
# 
# From -- ./inp_files/3868.got.cif
#   From: 2010.05.17/outbox.cif.g08.bks.cpg/sg5_2_cif.got.tgz:3868.got - 2010.06.03 18:56:24.
