data_PCOD9121208
_publ_section_title
;
Structure prediction by ZEFSAII (Michael W. Deem and Ramdas Pophale) SiO2 
 PCOD9121208
Probable space group: C 2
;
_chemical_formula_sum "Si O2"
_cell_formula_units_Z 30
_cell_length_a 11.088199
_cell_length_b 16.701323
_cell_length_c 7.921308
_cell_angle_alpha 90.000000
_cell_angle_beta 106.972083
_cell_angle_gamma 90.000000
_cell_volume 1403.038993
_symmetry_space_group_name_H-M "C 2"
_symmetry_group_IT_number 5
_symmetry_cell_setting 'monoclinic'
loop_
_space_group_symop_operation_xyz
x,y,z
-x,y,-z
1/2+x,1/2+y,z
1/2-x,1/2+y,-z
loop_
_atom_site_type_symbol
_atom_site_label
_atom_site_fract_x
_atom_site_fract_y
_atom_site_fract_z
Si Si1 0.350887 0.220880 0.579585
Si Si2 0.145517 0.156822 0.119536
Si Si3 0.622461 0.038480 0.425905
Si Si4 0.897441 0.266082 0.573640
Si Si5 0.725271 0.475815 0.227237
Si Si6 0.114497 0.753673 0.805845
Si Si7 0.483681 0.913680 0.181979
Si Si8 0.500000 0.379344 0.000000
O O1 0.321245 0.126471 0.565145
O O2 0.231479 0.273359 0.585004
O O3 0.471264 0.220530 0.751108
O O4 0.373815 0.254010 0.396329
O O5 0.131061 0.207083 0.285287
O O6 0.262504 0.205413 0.079987
O O7 0.198984 0.067344 0.159685
O O8 0.000000 0.153833 0.000000
O O9 0.500000 0.046683 0.500000
O O10 0.722626 0.982958 0.561610
O O11 0.567781 0.993769 0.241435
O O12 0.000000 0.225361 0.500000
O O13 0.958104 0.347452 0.668843
O O14 0.840854 0.436453 0.170409
O O15 0.595017 0.430360 0.152550
O O16 0.092788 0.831397 0.910549
O O17 0.500000 0.882545 0.000000
#
# Coordination Sequence:
#
# PCOD9121208 Si02
#       8
#     4   4   4   4   4   4   4   2
#     4  10  20  43  71  93 134 182 236 278 351 410
#     4  11  23  46  71  92 145 190 231 289 357 412
#     4  10  18  43  71  93 128 181 227 281 342 419
#     4  11  24  41  71 105 132 184 237 287 341 428
#     4  11  23  46  66  99 141 187 227 289 358 412
#     4  10  22  41  66  98 131 185 227 287 340 419
#     4  11  26  43  72 105 141 180 235 291 356 419
#     4  12  28  38  66 106 146 178 230 294 348 414
#
# _framework density 21.382155999999998
#
# number of rings (size 3 to 8) (size 9 to 14) (size 15 to 20)
#    0.000    1.333    4.667    2.400    9.333    0.000 
#    7.200    0.000    2.933    0.000    0.000    0.000 
#    0.000    0.000    0.000    0.000    0.000    0.000 
#
# Total GULP energy -83538.738778 kJ/mol
# GULP energy per Si atom -5569.249252 kJ/mol
# Density = 2.133349 g / cm^3
# Si number density = 21.382156 Si / 1000 Ang^3
#
#
#
# Elastic Constant Matrix: (Units=GPa)
#
#
# Indices 1 2 3 4 5 6 
#
# 1 131.1232 53.1965 34.0296 0.0000 42.0554 0.0000
# 2 53.1965 93.1092 16.2743 0.0000 10.6191 0.0000
# 3 34.0296 16.2743 51.0631 0.0000 26.9622 0.0000
# 4 0.0000 0.0000 0.0000 24.2248 0.0000 10.5766
# 5 42.0554 10.6191 26.9622 0.0000 40.8219 0.0000
# 6 0.0000 0.0000 0.0000 10.5766 0.0000 31.6278
#
#
#
# Elastic Compliance Matrix: (Units=1/GPa)
#
#
# Indices 1 2 3 4 5 6 
#
# 1 0.014723 -0.006797 -0.000876 0.000000 -0.012822 0.000000
# 2 -0.006797 0.014531 -0.002769 0.000000 0.005051 0.000000
# 3 -0.000876 -0.002769 0.031006 0.000000 -0.018857 0.000000
# 4 0.000000 0.000000 0.000000 0.048337 0.000000 -0.016164
# 5 -0.012822 0.005051 -0.018857 0.000000 0.048847 0.000000
# 6 0.000000 0.000000 0.000000 -0.016164 0.000000 0.037023
#
#
# Mechanical properties :
#
#
# Convention : Reuss Voigt Hill
#
# Bulk Modulus (GPa) = 25.39423 53.58848 39.49136
# Shear Modulus (GPa) = 21.88410 30.78791 26.33601
#
# Velocity S-wave (km/s) = 3.20265 3.79870 3.51334
# Velocity P-wave (km/s) = 5.05748 6.66009 5.91333
#
# Compressibility (1/GPa) = 0.03937903
#
# Stress axis : x y z
#
# Youngs Moduli (GPa) = 67.91875 68.81780 32.25157
#
# Poissons Ratio (x) = 0.46773 0.02824
# Poissons Ratio (y) = 0.46162 0.08929
# Poissons Ratio (z) = 0.05948 0.19053
#
# Static dielectric constant tensor:
#      x y z
#    x 1.899500 0.000000 0.053260 
#    y 0.000000 1.799340 0.000000 
#    z 0.053260 0.000000 1.857670 
# 
# From -- ./inp_files/20705.got.cif
#   From: 2010.05.17/outbox.cif.g08.bks.cpg/sg5_11_cif.got.tgz:20705.got - 2010.06.03 18:56:24.
