data_PCOD9121644
_publ_section_title
;
Structure prediction by ZEFSAII (Michael W. Deem and Ramdas Pophale) SiO2 
 PCOD9121644
Probable space group: C 2
;
_chemical_formula_sum "Si O2"
_cell_formula_units_Z 28
_cell_length_a 8.854426
_cell_length_b 18.837217
_cell_length_c 8.531658
_cell_angle_alpha 90.000000
_cell_angle_beta 86.677485
_cell_angle_gamma 90.000000
_cell_volume 1420.626724
_symmetry_space_group_name_H-M "C 2"
_symmetry_group_IT_number 5
_symmetry_cell_setting 'monoclinic'
loop_
_space_group_symop_operation_xyz
x,y,z
-x,y,-z
1/2+x,1/2+y,z
1/2-x,1/2+y,-z
loop_
_atom_site_type_symbol
_atom_site_label
_atom_site_fract_x
_atom_site_fract_y
_atom_site_fract_z
Si Si1 0.405709 0.880630 0.359900
Si Si2 0.825885 0.130872 0.552643
Si Si3 0.170258 0.774790 0.538992
Si Si4 0.116295 0.989521 0.625224
Si Si5 0.219966 0.362190 0.206835
Si Si6 0.600930 0.574419 0.128464
Si Si7 0.172431 0.455283 0.932697
O O1 0.500000 0.911975 0.500000
O O2 0.288673 0.823659 0.434713
O O3 0.541934 0.848060 0.247577
O O4 0.326924 0.936624 0.251094
O O5 0.716664 0.193606 0.510500
O O6 0.800979 0.055898 0.465124
O O7 0.824801 0.121110 0.740065
O O8 0.000000 0.150452 0.500000
O O9 0.192881 0.797259 0.719664
O O10 0.000000 0.788086 0.500000
O O11 0.000000 0.960436 0.500000
O O12 0.012817 0.023222 0.767496
O O13 0.221287 0.929986 0.694315
O O14 0.237009 0.388796 0.028506
O O15 0.727742 0.524372 0.045288
O O16 0.500000 0.610525 0.000000
O O17 0.000000 0.466353 0.000000
#
# Coordination Sequence:
#
# PCOD9121644 Si02
#       7
#     4   4   4   4   4   4   4
#     4   9  21  35  58  82 114 156 186 235 291 337
#     4   9  21  40  58  82 119 153 199 232 291 349
#     4  11  23  40  58  85 116 155 201 244 284 341
#     4   9  19  33  59  91 114 149 196 238 284 344
#     4  10  19  36  60  87 119 147 193 234 300 340
#     4  10  19  35  60  86 117 156 186 238 297 336
#     4  10  21  36  55  91 121 147 188 242 291 347
#
# _framework density 19.709609
#
# number of rings (size 3 to 8) (size 9 to 14) (size 15 to 20)
#    0.000    2.571    1.429    1.714   10.000    0.000 
#    5.143    6.429    0.000    0.000    0.000    0.000 
#    0.000    0.000    0.000    0.000    0.000    0.000 
#
# Total GULP energy -78035.055115 kJ/mol
# GULP energy per Si atom -5573.932508 kJ/mol
# Density = 1.966475 g / cm^3
# Si number density = 19.709609 Si / 1000 Ang^3
#
#
#
# Elastic Constant Matrix: (Units=GPa)
#
#
# Indices 1 2 3 4 5 6 
#
# 1 65.1574 31.3611 21.0294 0.0000 10.5672 0.0000
# 2 31.3611 66.5210 14.1871 0.0000 2.4303 0.0000
# 3 21.0294 14.1871 75.1574 0.0000 7.8996 0.0000
# 4 0.0000 0.0000 0.0000 18.9152 0.0000 6.0476
# 5 10.5672 2.4303 7.8996 0.0000 23.6861 0.0000
# 6 0.0000 0.0000 0.0000 6.0476 0.0000 24.4705
#
#
#
# Elastic Compliance Matrix: (Units=1/GPa)
#
#
# Indices 1 2 3 4 5 6 
#
# 1 0.022346 -0.009473 -0.003646 0.000000 -0.007781 0.000000
# 2 -0.009473 0.019689 -0.001345 0.000000 0.002655 0.000000
# 3 -0.003646 -0.001345 0.014917 0.000000 -0.003210 0.000000
# 4 0.000000 0.000000 0.000000 0.057403 0.000000 -0.014187
# 5 -0.007781 0.002655 -0.003210 0.000000 0.046488 0.000000
# 6 0.000000 0.000000 0.000000 -0.014187 0.000000 0.044372
#
#
# Mechanical properties :
#
#
# Convention : Reuss Voigt Hill
#
# Bulk Modulus (GPa) = 35.68524 37.77676 36.73100
# Shear Modulus (GPa) = 20.53522 22.76491 21.65006
#
# Velocity S-wave (km/s) = 3.23133 3.40224 3.31789
# Velocity P-wave (km/s) = 5.66276 5.88574 5.77532
#
# Compressibility (1/GPa) = 0.02802279
#
# Stress axis : x y z
#
# Youngs Moduli (GPa) = 44.75143 50.79071 67.03760
#
# Poissons Ratio (x) = 0.48113 0.24445
# Poissons Ratio (y) = 0.42392 0.09017
# Poissons Ratio (z) = 0.16318 0.06831
#
# Static dielectric constant tensor:
#      x y z
#    x 1.699600 0.000000 0.003430 
#    y 0.000000 1.688020 0.000000 
#    z 0.003430 0.000000 1.756850 
# 
# From -- ./inp_files/16513.got.cif
#   From: 2010.05.17/outbox.cif.g08.bks.cpg/sg5_9_cif.got.tgz:16513.got - 2010.06.03 18:56:24.
