data_PCOD9121309
_publ_section_title
;
Structure prediction by ZEFSAII (Michael W. Deem and Ramdas Pophale) SiO2 
 PCOD9121309
Probable space group: C 2
;
_chemical_formula_sum "Si O2"
_cell_formula_units_Z 24
_cell_length_a 12.592896
_cell_length_b 14.596431
_cell_length_c 5.551906
_cell_angle_alpha 90.000000
_cell_angle_beta 93.651947
_cell_angle_gamma 90.000000
_cell_volume 1018.431023
_symmetry_space_group_name_H-M "C 2"
_symmetry_group_IT_number 5
_symmetry_cell_setting 'monoclinic'
loop_
_space_group_symop_operation_xyz
x,y,z
-x,y,-z
1/2+x,1/2+y,z
1/2-x,1/2+y,-z
loop_
_atom_site_type_symbol
_atom_site_label
_atom_site_fract_x
_atom_site_fract_y
_atom_site_fract_z
Si Si1 0.500000 0.963380 0.500000
Si Si2 0.694971 0.850564 0.395801
Si Si3 0.619427 0.504261 0.542763
Si Si4 0.583239 0.107963 0.828047
Si Si5 0.264415 0.338376 0.908876
Si Si6 0.200017 0.051345 0.051577
Si Si7 0.000000 0.778893 0.000000
O O1 0.579009 0.897187 0.365922
O O2 0.584590 0.038100 0.611762
O O3 0.709246 0.802550 0.657890
O O4 0.791962 0.924606 0.428204
O O5 0.717664 0.799163 0.150561
O O6 0.500000 0.466719 0.500000
O O7 0.644300 0.561224 0.303176
O O8 0.629635 0.554834 0.801542
O O9 0.697929 0.115796 0.960637
O O10 0.500000 0.061835 0.000000
O O11 0.532986 0.208039 0.791702
O O12 0.248396 0.448371 0.928865
O O13 0.392674 0.330224 0.920830
#
# Coordination Sequence:
#
# PCOD9121309 Si02
#       7
#     2   4   4   4   4   4   2
#     4  12  20  40  64 100 128 176 228 280 326 382
#     4  10  23  33  65  86 128 165 224 274 308 386
#     4  10  19  32  53  90 115 162 201 278 308 364
#     4  10  22  38  59  97 129 173 207 277 332 384
#     4  10  21  40  54  97 119 174 206 266 331 384
#     4  10  20  35  57  86 124 162 220 256 312 384
#     4  10  26  38  68  96 146 168 208 286 348 394
#
# _framework density 23.565660000000001
#
# number of rings (size 3 to 8) (size 9 to 14) (size 15 to 20)
#    0.500    1.333    3.333    2.500    9.333    1.333 
#    0.000    0.000    0.000    0.000   13.000    0.000 
#    0.000    0.000    0.000    0.000    0.000    0.000 
#
# Total GULP energy -66852.772707 kJ/mol
# GULP energy per Si atom -5571.064392 kJ/mol
# Density = 2.351202 g / cm^3
# Si number density = 23.565660 Si / 1000 Ang^3
#
#
#
# Elastic Constant Matrix: (Units=GPa)
#
#
# Indices 1 2 3 4 5 6 
#
# 1 115.8721 30.7953 16.1805 0.0000 0.3554 0.0000
# 2 30.7953 39.7367 10.0487 0.0000 -3.3749 0.0000
# 3 16.1805 10.0487 180.2092 0.0000 4.2137 0.0000
# 4 0.0000 0.0000 0.0000 50.5152 0.0000 21.7063
# 5 0.3554 -3.3749 4.2137 0.0000 30.8877 0.0000
# 6 0.0000 0.0000 0.0000 21.7063 0.0000 42.9971
#
#
#
# Elastic Compliance Matrix: (Units=1/GPa)
#
#
# Indices 1 2 3 4 5 6 
#
# 1 0.010945 -0.008442 -0.000489 0.000000 -0.000982 0.000000
# 2 -0.008442 0.032316 -0.001132 0.000000 0.003783 0.000000
# 3 -0.000489 -0.001132 0.005677 0.000000 -0.000893 0.000000
# 4 0.000000 0.000000 0.000000 0.025280 0.000000 -0.012762
# 5 -0.000982 0.003783 -0.000893 0.000000 0.032922 0.000000
# 6 0.000000 0.000000 0.000000 -0.012762 0.000000 0.029700
#
#
# Mechanical properties :
#
#
# Convention : Reuss Voigt Hill
#
# Bulk Modulus (GPa) = 34.70909 49.98524 42.34716
# Shear Modulus (GPa) = 30.01744 43.46624 36.74184
#
# Velocity S-wave (km/s) = 3.57288 4.29939 3.95286
# Velocity P-wave (km/s) = 5.63748 6.77521 6.23236
#
# Compressibility (1/GPa) = 0.02881090
#
# Stress axis : x y z
#
# Youngs Moduli (GPa) = 91.36490 30.94478 176.14839
#
# Poissons Ratio (x) = 0.26123 0.08614
# Poissons Ratio (y) = 0.77130 0.19948
# Poissons Ratio (z) = 0.04468 0.03504
#
# Static dielectric constant tensor:
#      x y z
#    x 1.773870 0.000000 -0.349170 
#    y 0.000000 1.880460 0.000000 
#    z -0.349170 0.000000 0.417620 
# 
# From -- ./inp_files/5182.got.cif
#   From: 2010.05.17/outbox.cif.g08.bks.cpg/sg5_3_cif.got.tgz:5182.got - 2010.06.03 18:56:24.
