data_PCOD9121096
_publ_section_title
;
Structure prediction by ZEFSAII (Michael W. Deem and Ramdas Pophale) SiO2 
 PCOD9121096
Probable space group: C 2
;
_chemical_formula_sum "Si O2"
_cell_formula_units_Z 26
_cell_length_a 9.162848
_cell_length_b 10.531230
_cell_length_c 11.850912
_cell_angle_alpha 90.000000
_cell_angle_beta 57.475444
_cell_angle_gamma 90.000000
_cell_volume 964.210619
_symmetry_space_group_name_H-M "C 2"
_symmetry_group_IT_number 5
_symmetry_cell_setting 'monoclinic'
loop_
_space_group_symop_operation_xyz
x,y,z
-x,y,-z
1/2+x,1/2+y,z
1/2-x,1/2+y,-z
loop_
_atom_site_type_symbol
_atom_site_label
_atom_site_fract_x
_atom_site_fract_y
_atom_site_fract_z
Si Si1 0.405920 0.214760 0.900725
Si Si2 0.167490 0.586129 0.488214
Si Si3 0.162114 0.362509 0.853789
Si Si4 0.615259 0.474501 0.806417
Si Si5 0.500000 0.680784 0.500000
Si Si6 0.031281 0.462158 0.241546
Si Si7 0.344311 0.625317 0.806869
O O1 0.261418 0.245839 0.865233
O O2 0.516654 0.342062 0.849732
O O3 0.687804 0.187747 0.941975
O O4 0.501719 0.090336 0.816432
O O5 0.276091 0.509977 0.350392
O O6 0.311770 0.645685 0.512821
O O7 0.000000 0.661811 0.500000
O O8 0.060528 0.483083 0.602903
O O9 0.292225 0.481429 0.789482
O O10 0.067055 0.346571 0.775124
O O11 0.000000 0.396906 0.000000
O O12 0.762736 0.459775 0.839388
O O13 0.476015 0.586957 0.854993
O O14 0.404988 0.696693 0.666727
#
# Coordination Sequence:
#
# PCOD9121096 Si02
#       7
#     4   4   4   4   2   4   4
#     4  11  25  45  73 106 149 197 262 303 389 463
#     4   9  19  40  75 105 153 198 250 320 385 454
#     4  11  23  45  66 109 143 191 250 309 376 449
#     4   9  23  45  71 108 150 200 248 320 380 448
#     4  10  18  38  78 104 146 210 248 310 406 458
#     4  11  22  46  74 105 154 195 248 321 380 453
#     4  10  21  43  72 107 149 196 253 315 384 458
#
# _framework density 26.965060999999999
#
# number of rings (size 3 to 8) (size 9 to 14) (size 15 to 20)
#    0.000    1.846    3.077    0.000    2.154    0.000 
#    5.538    4.615    5.077    0.000    0.000    0.000 
#    4.615    0.000    0.000    0.000    0.000    0.000 
#
# Total GULP energy -72461.029805 kJ/mol
# GULP energy per Si atom -5573.925370 kJ/mol
# Density = 2.690369 g / cm^3
# Si number density = 26.965061 Si / 1000 Ang^3
#
#
#
# Elastic Constant Matrix: (Units=GPa)
#
#
# Indices 1 2 3 4 5 6 
#
# 1 209.0389 29.5818 3.5603 0.0000 -4.8271 0.0000
# 2 29.5818 93.5793 1.3644 0.0000 -9.5520 0.0000
# 3 3.5603 1.3644 126.3937 0.0000 -11.2431 0.0000
# 4 0.0000 0.0000 0.0000 12.8332 0.0000 7.8757
# 5 -4.8271 -9.5520 -11.2431 0.0000 48.4799 0.0000
# 6 0.0000 0.0000 0.0000 7.8757 0.0000 42.5832
#
#
#
# Elastic Compliance Matrix: (Units=1/GPa)
#
#
# Indices 1 2 3 4 5 6 
#
# 1 0.005011 -0.001566 -0.000110 0.000000 0.000165 0.000000
# 2 -0.001566 0.011395 0.000109 0.000000 0.002115 0.000000
# 3 -0.000110 0.000109 0.008081 0.000000 0.001885 0.000000
# 4 0.000000 0.000000 0.000000 0.087900 0.000000 -0.016257
# 5 0.000165 0.002115 0.001885 0.000000 0.021497 0.000000
# 6 0.000000 0.000000 0.000000 -0.016257 0.000000 0.026490
#
#
# Mechanical properties :
#
#
# Convention : Reuss Voigt Hill
#
# Bulk Modulus (GPa) = 46.82589 55.33608 51.08099
# Shear Modulus (GPa) = 29.30400 47.07963 38.19181
#
# Velocity S-wave (km/s) = 3.30015 4.18299 3.76752
# Velocity P-wave (km/s) = 5.65017 6.62539 6.15712
#
# Compressibility (1/GPa) = 0.02135571
#
# Stress axis : x y z
#
# Youngs Moduli (GPa) = 199.55975 87.75553 123.74165
#
# Poissons Ratio (x) = 0.13739 0.01356
# Poissons Ratio (y) = 0.31243 -0.01351
# Poissons Ratio (z) = 0.02187 -0.00958
#
# Static dielectric constant tensor:
#      x y z
#    x 2.408190 0.000000 0.074250 
#    y 0.000000 2.089470 0.000000 
#    z 0.074250 0.000000 2.110420 
# 
# From -- ./inp_files/50232.got.cif
#   From: 2010.05.17/outbox.cif.g08.bks.cpg/sg5_26_cif.got.tgz:50232.got - 2010.06.03 18:56:24.
