data_PCOD9121556
_publ_section_title
;
Structure prediction by ZEFSAII (Michael W. Deem and Ramdas Pophale) SiO2 
 PCOD9121556
Probable space group: C 2
;
_chemical_formula_sum "Si O2"
_cell_formula_units_Z 30
_cell_length_a 18.023387
_cell_length_b 5.999328
_cell_length_c 20.625346
_cell_angle_alpha 90.000000
_cell_angle_beta 144.340093
_cell_angle_gamma 90.000000
_cell_volume 1300.135319
_symmetry_space_group_name_H-M "C 2"
_symmetry_group_IT_number 5
_symmetry_cell_setting 'monoclinic'
loop_
_space_group_symop_operation_xyz
x,y,z
-x,y,-z
1/2+x,1/2+y,z
1/2-x,1/2+y,-z
loop_
_atom_site_type_symbol
_atom_site_label
_atom_site_fract_x
_atom_site_fract_y
_atom_site_fract_z
Si Si1 0.601280 0.731660 0.682748
Si Si2 0.728277 0.848500 0.129522
Si Si3 0.000000 0.630380 0.000000
Si Si4 0.832128 0.979786 0.806317
Si Si5 0.933342 0.574945 0.220592
Si Si6 0.897733 0.310405 0.742034
Si Si7 0.324712 0.605677 0.452298
Si Si8 0.154347 0.936941 0.391131
O O1 0.675099 0.523471 0.767667
O O2 0.694801 0.861292 0.699558
O O3 0.475953 0.639846 0.557796
O O4 0.575313 0.905062 0.723930
O O5 0.690764 0.655991 0.152939
O O6 0.803737 0.719069 0.126810
O O7 0.598609 0.983932 0.028494
O O8 0.077531 0.785637 0.103860
O O9 0.895808 0.123835 0.795495
O O10 0.978865 0.459141 0.186294
O O11 0.045293 0.751463 0.314065
O O12 0.770466 0.463474 0.660801
O O13 0.890848 0.165422 0.671643
O O14 0.264768 0.846696 0.423176
O O15 0.304522 0.481099 0.506986
#
# Coordination Sequence:
#
# PCOD9121556 Si02
#       8
#     4   4   2   4   4   4   4   4
#     4  10  20  37  61  88 129 178 231 274 329 400
#     4  10  20  40  68  98 119 169 233 280 346 422
#     4  10  22  42  72  98 122 174 236 292 360 422
#     4  10  24  42  63 101 129 177 226 291 351 403
#     4  10  19  34  63  96 125 175 220 279 331 405
#     4  11  23  36  59  98 140 178 225 281 334 401
#     4  11  19  32  57  87 128 185 233 267 319 396
#     4  11  19  33  57  90 125 177 233 267 319 393
#
# _framework density 23.074522999999999
#
# number of rings (size 3 to 8) (size 9 to 14) (size 15 to 20)
#    0.000    1.600    4.000    1.200    0.000    4.267 
#    0.000    4.000    0.000    0.000  156.000    0.000 
#    0.000    0.000    0.000    0.000    0.000    0.000 
#
# Total GULP energy -83770.779413 kJ/mol
# GULP energy per Si atom -5584.718628 kJ/mol
# Density = 2.302200 g / cm^3
# Si number density = 23.074523 Si / 1000 Ang^3
#
#
#
# Elastic Constant Matrix: (Units=GPa)
#
#
# Indices 1 2 3 4 5 6 
#
# 1 111.2050 54.8533 53.3537 0.0001 25.8484 0.0001
# 2 54.8533 114.9060 48.6363 0.0003 28.0546 0.0004
# 3 53.3537 48.6363 78.8630 0.0000 37.8574 0.0001
# 4 0.0001 0.0003 0.0000 36.1221 0.0000 18.0692
# 5 25.8484 28.0546 37.8574 0.0000 29.2370 0.0001
# 6 0.0001 0.0004 0.0001 18.0692 0.0001 49.3659
#
#
#
# Elastic Compliance Matrix: (Units=1/GPa)
#
#
# Indices 1 2 3 4 5 6 
#
# 1 0.014420 -0.003800 -0.008040 0.000000 0.001309 0.000000
# 2 -0.003800 0.013063 -0.002856 0.000000 -0.005476 0.000000
# 3 -0.008040 -0.002856 0.040043 0.000000 -0.042000 0.000000
# 4 0.000000 0.000000 0.000000 0.033889 0.000000 -0.012404
# 5 0.001309 -0.005476 -0.042000 0.000000 0.092685 0.000000
# 6 0.000000 0.000000 0.000000 -0.012404 0.000000 0.024797
#
#
# Mechanical properties :
#
#
# Convention : Reuss Voigt Hill
#
# Bulk Modulus (GPa) = 26.22413 68.74008 47.48211
# Shear Modulus (GPa) = 19.15691 32.82038 25.98864
#
# Velocity S-wave (km/s) = 2.88448 3.77552 3.35967
# Velocity P-wave (km/s) = 4.74165 6.99008 5.97262
#
# Compressibility (1/GPa) = 0.03813282
#
# Stress axis : x y z
#
# Youngs Moduli (GPa) = 69.34663 76.55246 24.97297
#
# Poissons Ratio (x) = 0.29091 0.20079
# Poissons Ratio (y) = 0.26353 0.07133
# Poissons Ratio (z) = 0.55758 0.21866
#
# Static dielectric constant tensor:
#      x y z
#    x 1.921280 0.000000 0.033620 
#    y 0.000000 1.867290 0.000000 
#    z 0.033620 0.000000 1.893490 
# 
# From -- ./inp_files/71003.got.cif
#   From: 2010.05.17/outbox.cif.g08.bks.cpg/sg5_36_cif.got.tgz:71003.got - 2010.06.03 18:56:24.
