data_PCOD9121971
_publ_section_title
;
Structure prediction by ZEFSAII (Michael W. Deem and Ramdas Pophale) SiO2 
 PCOD9121971
Probable space group: C 2
;
_chemical_formula_sum "Si O2"
_cell_formula_units_Z 28
_cell_length_a 8.214818
_cell_length_b 14.114584
_cell_length_c 13.369201
_cell_angle_alpha 90.000000
_cell_angle_beta 132.989371
_cell_angle_gamma 90.000000
_cell_volume 1133.898187
_symmetry_space_group_name_H-M "C 2"
_symmetry_group_IT_number 5
_symmetry_cell_setting 'monoclinic'
loop_
_space_group_symop_operation_xyz
x,y,z
-x,y,-z
1/2+x,1/2+y,z
1/2-x,1/2+y,-z
loop_
_atom_site_type_symbol
_atom_site_label
_atom_site_fract_x
_atom_site_fract_y
_atom_site_fract_z
Si Si1 0.110664 0.781090 0.185960
Si Si2 0.227462 0.933967 0.746642
Si Si3 0.994957 0.985138 0.136162
Si Si4 0.460793 0.772303 0.749027
Si Si5 0.436282 0.085039 0.091582
Si Si6 0.665503 0.294176 0.435445
Si Si7 0.876907 0.606840 0.352446
O O1 0.288094 0.754428 0.176233
O O2 0.220074 0.801645 0.340968
O O3 0.993511 0.876389 0.104931
O O4 0.948900 0.692612 0.131489
O O5 0.108299 0.975627 0.795195
O O6 0.411725 0.848718 0.815871
O O7 0.020615 0.873464 0.617754
O O8 0.373541 0.023437 0.771174
O O9 0.247945 0.023578 0.241108
O O10 0.810617 0.044801 0.000916
O O11 0.348587 0.806544 0.597380
O O12 0.337163 0.674234 0.718194
O O13 0.500000 0.078208 0.000000
O O14 0.556543 0.188286 0.397857
O O15 0.000000 0.562495 0.500000
#
# Coordination Sequence:
#
# PCOD9121971 Si02
#       7
#     4   4   4   4   4   4   4
#     4  11  23  38  59  89 122 157 203 257 308 367
#     4   9  19  37  60  84 116 158 200 244 305 366
#     4  10  22  39  60  87 119 160 206 253 307 365
#     4  10  19  37  63  90 120 156 202 256 310 366
#     4  10  22  41  60  84 120 160 204 253 305 367
#     4   9  20  38  59  90 124 159 200 250 309 371
#     4   9  19  38  62  86 122 164 202 249 308 366
#
# _framework density 24.693574000000002
#
# number of rings (size 3 to 8) (size 9 to 14) (size 15 to 20)
#    0.000    2.286    0.000    3.429    0.000    6.857 
#    0.000   12.143    0.000    1.714    0.000    0.000 
#    0.000    0.000    0.000    0.000    0.000    0.000 
#
# Total GULP energy -78036.828400 kJ/mol
# GULP energy per Si atom -5574.059171 kJ/mol
# Density = 2.463737 g / cm^3
# Si number density = 24.693574 Si / 1000 Ang^3
#
#
#
# Elastic Constant Matrix: (Units=GPa)
#
#
# Indices 1 2 3 4 5 6 
#
# 1 61.8280 -16.4100 1.1288 0.0000 -0.1484 0.0000
# 2 -16.4100 127.3243 37.7648 0.0000 12.8258 0.0000
# 3 1.1288 37.7648 69.3036 0.0000 -1.2195 0.0000
# 4 0.0000 0.0000 0.0000 10.4913 0.0000 -8.9396
# 5 -0.1484 12.8258 -1.2195 0.0000 37.5770 0.0000
# 6 0.0000 0.0000 0.0000 -8.9396 0.0000 12.7774
#
#
#
# Elastic Compliance Matrix: (Units=1/GPa)
#
#
# Indices 1 2 3 4 5 6 
#
# 1 0.016955 0.002825 -0.001832 0.000000 -0.000957 0.000000
# 2 0.002825 0.010284 -0.005715 0.000000 -0.003685 0.000000
# 3 -0.001832 -0.005715 0.017618 0.000000 0.002515 0.000000
# 4 0.000000 0.000000 0.000000 0.236030 0.000000 0.165137
# 5 -0.000957 -0.003685 0.002515 0.000000 0.027947 0.000000
# 6 0.000000 0.000000 0.000000 0.165137 0.000000 0.193800
#
#
# Mechanical properties :
#
#
# Convention : Reuss Voigt Hill
#
# Bulk Modulus (GPa) = 28.23892 33.71367 30.97629
# Shear Modulus (GPa) = 9.54413 27.90063 18.72238
#
# Velocity S-wave (km/s) = 1.96810 3.36501 2.75651
# Velocity P-wave (km/s) = 4.07739 5.36471 4.76473
#
# Compressibility (1/GPa) = 0.03541212
#
# Stress axis : x y z
#
# Youngs Moduli (GPa) = 58.98010 97.23556 56.76154
#
# Poissons Ratio (x) = -0.27470 0.10401
# Poissons Ratio (y) = -0.16662 0.32439
# Poissons Ratio (z) = 0.10808 0.55570
#
# Static dielectric constant tensor:
#      x y z
#    x 2.047320 0.000000 -0.052730 
#    y 0.000000 1.940200 0.000000 
#    z -0.052730 0.000000 1.982270 
# 
# From -- ./inp_files/59733.got.cif
#   From: 2010.05.17/outbox.cif.g08.bks.cpg/sg5_30_cif.got.tgz:59733.got - 2010.06.03 18:56:24.
