data_PCOD9121660
_publ_section_title
;
Structure prediction by ZEFSAII (Michael W. Deem and Ramdas Pophale) SiO2 
 PCOD9121660
Probable space group: C 2
;
_chemical_formula_sum "Si O2"
_cell_formula_units_Z 30
_cell_length_a 13.666928
_cell_length_b 13.457281
_cell_length_c 17.268536
_cell_angle_alpha 90.000000
_cell_angle_beta 20.999498
_cell_angle_gamma 90.000000
_cell_volume 1138.159157
_symmetry_space_group_name_H-M "C 2"
_symmetry_group_IT_number 5
_symmetry_cell_setting 'monoclinic'
loop_
_space_group_symop_operation_xyz
x,y,z
-x,y,-z
1/2+x,1/2+y,z
1/2-x,1/2+y,-z
loop_
_atom_site_type_symbol
_atom_site_label
_atom_site_fract_x
_atom_site_fract_y
_atom_site_fract_z
Si Si1 0.688837 0.338990 0.429193
Si Si2 0.906674 0.111586 0.481091
Si Si3 0.066749 0.978890 0.220909
Si Si4 0.782910 0.298363 0.098237
Si Si5 0.548763 0.839489 0.610601
Si Si6 0.000000 0.947289 0.000000
Si Si7 0.142207 0.592047 0.169947
Si Si8 0.206371 0.613375 0.410347
O O1 0.500000 0.387801 0.500000
O O2 0.465465 0.326386 0.662082
O O3 0.941796 0.357549 0.302607
O O4 0.746955 0.227776 0.356046
O O5 0.061204 0.036234 0.307890
O O6 0.915776 0.223580 0.438079
O O7 0.600758 0.065751 0.708519
O O8 0.000000 0.118487 0.500000
O O9 0.003350 0.067331 0.208605
O O10 0.799637 0.909501 0.396926
O O11 0.323390 0.904031 0.026659
O O12 0.715077 0.205327 0.097538
O O13 0.000000 0.265512 0.000000
O O14 0.262185 0.878742 0.788886
O O15 0.881880 0.020402 0.021296
O O16 0.961880 0.604571 0.384595
O O17 0.000000 0.568309 0.500000
#
# Coordination Sequence:
#
# PCOD9121660 Si02
#       8
#     4   4   4   4   4   2   4   4
#     4   9  18  36  62  86 115 161 212 257 317 385
#     4  11  22  42  68  89 126 169 221 265 326 393
#     4  10  19  37  60  88 117 168 210 254 323 386
#     4  10  19  35  61  86 122 165 211 266 318 380
#     4  11  21  39  63  91 125 169 209 267 322 388
#     4  12  22  38  66  88 134 168 214 262 332 384
#     4  10  19  39  62  88 118 165 206 266 322 379
#     4   9  16  32  59  83 108 149 206 255 300 374
#
# _framework density 26.358350999999999
#
# number of rings (size 3 to 8) (size 9 to 14) (size 15 to 20)
#    0.000    1.867    8.667    0.000    0.000    2.667 
#    1.200    2.667    0.000    0.000    0.000    0.000 
#    0.000    0.000    0.000    0.000    0.000    0.000 
#
# Total GULP energy -83603.185019 kJ/mol
# GULP energy per Si atom -5573.545668 kJ/mol
# Density = 2.629836 g / cm^3
# Si number density = 26.358351 Si / 1000 Ang^3
#
#
#
# Elastic Constant Matrix: (Units=GPa)
#
#
# Indices 1 2 3 4 5 6 
#
# 1 136.1185 30.3788 25.6267 -0.0479 -32.8146 -0.0108
# 2 30.3788 177.3517 -6.0682 0.0511 -16.7229 0.0396
# 3 25.6267 -6.0682 40.3839 0.0767 -29.6341 0.0400
# 4 -0.0479 0.0511 0.0767 40.7197 0.0064 -14.5474
# 5 -32.8146 -16.7229 -29.6341 0.0064 52.2791 -0.0268
# 6 -0.0108 0.0396 0.0400 -14.5474 -0.0268 37.0785
#
#
#
# Elastic Compliance Matrix: (Units=1/GPa)
#
#
# Indices 1 2 3 4 5 6 
#
# 1 0.009115 -0.001381 -0.003626 0.000026 0.003224 0.000021
# 2 -0.001381 0.006392 0.004625 -0.000026 0.003799 -0.000020
# 3 -0.003626 0.004625 0.046527 -0.000134 0.025577 -0.000090
# 4 0.000026 -0.000026 -0.000134 0.028562 -0.000066 0.011206
# 5 0.003224 0.003799 0.025577 -0.000066 0.036865 -0.000030
# 6 0.000021 -0.000020 -0.000090 0.011206 -0.000030 0.031367
#
#
# Mechanical properties :
#
#
# Convention : Reuss Voigt Hill
#
# Bulk Modulus (GPa) = 16.32149 50.41431 33.36790
# Shear Modulus (GPa) = 27.77549 46.27660 37.02604
#
# Velocity S-wave (km/s) = 3.24970 4.19462 3.75202
# Velocity P-wave (km/s) = 4.50403 6.52900 5.60866
#
# Compressibility (1/GPa) = 0.06126890
#
# Stress axis : x y z
#
# Youngs Moduli (GPa) = 109.71312 156.45548 21.49277
#
# Poissons Ratio (x) = 0.21612 0.07793
# Poissons Ratio (y) = 0.15155 -0.09940
# Poissons Ratio (z) = 0.39780 -0.72358
#
# Static dielectric constant tensor:
#      x y z
#    x 2.267390 0.000100 0.101140 
#    y 0.000100 2.246490 0.000160 
#    z 0.101140 0.000160 2.344060 
# 
# From -- ./inp_files/68890.got.cif
#   From: 2010.05.17/outbox.cif.g08.bks.cpg/sg5_35_cif.got.tgz:68890.got - 2010.06.03 18:56:24.
