data_PCOD9121758
_publ_section_title
;
Structure prediction by ZEFSAII (Michael W. Deem and Ramdas Pophale) SiO2 
 PCOD9121758
Probable space group: C 2
;
_chemical_formula_sum "Si O2"
_cell_formula_units_Z 30
_cell_length_a 19.075136
_cell_length_b 7.684847
_cell_length_c 8.485849
_cell_angle_alpha 90.000000
_cell_angle_beta 113.193127
_cell_angle_gamma 90.000000
_cell_volume 1143.404658
_symmetry_space_group_name_H-M "C 2"
_symmetry_group_IT_number 5
_symmetry_cell_setting 'monoclinic'
loop_
_space_group_symop_operation_xyz
x,y,z
-x,y,-z
1/2+x,1/2+y,z
1/2-x,1/2+y,-z
loop_
_atom_site_type_symbol
_atom_site_label
_atom_site_fract_x
_atom_site_fract_y
_atom_site_fract_z
Si Si1 0.629247 0.761970 0.708007
Si Si2 0.693666 0.782131 0.221320
Si Si3 0.304712 0.188661 0.848968
Si Si4 0.549419 0.246637 0.205178
Si Si5 0.929185 0.358870 0.662768
Si Si6 0.150038 0.658660 0.766486
Si Si7 0.553808 0.613816 0.915485
Si Si8 0.500000 0.331982 0.500000
O O1 0.717215 0.732552 0.747128
O O2 0.574111 0.784202 0.512976
O O3 0.596728 0.604292 0.783054
O O4 0.631103 0.956627 0.781116
O O5 0.656349 0.812316 0.356949
O O6 0.774559 0.690727 0.271271
O O7 0.693716 0.979012 0.156871
O O8 0.629177 0.670768 0.076885
O O9 0.364592 0.274608 0.782092
O O10 0.331850 0.241838 0.047748
O O11 0.523626 0.378568 0.326094
O O12 0.554598 0.061242 0.300658
O O13 0.500000 0.200652 0.000000
O O14 0.993962 0.265148 0.820067
O O15 0.078073 0.739694 0.617136
O O16 0.500000 0.512838 0.000000
#
# Coordination Sequence:
#
# PCOD9121758 Si02
#       8
#     4   4   4   4   4   4   4   2
#     4  12  23  35  63  93 118 158 205 262 296 366
#     4  10  22  38  61  85 125 164 190 245 314 369
#     4  11  22  40  62  88 125 162 203 248 313 366
#     4  11  21  38  61  92 125 161 204 261 307 357
#     4  10  21  34  59  92 123 152 208 253 301 353
#     4  12  22  40  61  92 121 158 208 256 305 361
#     4  10  19  36  59  88 118 154 201 252 301 351
#     4  12  24  36  66  92 122 156 218 260 298 360
#
# _framework density 26.23743
#
# number of rings (size 3 to 8) (size 9 to 14) (size 15 to 20)
#    0.000    1.067    5.333    3.200    1.867    0.000 
#    0.000    0.000    2.933    4.000    0.000    0.000 
#    0.000    0.000    0.000    0.000    0.000    0.000 
#
# Total GULP energy -83648.890567 kJ/mol
# GULP energy per Si atom -5576.592704 kJ/mol
# Density = 2.617771 g / cm^3
# Si number density = 26.237430 Si / 1000 Ang^3
#
#
#
# Elastic Constant Matrix: (Units=GPa)
#
#
# Indices 1 2 3 4 5 6 
#
# 1 231.4431 32.4177 61.5810 0.0000 22.9578 0.0000
# 2 32.4177 74.1945 21.9464 0.0000 -1.0101 0.0000
# 3 61.5810 21.9464 157.0834 0.0000 -2.0882 0.0000
# 4 0.0000 0.0000 0.0000 -70.7833 0.0000 -30.2487
# 5 22.9578 -1.0101 -2.0882 0.0000 46.6787 0.0000
# 6 0.0000 0.0000 0.0000 -30.2487 0.0000 -9.3542
#
#
#
# Elastic Compliance Matrix: (Units=1/GPa)
#
#
# Indices 1 2 3 4 5 6 
#
# 1 0.005349 -0.001819 -0.001879 0.000000 -0.002754 0.000000
# 2 -0.001819 0.014680 -0.001323 0.000000 0.001153 0.000000
# 3 -0.001879 -0.001323 0.007304 0.000000 0.001222 0.000000
# 4 0.000000 0.000000 0.000000 0.036992 0.000000 -0.119623
# 5 -0.002754 0.001153 0.001222 0.000000 0.022857 0.000000
# 6 0.000000 0.000000 0.000000 -0.119623 0.000000 0.279922
#
#
# Mechanical properties :
#
#
# Convention : Reuss Voigt Hill
#
# Bulk Modulus (GPa) = 57.83372 77.17899 67.50635
# Shear Modulus (GPa) = 13.05795 16.42664 14.74230
#
# Velocity S-wave (km/s) = 2.23330 2.50487 2.37297
# Velocity P-wave (km/s) = 5.36102 6.15185 5.77000
#
# Compressibility (1/GPa) = 0.01729095
#
# Stress axis : x y z
#
# Youngs Moduli (GPa) = 186.96216 68.12168 136.91419
#
# Poissons Ratio (x) = 0.12388 0.25731
# Poissons Ratio (y) = 0.34000 0.18109
# Poissons Ratio (z) = 0.35137 0.09010
#
# Static dielectric constant tensor:
#      x y z
#    x 2.126780 0.000000 -0.240240 
#    y 0.000000 2.160560 0.000000 
#    z -0.240240 0.000000 3.038680 
# 
# From -- ./inp_files/27412.got.cif
#   From: 2010.05.17/outbox.cif.g08.bks.cpg/sg5_14_cif.got.tgz:27412.got - 2010.06.03 18:56:24.
