data_PCOD9121612
_publ_section_title
;
Structure prediction by ZEFSAII (Michael W. Deem and Ramdas Pophale) SiO2 
 PCOD9121612
Probable space group: C 2
;
_chemical_formula_sum "Si O2"
_cell_formula_units_Z 20
_cell_length_a 25.293772
_cell_length_b 7.831187
_cell_length_c 5.012261
_cell_angle_alpha 90.000000
_cell_angle_beta 90.283008
_cell_angle_gamma 90.000000
_cell_volume 992.817843
_symmetry_space_group_name_H-M "C 2"
_symmetry_group_IT_number 5
_symmetry_cell_setting 'monoclinic'
loop_
_space_group_symop_operation_xyz
x,y,z
-x,y,-z
1/2+x,1/2+y,z
1/2-x,1/2+y,-z
loop_
_atom_site_type_symbol
_atom_site_label
_atom_site_fract_x
_atom_site_fract_y
_atom_site_fract_z
Si Si1 0.780750 0.731720 0.871067
Si Si2 0.614317 0.802507 0.449419
Si Si3 0.500000 0.800018 0.500000
Si Si4 0.279705 0.608411 0.629188
Si Si5 0.114096 0.547322 0.949977
Si Si6 0.500000 0.052645 0.000000
O O1 0.759203 0.617540 0.625317
O O2 0.836909 0.666105 0.978330
O O3 0.783254 0.919864 0.749092
O O4 0.741957 0.720986 0.124321
O O5 0.557346 0.712098 0.496981
O O6 0.614205 0.891366 0.160658
O O7 0.619215 0.957078 0.662869
O O8 0.499594 0.926806 0.749439
O O9 0.164033 0.178781 0.467096
O O10 0.057173 0.640983 0.982019
#
# Coordination Sequence:
#
# PCOD9121612 Si02
#       6
#     4   4   2   4   4   2
#     4  12  24  38  57  83 113 148 186 229 278 329
#     4  10  19  35  58  83 110 143 183 226 270 325
#     4   8  16  30  54  82 106 138 180 220 266 324
#     4  12  24  38  57  83 113 148 186 229 278 329
#     4  10  19  35  58  83 110 143 183 226 270 325
#     4   8  16  30  54  82 106 138 180 220 266 324
#
# _framework density 20.144683000000001
#
# number of rings (size 3 to 8) (size 9 to 14) (size 15 to 20)
#    0.000    1.600    0.000    7.200    0.000    0.000 
#    0.000    0.000    0.000   19.200    0.000    0.000 
#    0.000    0.000    0.000    0.000    0.000    0.000 
#
# Total GULP energy -55825.024813 kJ/mol
# GULP energy per Si atom -5582.502481 kJ/mol
# Density = 2.009883 g / cm^3
# Si number density = 20.144683 Si / 1000 Ang^3
#
#
#
# Elastic Constant Matrix: (Units=GPa)
#
#
# Indices 1 2 3 4 5 6 
#
# 1 210.1109 49.1364 27.2075 0.0000 5.3821 0.0000
# 2 49.1364 53.1987 -5.2256 0.0000 0.2472 0.0000
# 3 27.2075 -5.2256 98.8673 0.0000 -4.7179 0.0000
# 4 0.0000 0.0000 0.0000 23.9257 0.0000 -1.0471
# 5 5.3821 0.2472 -4.7179 0.0000 30.6962 0.0000
# 6 0.0000 0.0000 0.0000 -1.0471 0.0000 18.4088
#
#
#
# Elastic Compliance Matrix: (Units=1/GPa)
#
#
# Indices 1 2 3 4 5 6 
#
# 1 0.006543 -0.006253 -0.002200 0.000000 -0.001435 0.000000
# 2 -0.006253 0.024871 0.003101 0.000000 0.001373 0.000000
# 3 -0.002200 0.003101 0.010982 0.000000 0.002049 0.000000
# 4 0.000000 0.000000 0.000000 0.041900 0.000000 0.002383
# 5 -0.001435 0.001373 0.002049 0.000000 0.033133 0.000000
# 6 0.000000 0.000000 0.000000 0.002383 0.000000 0.054457
#
#
# Mechanical properties :
#
#
# Convention : Reuss Voigt Hill
#
# Bulk Modulus (GPa) = 31.55330 56.04594 43.79962
# Shear Modulus (GPa) = 25.88601 34.01004 29.94803
#
# Velocity S-wave (km/s) = 3.58858 4.11334 3.85989
# Velocity P-wave (km/s) = 5.73306 7.10222 6.45405
#
# Compressibility (1/GPa) = 0.03169240
#
# Stress axis : x y z
#
# Youngs Moduli (GPa) = 152.82748 40.20704 91.06191
#
# Poissons Ratio (x) = 0.25142 0.20030
# Poissons Ratio (y) = 0.95564 -0.28237
# Poissons Ratio (z) = 0.33617 -0.12468
#
# Static dielectric constant tensor:
#      x y z
#    x 1.810320 0.000000 0.010970 
#    y 0.000000 1.672490 0.000000 
#    z 0.010970 0.000000 1.691210 
# 
# From -- ./inp_files/10980.got.cif
#   From: 2010.05.17/outbox.cif.g08.bks.cpg/sg5_6_cif.got.tgz:10980.got - 2010.06.03 18:56:24.
