data_PCOD9121150
_publ_section_title
;
Structure prediction by ZEFSAII (Michael W. Deem and Ramdas Pophale) SiO2 
 PCOD9121150
Probable space group: C 2
;
_chemical_formula_sum "Si O2"
_cell_formula_units_Z 30
_cell_length_a 10.248448
_cell_length_b 15.853815
_cell_length_c 8.803201
_cell_angle_alpha 90.000000
_cell_angle_beta 120.507068
_cell_angle_gamma 90.000000
_cell_volume 1232.313858
_symmetry_space_group_name_H-M "C 2"
_symmetry_group_IT_number 5
_symmetry_cell_setting 'monoclinic'
loop_
_space_group_symop_operation_xyz
x,y,z
-x,y,-z
1/2+x,1/2+y,z
1/2-x,1/2+y,-z
loop_
_atom_site_type_symbol
_atom_site_label
_atom_site_fract_x
_atom_site_fract_y
_atom_site_fract_z
Si Si1 0.067147 0.088030 0.375031
Si Si2 0.673059 0.772552 0.440824
Si Si3 0.090834 0.726557 0.193474
Si Si4 0.325126 0.902376 0.960885
Si Si5 0.795868 0.724367 0.201147
Si Si6 0.474893 0.941897 0.314006
Si Si7 0.000000 0.105277 0.000000
Si Si8 0.185596 0.547605 0.271175
O O1 0.064381 0.190511 0.378469
O O2 0.014864 0.062050 0.176089
O O3 0.234722 0.056995 0.517012
O O4 0.000000 0.060847 0.500000
O O5 0.776903 0.779329 0.650389
O O6 0.786207 0.746605 0.373176
O O7 0.580873 0.858009 0.362455
O O8 0.173692 0.639492 0.191685
O O9 0.960162 0.700614 0.236546
O O10 0.000000 0.764244 0.000000
O O11 0.320174 0.919278 0.138794
O O12 0.500000 0.888302 0.000000
O O13 0.243646 0.814475 0.892853
O O14 0.259783 0.976876 0.815543
O O15 0.655526 0.661089 0.085086
O O16 0.500000 0.968206 0.500000
O O17 0.523744 0.014263 0.226018
#
# Coordination Sequence:
#
# PCOD9121150 Si02
#       8
#     4   4   4   4   4   4   2   4
#     4  10  22  41  64  93 130 173 215 284 332 398
#     4  10  21  40  61  95 125 164 224 270 336 395
#     4  11  25  38  63  98 135 167 213 274 344 396
#     4  10  18  40  65  89 122 168 220 258 326 404
#     4  11  20  39  67  93 126 169 215 284 321 400
#     4  11  22  37  67  91 126 167 223 279 320 400
#     4  10  22  38  68 100 124 166 236 270 338 392
#     4  10  23  44  61  93 133 172 222 261 344 411
#
# _framework density 24.344446000000001
#
# number of rings (size 3 to 8) (size 9 to 14) (size 15 to 20)
#    0.000    1.600    3.333    2.800    5.600    3.200 
#    4.800    0.000    1.467    0.000    0.000    0.000 
#    0.000    0.000    0.000    0.000    0.000    0.000 
#
# Total GULP energy -83579.945603 kJ/mol
# GULP energy per Si atom -5571.996374 kJ/mol
# Density = 2.428904 g / cm^3
# Si number density = 24.344446 Si / 1000 Ang^3
#
#
#
# Elastic Constant Matrix: (Units=GPa)
#
#
# Indices 1 2 3 4 5 6 
#
# 1 51.9673 -0.3863 -7.5349 0.0000 -15.1647 0.0000
# 2 -0.3863 36.7014 6.1256 0.0000 7.5915 0.0000
# 3 -7.5349 6.1256 183.0692 0.0000 -9.2977 0.0000
# 4 0.0000 0.0000 0.0000 25.2208 0.0000 -1.6483
# 5 -15.1647 7.5915 -9.2977 0.0000 32.5870 0.0000
# 6 0.0000 0.0000 0.0000 -1.6483 0.0000 8.4024
#
#
#
# Elastic Compliance Matrix: (Units=1/GPa)
#
#
# Indices 1 2 3 4 5 6 
#
# 1 0.022864 -0.002443 0.001616 0.000000 0.011670 0.000000
# 2 -0.002443 0.029203 -0.001503 0.000000 -0.008369 0.000000
# 3 0.001616 -0.001503 0.005718 0.000000 0.002733 0.000000
# 4 0.000000 0.000000 0.000000 0.040165 0.000000 0.007879
# 5 0.011670 -0.008369 0.002733 0.000000 0.038847 0.000000
# 6 0.000000 0.000000 0.000000 0.007879 0.000000 0.120559
#
#
# Mechanical properties :
#
#
# Convention : Reuss Voigt Hill
#
# Bulk Modulus (GPa) = 18.82343 29.79409 24.30876
# Shear Modulus (GPa) = 17.87468 31.47761 24.67615
#
# Velocity S-wave (km/s) = 2.71263 3.59975 3.18720
# Velocity P-wave (km/s) = 4.19047 5.43532 4.85297
#
# Compressibility (1/GPa) = 0.05312528
#
# Stress axis : x y z
#
# Youngs Moduli (GPa) = 43.73596 34.24300 174.88594
#
# Poissons Ratio (x) = 0.08365 -0.28253
# Poissons Ratio (y) = 0.10684 0.26281
# Poissons Ratio (z) = -0.07066 0.05146
#
# Static dielectric constant tensor:
#      x y z
#    x 2.262940 0.000000 0.086970 
#    y 0.000000 1.906760 0.000000 
#    z 0.086970 0.000000 2.091180 
# 
# From -- ./inp_files/21492.got.cif
#   From: 2010.05.17/outbox.cif.g08.bks.cpg/sg5_11_cif.got.tgz:21492.got - 2010.06.03 18:56:24.
