data_PCOD9121789
_publ_section_title
;
Structure prediction by ZEFSAII (Michael W. Deem and Ramdas Pophale) SiO2 
 PCOD9121789
Probable space group: C 2
;
_chemical_formula_sum "Si O2"
_cell_formula_units_Z 24
_cell_length_a 21.437700
_cell_length_b 10.037796
_cell_length_c 5.468412
_cell_angle_alpha 90.000000
_cell_angle_beta 132.741165
_cell_angle_gamma 90.000000
_cell_volume 864.224389
_symmetry_space_group_name_H-M "C 2"
_symmetry_group_IT_number 5
_symmetry_cell_setting 'monoclinic'
loop_
_space_group_symop_operation_xyz
x,y,z
-x,y,-z
1/2+x,1/2+y,z
1/2-x,1/2+y,-z
loop_
_atom_site_type_symbol
_atom_site_label
_atom_site_fract_x
_atom_site_fract_y
_atom_site_fract_z
Si Si1 0.055357 0.118650 0.399111
Si Si2 0.818350 0.708324 0.827044
Si Si3 0.751318 0.457620 0.529085
Si Si4 0.553841 0.328608 0.389186
Si Si5 0.700643 0.835731 0.836912
Si Si6 0.490269 0.044823 0.222913
O O1 0.125468 0.232011 0.613411
O O2 0.000000 0.124335 0.500000
O O3 0.101908 0.972303 0.527756
O O4 0.000000 0.132031 0.000000
O O5 0.741575 0.615803 0.522369
O O6 0.823266 0.848465 0.699658
O O7 0.789277 0.754845 0.019332
O O8 0.900619 0.621175 0.005382
O O9 0.800719 0.429627 0.406444
O O10 0.796236 0.410568 0.898680
O O11 0.500000 0.338093 0.500000
O O12 0.559239 0.165354 0.393740
O O13 0.500000 0.349731 0.000000
O O14 0.500000 0.967231 0.500000
O O15 0.500000 0.966060 0.000000
#
# Coordination Sequence:
#
# PCOD9121789 Si02
#       6
#     4   4   4   4   4   4
#     4  10  19  36  60  93 135 168 217 278 335 399
#     4  10  26  46  73  99 141 180 236 283 341 417
#     4  10  25  44  70 101 137 179 237 273 351 405
#     4   8  16  31  51  86 124 155 209 262 324 379
#     4  10  24  42  66 101 135 180 228 282 344 405
#     4  10  22  39  62  97 130 174 221 278 337 399
#
# _framework density 27.770568000000001
#
# number of rings (size 3 to 8) (size 9 to 14) (size 15 to 20)
#    1.000    1.333    0.000    1.000    4.667    4.000 
#   12.000    5.000    0.000    0.000    0.000    0.000 
#    0.000    0.000    0.000    0.000    0.000    0.000 
#
# Total GULP energy -66959.471617 kJ/mol
# GULP energy per Si atom -5579.955968 kJ/mol
# Density = 2.770736 g / cm^3
# Si number density = 27.770568 Si / 1000 Ang^3
#
#
#
# Elastic Constant Matrix: (Units=GPa)
#
#
# Indices 1 2 3 4 5 6 
#
# 1 118.4732 35.8459 77.3818 0.0000 -31.5999 0.0000
# 2 35.8459 90.4646 17.0208 0.0000 1.5025 0.0000
# 3 77.3818 17.0208 123.2258 0.0000 -47.7875 0.0000
# 4 0.0000 0.0000 0.0000 35.5870 0.0000 8.4541
# 5 -31.5999 1.5025 -47.7875 0.0000 64.9895 0.0000
# 6 0.0000 0.0000 0.0000 8.4541 0.0000 45.5571
#
#
#
# Elastic Compliance Matrix: (Units=1/GPa)
#
#
# Indices 1 2 3 4 5 6 
#
# 1 0.016035 -0.004704 -0.008889 0.000000 0.001370 0.000000
# 2 -0.004704 0.012914 0.000234 0.000000 -0.002414 0.000000
# 3 -0.008889 0.000234 0.016768 0.000000 0.008002 0.000000
# 4 0.000000 0.000000 0.000000 0.029396 0.000000 -0.005455
# 5 0.001370 -0.002414 0.008002 0.000000 0.021993 0.000000
# 6 0.000000 0.000000 0.000000 -0.005455 0.000000 0.022963
#
#
# Mechanical properties :
#
#
# Convention : Reuss Voigt Hill
#
# Bulk Modulus (GPa) = 52.63134 65.85118 59.24126
# Shear Modulus (GPa) = 32.65437 42.68773 37.67105
#
# Velocity S-wave (km/s) = 3.43281 3.92491 3.68708
# Velocity P-wave (km/s) = 5.89114 6.65612 6.28528
#
# Compressibility (1/GPa) = 0.01900009
#
# Stress axis : x y z
#
# Youngs Moduli (GPa) = 62.36372 77.43511 59.63784
#
# Poissons Ratio (x) = 0.36426 0.53009
# Poissons Ratio (y) = 0.29337 -0.01397
# Poissons Ratio (z) = 0.55432 -0.01814
#
# Static dielectric constant tensor:
#      x y z
#    x 2.188870 0.000000 0.135600 
#    y 0.000000 2.114620 0.000000 
#    z 0.135600 0.000000 2.388270 
# 
# From -- ./inp_files/10359.got.cif
#   From: 2010.05.17/outbox.cif.g08.bks.cpg/sg5_6_cif.got.tgz:10359.got - 2010.06.03 18:56:24.
