data_PCOD9121330
_publ_section_title
;
Structure prediction by ZEFSAII (Michael W. Deem and Ramdas Pophale) SiO2 
 PCOD9121330
Probable space group: C 2
;
_chemical_formula_sum "Si O2"
_cell_formula_units_Z 24
_cell_length_a 31.031480
_cell_length_b 4.850703
_cell_length_c 6.443199
_cell_angle_alpha 90.000000
_cell_angle_beta 58.314018
_cell_angle_gamma 90.000000
_cell_volume 825.291698
_symmetry_space_group_name_H-M "C 2"
_symmetry_group_IT_number 5
_symmetry_cell_setting 'monoclinic'
loop_
_space_group_symop_operation_xyz
x,y,z
-x,y,-z
1/2+x,1/2+y,z
1/2-x,1/2+y,-z
loop_
_atom_site_type_symbol
_atom_site_label
_atom_site_fract_x
_atom_site_fract_y
_atom_site_fract_z
Si Si1 0.900756 0.637510 0.768093
Si Si2 0.269920 0.612722 0.326632
Si Si3 0.540814 0.668065 0.233565
Si Si4 0.185707 0.479253 0.277272
Si Si5 0.040695 0.766206 0.775937
Si Si6 0.644493 0.477243 0.628648
O O1 0.922764 0.434468 0.888341
O O2 0.842201 0.573664 0.861752
O O3 0.071869 0.596309 0.526292
O O4 0.920742 0.943356 0.762911
O O5 0.256628 0.920150 0.430272
O O6 0.245616 0.525586 0.168533
O O7 0.328444 0.558590 0.226405
O O8 0.500000 0.790739 0.500000
O O9 0.500501 0.477764 0.212756
O O10 0.164170 0.679419 0.511567
O O11 0.165651 0.181837 0.398223
O O12 0.084299 0.948659 0.777832
O O13 0.000000 0.574333 0.000000
#
# Coordination Sequence:
#
# PCOD9121330 Si02
#       6
#     4   4   4   4   4   4
#     4  10  19  33  50  70  98 130 166 206 247 295
#     4   8  14  24  41  64  91 119 152 199 252 291
#     4  10  19  33  49  68  97 133 167 205 245 290
#     4   9  15  27  46  68  91 122 161 204 248 293
#     4  10  21  35  53  78 106 139 174 210 253 304
#     4   9  17  28  42  66  98 125 155 202 252 293
#
# _framework density 29.080632000000001
#
# number of rings (size 3 to 8) (size 9 to 14) (size 15 to 20)
#    0.000    2.667    0.000    4.500    0.000    1.333 
#    0.000   20.833    0.000    0.000    0.000    2.333 
#    0.000    0.000    0.000    4.500    0.000    0.000 
#
# Total GULP energy -67059.721058 kJ/mol
# GULP energy per Si atom -5588.310088 kJ/mol
# Density = 2.901444 g / cm^3
# Si number density = 29.080632 Si / 1000 Ang^3
#
#
#
# Elastic Constant Matrix: (Units=GPa)
#
#
# Indices 1 2 3 4 5 6 
#
# 1 289.4078 36.2761 21.6231 0.0000 -1.1248 0.0000
# 2 36.2761 107.5754 3.4975 0.0000 -3.5587 0.0000
# 3 21.6231 3.4975 67.1869 0.0000 -18.1914 0.0000
# 4 0.0000 0.0000 0.0000 14.8631 0.0000 3.2247
# 5 -1.1248 -3.5587 -18.1914 0.0000 33.6130 0.0000
# 6 0.0000 0.0000 0.0000 3.2247 0.0000 50.9345
#
#
#
# Elastic Compliance Matrix: (Units=1/GPa)
#
#
# Indices 1 2 3 4 5 6 
#
# 1 0.003706 -0.001230 -0.001324 0.000000 -0.000723 0.000000
# 2 -0.001230 0.009741 0.000184 0.000000 0.001090 0.000000
# 3 -0.001324 0.000184 0.017920 0.000000 0.009673 0.000000
# 4 0.000000 0.000000 0.000000 0.068218 0.000000 -0.004319
# 5 -0.000723 0.001090 0.009673 0.000000 0.035077 0.000000
# 6 0.000000 0.000000 0.000000 -0.004319 0.000000 0.019906
#
#
# Mechanical properties :
#
#
# Convention : Reuss Voigt Hill
#
# Bulk Modulus (GPa) = 37.55946 65.21817 51.38881
# Shear Modulus (GPa) = 29.72940 46.73367 38.23153
#
# Velocity S-wave (km/s) = 3.20083 4.01314 3.62978
# Velocity P-wave (km/s) = 5.15791 6.62941 5.93941
#
# Compressibility (1/GPa) = 0.02662445
#
# Stress axis : x y z
#
# Youngs Moduli (GPa) = 269.85414 102.66085 55.80484
#
# Poissons Ratio (x) = 0.12632 0.07390
# Poissons Ratio (y) = 0.33205 -0.01027
# Poissons Ratio (z) = 0.35737 -0.01889
#
# Static dielectric constant tensor:
#      x y z
#    x 2.374960 0.000000 0.118990 
#    y 0.000000 2.117100 0.000000 
#    z 0.118990 0.000000 2.428900 
# 
# From -- ./inp_files/32033.got.cif
#   From: 2010.05.17/outbox.cif.g08.bks.cpg/sg5_17_cif.got.tgz:32033.got - 2010.06.03 18:56:24.
