data_PCOD9121044
_publ_section_title
;
Structure prediction by ZEFSAII (Michael W. Deem and Ramdas Pophale) SiO2 
 PCOD9121044
Probable space group: C 2
;
_chemical_formula_sum "Si O2"
_cell_formula_units_Z 24
_cell_length_a 13.490134
_cell_length_b 15.014266
_cell_length_c 8.956261
_cell_angle_alpha 90.000000
_cell_angle_beta 44.717705
_cell_angle_gamma 90.000000
_cell_volume 1276.385249
_symmetry_space_group_name_H-M "C 2"
_symmetry_group_IT_number 5
_symmetry_cell_setting 'monoclinic'
loop_
_space_group_symop_operation_xyz
x,y,z
-x,y,-z
1/2+x,1/2+y,z
1/2-x,1/2+y,-z
loop_
_atom_site_type_symbol
_atom_site_label
_atom_site_fract_x
_atom_site_fract_y
_atom_site_fract_z
Si Si1 0.598305 0.134980 0.623995
Si Si2 0.500000 0.259997 0.000000
Si Si3 0.305258 0.157491 0.803880
Si Si4 0.755632 0.826039 0.064485
Si Si5 0.345568 0.569573 0.534315
Si Si6 0.644947 0.514821 0.141340
Si Si7 0.500000 0.737008 0.500000
O O1 0.444441 0.109805 0.725667
O O2 0.672846 0.172214 0.394905
O O3 0.710472 0.066875 0.573578
O O4 0.564478 0.200603 0.797487
O O5 0.373920 0.315334 0.064859
O O6 0.288767 0.251603 0.903793
O O7 0.180500 0.091556 0.984050
O O8 0.607264 0.797532 0.293123
O O9 0.776025 0.924511 0.981842
O O10 0.475195 0.508953 0.339163
O O11 0.306278 0.545393 0.746057
O O12 0.412758 0.669109 0.484896
#
# Coordination Sequence:
#
# PCOD9121044 Si02
#       7
#     4   2   4   4   4   4   2
#     4  10  20  35  65  83 120 159 201 244 302 360
#     4  10  20  36  60  90 116 168 202 234 312 362
#     4  10  21  38  59  90 119 158 203 256 295 343
#     4  11  21  39  62  88 124 157 206 248 300 358
#     4  10  19  40  62  86 117 165 201 234 310 359
#     4  10  22  37  62  88 119 161 201 251 296 359
#     4  10  18  38  64  82 118 164 194 240 300 362
#
# _framework density 18.803101000000002
#
# number of rings (size 3 to 8) (size 9 to 14) (size 15 to 20)
#    0.000    2.000    5.000    1.000    0.000    8.667 
#    0.000    0.000    7.333    0.000    0.000    0.000 
#    0.000    0.000    0.000    0.000    0.000    0.000 
#
# Total GULP energy -66867.768422 kJ/mol
# GULP energy per Si atom -5572.314035 kJ/mol
# Density = 1.876030 g / cm^3
# Si number density = 18.803101 Si / 1000 Ang^3
#
#
#
# Elastic Constant Matrix: (Units=GPa)
#
#
# Indices 1 2 3 4 5 6 
#
# 1 71.2746 9.9169 32.3590 0.0000 11.6114 0.0000
# 2 9.9169 89.7450 46.6913 0.0000 2.4382 0.0000
# 3 32.3590 46.6913 134.0532 0.0000 16.7746 0.0000
# 4 0.0000 0.0000 0.0000 32.8496 0.0000 -1.6882
# 5 11.6114 2.4382 16.7746 0.0000 22.0595 0.0000
# 6 0.0000 0.0000 0.0000 -1.6882 0.0000 7.2462
#
#
#
# Elastic Compliance Matrix: (Units=1/GPa)
#
#
# Indices 1 2 3 4 5 6 
#
# 1 0.016502 0.000015 -0.003206 0.000000 -0.006250 0.000000
# 2 0.000015 0.013717 -0.005073 0.000000 0.002334 0.000000
# 3 -0.003206 -0.005073 0.010742 0.000000 -0.005920 0.000000
# 4 0.000000 0.000000 0.000000 0.030811 0.000000 0.007178
# 5 -0.006250 0.002334 -0.005920 0.000000 0.052865 0.000000
# 6 0.000000 0.000000 0.000000 0.007178 0.000000 0.139676
#
#
# Mechanical properties :
#
#
# Convention : Reuss Voigt Hill
#
# Bulk Modulus (GPa) = 40.93287 52.55634 46.74461
# Shear Modulus (GPa) = 17.30183 26.17142 21.73663
#
# Velocity S-wave (km/s) = 3.03670 3.73482 3.40371
# Velocity P-wave (km/s) = 5.84054 6.82716 6.35303
#
# Compressibility (1/GPa) = 0.02443024
#
# Stress axis : x y z
#
# Youngs Moduli (GPa) = 60.59841 72.90154 93.09669
#
# Poissons Ratio (x) = -0.00106 0.29851
# Poissons Ratio (y) = -0.00088 0.47231
# Poissons Ratio (z) = 0.19431 0.36985
#
# Static dielectric constant tensor:
#      x y z
#    x 1.667720 0.000000 -0.018880 
#    y 0.000000 1.630610 0.000000 
#    z -0.018880 0.000000 1.666690 
# 
# From -- ./inp_files/24536.got.cif
#   From: 2010.05.17/outbox.cif.g08.bks.cpg/sg5_13_cif.got.tgz:24536.got - 2010.06.03 18:56:24.
