data_PCOD9121339
_publ_section_title
;
Structure prediction by ZEFSAII (Michael W. Deem and Ramdas Pophale) SiO2 
 PCOD9121339
Probable space group: C 2
;
_chemical_formula_sum "Si O2"
_cell_formula_units_Z 32
_cell_length_a 28.714217
_cell_length_b 5.061497
_cell_length_c 11.985009
_cell_angle_alpha 90.000000
_cell_angle_beta 97.979067
_cell_angle_gamma 90.000000
_cell_volume 1725.001082
_symmetry_space_group_name_H-M "C 2"
_symmetry_group_IT_number 5
_symmetry_cell_setting 'monoclinic'
loop_
_space_group_symop_operation_xyz
x,y,z
-x,y,-z
1/2+x,1/2+y,z
1/2-x,1/2+y,-z
loop_
_atom_site_type_symbol
_atom_site_label
_atom_site_fract_x
_atom_site_fract_y
_atom_site_fract_z
Si Si1 0.963171 0.476360 0.263854
Si Si2 0.325221 0.453887 0.704154
Si Si3 0.946196 0.604522 0.490950
Si Si4 0.854862 0.452326 0.570976
Si Si5 0.944749 0.522397 0.007726
Si Si6 0.471827 0.470404 0.684614
Si Si7 0.235826 0.348047 0.564169
Si Si8 0.906451 0.028063 0.874643
O O1 0.932040 0.581548 0.357142
O O2 0.988520 0.196457 0.296809
O O3 0.004225 0.695917 0.268316
O O4 0.938116 0.475584 0.136823
O O5 0.345459 0.230455 0.627635
O O6 0.269141 0.408451 0.680214
O O7 0.353133 0.446099 0.828888
O O8 0.338573 0.732245 0.652774
O O9 0.908793 0.446943 0.551803
O O10 0.000000 0.504176 0.500000
O O11 0.952097 0.886849 0.555766
O O12 0.819316 0.413143 0.454935
O O13 0.931348 0.814079 0.962109
O O14 0.913793 0.314262 0.929103
O O15 0.000000 0.472417 0.000000
O O16 0.432780 0.530569 0.763622
O O17 0.255954 0.549731 0.475651
#
# Coordination Sequence:
#
# PCOD9121339 Si02
#       8
#     4   4   4   4   4   4   4   4
#     4  11  24  38  50  70 108 143 182 216 254 312
#     4  10  20  32  53  79 105 129 172 222 269 316
#     4  10  24  34  51  77 109 144 177 208 253 319
#     4  10  19  33  52  74 108 141 169 207 266 322
#     4  12  22  36  53  74 100 143 184 221 265 307
#     4  11  21  36  52  74 101 140 177 220 260 306
#     4   8  16  31  49  74 102 133 164 210 267 323
#     4  12  21  33  56  76 100 135 178 224 271 304
#
# _framework density 18.550712000000001
#
# number of rings (size 3 to 8) (size 9 to 14) (size 15 to 20)
#    0.000    1.500    3.750    1.875    3.500    6.500 
#    0.000    0.000    0.000    0.000    0.000    1.750 
#    0.000    0.000    0.000    0.000    0.000    0.000 
#
# Total GULP energy -89207.230826 kJ/mol
# GULP energy per Si atom -5575.451927 kJ/mol
# Density = 1.850849 g / cm^3
# Si number density = 18.550712 Si / 1000 Ang^3
#
#
#
# Elastic Constant Matrix: (Units=GPa)
#
#
# Indices 1 2 3 4 5 6 
#
# 1 47.1354 9.7743 10.3922 0.0000 16.1020 0.0000
# 2 9.7743 73.2793 6.6624 0.0000 -2.6418 0.0000
# 3 10.3922 6.6624 79.3868 0.0000 -1.9922 0.0000
# 4 0.0000 0.0000 0.0000 28.0670 0.0000 6.8895
# 5 16.1020 -2.6418 -1.9922 0.0000 27.7185 0.0000
# 6 0.0000 0.0000 0.0000 6.8895 0.0000 14.6968
#
#
#
# Elastic Compliance Matrix: (Units=1/GPa)
#
#
# Indices 1 2 3 4 5 6 
#
# 1 0.028888 -0.004130 -0.003873 0.000000 -0.017453 0.000000
# 2 -0.004130 0.014384 -0.000573 0.000000 0.003729 0.000000
# 3 -0.003873 -0.000573 0.013231 0.000000 0.003146 0.000000
# 4 0.000000 0.000000 0.000000 0.040262 0.000000 -0.018874
# 5 -0.017453 0.003729 0.003146 0.000000 0.046797 0.000000
# 6 0.000000 0.000000 0.000000 -0.018874 0.000000 0.076889
#
#
# Mechanical properties :
#
#
# Convention : Reuss Voigt Hill
#
# Bulk Modulus (GPa) = 25.41283 28.16215 26.78749
# Shear Modulus (GPa) = 19.94252 25.62798 22.78525
#
# Velocity S-wave (km/s) = 3.28232 3.72090 3.50847
# Velocity P-wave (km/s) = 5.30035 5.80295 5.55733
#
# Compressibility (1/GPa) = 0.03935020
#
# Stress axis : x y z
#
# Youngs Moduli (GPa) = 34.61627 69.52239 75.58240
#
# Poissons Ratio (x) = 0.28715 0.29273
# Poissons Ratio (y) = 0.14298 0.04330
# Poissons Ratio (z) = 0.13407 0.03983
#
# Static dielectric constant tensor:
#      x y z
#    x 1.660920 0.000000 0.047650 
#    y 0.000000 1.650480 0.000000 
#    z 0.047650 0.000000 1.716930 
# 
# From -- ./inp_files/48164.got.cif
#   From: 2010.05.17/outbox.cif.g08.bks.cpg/sg5_25_cif.got.tgz:48164.got - 2010.06.03 18:56:24.
