data_PCOD9121478
_publ_section_title
;
Structure prediction by ZEFSAII (Michael W. Deem and Ramdas Pophale) SiO2 
 PCOD9121478
Probable space group: C 2
;
_chemical_formula_sum "Si O2"
_cell_formula_units_Z 28
_cell_length_a 11.474576
_cell_length_b 23.140606
_cell_length_c 5.287372
_cell_angle_alpha 90.000000
_cell_angle_beta 108.329983
_cell_angle_gamma 90.000000
_cell_volume 1332.713803
_symmetry_space_group_name_H-M "C 2"
_symmetry_group_IT_number 5
_symmetry_cell_setting 'monoclinic'
loop_
_space_group_symop_operation_xyz
x,y,z
-x,y,-z
1/2+x,1/2+y,z
1/2-x,1/2+y,-z
loop_
_atom_site_type_symbol
_atom_site_label
_atom_site_fract_x
_atom_site_fract_y
_atom_site_fract_z
Si Si1 0.752641 0.493920 0.557417
Si Si2 0.199250 0.156891 0.137782
Si Si3 0.123261 0.256023 0.416632
Si Si4 0.611947 0.100750 0.388843
Si Si5 0.130247 0.719224 0.120257
Si Si6 0.080743 0.386166 0.298642
Si Si7 0.868365 0.035833 0.039484
O O1 0.857905 0.540151 0.719858
O O2 0.807098 0.430206 0.606201
O O3 0.718622 0.507941 0.240598
O O4 0.650556 0.505040 0.703499
O O5 0.115332 0.203658 0.213805
O O6 0.260631 0.117600 0.392293
O O7 0.149263 0.105713 0.926060
O O8 0.306928 0.195447 0.090539
O O9 0.253401 0.247524 0.654383
O O10 0.122955 0.319684 0.298472
O O11 0.000000 0.252311 0.500000
O O12 0.500000 0.091152 0.500000
O O13 0.590261 0.160110 0.230995
O O14 0.000000 0.752263 0.000000
O O15 0.000000 0.390151 0.500000
O O16 0.000000 0.401336 0.000000
O O17 0.000000 0.029871 0.000000
#
# Coordination Sequence:
#
# PCOD9121478 Si02
#       7
#     4   4   4   4   4   4   4
#     4  11  23  42  65  97 128 177 221 285 341 404
#     4  10  22  36  62  93 134 177 215 276 340 409
#     4  10  26  41  65  98 134 181 232 288 338 406
#     4  10  19  34  56  94 129 166 213 272 341 407
#     4  11  21  38  64  94 137 173 224 275 347 407
#     4  11  25  46  71  98 131 174 232 289 342 403
#     4  11  24  40  66  96 137 175 226 275 345 414
#
# _framework density 21.009763
#
# number of rings (size 3 to 8) (size 9 to 14) (size 15 to 20)
#    0.000    1.429    2.857    1.714    6.000    1.714 
#    0.000    0.714    3.143    0.000    0.000    0.000 
#    0.000    0.000    0.000    0.000    0.000    0.000 
#
# Total GULP energy -78008.410381 kJ/mol
# GULP energy per Si atom -5572.029313 kJ/mol
# Density = 2.096194 g / cm^3
# Si number density = 21.009763 Si / 1000 Ang^3
#
#
#
# Elastic Constant Matrix: (Units=GPa)
#
#
# Indices 1 2 3 4 5 6 
#
# 1 101.0838 34.5242 12.9867 0.0000 0.9166 0.0000
# 2 34.5242 102.3243 7.0040 0.0000 0.4762 0.0000
# 3 12.9867 7.0040 63.5274 0.0000 3.5848 0.0000
# 4 0.0000 0.0000 0.0000 9.2691 0.0000 -3.9503
# 5 0.9166 0.4762 3.5848 0.0000 38.9956 0.0000
# 6 0.0000 0.0000 0.0000 -3.9503 0.0000 7.2448
#
#
#
# Elastic Compliance Matrix: (Units=1/GPa)
#
#
# Indices 1 2 3 4 5 6 
#
# 1 0.011410 -0.003718 -0.001920 0.000000 -0.000046 0.000000
# 2 -0.003718 0.011059 -0.000459 0.000000 -0.000005 0.000000
# 3 -0.001920 -0.000459 0.016266 0.000000 -0.001445 0.000000
# 4 0.000000 0.000000 0.000000 0.140544 0.000000 0.076632
# 5 -0.000046 -0.000005 -0.001445 0.000000 0.025778 0.000000
# 6 0.000000 0.000000 0.000000 0.076632 0.000000 0.179813
#
#
# Mechanical properties :
#
#
# Convention : Reuss Voigt Hill
#
# Bulk Modulus (GPa) = 37.67801 41.77392 39.72597
# Shear Modulus (GPa) = 12.31803 25.26330 18.79067
#
# Velocity S-wave (km/s) = 2.42399 3.47141 2.99386
# Velocity P-wave (km/s) = 5.08004 5.99948 5.55880
#
# Compressibility (1/GPa) = 0.02654068
#
# Stress axis : x y z
#
# Youngs Moduli (GPa) = 87.64471 90.42629 61.47861
#
# Poissons Ratio (x) = 0.33620 0.11803
# Poissons Ratio (y) = 0.32586 0.02821
# Poissons Ratio (z) = 0.16827 0.04149
#
# Static dielectric constant tensor:
#      x y z
#    x 1.687580 0.000000 0.013230 
#    y 0.000000 1.733290 0.000000 
#    z 0.013230 0.000000 1.904980 
# 
# From -- ./inp_files/5665.got.cif
#   From: 2010.05.17/outbox.cif.g08.bks.cpg/sg5_3_cif.got.tgz:5665.got - 2010.06.03 18:56:24.
