data_PCOD9121278
_publ_section_title
;
Structure prediction by ZEFSAII (Michael W. Deem and Ramdas Pophale) SiO2 
 PCOD9121278
Probable space group: C 2
;
_chemical_formula_sum "Si O2"
_cell_formula_units_Z 32
_cell_length_a 20.406391
_cell_length_b 14.837248
_cell_length_c 8.872043
_cell_angle_alpha 90.000000
_cell_angle_beta 34.693586
_cell_angle_gamma 90.000000
_cell_volume 1528.968506
_symmetry_space_group_name_H-M "C 2"
_symmetry_group_IT_number 5
_symmetry_cell_setting 'monoclinic'
loop_
_space_group_symop_operation_xyz
x,y,z
-x,y,-z
1/2+x,1/2+y,z
1/2-x,1/2+y,-z
loop_
_atom_site_type_symbol
_atom_site_label
_atom_site_fract_x
_atom_site_fract_y
_atom_site_fract_z
Si Si1 0.221254 0.913810 0.760590
Si Si2 0.685375 0.035132 0.932886
Si Si3 0.366281 0.428245 0.411362
Si Si4 0.009500 0.119358 0.806325
Si Si5 0.102306 0.732110 0.682322
Si Si6 0.260216 0.714232 0.647340
Si Si7 0.050187 0.530315 0.731356
Si Si8 0.622701 0.545789 0.179964
O O1 0.152348 0.922839 0.733341
O O2 0.236148 0.809131 0.767036
O O3 0.341150 0.965700 0.501592
O O4 0.155286 0.958351 0.022886
O O5 0.685698 0.128781 0.839074
O O6 0.768312 0.056518 0.916554
O O7 0.749654 0.958031 0.715290
O O8 0.552436 0.009244 0.191608
O O9 0.444506 0.516040 0.291049
O O10 0.403824 0.328219 0.390864
O O11 0.110509 0.184676 0.563411
O O12 0.899388 0.121558 0.906842
O O13 0.000000 0.138139 0.000000
O O14 0.224215 0.728633 0.541167
O O15 0.087713 0.634548 0.635702
O O16 0.000000 0.737987 0.000000
O O17 0.000000 0.521341 0.000000
O O18 0.500000 0.540949 0.500000
#
# Coordination Sequence:
#
# PCOD9121278 Si02
#       8
#     4   4   4   4   4   4   4   4
#     4  11  24  40  66  97 126 169 215 266 319 387
#     4  11  22  42  64  92 133 170 204 268 326 380
#     4  10  19  35  65  99 121 158 216 268 316 369
#     4  11  21  39  68  93 122 165 214 268 321 380
#     4  10  19  31  61  99 123 159 208 268 313 366
#     4  10  21  38  63  95 127 159 212 266 323 371
#     4  11  20  40  65  91 129 168 210 259 320 380
#     4  12  25  41  66  90 130 171 217 264 325 371
#
# _framework density 20.929144000000001
#
# number of rings (size 3 to 8) (size 9 to 14) (size 15 to 20)
#    0.000    1.250    7.500    1.125    1.750    1.000 
#    0.000    3.750    0.000    0.000    0.000    0.000 
#    0.000    0.000    0.000    0.000    0.000    0.000 
#
# Total GULP energy -89217.990009 kJ/mol
# GULP energy per Si atom -5576.124376 kJ/mol
# Density = 2.088151 g / cm^3
# Si number density = 20.929144 Si / 1000 Ang^3
#
#
#
# Elastic Constant Matrix: (Units=GPa)
#
#
# Indices 1 2 3 4 5 6 
#
# 1 107.6375 -10.4416 10.2493 0.0000 -6.9884 0.0000
# 2 -10.4416 60.3285 12.6373 0.0000 -1.0591 0.0000
# 3 10.2493 12.6373 36.9141 0.0000 -4.6401 0.0000
# 4 0.0000 0.0000 0.0000 11.9485 0.0000 -2.5585
# 5 -6.9884 -1.0591 -4.6401 0.0000 28.4364 0.0000
# 6 0.0000 0.0000 0.0000 -2.5585 0.0000 7.7605
#
#
#
# Elastic Compliance Matrix: (Units=1/GPa)
#
#
# Indices 1 2 3 4 5 6 
#
# 1 0.009980 0.002467 -0.003365 0.000000 0.001995 0.000000
# 2 0.002467 0.018470 -0.006989 0.000000 0.000154 0.000000
# 3 -0.003365 -0.006989 0.030914 0.000000 0.003957 0.000000
# 4 0.000000 0.000000 0.000000 0.090050 0.000000 0.029688
# 5 0.001995 0.000154 0.003957 0.000000 0.036308 0.000000
# 6 0.000000 0.000000 0.000000 0.029688 0.000000 0.138646
#
#
# Mechanical properties :
#
#
# Convention : Reuss Voigt Hill
#
# Bulk Modulus (GPa) = 22.94049 25.53000 24.23524
# Shear Modulus (GPa) = 14.09765 22.45809 18.27787
#
# Velocity S-wave (km/s) = 2.59818 3.27930 2.95841
# Velocity P-wave (km/s) = 4.47052 5.15395 4.82435
#
# Compressibility (1/GPa) = 0.04359105
#
# Stress axis : x y z
#
# Youngs Moduli (GPa) = 100.20326 54.14318 32.34779
#
# Poissons Ratio (x) = -0.13358 0.10884
# Poissons Ratio (y) = -0.24721 0.22606
# Poissons Ratio (z) = 0.33715 0.37838
#
# Static dielectric constant tensor:
#      x y z
#    x 1.833900 0.000000 -0.008550 
#    y 0.000000 1.739550 0.000000 
#    z -0.008550 0.000000 1.815570 
# 
# From -- ./inp_files/29842.got.cif
#   From: 2010.05.17/outbox.cif.g08.bks.cpg/sg5_15_cif.got.tgz:29842.got - 2010.06.03 18:56:24.
