data_PCOD9121788
_publ_section_title
;
Structure prediction by ZEFSAII (Michael W. Deem and Ramdas Pophale) SiO2 
 PCOD9121788
Probable space group: C 2
;
_chemical_formula_sum "Si O2"
_cell_formula_units_Z 26
_cell_length_a 13.779774
_cell_length_b 19.919023
_cell_length_c 8.333448
_cell_angle_alpha 90.000000
_cell_angle_beta 148.284333
_cell_angle_gamma 90.000000
_cell_volume 1202.475866
_symmetry_space_group_name_H-M "C 2"
_symmetry_group_IT_number 5
_symmetry_cell_setting 'monoclinic'
loop_
_space_group_symop_operation_xyz
x,y,z
-x,y,-z
1/2+x,1/2+y,z
1/2-x,1/2+y,-z
loop_
_atom_site_type_symbol
_atom_site_label
_atom_site_fract_x
_atom_site_fract_y
_atom_site_fract_z
Si Si1 0.267000 0.219770 0.821206
Si Si2 0.321020 0.574555 0.162516
Si Si3 0.000000 0.331318 0.500000
Si Si4 0.939148 0.538439 0.736091
Si Si5 0.370345 0.890559 0.658684
Si Si6 0.703116 0.144333 0.699908
Si Si7 0.692542 0.256010 0.467774
O O1 0.217662 0.145311 0.803141
O O2 0.164480 0.279263 0.769473
O O3 0.212229 0.228538 0.558976
O O4 0.481349 0.233568 0.151841
O O5 0.500000 0.544149 0.500000
O O6 0.334813 0.601483 0.000751
O O7 0.135446 0.530444 0.918641
O O8 0.047835 0.370824 0.402632
O O9 0.827067 0.469319 0.583170
O O10 0.830984 0.598425 0.502522
O O11 0.000000 0.556866 0.000000
O O12 0.214710 0.835806 0.483015
O O13 0.500000 0.886059 0.000000
O O14 0.500000 0.150186 0.500000
O O15 0.764231 0.217675 0.726287
#
# Coordination Sequence:
#
# PCOD9121788 Si02
#       7
#     4   4   2   4   4   4   4
#     4  10  19  36  60  93 127 162 203 266 322 359
#     4  11  22  36  62  98 126 158 211 268 320 376
#     4  10  22  38  60  88 132 174 198 270 316 378
#     4  10  21  43  63  87 127 173 208 259 320 379
#     4  10  24  39  63  88 126 174 214 255 321 383
#     4  10  20  33  65  96 122 166 206 263 321 375
#     4  10  20  36  61  94 123 166 214 261 311 385
#
# _framework density 21.622056000000001
#
# number of rings (size 3 to 8) (size 9 to 14) (size 15 to 20)
#    0.000    1.846    3.846    0.923    5.385    0.000 
#    0.000    5.385   13.538    0.000    0.000    0.000 
#    0.000    0.000    0.000    0.000    0.000    0.000 
#
# Total GULP energy -72500.755053 kJ/mol
# GULP energy per Si atom -5576.981158 kJ/mol
# Density = 2.157284 g / cm^3
# Si number density = 21.622056 Si / 1000 Ang^3
#
#
#
# Elastic Constant Matrix: (Units=GPa)
#
#
# Indices 1 2 3 4 5 6 
#
# 1 62.4127 26.9167 13.9210 0.0000 -22.4976 0.0000
# 2 26.9167 101.2269 10.9829 0.0000 -8.7801 0.0000
# 3 13.9210 10.9829 41.5567 0.0000 -6.7605 0.0000
# 4 0.0000 0.0000 0.0000 19.7070 0.0000 5.7315
# 5 -22.4976 -8.7801 -6.7605 0.0000 27.0414 0.0000
# 6 0.0000 0.0000 0.0000 5.7315 0.0000 27.8377
#
#
#
# Elastic Compliance Matrix: (Units=1/GPa)
#
#
# Indices 1 2 3 4 5 6 
#
# 1 0.025847 -0.004766 -0.004328 0.000000 0.018874 0.000000
# 2 -0.004766 0.011248 -0.001488 0.000000 -0.000685 0.000000
# 3 -0.004328 -0.001488 0.026312 0.000000 0.002494 0.000000
# 4 0.000000 0.000000 0.000000 0.053975 0.000000 -0.011113
# 5 0.018874 -0.000685 0.002494 0.000000 0.053084 0.000000
# 6 0.000000 0.000000 0.000000 -0.011113 0.000000 0.038211
#
#
# Mechanical properties :
#
#
# Convention : Reuss Voigt Hill
#
# Bulk Modulus (GPa) = 23.67241 34.31529 28.99385
# Shear Modulus (GPa) = 20.49833 25.14225 22.82029
#
# Velocity S-wave (km/s) = 3.08235 3.41369 3.25224
# Velocity P-wave (km/s) = 4.86208 5.60738 5.24798
#
# Compressibility (1/GPa) = 0.04224327
#
# Stress axis : x y z
#
# Youngs Moduli (GPa) = 38.68966 88.90381 38.00493
#
# Poissons Ratio (x) = 0.42372 0.16450
# Poissons Ratio (y) = 0.18440 0.05654
# Poissons Ratio (z) = 0.16746 0.13225
#
# Static dielectric constant tensor:
#      x y z
#    x 1.891650 0.000000 0.005930 
#    y 0.000000 1.772240 0.000000 
#    z 0.005930 0.000000 1.859340 
# 
# From -- ./inp_files/16444.got.cif
#   From: 2010.05.17/outbox.cif.g08.bks.cpg/sg5_9_cif.got.tgz:16444.got - 2010.06.03 18:56:24.
