data_PCOD9121047
_publ_section_title
;
Structure prediction by ZEFSAII (Michael W. Deem and Ramdas Pophale) SiO2 
 PCOD9121047
Probable space group: C 2
;
_chemical_formula_sum "Si O2"
_cell_formula_units_Z 20
_cell_length_a 12.214278
_cell_length_b 13.461712
_cell_length_c 8.914613
_cell_angle_alpha 90.000000
_cell_angle_beta 43.854587
_cell_angle_gamma 90.000000
_cell_volume 1015.541291
_symmetry_space_group_name_H-M "C 2"
_symmetry_group_IT_number 5
_symmetry_cell_setting 'monoclinic'
loop_
_space_group_symop_operation_xyz
x,y,z
-x,y,-z
1/2+x,1/2+y,z
1/2-x,1/2+y,-z
loop_
_atom_site_type_symbol
_atom_site_label
_atom_site_fract_x
_atom_site_fract_y
_atom_site_fract_z
Si Si1 0.485119 0.524090 0.194069
Si Si2 0.179116 0.616547 0.566643
Si Si3 0.282375 0.915653 0.968000
Si Si4 0.480750 0.323378 0.340134
Si Si5 0.000000 0.499126 0.000000
Si Si6 0.500000 0.981822 0.500000
O O1 0.368382 0.608575 0.366709
O O2 0.408444 0.421529 0.333730
O O3 0.500000 0.524268 0.000000
O O4 0.663339 0.511585 0.079010
O O5 0.115209 0.726917 0.607540
O O6 0.108532 0.567510 0.786255
O O7 0.105766 0.551629 0.502524
O O8 0.391738 0.930558 0.002446
O O9 0.387098 0.917700 0.717019
O O10 0.160679 0.824832 0.099857
O O11 0.500000 0.335642 0.500000
#
# Coordination Sequence:
#
# PCOD9121047 Si02
#       6
#     4   4   4   4   2   2
#     4  10  21  39  68  91 129 169 208 263 318 381
#     4  11  20  36  65  89 126 173 209 253 324 369
#     4   9  21  38  66  92 128 167 213 254 324 373
#     4  10  21  37  65  93 128 164 215 263 315 374
#     4  10  22  36  64  90 128 172 206 260 320 382
#     4  10  18  38  64  86 122 174 202 258 316 384
#
# _framework density 19.693930999999999
#
# number of rings (size 3 to 8) (size 9 to 14) (size 15 to 20)
#    1.200    0.800    3.000    1.200    1.400    0.000 
#    0.000    0.000   39.600    0.000    0.000    0.000 
#    0.000    0.000    0.000    0.000    0.000    0.000 
#
# Total GULP energy -55730.619726 kJ/mol
# GULP energy per Si atom -5573.061973 kJ/mol
# Density = 1.964911 g / cm^3
# Si number density = 19.693931 Si / 1000 Ang^3
#
#
#
# Elastic Constant Matrix: (Units=GPa)
#
#
# Indices 1 2 3 4 5 6 
#
# 1 81.7094 15.6836 43.4734 0.0000 -9.9360 0.0000
# 2 15.6836 67.4047 46.2831 0.0000 -3.2411 0.0000
# 3 43.4734 46.2831 136.3249 0.0000 -6.9473 0.0000
# 4 0.0000 0.0000 0.0000 10.8001 0.0000 -8.6381
# 5 -9.9360 -3.2411 -6.9473 0.0000 31.9331 0.0000
# 6 0.0000 0.0000 0.0000 -8.6381 0.0000 11.3286
#
#
#
# Elastic Compliance Matrix: (Units=1/GPa)
#
#
# Indices 1 2 3 4 5 6 
#
# 1 0.015163 -0.000208 -0.004576 0.000000 0.003701 0.000000
# 2 -0.000208 0.019358 -0.006481 0.000000 0.000490 0.000000
# 3 -0.004576 -0.006481 0.011011 0.000000 0.000314 0.000000
# 4 0.000000 0.000000 0.000000 0.237329 0.000000 0.180964
# 5 0.003701 0.000490 0.000314 0.000000 0.032585 0.000000
# 6 0.000000 0.000000 0.000000 0.180964 0.000000 0.226258
#
#
# Mechanical properties :
#
#
# Convention : Reuss Voigt Hill
#
# Bulk Modulus (GPa) = 43.47430 55.14655 49.31042
# Shear Modulus (GPa) = 8.74276 22.81229 15.77752
#
# Velocity S-wave (km/s) = 2.10925 3.40713 2.83351
# Velocity P-wave (km/s) = 5.29668 6.59853 5.98312
#
# Compressibility (1/GPa) = 0.02300210
#
# Stress axis : x y z
#
# Youngs Moduli (GPa) = 65.94865 51.65905 90.81800
#
# Poissons Ratio (x) = 0.01074 0.41561
# Poissons Ratio (y) = 0.01371 0.58857
# Poissons Ratio (z) = 0.30180 0.33479
#
# Static dielectric constant tensor:
#      x y z
#    x 1.689680 0.000000 -0.023210 
#    y 0.000000 1.681140 0.000000 
#    z -0.023210 0.000000 1.705250 
# 
# From -- ./inp_files/19606.got.cif
#   From: 2010.05.17/outbox.cif.g08.bks.cpg/sg5_10_cif.got.tgz:19606.got - 2010.06.03 18:56:24.
