data_PCOD9121642
_publ_section_title
;
Structure prediction by ZEFSAII (Michael W. Deem and Ramdas Pophale) SiO2 
 PCOD9121642
Probable space group: C 2
;
_chemical_formula_sum "Si O2"
_cell_formula_units_Z 32
_cell_length_a 23.037816
_cell_length_b 8.651892
_cell_length_c 9.210956
_cell_angle_alpha 90.000000
_cell_angle_beta 127.494274
_cell_angle_gamma 90.000000
_cell_volume 1456.656186
_symmetry_space_group_name_H-M "C 2"
_symmetry_group_IT_number 5
_symmetry_cell_setting 'monoclinic'
loop_
_space_group_symop_operation_xyz
x,y,z
-x,y,-z
1/2+x,1/2+y,z
1/2-x,1/2+y,-z
loop_
_atom_site_type_symbol
_atom_site_label
_atom_site_fract_x
_atom_site_fract_y
_atom_site_fract_z
Si Si1 0.144223 0.244360 0.414458
Si Si2 0.490245 0.770445 0.313121
Si Si3 0.464289 0.410161 0.214642
Si Si4 0.133008 0.875169 0.444058
Si Si5 0.423583 0.877311 0.945606
Si Si6 0.878559 0.712869 0.863330
Si Si7 0.677449 0.415783 0.815551
Si Si8 0.238238 0.236196 0.822446
O O1 0.141842 0.297078 0.243573
O O2 0.202932 0.301817 0.621097
O O3 0.069131 0.309483 0.367662
O O4 0.142623 0.057509 0.421062
O O5 0.500000 0.787701 0.500000
O O6 0.474140 0.593221 0.246121
O O7 0.429297 0.861676 0.128143
O O8 0.546831 0.347062 0.348928
O O9 0.402441 0.374999 0.240840
O O10 0.428270 0.345964 0.011995
O O11 0.152238 0.774954 0.334526
O O12 0.179778 0.844566 0.658829
O O13 0.421231 0.056148 0.902536
O O14 0.500000 0.806882 0.000000
O O15 0.814679 0.669297 0.878835
O O16 0.687305 0.600105 0.807564
O O17 0.738737 0.355902 0.018966
#
# Coordination Sequence:
#
# PCOD9121642 Si02
#       8
#     4   4   4   4   4   4   4   4
#     4   9  20  37  57  78 110 150 193 232 270 340
#     4  10  19  35  60  85 106 140 191 240 284 327
#     4  10  19  37  63  86 109 147 196 247 290 331
#     4  10  19  37  61  86 111 147 199 248 287 331
#     4  10  21  37  55  81 114 146 181 232 291 338
#     4  11  23  36  56  86 121 151 183 234 295 352
#     4  10  22  39  59  83 117 152 194 241 286 347
#     4  10  23  40  56  83 116 155 194 230 285 348
#
# _framework density 21.968122000000001
#
# number of rings (size 3 to 8) (size 9 to 14) (size 15 to 20)
#    0.000    2.000    0.000    4.500    0.000    7.000 
#    0.000    9.375    0.000    0.000    0.000    0.000 
#    0.000    0.000    0.000    0.000    0.000    0.000 
#
# Total GULP energy -89232.895732 kJ/mol
# GULP energy per Si atom -5577.055983 kJ/mol
# Density = 2.191812 g / cm^3
# Si number density = 21.968122 Si / 1000 Ang^3
#
#
#
# Elastic Constant Matrix: (Units=GPa)
#
#
# Indices 1 2 3 4 5 6 
#
# 1 49.8041 5.7473 12.5101 0.0000 -4.6773 0.0000
# 2 5.7473 30.8666 53.5471 0.0000 -20.7397 0.0000
# 3 12.5101 53.5471 182.5677 0.0000 -16.0558 0.0000
# 4 0.0000 0.0000 0.0000 30.2280 0.0000 -1.3984
# 5 -4.6773 -20.7397 -16.0558 0.0000 23.2956 0.0000
# 6 0.0000 0.0000 0.0000 -1.3984 0.0000 17.6478
#
#
#
# Elastic Compliance Matrix: (Units=1/GPa)
#
#
# Indices 1 2 3 4 5 6 
#
# 1 0.020714 0.003286 -0.001874 0.000000 0.005793 0.000000
# 2 0.003286 0.293070 -0.067255 0.000000 0.215222 0.000000
# 3 -0.001874 -0.067255 0.021325 0.000000 -0.045554 0.000000
# 4 0.000000 0.000000 0.000000 0.033204 0.000000 0.002631
# 5 0.005793 0.215222 -0.045554 0.000000 0.204302 0.000000
# 6 0.000000 0.000000 0.000000 0.002631 0.000000 0.056873
#
#
# Mechanical properties :
#
#
# Convention : Reuss Voigt Hill
#
# Bulk Modulus (GPa) = 4.91582 45.20527 25.06055
# Shear Modulus (GPa) = 6.03150 26.99654 16.51402
#
# Velocity S-wave (km/s) = 1.65877 3.50936 2.74474
# Velocity P-wave (km/s) = 2.43131 6.08631 4.63435
#
# Compressibility (1/GPa) = 0.20342476
#
# Stress axis : x y z
#
# Youngs Moduli (GPa) = 48.27613 3.41215 46.89231
#
# Poissons Ratio (x) = -0.01121 0.08787
# Poissons Ratio (y) = -0.15865 3.15375
# Poissons Ratio (z) = 0.09046 0.22948
#
# Static dielectric constant tensor:
#      x y z
#    x 1.859170 0.000000 0.009250 
#    y 0.000000 1.762850 0.000000 
#    z 0.009250 0.000000 1.865200 
# 
# From -- ./inp_files/31670.got.cif
#   From: 2010.05.17/outbox.cif.g08.bks.cpg/sg5_16_cif.got.tgz:31670.got - 2010.06.03 18:56:24.
