data_PCOD9121543
_publ_section_title
;
Structure prediction by ZEFSAII (Michael W. Deem and Ramdas Pophale) SiO2 
 PCOD9121543
Probable space group: C 2
;
_chemical_formula_sum "Si O2"
_cell_formula_units_Z 30
_cell_length_a 31.503858
_cell_length_b 6.131779
_cell_length_c 9.769639
_cell_angle_alpha 90.000000
_cell_angle_beta 54.599409
_cell_angle_gamma 90.000000
_cell_volume 1538.336237
_symmetry_space_group_name_H-M "C 2"
_symmetry_group_IT_number 5
_symmetry_cell_setting 'monoclinic'
loop_
_space_group_symop_operation_xyz
x,y,z
-x,y,-z
1/2+x,1/2+y,z
1/2-x,1/2+y,-z
loop_
_atom_site_type_symbol
_atom_site_label
_atom_site_fract_x
_atom_site_fract_y
_atom_site_fract_z
Si Si1 0.623895 0.725300 0.619555
Si Si2 0.076699 0.488275 0.481066
Si Si3 0.337218 0.366793 0.668820
Si Si4 0.633731 0.505823 0.874349
Si Si5 0.817776 0.605176 0.332329
Si Si6 0.596122 0.600898 0.242232
Si Si7 0.259966 0.760116 0.296263
Si Si8 0.000000 0.791855 0.500000
O O1 0.651809 0.538479 0.475923
O O2 0.607725 0.621659 0.792787
O O3 0.580331 0.826618 0.602804
O O4 0.660778 0.921202 0.603552
O O5 0.123363 0.662608 0.410063
O O6 0.085387 0.337125 0.330240
O O7 0.024579 0.629214 0.566150
O O8 0.353614 0.499755 0.773124
O O9 0.279250 0.274634 0.757476
O O10 0.638517 0.256517 0.816551
O O11 0.694135 0.582926 0.782691
O O12 0.605821 0.578903 0.063971
O O13 0.776258 0.733066 0.501968
O O14 0.789233 0.487478 0.261069
O O15 0.547096 0.446264 0.367334
#
# Coordination Sequence:
#
# PCOD9121543 Si02
#       8
#     4   4   4   4   4   4   4   2
#     4  10  19  34  62  89 119 164 215 260 313 379
#     4  10  20  40  69  88 116 163 214 268 328 395
#     4  10  20  37  58  86 124 168 218 261 308 382
#     4  11  23  36  57  93 132 166 209 268 316 382
#     4  11  19  33  57  85 123 169 216 258 307 365
#     4  10  24  42  61  95 121 165 210 274 333 388
#     4  11  19  32  54  87 120 175 217 246 304 377
#     4  10  22  42  72  86 116 160 218 266 344 396
#
# _framework density 19.501587000000001
#
# number of rings (size 3 to 8) (size 9 to 14) (size 15 to 20)
#    0.000    1.600    4.000    1.200    0.000    4.267 
#    4.800    0.000    0.000   32.800    0.000    0.000 
#    0.000    0.000    0.000    0.000    0.000    0.000 
#
# Total GULP energy -83595.938780 kJ/mol
# GULP energy per Si atom -5573.062585 kJ/mol
# Density = 1.945720 g / cm^3
# Si number density = 19.501587 Si / 1000 Ang^3
#
#
#
# Elastic Constant Matrix: (Units=GPa)
#
#
# Indices 1 2 3 4 5 6 
#
# 1 74.4485 33.7734 16.8772 0.0000 4.5260 0.0000
# 2 33.7734 104.3300 29.8530 0.0000 8.7389 0.0000
# 3 16.8772 29.8530 89.0690 0.0000 24.2386 0.0000
# 4 0.0000 0.0000 0.0000 10.6979 0.0000 9.8782
# 5 4.5260 8.7389 24.2386 0.0000 17.3696 0.0000
# 6 0.0000 0.0000 0.0000 9.8782 0.0000 41.8086
#
#
#
# Elastic Compliance Matrix: (Units=1/GPa)
#
#
# Indices 1 2 3 4 5 6 
#
# 1 0.015907 -0.004744 -0.001525 0.000000 0.000369 0.000000
# 2 -0.004744 0.012021 -0.002935 0.000000 -0.000715 0.000000
# 3 -0.001525 -0.002935 0.019331 0.000000 -0.025101 0.000000
# 4 0.000000 0.000000 0.000000 0.119561 0.000000 -0.028249
# 5 0.000369 -0.000715 -0.025101 0.000000 0.092864 0.000000
# 6 0.000000 0.000000 0.000000 -0.028249 0.000000 0.030593
#
#
# Mechanical properties :
#
#
# Convention : Reuss Voigt Hill
#
# Bulk Modulus (GPa) = 34.66114 47.65054 41.15584
# Shear Modulus (GPa) = 15.70837 26.46481 21.08659
#
# Velocity S-wave (km/s) = 2.84120 3.68782 3.29184
# Velocity P-wave (km/s) = 5.34559 6.52845 5.96640
#
# Compressibility (1/GPa) = 0.02885075
#
# Stress axis : x y z
#
# Youngs Moduli (GPa) = 62.86350 83.19072 51.73071
#
# Poissons Ratio (x) = 0.39467 0.07887
# Poissons Ratio (y) = 0.29824 0.15184
# Poissons Ratio (z) = 0.09584 0.24419
#
# Static dielectric constant tensor:
#      x y z
#    x 1.700290 0.000000 0.025260 
#    y 0.000000 1.743740 0.000000 
#    z 0.025260 0.000000 1.655050 
# 
# From -- ./inp_files/32267.got.cif
#   From: 2010.05.17/outbox.cif.g08.bks.cpg/sg5_17_cif.got.tgz:32267.got - 2010.06.03 18:56:24.
