data_PCOD9121804
_publ_section_title
;
Structure prediction by ZEFSAII (Michael W. Deem and Ramdas Pophale) SiO2 
 PCOD9121804
Probable space group: C 2
;
_chemical_formula_sum "Si O2"
_cell_formula_units_Z 26
_cell_length_a 20.227345
_cell_length_b 8.415823
_cell_length_c 12.941188
_cell_angle_alpha 90.000000
_cell_angle_beta 38.631608
_cell_angle_gamma 90.000000
_cell_volume 1375.340894
_symmetry_space_group_name_H-M "C 2"
_symmetry_group_IT_number 5
_symmetry_cell_setting 'monoclinic'
loop_
_space_group_symop_operation_xyz
x,y,z
-x,y,-z
1/2+x,1/2+y,z
1/2-x,1/2+y,-z
loop_
_atom_site_type_symbol
_atom_site_label
_atom_site_fract_x
_atom_site_fract_y
_atom_site_fract_z
Si Si1 0.270577 0.376560 0.025261
Si Si2 0.498333 0.245032 0.785457
Si Si3 0.565881 0.964955 0.023841
Si Si4 0.717963 0.574572 0.193264
Si Si5 0.000000 0.933847 0.000000
Si Si6 0.679584 0.642652 0.870036
Si Si7 0.899726 0.815093 0.551488
O O1 0.194711 0.244951 0.170123
O O2 0.287736 0.524213 0.079346
O O3 0.381645 0.284313 0.885088
O O4 0.253912 0.452991 0.934456
O O5 0.510449 0.332293 0.881477
O O6 0.572049 0.304908 0.603544
O O7 0.499677 0.057199 0.808276
O O8 0.500000 0.962111 0.000000
O O9 0.603906 0.786587 0.998629
O O10 0.671893 0.072810 0.877871
O O11 0.629023 0.490896 0.370445
O O12 0.105622 0.041191 0.883180
O O13 0.790210 0.717374 0.697475
O O14 0.000000 0.759028 0.500000
#
# Coordination Sequence:
#
# PCOD9121804 Si02
#       7
#     4   4   4   4   2   4   4
#     4  10  20  38  64  91 115 167 213 253 301 382
#     4  10  21  38  64  85 124 161 208 260 309 366
#     4  10  19  36  61  90 113 164 213 250 295 376
#     4  10  20  36  64  87 124 159 209 255 310 363
#     4  10  20  42  60  88 116 166 214 246 302 384
#     4  10  22  39  62  91 124 159 212 257 306 372
#     4  11  22  41  59  92 129 159 197 268 320 356
#
# _framework density 18.904402999999999
#
# number of rings (size 3 to 8) (size 9 to 14) (size 15 to 20)
#    0.000    1.846    3.077    1.846    2.154    0.000 
#    5.538    3.846    0.000    0.000    0.000    0.000 
#    0.000    0.000    0.000    0.000    0.000    0.000 
#
# Total GULP energy -72400.016192 kJ/mol
# GULP energy per Si atom -5569.232015 kJ/mol
# Density = 1.886138 g / cm^3
# Si number density = 18.904403 Si / 1000 Ang^3
#
#
#
# Elastic Constant Matrix: (Units=GPa)
#
#
# Indices 1 2 3 4 5 6 
#
# 1 108.5824 36.9009 37.7247 0.0000 6.3604 0.0000
# 2 36.9009 118.5694 56.7521 0.0000 15.0257 0.0000
# 3 37.7247 56.7521 104.7876 0.0000 13.6521 0.0000
# 4 0.0000 0.0000 0.0000 11.5798 0.0000 -6.2860
# 5 6.3604 15.0257 13.6521 0.0000 25.2176 0.0000
# 6 0.0000 0.0000 0.0000 -6.2860 0.0000 27.9447
#
#
#
# Elastic Compliance Matrix: (Units=1/GPa)
#
#
# Indices 1 2 3 4 5 6 
#
# 1 0.010880 -0.002039 -0.002811 0.000000 -0.000007 0.000000
# 2 -0.002039 0.012099 -0.005322 0.000000 -0.003814 0.000000
# 3 -0.002811 -0.005322 0.013913 0.000000 -0.003652 0.000000
# 4 0.000000 0.000000 0.000000 0.098369 0.000000 0.022127
# 5 -0.000007 -0.003814 -0.003652 0.000000 0.043906 0.000000
# 6 0.000000 0.000000 0.000000 0.022127 0.000000 0.040762
#
#
# Mechanical properties :
#
#
# Convention : Reuss Voigt Hill
#
# Bulk Modulus (GPa) = 60.43357 66.07720 63.25538
# Shear Modulus (GPa) = 20.34255 26.31921 23.33088
#
# Velocity S-wave (km/s) = 3.28392 3.73530 3.51686
# Velocity P-wave (km/s) = 6.81294 7.32342 7.07279
#
# Compressibility (1/GPa) = 0.01654710
#
# Stress axis : x y z
#
# Youngs Moduli (GPa) = 91.91287 82.65112 71.87402
#
# Poissons Ratio (x) = 0.16857 0.20207
# Poissons Ratio (y) = 0.18745 0.38249
# Poissons Ratio (z) = 0.25840 0.43984
#
# Static dielectric constant tensor:
#      x y z
#    x 1.702220 0.000000 -0.005000 
#    y 0.000000 1.720500 0.000000 
#    z -0.005000 0.000000 1.661500 
# 
# From -- ./inp_files/41827.got.cif
#   From: 2010.05.17/outbox.cif.g08.bks.cpg/sg5_21_cif.got.tgz:41827.got - 2010.06.03 18:56:24.
