data_PCOD9121438
_publ_section_title
;
Structure prediction by ZEFSAII (Michael W. Deem and Ramdas Pophale) SiO2 
 PCOD9121438
Probable space group: C 2
;
_chemical_formula_sum "Si O2"
_cell_formula_units_Z 32
_cell_length_a 16.499481
_cell_length_b 7.544866
_cell_length_c 10.771085
_cell_angle_alpha 90.000000
_cell_angle_beta 72.552743
_cell_angle_gamma 90.000000
_cell_volume 1279.165149
_symmetry_space_group_name_H-M "C 2"
_symmetry_group_IT_number 5
_symmetry_cell_setting 'monoclinic'
loop_
_space_group_symop_operation_xyz
x,y,z
-x,y,-z
1/2+x,1/2+y,z
1/2-x,1/2+y,-z
loop_
_atom_site_type_symbol
_atom_site_label
_atom_site_fract_x
_atom_site_fract_y
_atom_site_fract_z
Si Si1 0.803397 0.844060 0.517044
Si Si2 0.251625 0.219834 0.908949
Si Si3 0.423301 0.576423 0.953319
Si Si4 0.889811 0.909227 0.730328
Si Si5 0.273587 0.930946 0.699236
Si Si6 0.541053 0.029615 0.353902
Si Si7 0.847132 0.705953 0.095523
Si Si8 0.370185 0.000432 0.329414
O O1 0.865524 0.924661 0.595041
O O2 0.782967 0.941543 0.397509
O O3 0.842061 0.661296 0.439747
O O4 0.708126 0.864040 0.620761
O O5 0.299574 0.396517 0.844919
O O6 0.255556 0.104524 0.784606
O O7 0.315134 0.131819 0.980006
O O8 0.156346 0.208737 0.999152
O O9 0.441058 0.537209 0.799321
O O10 0.500000 0.647312 0.000000
O O11 0.398291 0.386136 0.033057
O O12 0.932901 0.714629 0.722233
O O13 0.237901 0.772956 0.796725
O O14 0.375208 0.919106 0.648645
O O15 0.500000 0.090773 0.500000
O O16 0.463419 0.932526 0.322742
O O17 0.883372 0.579837 0.184877
#
# Coordination Sequence:
#
# PCOD9121438 Si02
#       8
#     4   4   4   4   4   4   4   4
#     4  11  20  35  54  85 111 148 184 228 279 335
#     4   9  18  36  54  77 108 149 179 222 285 333
#     4  10  19  34  54  79 112 141 182 233 280 320
#     4  10  20  33  57  81 107 142 192 230 268 336
#     4   9  19  33  55  79 111 143 184 232 280 331
#     4  11  18  35  55  82 112 148 185 233 284 323
#     4   9  19  34  55  80 106 147 189 226 272 335
#     4  11  21  34  58  82 114 145 191 232 277 333
#
# _framework density 25.016316
#
# number of rings (size 3 to 8) (size 9 to 14) (size 15 to 20)
#    0.000    2.000    2.500    2.250    0.000    0.000 
#    0.000    1.250    0.000    6.000    0.000    0.000 
#    0.000    0.000    0.000    0.000    0.000    0.000 
#
# Total GULP energy -89152.335868 kJ/mol
# GULP energy per Si atom -5572.020992 kJ/mol
# Density = 2.495938 g / cm^3
# Si number density = 25.016316 Si / 1000 Ang^3
#
#
#
# Elastic Constant Matrix: (Units=GPa)
#
#
# Indices 1 2 3 4 5 6 
#
# 1 123.4260 5.6955 44.1291 0.0000 38.5871 0.0000
# 2 5.6955 42.4283 21.0483 0.0000 14.8778 0.0000
# 3 44.1291 21.0483 114.2459 0.0000 33.6780 0.0000
# 4 0.0000 0.0000 0.0000 29.6034 0.0000 -2.4773
# 5 38.5871 14.8778 33.6780 0.0000 42.8385 0.0000
# 6 0.0000 0.0000 0.0000 -2.4773 0.0000 25.9839
#
#
#
# Elastic Compliance Matrix: (Units=1/GPa)
#
#
# Indices 1 2 3 4 5 6 
#
# 1 0.011879 0.003006 -0.002187 0.000000 -0.010025 0.000000
# 2 0.003006 0.028335 -0.003492 0.000000 -0.009803 0.000000
# 3 -0.002187 -0.003492 0.012109 0.000000 -0.006337 0.000000
# 4 0.000000 0.000000 0.000000 0.034052 0.000000 0.003246
# 5 -0.010025 -0.009803 -0.006337 0.000000 0.040760 0.000000
# 6 0.000000 0.000000 0.000000 0.003246 0.000000 0.038795
#
#
# Mechanical properties :
#
#
# Convention : Reuss Voigt Hill
#
# Bulk Modulus (GPa) = 21.28654 46.87177 34.07916
# Shear Modulus (GPa) = 26.74712 33.63366 30.19039
#
# Velocity S-wave (km/s) = 3.27339 3.67068 3.47771
# Velocity P-wave (km/s) = 4.77643 6.06154 5.45695
#
# Compressibility (1/GPa) = 0.04697804
#
# Stress axis : x y z
#
# Youngs Moduli (GPa) = 84.17925 35.29148 82.58172
#
# Poissons Ratio (x) = -0.10607 0.18062
# Poissons Ratio (y) = -0.25301 0.28834
# Poissons Ratio (z) = 0.18411 0.12322
#
# Static dielectric constant tensor:
#      x y z
#    x 2.052070 0.000000 0.012530 
#    y 0.000000 2.060370 0.000000 
#    z 0.012530 0.000000 2.020400 
# 
# From -- ./inp_files/42474.got.cif
#   From: 2010.05.17/outbox.cif.g08.bks.cpg/sg5_22_cif.got.tgz:42474.got - 2010.06.03 18:56:24.
