data_PCOD9121451
_publ_section_title
;
Structure prediction by ZEFSAII (Michael W. Deem and Ramdas Pophale) SiO2 
 PCOD9121451
Probable space group: C 2
;
_chemical_formula_sum "Si O2"
_cell_formula_units_Z 18
_cell_length_a 6.613448
_cell_length_b 20.078349
_cell_length_c 7.808679
_cell_angle_alpha 90.000000
_cell_angle_beta 134.445073
_cell_angle_gamma 90.000000
_cell_volume 740.260045
_symmetry_space_group_name_H-M "C 2"
_symmetry_group_IT_number 5
_symmetry_cell_setting 'monoclinic'
loop_
_space_group_symop_operation_xyz
x,y,z
-x,y,-z
1/2+x,1/2+y,z
1/2-x,1/2+y,-z
loop_
_atom_site_type_symbol
_atom_site_label
_atom_site_fract_x
_atom_site_fract_y
_atom_site_fract_z
Si Si1 0.928571 0.182380 0.188068
Si Si2 0.902631 0.474251 0.691923
Si Si3 0.429044 0.234459 0.690602
Si Si4 0.500000 0.355028 0.500000
Si Si5 0.927448 0.025130 0.184967
O O1 0.750401 0.211229 0.247863
O O2 0.947545 0.103487 0.170484
O O3 0.240068 0.205550 0.424934
O O4 0.739004 0.208762 0.920621
O O5 0.780881 0.401304 0.668689
O O6 0.729667 0.493163 0.417112
O O7 0.754843 0.519842 0.748453
O O8 0.231894 0.488545 0.926292
O O9 0.468533 0.310744 0.652730
#
# Coordination Sequence:
#
# PCOD9121451 Si02
#       5
#     4   4   4   2   4
#     4  10  19  34  55  79  97 134 175 217 259 294
#     4   9  17  27  47  72  98 124 163 221 241 281
#     4  10  20  32  50  75 111 135 166 207 253 320
#     4  10  22  34  48  82 112 140 166 198 272 318
#     4   9  15  29  50  73  90 119 177 223 241 267
#
# _framework density 24.315778000000002
#
# number of rings (size 3 to 8) (size 9 to 14) (size 15 to 20)
#    0.000    2.667    0.000    6.667    0.000    8.000 
#    0.000    0.000    0.000    0.000    0.000  189.778 
#    0.000    0.000    0.000    0.000    0.000    0.000 
#
# Total GULP energy -50159.120322 kJ/mol
# GULP energy per Si atom -5573.235591 kJ/mol
# Density = 2.426043 g / cm^3
# Si number density = 24.315778 Si / 1000 Ang^3
#
#
#
# Elastic Constant Matrix: (Units=GPa)
#
#
# Indices 1 2 3 4 5 6 
#
# 1 116.5214 23.5198 85.3845 0.0000 33.4281 0.0000
# 2 23.5198 167.3623 81.7452 0.0000 21.9624 0.0000
# 3 85.3845 81.7452 317.8005 0.0000 31.1431 0.0000
# 4 0.0000 0.0000 0.0000 230.8791 0.0000 -233.9346
# 5 33.4281 21.9624 31.1431 0.0000 71.3392 0.0000
# 6 0.0000 0.0000 0.0000 -233.9346 0.0000 90.9343
#
#
#
# Elastic Compliance Matrix: (Units=1/GPa)
#
#
# Indices 1 2 3 4 5 6 
#
# 1 0.011863 0.000295 -0.002831 0.000000 -0.004414 0.000000
# 2 0.000295 0.006977 -0.001723 0.000000 -0.001534 0.000000
# 3 -0.002831 -0.001723 0.004355 0.000000 -0.000044 0.000000
# 4 0.000000 0.000000 0.000000 -0.002696 0.000000 -0.006935
# 5 -0.004414 -0.001534 -0.000044 0.000000 0.016577 0.000000
# 6 0.000000 0.000000 0.000000 -0.006935 0.000000 -0.006845
#
#
# Mechanical properties :
#
#
# Convention : Reuss Voigt Hill
#
# Bulk Modulus (GPa) = 68.13962 109.22036 88.67999
# Shear Modulus (GPa) = 114.56970 106.03281 110.30126
#
# Velocity S-wave (km/s) = 6.87166 6.61069 6.74244
# Velocity P-wave (km/s) = 9.54166 10.16284 9.85714
#
# Compressibility (1/GPa) = 0.01467575
#
# Stress axis : x y z
#
# Youngs Moduli (GPa) = 84.29535 143.33477 229.63457
#
# Poissons Ratio (x) = -0.04222 0.64999
# Poissons Ratio (y) = -0.02483 0.39576
# Poissons Ratio (z) = 0.23860 0.24703
#
# Static dielectric constant tensor:
#      x y z
#    x 1.842970 0.000000 -0.186750 
#    y 0.000000 1.894520 0.000000 
#    z -0.186750 0.000000 1.814490 
# 
# From -- ./inp_files/16601.got.cif
#   From: 2010.05.17/outbox.cif.g08.bks.cpg/sg5_9_cif.got.tgz:16601.got - 2010.06.03 18:56:24.
