data_PCOD9121754
_publ_section_title
;
Structure prediction by ZEFSAII (Michael W. Deem and Ramdas Pophale) SiO2 
 PCOD9121754
Probable space group: C 2
;
_chemical_formula_sum "Si O2"
_cell_formula_units_Z 28
_cell_length_a 31.309287
_cell_length_b 8.855267
_cell_length_c 9.066228
_cell_angle_alpha 90.000000
_cell_angle_beta 146.973560
_cell_angle_gamma 90.000000
_cell_volume 1369.994080
_symmetry_space_group_name_H-M "C 2"
_symmetry_group_IT_number 5
_symmetry_cell_setting 'monoclinic'
loop_
_space_group_symop_operation_xyz
x,y,z
-x,y,-z
1/2+x,1/2+y,z
1/2-x,1/2+y,-z
loop_
_atom_site_type_symbol
_atom_site_label
_atom_site_fract_x
_atom_site_fract_y
_atom_site_fract_z
Si Si1 0.804495 0.322110 0.015171
Si Si2 0.868702 0.218749 0.628713
Si Si3 0.080748 0.715645 0.825299
Si Si4 0.040336 0.938170 0.967210
Si Si5 0.459318 0.709732 0.609541
Si Si6 0.712136 0.170868 0.987618
Si Si7 0.620582 0.880986 0.050627
O O1 0.885058 0.239595 0.293564
O O2 0.732650 0.243001 0.889374
O O3 0.809394 0.326436 0.853376
O O4 0.809236 0.494481 0.086683
O O5 0.933010 0.268337 0.694685
O O6 0.791267 0.182113 0.313013
O O7 0.857026 0.345946 0.717232
O O8 0.899920 0.067454 0.800694
O O9 0.075962 0.824173 0.952784
O O10 0.102802 0.551573 0.953777
O O11 0.000000 0.708899 0.500000
O O12 0.146105 0.753966 0.891915
O O13 0.976710 0.034479 0.689523
O O14 0.000000 0.874348 0.000000
O O15 0.538709 0.790646 0.789350
#
# Coordination Sequence:
#
# PCOD9121754 Si02
#       7
#     4   4   4   4   4   4   4
#     4  10  21  37  59  84 116 154 194 239 285 342
#     4   9  20  38  59  83 114 151 191 235 285 348
#     4  11  24  38  55  85 119 148 190 245 288 336
#     4   9  20  37  60  86 113 147 191 239 286 341
#     4   9  18  37  60  84 113 150 193 232 279 344
#     4  10  23  41  57  84 119 152 194 242 290 343
#     4  10  19  36  59  84 113 150 191 234 285 340
#
# _framework density 20.438044999999999
#
# number of rings (size 3 to 8) (size 9 to 14) (size 15 to 20)
#    0.000    2.286    0.000    3.429    0.000   11.429 
#    0.000    5.714    0.000    0.000    0.000    0.000 
#    0.000    0.000    0.000    0.000    0.000    0.000 
#
# Total GULP energy -78103.570280 kJ/mol
# GULP energy per Si atom -5578.826449 kJ/mol
# Density = 2.039153 g / cm^3
# Si number density = 20.438045 Si / 1000 Ang^3
#
#
#
# Elastic Constant Matrix: (Units=GPa)
#
#
# Indices 1 2 3 4 5 6 
#
# 1 190.7235 59.7578 8.7318 0.0000 0.5335 0.0000
# 2 59.7578 40.9352 -2.9583 0.0000 -3.3152 0.0000
# 3 8.7318 -2.9583 41.2394 0.0000 6.1748 0.0000
# 4 0.0000 0.0000 0.0000 12.5992 0.0000 -7.5337
# 5 0.5335 -3.3152 6.1748 0.0000 24.6142 0.0000
# 6 0.0000 0.0000 0.0000 -7.5337 0.0000 31.5344
#
#
#
# Elastic Compliance Matrix: (Units=1/GPa)
#
#
# Indices 1 2 3 4 5 6 
#
# 1 0.010119 -0.015111 -0.003002 0.000000 -0.001502 0.000000
# 2 -0.015111 0.047333 0.005810 0.000000 0.005245 0.000000
# 3 -0.003002 0.005810 0.026157 0.000000 -0.005714 0.000000
# 4 0.000000 0.000000 0.000000 0.092598 0.000000 0.022122
# 5 -0.001502 0.005245 -0.005714 0.000000 0.042799 0.000000
# 6 0.000000 0.000000 0.000000 0.022122 0.000000 0.036996
#
#
# Mechanical properties :
#
#
# Convention : Reuss Voigt Hill
#
# Bulk Modulus (GPa) = 16.94853 44.88452 30.91653
# Shear Modulus (GPa) = 16.65129 27.57401 22.11265
#
# Velocity S-wave (km/s) = 2.85743 3.67706 3.29285
# Velocity P-wave (km/s) = 4.38146 6.32745 5.44214
#
# Compressibility (1/GPa) = 0.05900215
#
# Stress axis : x y z
#
# Youngs Moduli (GPa) = 98.81981 21.12702 38.23137
#
# Poissons Ratio (x) = 0.31925 0.11476
# Poissons Ratio (y) = 1.49327 -0.22211
# Poissons Ratio (z) = 0.29663 -0.12274
#
# Static dielectric constant tensor:
#      x y z
#    x 1.762780 0.000000 0.004800 
#    y 0.000000 1.713630 0.000000 
#    z 0.004800 0.000000 1.744070 
# 
# From -- ./inp_files/32512.got.cif
#   From: 2010.05.17/outbox.cif.g08.bks.cpg/sg5_17_cif.got.tgz:32512.got - 2010.06.03 18:56:24.
