data_PCOD9121433
_publ_section_title
;
Structure prediction by ZEFSAII (Michael W. Deem and Ramdas Pophale) SiO2 
 PCOD9121433
Probable space group: C 2
;
_chemical_formula_sum "Si O2"
_cell_formula_units_Z 26
_cell_length_a 12.943416
_cell_length_b 19.191273
_cell_length_c 5.449446
_cell_angle_alpha 90.000000
_cell_angle_beta 114.411765
_cell_angle_gamma 90.000000
_cell_volume 1232.628280
_symmetry_space_group_name_H-M "C 2"
_symmetry_group_IT_number 5
_symmetry_cell_setting 'monoclinic'
loop_
_space_group_symop_operation_xyz
x,y,z
-x,y,-z
1/2+x,1/2+y,z
1/2-x,1/2+y,-z
loop_
_atom_site_type_symbol
_atom_site_label
_atom_site_fract_x
_atom_site_fract_y
_atom_site_fract_z
Si Si1 0.117250 0.323060 0.206324
Si Si2 0.304930 0.869497 0.216143
Si Si3 0.886257 0.965297 0.048995
Si Si4 0.573420 0.623689 0.820184
Si Si5 0.352190 0.241783 0.512910
Si Si6 0.500000 0.360717 0.500000
Si Si7 0.795555 0.715114 0.956504
O O1 0.113737 0.357333 0.471467
O O2 0.223016 0.270435 0.341699
O O3 0.141676 0.375070 0.002906
O O4 0.000000 0.288713 0.000000
O O5 0.232340 0.797422 0.114868
O O6 0.223012 0.934073 0.191097
O O7 0.908449 0.911456 0.291106
O O8 0.878640 0.044715 0.123911
O O9 0.000000 0.960191 0.000000
O O10 0.500000 0.631465 0.500000
O O11 0.678669 0.675499 0.892612
O O12 0.500000 0.632100 0.000000
O O13 0.433599 0.308824 0.616381
O O14 0.350494 0.194979 0.751180
O O15 0.374557 0.207232 0.270926
#
# Coordination Sequence:
#
# PCOD9121433 Si02
#       7
#     4   4   4   4   4   2   4
#     4  10  19  34  52  83 117 154 199 246 302 357
#     4  10  21  35  55  86 115 160 201 246 306 350
#     4  11  22  37  61  92 132 161 204 255 320 380
#     4  11  24  38  59  90 128 170 199 250 327 381
#     4  10  22  34  59  88 116 163 203 258 313 348
#     4  12  20  38  64  92 130 154 214 268 308 384
#     4  10  20  37  51  83 123 153 205 241 300 377
#
# _framework density 21.093138
#
# number of rings (size 3 to 8) (size 9 to 14) (size 15 to 20)
#    0.000    1.538    3.846    3.231    0.000    7.385 
#    0.000    0.000    0.000    0.000    8.000    0.000 
#    0.000    0.000    0.000    0.000    0.000    0.000 
#
# Total GULP energy -72513.107121 kJ/mol
# GULP energy per Si atom -5577.931317 kJ/mol
# Density = 2.104513 g / cm^3
# Si number density = 21.093138 Si / 1000 Ang^3
#
#
#
# Elastic Constant Matrix: (Units=GPa)
#
#
# Indices 1 2 3 4 5 6 
#
# 1 71.2944 37.1311 30.6755 0.0000 -16.7415 0.0000
# 2 37.1311 86.5412 27.0074 0.0000 1.5258 0.0000
# 3 30.6755 27.0074 153.8192 0.0000 -30.1448 0.0000
# 4 0.0000 0.0000 0.0000 17.0932 0.0000 6.8553
# 5 -16.7415 1.5258 -30.1448 0.0000 46.3329 0.0000
# 6 0.0000 0.0000 0.0000 6.8553 0.0000 26.8002
#
#
#
# Elastic Compliance Matrix: (Units=1/GPa)
#
#
# Indices 1 2 3 4 5 6 
#
# 1 0.020675 -0.008602 -0.001253 0.000000 0.006938 0.000000
# 2 -0.008602 0.015978 -0.002066 0.000000 -0.004978 0.000000
# 3 -0.001253 -0.002066 0.008067 0.000000 0.004864 0.000000
# 4 0.000000 0.000000 0.000000 0.065191 0.000000 -0.016675
# 5 0.006938 -0.004978 0.004864 0.000000 0.027418 0.000000
# 6 0.000000 0.000000 0.000000 -0.016675 0.000000 0.041579
#
#
# Mechanical properties :
#
#
# Convention : Reuss Voigt Hill
#
# Bulk Modulus (GPa) = 47.89543 55.69811 51.79677
# Shear Modulus (GPa) = 23.84262 32.50131 28.17196
#
# Velocity S-wave (km/s) = 3.36571 3.92962 3.65855
# Velocity P-wave (km/s) = 6.15305 6.85947 6.51584
#
# Compressibility (1/GPa) = 0.02087882
#
# Stress axis : x y z
#
# Youngs Moduli (GPa) = 48.36806 62.58470 123.96395
#
# Poissons Ratio (x) = 0.53835 0.15532
# Poissons Ratio (y) = 0.41606 0.25606
# Poissons Ratio (z) = 0.06060 0.12928
#
# Static dielectric constant tensor:
#      x y z
#    x 1.894150 0.000000 -0.061280 
#    y 0.000000 1.717270 0.000000 
#    z -0.061280 0.000000 1.903940 
# 
# From -- ./inp_files/5432.got.cif
#   From: 2010.05.17/outbox.cif.g08.bks.cpg/sg5_3_cif.got.tgz:5432.got - 2010.06.03 18:56:24.
