data_PCOD9121259
_publ_section_title
;
Structure prediction by ZEFSAII (Michael W. Deem and Ramdas Pophale) SiO2 
 PCOD9121259
Probable space group: C 2
;
_chemical_formula_sum "Si O2"
_cell_formula_units_Z 32
_cell_length_a 30.009778
_cell_length_b 7.485543
_cell_length_c 7.967338
_cell_angle_alpha 90.000000
_cell_angle_beta 139.902212
_cell_angle_gamma 90.000000
_cell_volume 1152.785894
_symmetry_space_group_name_H-M "C 2"
_symmetry_group_IT_number 5
_symmetry_cell_setting 'monoclinic'
loop_
_space_group_symop_operation_xyz
x,y,z
-x,y,-z
1/2+x,1/2+y,z
1/2-x,1/2+y,-z
loop_
_atom_site_type_symbol
_atom_site_label
_atom_site_fract_x
_atom_site_fract_y
_atom_site_fract_z
Si Si1 0.172375 0.885160 0.157935
Si Si2 0.794052 0.380839 0.296146
Si Si3 0.046432 0.304558 0.985697
Si Si4 0.546432 0.383493 0.985698
Si Si5 0.172374 0.302890 0.157935
Si Si6 0.414843 0.308871 0.425316
Si Si7 0.914843 0.379179 0.425315
Si Si8 0.794052 0.807212 0.296147
O O1 0.124967 0.874373 0.853288
O O2 0.121257 0.805525 0.151863
O O3 0.181544 0.094025 0.218184
O O4 0.246480 0.808439 0.311198
O O5 0.869594 0.315303 0.457322
O O6 0.797320 0.594025 0.325392
O O7 0.750000 0.344027 0.999999
O O8 0.993281 0.321637 0.676995
O O9 0.121257 0.382525 0.151863
O O10 0.055806 0.094025 0.043987
O O11 0.000000 0.386997 0.000000
O O12 0.493281 0.366414 0.676995
O O13 0.500000 0.301054 0.000000
O O14 0.124966 0.313677 0.853288
O O15 0.246480 0.379612 0.311201
O O16 0.369594 0.372747 0.457323
O O17 0.412761 0.094025 0.414095
#
# Coordination Sequence:
#
# PCOD9121259 Si02
#       8
#     4   4   4   4   4   4   4   4
#     4   9  17  32  53  72  93 124 160 194 229 276
#     4   8  15  28  47  71  95 119 150 190 234 277
#     4  10  21  35  49  67  94 129 165 196 228 273
#     4  10  21  35  49  67  94 129 165 196 228 273
#     4   9  17  32  53  72  93 124 160 194 229 276
#     4  10  19  31  50  75  99 121 151 195 242 283
#     4  10  19  31  50  75  99 121 151 195 242 283
#     4   8  15  28  47  71  95 119 150 190 234 277
#
# _framework density 27.758838999999998
#
# number of rings (size 3 to 8) (size 9 to 14) (size 15 to 20)
#    0.000    2.750    0.000    1.500    0.000    5.500 
#    0.000    1.250    0.000    0.000    0.000    0.000 
#    0.000    0.000    0.000    0.000    0.000    0.000 
#
# Total GULP energy -89531.977364 kJ/mol
# GULP energy per Si atom -5595.748585 kJ/mol
# Density = 2.769566 g / cm^3
# Si number density = 27.758839 Si / 1000 Ang^3
#
#
#
# Elastic Constant Matrix: (Units=GPa)
#
#
# Indices 1 2 3 4 5 6 
#
# 1 252.2542 15.8767 45.0120 0.0000 38.8591 0.0000
# 2 15.8767 140.2356 27.7754 0.0000 -5.3296 0.0000
# 3 45.0120 27.7754 120.3604 0.0000 33.6606 0.0000
# 4 0.0000 0.0000 0.0000 30.6579 0.0000 -7.0895
# 5 38.8591 -5.3296 33.6606 0.0000 71.9433 0.0000
# 6 0.0000 0.0000 0.0000 -7.0895 0.0000 11.5454
#
#
#
# Elastic Compliance Matrix: (Units=1/GPa)
#
#
# Indices 1 2 3 4 5 6 
#
# 1 0.004475 -0.000375 -0.001039 0.000000 -0.001959 0.000000
# 2 -0.000375 0.007660 -0.002120 0.000000 0.001762 0.000000
# 3 -0.001039 -0.002120 0.010439 0.000000 -0.004480 0.000000
# 4 0.000000 0.000000 0.000000 0.038016 0.000000 0.023344
# 5 -0.001959 0.001762 -0.004480 0.000000 0.017184 0.000000
# 6 0.000000 0.000000 0.000000 0.023344 0.000000 0.100949
#
#
# Mechanical properties :
#
#
# Convention : Reuss Voigt Hill
#
# Bulk Modulus (GPa) = 64.49464 76.68650 70.59057
# Shear Modulus (GPa) = 26.18331 51.10839 38.64585
#
# Velocity S-wave (km/s) = 3.07456 4.29553 3.73527
# Velocity P-wave (km/s) = 5.99068 7.23104 6.63989
#
# Compressibility (1/GPa) = 0.01550517
#
# Stress axis : x y z
#
# Youngs Moduli (GPa) = 223.46173 130.54401 95.79274
#
# Poissons Ratio (x) = 0.04899 0.09955
# Poissons Ratio (y) = 0.08386 0.20310
# Poissons Ratio (z) = 0.23222 0.27678
#
# Static dielectric constant tensor:
#      x y z
#    x 2.293570 0.000000 -0.066680 
#    y 0.000000 1.983880 0.000000 
#    z -0.066680 0.000000 2.198660 
# 
# From -- ./inp_files/28971.got.cif
#   From: 2010.05.17/outbox.cif.g08.bks.cpg/sg5_15_cif.got.tgz:28971.got - 2010.06.03 18:56:24.
