data_PCOD9121532
_publ_section_title
;
Structure prediction by ZEFSAII (Michael W. Deem and Ramdas Pophale) SiO2 
 PCOD9121532
Probable space group: C 2
;
_chemical_formula_sum "Si O2"
_cell_formula_units_Z 30
_cell_length_a 8.775869
_cell_length_b 21.074001
_cell_length_c 7.806652
_cell_angle_alpha 90.000000
_cell_angle_beta 92.367725
_cell_angle_gamma 90.000000
_cell_volume 1442.550466
_symmetry_space_group_name_H-M "C 2"
_symmetry_group_IT_number 5
_symmetry_cell_setting 'monoclinic'
loop_
_space_group_symop_operation_xyz
x,y,z
-x,y,-z
1/2+x,1/2+y,z
1/2-x,1/2+y,-z
loop_
_atom_site_type_symbol
_atom_site_label
_atom_site_fract_x
_atom_site_fract_y
_atom_site_fract_z
Si Si1 0.500000 0.963930 0.500000
Si Si2 0.181782 0.643079 0.990509
Si Si3 0.907041 0.297795 0.155249
Si Si4 0.179041 0.899863 0.008728
Si Si5 0.190317 0.369068 0.326419
Si Si6 0.793352 0.703153 0.665145
Si Si7 0.126296 0.510989 0.854811
Si Si8 0.350506 0.234146 0.305585
O O1 0.643617 0.916573 0.474083
O O2 0.539416 0.005117 0.669672
O O3 0.210978 0.577408 0.895902
O O4 0.216087 0.703294 0.870623
O O5 0.233957 0.650510 0.189260
O O6 0.000000 0.643346 0.000000
O O7 0.839971 0.252310 0.295701
O O8 0.028314 0.345579 0.243601
O O9 0.764431 0.336315 0.073346
O O10 0.000000 0.268269 0.000000
O O11 0.229196 0.909971 0.815711
O O12 0.000000 0.892778 0.000000
O O13 0.249218 0.955986 0.122857
O O14 0.289706 0.304616 0.348508
O O15 0.799430 0.690124 0.463611
O O16 0.964947 0.732111 0.702030
O O17 0.000000 0.501678 0.000000
#
# Coordination Sequence:
#
# PCOD9121532 Si02
#       8
#     2   4   4   4   4   4   4   4
#     4  12  22  38  66  96 126 162 216 262 310 370
#     4   9  20  37  61  86 119 161 210 257 302 359
#     4  10  19  34  60  88 123 161 204 247 307 380
#     4  11  21  38  60  87 123 164 205 257 316 374
#     4  11  21  37  60  93 129 160 206 254 317 375
#     4  10  20  37  58  89 123 158 201 247 314 366
#     4  11  22  42  64  90 122 167 220 260 306 371
#     4  10  21  36  58  92 125 157 197 256 312 373
#
# _framework density 20.796500000000002
#
# number of rings (size 3 to 8) (size 9 to 14) (size 15 to 20)
#    0.000    1.600    2.667    3.600    0.000    4.267 
#    0.000    2.000    0.000    0.000    3.467    0.000 
#    0.000    0.000    0.000    0.000    0.000    0.000 
#
# Total GULP energy -83644.217949 kJ/mol
# GULP energy per Si atom -5576.281197 kJ/mol
# Density = 2.074917 g / cm^3
# Si number density = 20.796500 Si / 1000 Ang^3
#
#
#
# Elastic Constant Matrix: (Units=GPa)
#
#
# Indices 1 2 3 4 5 6 
#
# 1 96.6452 19.7564 20.0870 0.0000 -3.9814 0.0000
# 2 19.7564 68.3829 26.0626 0.0000 0.8923 0.0000
# 3 20.0870 26.0626 111.6024 0.0000 -10.0634 0.0000
# 4 0.0000 0.0000 0.0000 18.8232 0.0000 -3.0126
# 5 -3.9814 0.8923 -10.0634 0.0000 25.5158 0.0000
# 6 0.0000 0.0000 0.0000 -3.0126 0.0000 12.9886
#
#
#
# Elastic Compliance Matrix: (Units=1/GPa)
#
#
# Indices 1 2 3 4 5 6 
#
# 1 0.011232 -0.002787 -0.001248 0.000000 0.001358 0.000000
# 2 -0.002787 0.016855 -0.003657 0.000000 -0.002467 0.000000
# 3 -0.001248 -0.003657 0.010403 0.000000 0.004036 0.000000
# 4 0.000000 0.000000 0.000000 0.055174 0.000000 0.012797
# 5 0.001358 -0.002467 0.004036 0.000000 0.041081 0.000000
# 6 0.000000 0.000000 0.000000 0.012797 0.000000 0.079959
#
#
# Mechanical properties :
#
#
# Convention : Reuss Voigt Hill
#
# Bulk Modulus (GPa) = 43.27998 45.38252 44.33125
# Shear Modulus (GPa) = 21.02694 25.51383 23.27038
#
# Velocity S-wave (km/s) = 3.18320 3.50642 3.34871
# Velocity P-wave (km/s) = 5.86231 6.18570 6.02617
#
# Compressibility (1/GPa) = 0.02310537
#
# Stress axis : x y z
#
# Youngs Moduli (GPa) = 89.02928 59.33081 96.12611
#
# Poissons Ratio (x) = 0.16536 0.12000
# Poissons Ratio (y) = 0.24813 0.35152
# Poissons Ratio (z) = 0.11114 0.21696
#
# Static dielectric constant tensor:
#      x y z
#    x 1.724330 0.000000 0.001070 
#    y 0.000000 1.798340 0.000000 
#    z 0.001070 0.000000 1.827090 
# 
# From -- ./inp_files/16811.got.cif
#   From: 2010.05.17/outbox.cif.g08.bks.cpg/sg5_9_cif.got.tgz:16811.got - 2010.06.03 18:56:24.
