data_PCOD9121071
_publ_section_title
;
Structure prediction by ZEFSAII (Michael W. Deem and Ramdas Pophale) SiO2 
 PCOD9121071
Probable space group: C 2
;
_chemical_formula_sum "Si O2"
_cell_formula_units_Z 28
_cell_length_a 8.124881
_cell_length_b 13.726789
_cell_length_c 14.568952
_cell_angle_alpha 90.000000
_cell_angle_beta 45.953092
_cell_angle_gamma 90.000000
_cell_volume 1167.897506
_symmetry_space_group_name_H-M "C 2"
_symmetry_group_IT_number 5
_symmetry_cell_setting 'monoclinic'
loop_
_space_group_symop_operation_xyz
x,y,z
-x,y,-z
1/2+x,1/2+y,z
1/2-x,1/2+y,-z
loop_
_atom_site_type_symbol
_atom_site_label
_atom_site_fract_x
_atom_site_fract_y
_atom_site_fract_z
Si Si1 0.359198 0.693360 0.220438
Si Si2 0.000000 0.332882 0.000000
Si Si3 0.522592 0.323430 0.139574
Si Si4 0.730080 0.542892 0.368605
Si Si5 0.325574 0.131811 0.136950
Si Si6 0.500000 0.889741 0.500000
Si Si7 0.310377 0.981140 0.747073
Si Si8 0.371250 0.248769 0.398461
O O1 0.587019 0.675825 0.191354
O O2 0.292881 0.588134 0.203994
O O3 0.115157 0.733612 0.355655
O O4 0.424921 0.764803 0.113395
O O5 0.235826 0.376969 0.943926
O O6 0.496761 0.218959 0.102338
O O7 0.353264 0.396888 0.156142
O O8 0.440045 0.296976 0.274200
O O9 0.500000 0.499453 0.500000
O O10 0.740226 0.571778 0.258400
O O11 0.775054 0.641210 0.411848
O O12 0.946922 0.475502 0.299129
O O13 0.500000 0.076901 0.000000
O O14 0.656024 0.818850 0.504393
O O15 0.354683 0.959647 0.622167
#
# Coordination Sequence:
#
# PCOD9121071 Si02
#       8
#     4   2   4   4   4   2   4   4
#     4  10  21  38  63  92 122 168 220 264 321 396
#     4  10  18  40  68  86 122 172 214 262 328 400
#     4   9  19  39  60  92 126 165 209 270 326 383
#     4  10  21  40  66  93 130 175 214 264 327 386
#     4  11  22  41  67  95 128 174 226 261 316 409
#     4  10  18  38  66  90 132 168 214 270 332 384
#     4  10  23  39  60  94 131 164 214 277 333 375
#     4   8  17  36  65  86 119 173 209 257 326 389
#
# _framework density 23.974706000000001
#
# number of rings (size 3 to 8) (size 9 to 14) (size 15 to 20)
#    0.000    2.286    2.143    0.857    2.000    0.000 
#    5.143    1.429    0.000    0.000    0.000    0.000 
#    0.000    0.000    0.000    0.000    0.000    0.000 
#
# Total GULP energy -78107.608101 kJ/mol
# GULP energy per Si atom -5579.114864 kJ/mol
# Density = 2.392014 g / cm^3
# Si number density = 23.974706 Si / 1000 Ang^3
#
#
#
# Elastic Constant Matrix: (Units=GPa)
#
#
# Indices 1 2 3 4 5 6 
#
# 1 121.7154 8.9151 40.5475 -0.0003 -42.0033 0.0001
# 2 8.9151 24.7755 6.0776 -0.0003 -16.3011 0.0001
# 3 40.5475 6.0776 80.8544 -0.0010 -19.7700 0.0002
# 4 -0.0003 -0.0003 -0.0010 -2.4693 0.0003 -12.8929
# 5 -42.0033 -16.3011 -19.7700 0.0003 47.4008 0.0000
# 6 0.0001 0.0001 0.0002 -12.8929 0.0000 33.4585
#
#
#
# Elastic Compliance Matrix: (Units=1/GPa)
#
#
# Indices 1 2 3 4 5 6 
#
# 1 0.013206 0.003653 -0.004152 0.000000 0.011227 0.000000
# 2 0.003653 0.053196 -0.000630 -0.000001 0.021268 -0.000001
# 3 -0.004152 -0.000630 0.015083 -0.000001 0.002395 -0.000001
# 4 0.000000 -0.000001 -0.000001 -0.134455 0.000000 -0.051811
# 5 0.011227 0.021268 0.002395 0.000000 0.039358 0.000000
# 6 0.000000 -0.000001 -0.000001 -0.051811 0.000000 0.009923
#
#
# Mechanical properties :
#
#
# Convention : Reuss Voigt Hill
#
# Bulk Modulus (GPa) = 12.62199 37.60286 25.11242
# Shear Modulus (GPa) = 200.17386 27.13167 113.65277
#
# Velocity S-wave (km/s) = 9.14741 3.36769 6.89262
# Velocity P-wave (km/s) = 10.80939 5.55340 8.59311
#
# Compressibility (1/GPa) = 0.07922679
#
# Stress axis : x y z
#
# Youngs Moduli (GPa) = 75.72471 18.79837 66.29948
#
# Poissons Ratio (x) = -0.06867 0.27528
# Poissons Ratio (y) = -0.27664 0.04178
# Poissons Ratio (z) = 0.31441 0.01185
#
# Static dielectric constant tensor:
#      x y z
#    x 2.005980 0.000000 -0.027840 
#    y 0.000000 1.907540 0.000000 
#    z -0.027840 0.000000 1.985450 
# 
# From -- ./inp_files/36121.got.cif
#   From: 2010.05.17/outbox.cif.g08.bks.cpg/sg5_19_cif.got.tgz:36121.got - 2010.06.03 18:56:24.
