data_PCOD9121904
_publ_section_title
;
Structure prediction by ZEFSAII (Michael W. Deem and Ramdas Pophale) SiO2 
 PCOD9121904
Probable space group: C 2
;
_chemical_formula_sum "Si O2"
_cell_formula_units_Z 26
_cell_length_a 7.092329
_cell_length_b 12.597363
_cell_length_c 11.999753
_cell_angle_alpha 90.000000
_cell_angle_beta 70.488644
_cell_angle_gamma 90.000000
_cell_volume 1010.547856
_symmetry_space_group_name_H-M "C 2"
_symmetry_group_IT_number 5
_symmetry_cell_setting 'monoclinic'
loop_
_space_group_symop_operation_xyz
x,y,z
-x,y,-z
1/2+x,1/2+y,z
1/2-x,1/2+y,-z
loop_
_atom_site_type_symbol
_atom_site_label
_atom_site_fract_x
_atom_site_fract_y
_atom_site_fract_z
Si Si1 0.500000 0.104260 0.000000
Si Si2 0.172973 0.409548 0.316183
Si Si3 0.195548 0.879759 0.400772
Si Si4 0.237328 0.827032 0.158514
Si Si5 0.768374 0.214039 0.541869
Si Si6 0.043760 0.602371 0.241817
Si Si7 0.290616 0.798287 0.915745
O O1 0.511428 0.050577 0.122532
O O2 0.309192 0.182947 0.053103
O O3 0.242633 0.332613 0.400276
O O4 0.255795 0.349294 0.192429
O O5 0.928561 0.409669 0.371864
O O6 0.199783 0.532926 0.283774
O O7 0.167613 0.897764 0.274480
O O8 0.201206 0.752122 0.431617
O O9 0.000000 0.926646 0.500000
O O10 0.470313 0.797699 0.127133
O O11 0.125747 0.716428 0.193436
O O12 0.214792 0.865258 0.036942
O O13 0.644166 0.131940 0.640699
O O14 0.000000 0.183364 0.500000
#
# Coordination Sequence:
#
# PCOD9121904 Si02
#       7
#     2   4   4   4   4   4   4
#     4  10  20  36  64  84 126 160 202 254 322 372
#     4  10  22  38  61  89 121 156 209 257 306 373
#     4  10  19  37  58  84 120 164 204 241 313 364
#     4   9  19  35  61  83 116 162 200 247 313 362
#     4  10  21  40  60  86 129 167 197 255 317 354
#     4  11  21  38  63  93 119 163 210 253 309 375
#     4   9  18  37  60  84 119 158 194 256 318 359
#
# _framework density 25.728618000000001
#
# number of rings (size 3 to 8) (size 9 to 14) (size 15 to 20)
#    0.000    2.154    3.077    0.000    0.000    3.077 
#    8.308    4.615    0.000    0.000    0.000    0.000 
#    0.000    0.000    0.000    0.000    0.000    0.000 
#
# Total GULP energy -72499.568557 kJ/mol
# GULP energy per Si atom -5576.889889 kJ/mol
# Density = 2.567006 g / cm^3
# Si number density = 25.728618 Si / 1000 Ang^3
#
#
#
# Elastic Constant Matrix: (Units=GPa)
#
#
# Indices 1 2 3 4 5 6 
#
# 1 55.9626 10.2681 21.0416 0.0000 -20.0797 0.0000
# 2 10.2681 77.5052 27.8644 0.0000 -2.8824 0.0000
# 3 21.0416 27.8644 167.0326 0.0000 -6.2604 0.0000
# 4 0.0000 0.0000 0.0000 22.1239 0.0000 -3.3627
# 5 -20.0797 -2.8824 -6.2604 0.0000 53.5141 0.0000
# 6 0.0000 0.0000 0.0000 -3.3627 0.0000 25.4672
#
#
#
# Elastic Compliance Matrix: (Units=1/GPa)
#
#
# Indices 1 2 3 4 5 6 
#
# 1 0.021826 -0.001827 -0.002151 0.000000 0.007840 0.000000
# 2 -0.001827 0.013890 -0.002094 0.000000 -0.000182 0.000000
# 3 -0.002151 -0.002094 0.006602 0.000000 -0.000148 0.000000
# 4 0.000000 0.000000 0.000000 0.046126 0.000000 0.006090
# 5 0.007840 -0.000182 -0.000148 0.000000 0.021601 0.000000
# 6 0.000000 0.000000 0.000000 0.006090 0.000000 0.040070
#
#
# Mechanical properties :
#
#
# Convention : Reuss Voigt Hill
#
# Bulk Modulus (GPa) = 33.14029 46.53873 39.83951
# Shear Modulus (GPa) = 29.01641 36.30946 32.66293
#
# Velocity S-wave (km/s) = 3.36190 3.76073 3.56689
# Velocity P-wave (km/s) = 5.28947 6.08154 5.69928
#
# Compressibility (1/GPa) = 0.03017475
#
# Stress axis : x y z
#
# Youngs Moduli (GPa) = 45.81724 71.99221 151.47873
#
# Poissons Ratio (x) = 0.13151 0.32582
# Poissons Ratio (y) = 0.08370 0.31718
# Poissons Ratio (z) = 0.09855 0.15074
#
# Static dielectric constant tensor:
#      x y z
#    x 2.112300 0.000000 0.096250 
#    y 0.000000 1.996280 0.000000 
#    z 0.096250 0.000000 2.150950 
# 
# From -- ./inp_files/35927.got.cif
#   From: 2010.05.17/outbox.cif.g08.bks.cpg/sg5_18_cif.got.tgz:35927.got - 2010.06.03 18:56:24.
