data_PCOD9121749
_publ_section_title
;
Structure prediction by ZEFSAII (Michael W. Deem and Ramdas Pophale) SiO2 
 PCOD9121749
Probable space group: C 2
;
_chemical_formula_sum "Si O2"
_cell_formula_units_Z 32
_cell_length_a 14.301237
_cell_length_b 7.734173
_cell_length_c 26.842664
_cell_angle_alpha 90.000000
_cell_angle_beta 150.598639
_cell_angle_gamma 90.000000
_cell_volume 1457.564432
_symmetry_space_group_name_H-M "C 2"
_symmetry_group_IT_number 5
_symmetry_cell_setting 'monoclinic'
loop_
_space_group_symop_operation_xyz
x,y,z
-x,y,-z
1/2+x,1/2+y,z
1/2-x,1/2+y,-z
loop_
_atom_site_type_symbol
_atom_site_label
_atom_site_fract_x
_atom_site_fract_y
_atom_site_fract_z
Si Si1 0.855104 0.288310 0.052434
Si Si2 0.337370 0.009642 0.751669
Si Si3 0.055640 0.989237 0.846544
Si Si4 0.013472 0.736140 0.743792
Si Si5 0.701579 0.849921 0.735153
Si Si6 0.161788 0.585648 0.431156
Si Si7 0.398268 0.539641 0.902689
Si Si8 0.519530 0.324226 0.449673
O O1 0.995022 0.441797 0.134652
O O2 0.957598 0.150121 0.064057
O O3 0.842286 0.172144 0.096661
O O4 0.676216 0.357602 0.938251
O O5 0.421264 0.104056 0.741462
O O6 0.216474 0.158104 0.722568
O O7 0.193179 0.857291 0.669968
O O8 0.044332 0.917734 0.785560
O O9 0.836483 0.972020 0.763063
O O10 0.220800 0.664921 0.828064
O O11 0.893844 0.725022 0.637489
O O12 0.495519 0.932803 0.643923
O O13 0.811270 0.869976 0.837791
O O14 0.358552 0.497142 0.506528
O O15 0.128052 0.675043 0.468911
O O16 0.500000 0.495430 0.000000
O O17 0.500000 0.296807 0.500000
#
# Coordination Sequence:
#
# PCOD9121749 Si02
#       8
#     4   4   4   4   4   4   4   4
#     4  11  22  37  63  91 137 181 233 279 340 416
#     4  11  22  42  66  94 134 177 228 291 347 420
#     4  10  19  36  60  97 129 185 229 275 343 412
#     4  10  20  39  64  91 135 176 218 280 348 406
#     4   9  21  38  65  91 131 177 222 280 355 414
#     4  11  24  48  71 103 138 178 229 294 359 429
#     4  10  19  36  58  87 132 179 218 279 337 405
#     4  12  25  48  74 103 138 182 234 298 361 428
#
# _framework density 21.954433000000002
#
# number of rings (size 3 to 8) (size 9 to 14) (size 15 to 20)
#    0.000    1.500    2.500    4.500    1.750    0.000 
#    6.750    3.125    0.000    0.000    0.000    0.000 
#    0.000    0.000    0.000    0.000    0.000    0.000 
#
# Total GULP energy -89321.265388 kJ/mol
# GULP energy per Si atom -5582.579087 kJ/mol
# Density = 2.190446 g / cm^3
# Si number density = 21.954433 Si / 1000 Ang^3
#
#
#
# Elastic Constant Matrix: (Units=GPa)
#
#
# Indices 1 2 3 4 5 6 
#
# 1 89.5900 16.0974 28.7088 0.0001 -16.6777 0.0000
# 2 16.0974 71.4757 15.3539 0.0000 -15.0516 0.0000
# 3 28.7088 15.3539 71.3560 0.0003 -0.7017 -0.0001
# 4 0.0001 0.0000 0.0003 7.2961 0.0000 1.2171
# 5 -16.6777 -15.0516 -0.7017 0.0000 31.5864 0.0000
# 6 0.0000 0.0000 -0.0001 1.2171 0.0000 34.7729
#
#
#
# Elastic Compliance Matrix: (Units=1/GPa)
#
#
# Indices 1 2 3 4 5 6 
#
# 1 0.014399 -0.000514 -0.005611 0.000000 0.007233 0.000000
# 2 -0.000514 0.016374 -0.003243 0.000000 0.007459 0.000000
# 3 -0.005611 -0.003243 0.016929 -0.000001 -0.004132 0.000000
# 4 0.000000 0.000000 -0.000001 0.137865 0.000000 -0.004826
# 5 0.007233 0.007459 -0.004132 0.000000 0.038941 0.000000
# 6 0.000000 0.000000 0.000000 -0.004826 0.000000 0.028927
#
#
# Mechanical properties :
#
#
# Convention : Reuss Voigt Hill
#
# Bulk Modulus (GPa) = 34.52482 39.19353 36.85918
# Shear Modulus (GPa) = 17.74141 26.21520 21.97831
#
# Velocity S-wave (km/s) = 2.84580 3.45929 3.16743
# Velocity P-wave (km/s) = 5.15343 5.81778 5.49565
#
# Compressibility (1/GPa) = 0.02896467
#
# Stress axis : x y z
#
# Youngs Moduli (GPa) = 69.44946 61.07259 59.07009
#
# Poissons Ratio (x) = 0.03141 0.33146
# Poissons Ratio (y) = 0.03572 0.19156
# Poissons Ratio (z) = 0.38971 0.19806
#
# Static dielectric constant tensor:
#      x y z
#    x 1.855310 0.000000 -0.024710 
#    y 0.000000 1.821770 0.000000 
#    z -0.024710 0.000000 1.784840 
# 
# From -- ./inp_files/70615.got.cif
#   From: 2010.05.17/outbox.cif.g08.bks.cpg/sg5_36_cif.got.tgz:70615.got - 2010.06.03 18:56:24.
