data_PCOD9121391
_publ_section_title
;
Structure prediction by ZEFSAII (Michael W. Deem and Ramdas Pophale) SiO2 
 PCOD9121391
Probable space group: C 2
;
_chemical_formula_sum "Si O2"
_cell_formula_units_Z 32
_cell_length_a 28.410841
_cell_length_b 8.370184
_cell_length_c 20.272516
_cell_angle_alpha 90.000000
_cell_angle_beta 20.369197
_cell_angle_gamma 90.000000
_cell_volume 1677.996191
_symmetry_space_group_name_H-M "C 2"
_symmetry_group_IT_number 5
_symmetry_cell_setting 'monoclinic'
loop_
_space_group_symop_operation_xyz
x,y,z
-x,y,-z
1/2+x,1/2+y,z
1/2-x,1/2+y,-z
loop_
_atom_site_type_symbol
_atom_site_label
_atom_site_fract_x
_atom_site_fract_y
_atom_site_fract_z
Si Si1 0.799983 0.526720 0.880913
Si Si2 0.066584 0.916799 0.111735
Si Si3 0.080315 0.483781 0.679563
Si Si4 0.879016 0.158134 0.765216
Si Si5 0.689593 0.626676 0.536673
Si Si6 0.527138 0.212893 0.637309
Si Si7 0.678603 0.106731 0.912426
Si Si8 0.173261 0.014966 0.409697
O O1 0.861163 0.347978 0.800940
O O2 0.918367 0.656703 0.726751
O O3 0.692668 0.531087 0.962562
O O4 0.714110 0.566218 0.059282
O O5 0.041910 0.816813 0.212680
O O6 0.111430 0.783253 0.001253
O O7 0.931143 0.014045 0.277391
O O8 0.178072 0.597034 0.594073
O O9 0.138538 0.307186 0.605631
O O10 0.076579 0.556105 0.611008
O O11 0.930809 0.495890 0.906914
O O12 0.812896 0.120402 0.781279
O O13 0.031756 0.100641 0.575207
O O14 0.712161 0.575835 0.431250
O O15 0.639833 0.327227 0.459752
O O16 0.717587 0.050378 0.789142
#
# Coordination Sequence:
#
# PCOD9121391 Si02
#       8
#     4   4   4   4   4   4   4   4
#     4  11  16  31  57  86 112 147 197 236 278 334
#     4   9  19  34  56  86 112 148 194 239 275 350
#     4  11  22  39  61  85 110 147 196 250 286 338
#     4  11  19  32  57  86 117 151 191 238 285 343
#     4  11  22  38  63  85 109 147 198 245 289 340
#     4  10  19  33  56  86 114 148 197 237 276 347
#     4  10  22  38  57  83 120 153 187 233 294 350
#     4  11  22  37  57  85 119 155 188 232 296 352
#
# _framework density 19.070364999999999
#
# number of rings (size 3 to 8) (size 9 to 14) (size 15 to 20)
#    0.000    1.500    6.250    3.375    0.000    1.500 
#    0.000    2.500    0.000    7.500    0.000    0.000 
#    0.000    0.000    0.000    0.000    0.000    0.000 
#
# Total GULP energy -89329.090595 kJ/mol
# GULP energy per Si atom -5583.068162 kJ/mol
# Density = 1.902696 g / cm^3
# Si number density = 19.070365 Si / 1000 Ang^3
#
#
#
# Elastic Constant Matrix: (Units=GPa)
#
#
# Indices 1 2 3 4 5 6 
#
# 1 40.5634 0.1290 26.3672 -0.0001 0.3411 0.0000
# 2 0.1290 49.1130 18.1357 -0.0007 10.0660 -0.0002
# 3 26.3672 18.1357 51.5501 0.0000 11.0564 -0.0002
# 4 -0.0001 -0.0007 0.0000 31.8331 -0.0001 -9.6591
# 5 0.3411 10.0660 11.0564 -0.0001 32.2340 0.0001
# 6 0.0000 -0.0002 -0.0002 -9.6591 0.0001 29.8394
#
#
#
# Elastic Compliance Matrix: (Units=1/GPa)
#
#
# Indices 1 2 3 4 5 6 
#
# 1 0.040702 0.007902 -0.024801 0.000000 0.005609 0.000000
# 2 0.007902 0.025656 -0.012231 0.000001 -0.003900 0.000000
# 3 -0.024801 -0.012231 0.038332 0.000000 -0.009066 0.000000
# 4 0.000000 0.000001 0.000000 0.034835 0.000000 0.011276
# 5 0.005609 -0.003900 -0.009066 0.000000 0.035291 0.000000
# 6 0.000000 0.000000 0.000000 0.011276 0.000000 0.037163
#
#
# Mechanical properties :
#
#
# Convention : Reuss Voigt Hill
#
# Bulk Modulus (GPa) = 21.53856 25.61003 23.57429
# Shear Modulus (GPa) = 17.49982 25.22095 21.36038
#
# Velocity S-wave (km/s) = 3.03255 3.64059 3.35039
# Velocity P-wave (km/s) = 4.85599 5.57945 5.23024
#
# Compressibility (1/GPa) = 0.04642836
#
# Stress axis : x y z
#
# Youngs Moduli (GPa) = 24.56884 38.97672 26.08813
#
# Poissons Ratio (x) = -0.30798 0.64702
# Poissons Ratio (y) = -0.19414 0.31909
# Poissons Ratio (z) = 0.60934 0.47673
#
# Static dielectric constant tensor:
#      x y z
#    x 1.654010 0.000000 -0.020830 
#    y 0.000000 1.689110 0.000000 
#    z -0.020830 0.000000 1.659140 
# 
# From -- ./inp_files/67719.got.cif
#   From: 2010.05.17/outbox.cif.g08.bks.cpg/sg5_34_cif.got.tgz:67719.got - 2010.06.03 18:56:24.
