data_PCOD9121257
_publ_section_title
;
Structure prediction by ZEFSAII (Michael W. Deem and Ramdas Pophale) SiO2 
 PCOD9121257
Probable space group: C 2
;
_chemical_formula_sum "Si O2"
_cell_formula_units_Z 32
_cell_length_a 15.324720
_cell_length_b 17.732422
_cell_length_c 5.229784
_cell_angle_alpha 90.000000
_cell_angle_beta 118.882582
_cell_angle_gamma 90.000000
_cell_volume 1244.387868
_symmetry_space_group_name_H-M "C 2"
_symmetry_group_IT_number 5
_symmetry_cell_setting 'monoclinic'
loop_
_space_group_symop_operation_xyz
x,y,z
-x,y,-z
1/2+x,1/2+y,z
1/2-x,1/2+y,-z
loop_
_atom_site_type_symbol
_atom_site_label
_atom_site_fract_x
_atom_site_fract_y
_atom_site_fract_z
Si Si1 0.870003 0.879140 0.443074
Si Si2 0.336236 0.030101 0.493417
Si Si3 0.388251 0.527353 0.743527
Si Si4 0.128832 0.313756 0.623268
Si Si5 0.867472 0.794927 0.949863
Si Si6 0.164825 0.622629 0.994429
Si Si7 0.630943 0.885597 0.133496
Si Si8 0.109540 0.144938 0.615301
O O1 0.906677 0.849909 0.224549
O O2 0.749618 0.876423 0.272466
O O3 0.889847 0.967056 0.515037
O O4 0.901290 0.823438 0.719673
O O5 0.218980 0.006367 0.280667
O O6 0.375079 0.066677 0.284046
O O7 0.385180 0.959615 0.713683
O O8 0.344570 0.091603 0.731305
O O9 0.373803 0.615137 0.649530
O O10 0.500000 0.518921 0.000000
O O11 0.094996 0.323407 0.283966
O O12 0.099856 0.231322 0.671617
O O13 0.248423 0.309190 0.776141
O O14 0.097698 0.374596 0.793870
O O15 0.878226 0.707696 0.051830
O O16 0.284622 0.623479 0.110680
O O17 0.000000 0.110025 0.500000
#
# Coordination Sequence:
#
# PCOD9121257 Si02
#       8
#     4   4   4   4   4   4   4   4
#     4   9  18  31  48  66  92 130 166 202 242 281
#     4  10  19  31  50  75 102 130 161 201 248 296
#     4  10  21  33  48  71 104 141 173 199 233 287
#     4   9  18  31  48  66  92 130 166 202 242 281
#     4   9  17  31  48  68  93 123 162 206 248 286
#     4  10  19  31  50  75 102 130 161 201 248 296
#     4   9  17  31  48  68  93 123 162 206 248 286
#     4  10  21  33  48  71 104 141 173 199 233 287
#
# _framework density 25.715457000000001
#
# number of rings (size 3 to 8) (size 9 to 14) (size 15 to 20)
#    0.000    2.500    0.000    2.250    0.000   14.000 
#    0.000    0.000    0.000    0.000    0.000    0.000 
#    0.000   20.000    0.000    7.500    0.000    6.000 
#
# Total GULP energy -89171.117258 kJ/mol
# GULP energy per Si atom -5573.194829 kJ/mol
# Density = 2.565693 g / cm^3
# Si number density = 25.715457 Si / 1000 Ang^3
#
#
#
# Elastic Constant Matrix: (Units=GPa)
#
#
# Indices 1 2 3 4 5 6 
#
# 1 65.8791 1.6374 27.2671 0.0000 -1.7359 0.0000
# 2 1.6374 90.8054 28.0799 0.0000 -11.0349 0.0000
# 3 27.2671 28.0799 117.2520 0.0000 -18.1028 0.0000
# 4 0.0000 0.0000 0.0000 30.7912 0.0000 -15.2968
# 5 -1.7359 -11.0349 -18.1028 0.0000 33.7728 0.0000
# 6 0.0000 0.0000 0.0000 -15.2968 0.0000 -22.2045
#
#
#
# Elastic Compliance Matrix: (Units=1/GPa)
#
#
# Indices 1 2 3 4 5 6 
#
# 1 0.016917 0.000892 -0.004327 0.000000 -0.001158 0.000000
# 2 0.000892 0.012149 -0.002722 0.000000 0.002556 0.000000
# 3 -0.004327 -0.002722 0.010919 0.000000 0.004741 0.000000
# 4 0.000000 0.000000 0.000000 0.024196 0.000000 -0.016669
# 5 -0.001158 0.002556 0.004741 0.000000 0.032926 0.000000
# 6 0.000000 0.000000 0.000000 -0.016669 0.000000 -0.033553
#
#
# Mechanical properties :
#
#
# Convention : Reuss Voigt Hill
#
# Bulk Modulus (GPa) = 36.13831 43.10060 39.61946
# Shear Modulus (GPa) = 58.75995 22.93538 40.84766
#
# Velocity S-wave (km/s) = 4.78536 2.98969 3.98986
# Velocity P-wave (km/s) = 6.67956 5.35861 6.05521
#
# Compressibility (1/GPa) = 0.02767146
#
# Stress axis : x y z
#
# Youngs Moduli (GPa) = 59.11076 82.31186 91.58619
#
# Poissons Ratio (x) = -0.07343 0.39626
# Poissons Ratio (y) = -0.05273 0.24932
# Poissons Ratio (z) = 0.25575 0.22408
#
# Static dielectric constant tensor:
#      x y z
#    x 2.137150 0.000000 -0.013130 
#    y 0.000000 2.028430 0.000000 
#    z -0.013130 0.000000 2.123210 
# 
# From -- ./inp_files/9855.got.cif
#   From: 2010.05.17/outbox.cif.g08.bks.cpg/sg5_5_cif.got.tgz:9855.got - 2010.06.03 18:56:24.
