data_PCOD9121964
_publ_section_title
;
Structure prediction by ZEFSAII (Michael W. Deem and Ramdas Pophale) SiO2 
 PCOD9121964
Probable space group: C 2
;
_chemical_formula_sum "Si O2"
_cell_formula_units_Z 24
_cell_length_a 20.247184
_cell_length_b 8.347090
_cell_length_c 9.688856
_cell_angle_alpha 90.000000
_cell_angle_beta 131.728328
_cell_angle_gamma 90.000000
_cell_volume 1222.055744
_symmetry_space_group_name_H-M "C 2"
_symmetry_group_IT_number 5
_symmetry_cell_setting 'monoclinic'
loop_
_space_group_symop_operation_xyz
x,y,z
-x,y,-z
1/2+x,1/2+y,z
1/2-x,1/2+y,-z
loop_
_atom_site_type_symbol
_atom_site_label
_atom_site_fract_x
_atom_site_fract_y
_atom_site_fract_z
Si Si1 0.150849 0.837410 0.504680
Si Si2 0.413118 0.915019 0.958951
Si Si3 0.262028 0.722103 0.891287
Si Si4 0.275994 0.353855 0.868821
Si Si5 0.236827 0.622046 0.401886
Si Si6 0.971244 0.748136 0.121367
O O1 0.184628 0.824455 0.708009
O O2 0.209594 0.705644 0.504823
O O3 0.050430 0.798707 0.330312
O O4 0.178590 0.008185 0.479988
O O5 0.446930 0.060114 0.103365
O O6 0.500000 0.853778 0.000000
O O7 0.354223 0.785517 0.955395
O O8 0.344774 0.008908 0.761804
O O9 0.246631 0.536293 0.839216
O O10 0.259675 0.756199 0.049941
O O11 0.251136 0.261421 0.694426
O O12 0.382566 0.346827 0.021945
O O13 0.000000 0.766062 0.000000
#
# Coordination Sequence:
#
# PCOD9121964 Si02
#       6
#     4   4   4   4   4   4
#     4  11  20  36  60  94 114 163 200 249 296 354
#     4   9  17  37  59  89 118 156 192 244 297 362
#     4  11  24  37  63  86 120 161 207 248 303 360
#     4  11  22  43  57  86 122 163 201 251 307 363
#     4  10  20  36  61  87 124 152 204 245 297 357
#     4  10  19  37  63  86 123 158 196 248 304 352
#
# _framework density 19.639039
#
# number of rings (size 3 to 8) (size 9 to 14) (size 15 to 20)
#    0.000    1.667    5.000    4.000    0.000    1.333 
#    3.000    0.000    0.000    2.000    0.000    0.000 
#    0.000    0.000    0.000    0.000    0.000    0.000 
#
# Total GULP energy -67010.848288 kJ/mol
# GULP energy per Si atom -5584.237357 kJ/mol
# Density = 1.959434 g / cm^3
# Si number density = 19.639039 Si / 1000 Ang^3
#
#
#
# Elastic Constant Matrix: (Units=GPa)
#
#
# Indices 1 2 3 4 5 6 
#
# 1 47.6649 10.1116 8.2713 0.0000 -0.5385 0.0000
# 2 10.1116 61.3329 1.1219 0.0000 4.1367 0.0000
# 3 8.2713 1.1219 40.6963 0.0000 8.0929 0.0000
# 4 0.0000 0.0000 0.0000 24.5065 0.0000 2.6844
# 5 -0.5385 4.1367 8.0929 0.0000 34.5909 0.0000
# 6 0.0000 0.0000 0.0000 2.6844 0.0000 33.9796
#
#
#
# Elastic Compliance Matrix: (Units=1/GPa)
#
#
# Indices 1 2 3 4 5 6 
#
# 1 0.022651 -0.003776 -0.004887 0.000000 0.001948 0.000000
# 2 -0.003776 0.017067 0.000749 0.000000 -0.002275 0.000000
# 3 -0.004887 0.000749 0.026826 0.000000 -0.006442 0.000000
# 4 0.000000 0.000000 0.000000 0.041162 0.000000 -0.003252
# 5 0.001948 -0.002275 -0.006442 0.000000 0.030719 0.000000
# 6 0.000000 0.000000 0.000000 -0.003252 0.000000 0.029686
#
#
# Mechanical properties :
#
#
# Convention : Reuss Voigt Hill
#
# Bulk Modulus (GPa) = 19.71756 20.96706 20.34231
# Shear Modulus (GPa) = 24.89505 27.29470 26.09488
#
# Velocity S-wave (km/s) = 3.56424 3.73207 3.64912
# Velocity P-wave (km/s) = 5.19617 5.41023 5.30428
#
# Compressibility (1/GPa) = 0.05071623
#
# Stress axis : x y z
#
# Youngs Moduli (GPa) = 44.14836 58.59334 37.27740
#
# Poissons Ratio (x) = 0.22126 0.18217
# Poissons Ratio (y) = 0.16672 -0.02794
# Poissons Ratio (z) = 0.21575 -0.04391
#
# Static dielectric constant tensor:
#      x y z
#    x 1.688560 0.000000 -0.000810 
#    y 0.000000 1.695680 0.000000 
#    z -0.000810 0.000000 1.689870 
# 
# From -- ./inp_files/26554.got.cif
#   From: 2010.05.17/outbox.cif.g08.bks.cpg/sg5_14_cif.got.tgz:26554.got - 2010.06.03 18:56:24.
