data_PCOD9121037
_publ_section_title
;
Structure prediction by ZEFSAII (Michael W. Deem and Ramdas Pophale) SiO2 
 PCOD9121037
Probable space group: C 2
;
_chemical_formula_sum "Si O2"
_cell_formula_units_Z 28
_cell_length_a 11.809208
_cell_length_b 7.521638
_cell_length_c 22.187454
_cell_angle_alpha 90.000000
_cell_angle_beta 38.721387
_cell_angle_gamma 90.000000
_cell_volume 1232.796916
_symmetry_space_group_name_H-M "C 2"
_symmetry_group_IT_number 5
_symmetry_cell_setting 'monoclinic'
loop_
_space_group_symop_operation_xyz
x,y,z
-x,y,-z
1/2+x,1/2+y,z
1/2-x,1/2+y,-z
loop_
_atom_site_type_symbol
_atom_site_label
_atom_site_fract_x
_atom_site_fract_y
_atom_site_fract_z
Si Si1 0.893454 0.506570 0.329145
Si Si2 0.425004 0.148190 0.632448
Si Si3 0.941349 0.110105 0.256340
Si Si4 0.784917 0.216941 0.947673
Si Si5 0.075736 0.600294 0.139547
Si Si6 0.500000 0.961919 0.000000
Si Si7 0.252883 0.927228 0.203846
Si Si8 0.500000 0.411209 0.500000
O O1 0.925618 0.307594 0.291133
O O2 0.677739 0.527400 0.414688
O O3 0.957308 0.533724 0.370792
O O4 0.011698 0.628402 0.234469
O O5 0.264400 0.043231 0.664664
O O6 0.316357 0.287305 0.719542
O O7 0.532580 0.274685 0.541880
O O8 0.031780 0.122142 0.152069
O O9 0.081626 0.012486 0.241626
O O10 0.812930 0.415432 0.911794
O O11 0.635565 0.098562 0.976431
O O12 0.708293 0.229354 0.047498
O O13 0.884857 0.567603 0.183583
O O14 0.611476 0.854242 0.904004
#
# Coordination Sequence:
#
# PCOD9121037 Si02
#       8
#     4   4   4   4   4   2   4   2
#     4  10  22  42  65  92 120 159 207 255 308 367
#     4  11  22  42  66  90 117 162 209 254 308 367
#     4   9  20  41  58  87 128 161 196 254 301 354
#     4   9  17  34  54  84 124 163 204 239 295 358
#     4  10  19  37  59  89 126 164 202 246 302 360
#     4   8  18  30  56  86 120 172 204 238 302 344
#     4  10  18  38  63  84 128 168 195 252 304 354
#     4  10  22  44  64  86 130 154 198 270 322 338
#
# _framework density 22.712582999999999
#
# number of rings (size 3 to 8) (size 9 to 14) (size 15 to 20)
#    0.000    2.286    4.286    0.000    0.000    5.714 
#   12.857    0.000    0.000    0.000    0.000    0.000 
#    0.000    0.000    0.000    0.000    0.000    0.000 
#
# Total GULP energy -78099.011860 kJ/mol
# GULP energy per Si atom -5578.500847 kJ/mol
# Density = 2.266089 g / cm^3
# Si number density = 22.712583 Si / 1000 Ang^3
#
#
#
# Elastic Constant Matrix: (Units=GPa)
#
#
# Indices 1 2 3 4 5 6 
#
# 1 91.0276 15.4872 18.0153 0.0000 4.2998 0.0000
# 2 15.4872 38.8425 21.4894 0.0000 -6.3936 0.0000
# 3 18.0153 21.4894 107.7413 0.0000 3.2883 0.0000
# 4 0.0000 0.0000 0.0000 26.0372 0.0000 4.6635
# 5 4.2998 -6.3936 3.2883 0.0000 38.7477 0.0000
# 6 0.0000 0.0000 0.0000 4.6635 0.0000 35.6140
#
#
#
# Elastic Compliance Matrix: (Units=1/GPa)
#
#
# Indices 1 2 3 4 5 6 
#
# 1 0.012063 -0.004561 -0.001046 0.000000 -0.002002 0.000000
# 2 -0.004561 0.031781 -0.005767 0.000000 0.006239 0.000000
# 3 -0.001046 -0.005767 0.010660 0.000000 -0.001740 0.000000
# 4 0.000000 0.000000 0.000000 0.039329 0.000000 -0.005150
# 5 -0.002002 0.006239 -0.001740 0.000000 0.027207 0.000000
# 6 0.000000 0.000000 0.000000 -0.005150 0.000000 0.028753
#
#
# Mechanical properties :
#
#
# Convention : Reuss Voigt Hill
#
# Bulk Modulus (GPa) = 31.48945 38.62168 35.05557
# Shear Modulus (GPa) = 27.30361 32.25443 29.77902
#
# Velocity S-wave (km/s) = 3.47094 3.77253 3.62487
# Velocity P-wave (km/s) = 5.47336 6.00145 5.74348
#
# Compressibility (1/GPa) = 0.03175667
#
# Stress axis : x y z
#
# Youngs Moduli (GPa) = 82.89627 31.46558 93.81097
#
# Poissons Ratio (x) = 0.14350 0.09816
# Poissons Ratio (y) = 0.37805 0.54098
# Poissons Ratio (z) = 0.08674 0.18145
#
# Static dielectric constant tensor:
#      x y z
#    x 1.933180 0.000000 0.043780 
#    y 0.000000 1.853050 0.000000 
#    z 0.043780 0.000000 1.883070 
# 
# From -- ./inp_files/68220.got.cif
#   From: 2010.05.17/outbox.cif.g08.bks.cpg/sg5_35_cif.got.tgz:68220.got - 2010.06.03 18:56:24.
