data_PCOD9121882
_publ_section_title
;
Structure prediction by ZEFSAII (Michael W. Deem and Ramdas Pophale) SiO2 
 PCOD9121882
Probable space group: C 2
;
_chemical_formula_sum "Si O2"
_cell_formula_units_Z 32
_cell_length_a 17.835986
_cell_length_b 9.822217
_cell_length_c 10.952416
_cell_angle_alpha 90.000000
_cell_angle_beta 127.679764
_cell_angle_gamma 90.000000
_cell_volume 1518.568131
_symmetry_space_group_name_H-M "C 2"
_symmetry_group_IT_number 5
_symmetry_cell_setting 'monoclinic'
loop_
_space_group_symop_operation_xyz
x,y,z
-x,y,-z
1/2+x,1/2+y,z
1/2-x,1/2+y,-z
loop_
_atom_site_type_symbol
_atom_site_label
_atom_site_fract_x
_atom_site_fract_y
_atom_site_fract_z
Si Si1 0.595576 0.248990 0.546449
Si Si2 0.305379 0.027698 0.798828
Si Si3 0.246617 0.292824 0.815452
Si Si4 0.377237 0.518602 0.558669
Si Si5 0.407056 0.774208 0.963851
Si Si6 0.174937 0.907284 0.861531
Si Si7 0.729972 0.572065 0.298924
Si Si8 0.563764 0.675123 0.748647
O O1 0.500000 0.179649 0.500000
O O2 0.577797 0.372740 0.433947
O O3 0.634303 0.320001 0.709069
O O4 0.673611 0.149362 0.568209
O O5 0.317624 0.188400 0.818438
O O6 0.220131 0.013569 0.617038
O O7 0.263645 0.985267 0.889616
O O8 0.387276 0.915882 0.871658
O O9 0.140994 0.229465 0.727889
O O10 0.243281 0.432987 0.740262
O O11 0.290102 0.319615 0.991575
O O12 0.340617 0.542619 0.659204
O O13 0.455787 0.635127 0.606743
O O14 0.320530 0.675582 0.845127
O O15 0.500000 0.708282 0.000000
O O16 0.427164 0.776800 0.127830
O O17 0.104209 0.027278 0.829796
#
# Coordination Sequence:
#
# PCOD9121882 Si02
#       8
#     4   4   4   4   4   4   4   4
#     4  11  23  44  68  95 136 184 231 277 353 420
#     4  10  24  42  65  91 140 179 224 282 359 403
#     4  11  24  40  69  99 134 178 234 293 340 413
#     4  11  24  43  69  98 136 188 224 284 353 425
#     4  12  22  41  68 103 135 186 236 290 344 419
#     4  10  19  36  67  95 124 173 227 281 336 400
#     4  12  25  43  68 101 142 178 231 295 351 409
#     4  11  21  39  70 101 132 176 244 281 339 427
#
# _framework density 21.072482000000001
#
# number of rings (size 3 to 8) (size 9 to 14) (size 15 to 20)
#    0.000    1.000    7.500    0.000    3.500    0.000 
#    2.250    3.125    0.000    0.000    0.000    0.000 
#    0.000    0.000    0.000    0.000    0.000    0.000 
#
# Total GULP energy -89176.508560 kJ/mol
# GULP energy per Si atom -5573.531785 kJ/mol
# Density = 2.102452 g / cm^3
# Si number density = 21.072482 Si / 1000 Ang^3
#
#
#
# Elastic Constant Matrix: (Units=GPa)
#
#
# Indices 1 2 3 4 5 6 
#
# 1 82.6604 22.9510 18.7389 0.0000 11.1917 0.0000
# 2 22.9510 87.5695 24.8544 0.0000 8.5609 0.0000
# 3 18.7389 24.8544 66.2734 0.0000 3.4197 0.0000
# 4 0.0000 0.0000 0.0000 31.7386 0.0000 3.8966
# 5 11.1917 8.5609 3.4197 0.0000 27.1397 0.0000
# 6 0.0000 0.0000 0.0000 3.8966 0.0000 22.0974
#
#
#
# Elastic Compliance Matrix: (Units=1/GPa)
#
#
# Indices 1 2 3 4 5 6 
#
# 1 0.014042 -0.002423 -0.002821 0.000000 -0.004671 0.000000
# 2 -0.002423 0.013527 -0.004247 0.000000 -0.002733 0.000000
# 3 -0.002821 -0.004247 0.017464 0.000000 0.000302 0.000000
# 4 0.000000 0.000000 0.000000 0.032205 0.000000 -0.005679
# 5 -0.004671 -0.002733 0.000302 0.000000 0.039596 0.000000
# 6 0.000000 0.000000 0.000000 -0.005679 0.000000 0.046256
#
#
# Mechanical properties :
#
#
# Convention : Reuss Voigt Hill
#
# Bulk Modulus (GPa) = 38.38534 41.06578 39.72556
# Shear Modulus (GPa) = 26.21160 27.52572 26.86866
#
# Velocity S-wave (km/s) = 3.53069 3.61812 3.57467
# Velocity P-wave (km/s) = 5.90563 6.08149 5.99420
#
# Compressibility (1/GPa) = 0.02605162
#
# Stress axis : x y z
#
# Youngs Moduli (GPa) = 71.21318 73.92570 57.26170
#
# Poissons Ratio (x) = 0.17913 0.16152
# Poissons Ratio (y) = 0.17256 0.24319
# Poissons Ratio (z) = 0.20087 0.31396
#
# Static dielectric constant tensor:
#      x y z
#    x 1.806440 0.000000 0.038460 
#    y 0.000000 1.818040 0.000000 
#    z 0.038460 0.000000 1.782310 
# 
# From -- ./inp_files/44518.got.cif
#   From: 2010.05.17/outbox.cif.g08.bks.cpg/sg5_23_cif.got.tgz:44518.got - 2010.06.03 18:56:24.
