data_PCOD9121714
_publ_section_title
;
Structure prediction by ZEFSAII (Michael W. Deem and Ramdas Pophale) SiO2 
 PCOD9121714
Probable space group: C 2
;
_chemical_formula_sum "Si O2"
_cell_formula_units_Z 28
_cell_length_a 5.568555
_cell_length_b 18.381925
_cell_length_c 15.400098
_cell_angle_alpha 90.000000
_cell_angle_beta 58.790549
_cell_angle_gamma 90.000000
_cell_volume 1348.232198
_symmetry_space_group_name_H-M "C 2"
_symmetry_group_IT_number 5
_symmetry_cell_setting 'monoclinic'
loop_
_space_group_symop_operation_xyz
x,y,z
-x,y,-z
1/2+x,1/2+y,z
1/2-x,1/2+y,-z
loop_
_atom_site_type_symbol
_atom_site_label
_atom_site_fract_x
_atom_site_fract_y
_atom_site_fract_z
Si Si1 0.292558 0.254460 0.621458
Si Si2 0.436804 0.974308 0.107631
Si Si3 0.630485 0.916735 0.701743
Si Si4 0.526247 0.551344 0.394144
Si Si5 0.180446 0.035597 0.739153
Si Si6 0.166094 0.689580 0.709980
Si Si7 0.738796 0.123119 0.106352
O O1 0.500000 0.245871 0.500000
O O2 0.205335 0.338360 0.653198
O O3 0.477251 0.227061 0.670338
O O4 0.983933 0.219357 0.660524
O O5 0.472846 0.917113 0.178778
O O6 0.620794 0.047573 0.087890
O O7 0.500000 0.946696 0.000000
O O8 0.120334 0.000231 0.182145
O O9 0.902941 0.967324 0.635642
O O10 0.395935 0.968555 0.702719
O O11 0.500000 0.564356 0.500000
O O12 0.298076 0.567327 0.362601
O O13 0.780521 0.604167 0.320864
O O14 0.177010 0.098721 0.812153
O O15 0.995795 0.684476 0.832477
O O16 0.000000 0.147169 0.000000
#
# Coordination Sequence:
#
# PCOD9121714 Si02
#       7
#     4   4   4   4   4   4   4
#     4  12  28  50  70  97 143 203 237 294 371 435
#     4  10  19  35  68 101 134 175 229 295 358 414
#     4  10  24  41  66  96 134 181 240 290 349 431
#     4  11  22  39  65 102 133 173 234 303 353 406
#     4  10  19  38  64 101 136 172 234 296 341 423
#     4  12  26  46  71 104 142 182 247 296 359 437
#     4  11  21  38  69 105 139 186 227 292 365 430
#
# _framework density 20.767938000000001
#
# number of rings (size 3 to 8) (size 9 to 14) (size 15 to 20)
#    0.000    1.143    5.714    2.571    4.000    0.571 
#    2.571    0.714    3.143    0.000    0.000    0.000 
#    0.000    0.000    0.000    0.000    0.000    0.000 
#
# Total GULP energy -77959.883999 kJ/mol
# GULP energy per Si atom -5568.563143 kJ/mol
# Density = 2.072067 g / cm^3
# Si number density = 20.767938 Si / 1000 Ang^3
#
#
#
# Elastic Constant Matrix: (Units=GPa)
#
#
# Indices 1 2 3 4 5 6 
#
# 1 99.5328 26.5981 49.5336 0.0000 -1.7248 0.0000
# 2 26.5981 89.2612 22.0358 0.0000 -10.5350 0.0000
# 3 49.5336 22.0358 114.4654 0.0000 -11.0714 0.0000
# 4 0.0000 0.0000 0.0000 24.7061 0.0000 -10.2434
# 5 -1.7248 -10.5350 -11.0714 0.0000 36.7433 0.0000
# 6 0.0000 0.0000 0.0000 -10.2434 0.0000 19.2072
#
#
#
# Elastic Compliance Matrix: (Units=1/GPa)
#
#
# Indices 1 2 3 4 5 6 
#
# 1 0.013509 -0.002893 -0.005467 0.000000 -0.001843 0.000000
# 2 -0.002893 0.012662 -0.000873 0.000000 0.003232 0.000000
# 3 -0.005467 -0.000873 0.011558 0.000000 0.002976 0.000000
# 4 0.000000 0.000000 0.000000 0.051967 0.000000 0.027715
# 5 -0.001843 0.003232 0.002976 0.000000 0.028953 0.000000
# 6 0.000000 0.000000 0.000000 0.027715 0.000000 0.066844
#
#
# Mechanical properties :
#
#
# Convention : Reuss Voigt Hill
#
# Bulk Modulus (GPa) = 51.91475 55.51051 53.71263
# Shear Modulus (GPa) = 23.76650 29.80409 26.78530
#
# Velocity S-wave (km/s) = 3.38655 3.79238 3.59520
# Velocity P-wave (km/s) = 6.35165 6.77962 6.56912
#
# Compressibility (1/GPa) = 0.01926235
#
# Stress axis : x y z
#
# Youngs Moduli (GPa) = 74.02516 78.97564 86.52044
#
# Poissons Ratio (x) = 0.22850 0.47302
# Poissons Ratio (y) = 0.21417 0.07553
# Poissons Ratio (z) = 0.40470 0.06895
#
# Static dielectric constant tensor:
#      x y z
#    x 1.942740 0.000000 0.028600 
#    y 0.000000 1.735870 0.000000 
#    z 0.028600 0.000000 1.806170 
# 
# From -- ./inp_files/49181.got.cif
#   From: 2010.05.17/outbox.cif.g08.bks.cpg/sg5_25_cif.got.tgz:49181.got - 2010.06.03 18:56:24.
