data_PCOD9121434
_publ_section_title
;
Structure prediction by ZEFSAII (Michael W. Deem and Ramdas Pophale) SiO2 
 PCOD9121434
Probable space group: C 2
;
_chemical_formula_sum "Si O2"
_cell_formula_units_Z 22
_cell_length_a 24.511111
_cell_length_b 5.142624
_cell_length_c 10.491477
_cell_angle_alpha 90.000000
_cell_angle_beta 106.365277
_cell_angle_gamma 90.000000
_cell_volume 1268.885834
_symmetry_space_group_name_H-M "C 2"
_symmetry_group_IT_number 5
_symmetry_cell_setting 'monoclinic'
loop_
_space_group_symop_operation_xyz
x,y,z
-x,y,-z
1/2+x,1/2+y,z
1/2-x,1/2+y,-z
loop_
_atom_site_type_symbol
_atom_site_label
_atom_site_fract_x
_atom_site_fract_y
_atom_site_fract_z
Si Si1 0.211320 0.265370 0.624867
Si Si2 0.101062 0.601716 0.192435
Si Si3 0.000000 0.367134 0.000000
Si Si4 0.826605 0.765322 0.537836
Si Si5 0.115755 0.117909 0.047273
Si Si6 0.217474 0.216165 0.930417
O O1 0.186484 0.547355 0.575789
O O2 0.274260 0.253660 0.604323
O O3 0.214109 0.214519 0.776124
O O4 0.174955 0.045704 0.528132
O O5 0.118603 0.689819 0.343721
O O6 0.131011 0.333059 0.166678
O O7 0.118480 0.832483 0.108206
O O8 0.034570 0.540483 0.124180
O O9 0.949659 0.193244 0.025893
O O10 0.157454 0.155172 0.957548
O O11 0.239596 0.494999 0.992159
#
# Coordination Sequence:
#
# PCOD9121434 Si02
#       6
#     4   4   2   4   4   4
#     4  10  21  33  50  81 110 150 179 215 275 334
#     4  10  19  35  58  85 105 142 190 237 278 304
#     4   8  22  34  60  88 102 144 196 242 270 308
#     4  10  19  34  53  75 114 145 185 220 261 343
#     4  10  20  35  56  86 110 141 184 238 277 325
#     4  12  23  36  56  85 121 148 177 226 289 340
#
# _framework density 17.338045000000001
#
# number of rings (size 3 to 8) (size 9 to 14) (size 15 to 20)
#    1.091    0.727    0.000    6.000    0.000    2.909 
#    0.000    0.000    0.000    1.091    0.000    0.000 
#    0.000    0.000    0.000    0.000    0.000    0.000 
#
# Total GULP energy -61321.941734 kJ/mol
# GULP energy per Si atom -5574.721976 kJ/mol
# Density = 1.729858 g / cm^3
# Si number density = 17.338045 Si / 1000 Ang^3
#
#
#
# Elastic Constant Matrix: (Units=GPa)
#
#
# Indices 1 2 3 4 5 6 
#
# 1 56.2073 -4.9856 17.9176 0.0000 -1.8466 0.0000
# 2 -4.9856 49.4116 -18.4047 0.0000 -4.9278 0.0000
# 3 17.9176 -18.4047 71.8304 0.0000 -4.9473 0.0000
# 4 0.0000 0.0000 0.0000 19.7043 0.0000 -0.9294
# 5 -1.8466 -4.9278 -4.9473 0.0000 26.7598 0.0000
# 6 0.0000 0.0000 0.0000 -0.9294 0.0000 14.3543
#
#
#
# Elastic Compliance Matrix: (Units=1/GPa)
#
#
# Indices 1 2 3 4 5 6 
#
# 1 0.019336 0.000241 -0.004727 0.000000 0.000505 0.000000
# 2 0.000241 0.023128 0.006240 0.000000 0.005429 0.000000
# 3 -0.004727 0.006240 0.016972 0.000000 0.003961 0.000000
# 4 0.000000 0.000000 0.000000 0.050906 0.000000 0.003296
# 5 0.000505 0.005429 0.003961 0.000000 0.039136 0.000000
# 6 0.000000 0.000000 0.000000 0.003296 0.000000 0.069879
#
#
# Mechanical properties :
#
#
# Convention : Reuss Voigt Hill
#
# Bulk Modulus (GPa) = 15.88712 18.50044 17.19378
# Shear Modulus (GPa) = 21.11207 24.35849 22.73528
#
# Velocity S-wave (km/s) = 3.49330 3.75229 3.62511
# Velocity P-wave (km/s) = 5.04519 5.42830 5.24025
#
# Compressibility (1/GPa) = 0.06294407
#
# Stress axis : x y z
#
# Youngs Moduli (GPa) = 51.71699 43.23740 58.91932
#
# Poissons Ratio (x) = -0.01041 0.27850
# Poissons Ratio (y) = -0.01245 -0.36765
# Poissons Ratio (z) = 0.24446 -0.26980
#
# Static dielectric constant tensor:
#      x y z
#    x 1.582390 0.000000 0.028480 
#    y 0.000000 1.604140 0.000000 
#    z 0.028480 0.000000 1.565990 
# 
# From -- ./inp_files/30185.got.cif
#   From: 2010.05.17/outbox.cif.g08.bks.cpg/sg5_16_cif.got.tgz:30185.got - 2010.06.03 18:56:24.
