data_PCOD9121436
_publ_section_title
;
Structure prediction by ZEFSAII (Michael W. Deem and Ramdas Pophale) SiO2 
 PCOD9121436
Probable space group: C 2
;
_chemical_formula_sum "Si O2"
_cell_formula_units_Z 32
_cell_length_a 22.799815
_cell_length_b 5.045600
_cell_length_c 15.441737
_cell_angle_alpha 90.000000
_cell_angle_beta 106.123533
_cell_angle_gamma 90.000000
_cell_volume 1706.523757
_symmetry_space_group_name_H-M "C 2"
_symmetry_group_IT_number 5
_symmetry_cell_setting 'monoclinic'
loop_
_space_group_symop_operation_xyz
x,y,z
-x,y,-z
1/2+x,1/2+y,z
1/2-x,1/2+y,-z
loop_
_atom_site_type_symbol
_atom_site_label
_atom_site_fract_x
_atom_site_fract_y
_atom_site_fract_z
Si Si1 0.162227 0.296440 0.426821
Si Si2 0.784959 0.602765 0.983139
Si Si3 0.716703 0.724691 0.796857
Si Si4 0.225107 0.018906 0.614277
Si Si5 0.453239 0.502277 0.622046
Si Si6 0.854071 0.718211 0.168351
Si Si7 0.607441 0.199974 0.542152
Si Si8 0.965670 0.512997 0.322319
O O1 0.204836 0.155326 0.516145
O O2 0.208029 0.406476 0.374696
O O3 0.111154 0.102955 0.367099
O O4 0.126242 0.514283 0.469415
O O5 0.776289 0.647122 0.877576
O O6 0.733389 0.802200 0.001812
O O7 0.844614 0.688880 0.060967
O O8 0.724330 0.700627 0.697928
O O9 0.696539 0.018626 0.813341
O O10 0.664355 0.512448 0.806833
O O11 0.170946 0.806978 0.605968
O O12 0.432675 0.440393 0.514022
O O13 0.504190 0.724471 0.660254
O O14 0.480725 0.227452 0.664786
O O15 0.916625 0.596857 0.229842
O O16 0.568848 0.059348 0.600336
#
# Coordination Sequence:
#
# PCOD9121436 Si02
#       8
#     4   4   4   4   4   4   4   4
#     4  11  23  39  52  77 109 148 186 226 263 304
#     4   8  16  30  52  76 113 138 159 214 274 330
#     4  10  19  34  53  83 110 140 175 214 273 330
#     4  11  22  36  58  78 109 147 185 224 266 319
#     4  11  26  37  52  74 107 145 184 224 261 309
#     4  10  19  34  53  83 112 138 173 216 273 330
#     4  11  23  37  53  76 107 140 186 222 267 307
#     4  12  23  36  55  77 106 144 181 218 266 320
#
# _framework density 18.751571999999999
#
# number of rings (size 3 to 8) (size 9 to 14) (size 15 to 20)
#    0.000    1.500    3.750    1.875    5.250    0.000 
#    0.000    0.000    0.000    0.000    0.000    0.875 
#    3.750    0.000    0.000    0.000    0.000    0.000 
#
# Total GULP energy -89253.096071 kJ/mol
# GULP energy per Si atom -5578.318504 kJ/mol
# Density = 1.870889 g / cm^3
# Si number density = 18.751572 Si / 1000 Ang^3
#
#
#
# Elastic Constant Matrix: (Units=GPa)
#
#
# Indices 1 2 3 4 5 6 
#
# 1 48.6203 -1.6367 10.3016 0.0000 16.9261 0.0000
# 2 -1.6367 60.5031 -12.1019 0.0000 0.6676 0.0000
# 3 10.3016 -12.1019 52.1996 0.0000 23.5078 0.0000
# 4 0.0000 0.0000 0.0000 22.1125 0.0000 9.4173
# 5 16.9261 0.6676 23.5078 0.0000 20.7982 0.0000
# 6 0.0000 0.0000 0.0000 9.4173 0.0000 23.9750
#
#
#
# Elastic Compliance Matrix: (Units=1/GPa)
#
#
# Indices 1 2 3 4 5 6 
#
# 1 0.032263 0.003946 0.013095 0.000000 -0.041185 0.000000
# 2 0.003946 0.018990 0.010886 0.000000 -0.016125 0.000000
# 3 0.013095 0.010886 0.048990 0.000000 -0.066380 0.000000
# 4 0.000000 0.000000 0.000000 0.054308 0.000000 -0.021332
# 5 -0.041185 -0.016125 -0.066380 0.000000 0.157144 0.000000
# 6 0.000000 0.000000 0.000000 -0.021332 0.000000 0.050089
#
#
# Mechanical properties :
#
#
# Convention : Reuss Voigt Hill
#
# Bulk Modulus (GPa) = 6.40620 17.16100 11.78360
# Shear Modulus (GPa) = 13.96790 24.36112 19.16451
#
# Velocity S-wave (km/s) = 2.73223 3.60828 3.20038
# Velocity P-wave (km/s) = 3.65749 5.15085 4.46702
#
# Compressibility (1/GPa) = 0.15609871
#
# Stress axis : x y z
#
# Youngs Moduli (GPa) = 30.99484 52.65888 20.41218
#
# Poissons Ratio (x) = -0.20782 -0.26730
# Poissons Ratio (y) = -0.12232 -0.22220
# Poissons Ratio (z) = -0.40588 -0.57323
#
# Static dielectric constant tensor:
#      x y z
#    x 1.642960 0.000000 0.054700 
#    y 0.000000 1.714840 0.000000 
#    z 0.054700 0.000000 1.710190 
# 
# From -- ./inp_files/56554.got.cif
#   From: 2010.05.17/outbox.cif.g08.bks.cpg/sg5_29_cif.got.tgz:56554.got - 2010.06.03 18:56:24.
