data_PCOD9121421
_publ_section_title
;
Structure prediction by ZEFSAII (Michael W. Deem and Ramdas Pophale) SiO2 
 PCOD9121421
Probable space group: C 2
;
_chemical_formula_sum "Si O2"
_cell_formula_units_Z 22
_cell_length_a 5.775827
_cell_length_b 31.487044
_cell_length_c 5.214375
_cell_angle_alpha 90.000000
_cell_angle_beta 89.921130
_cell_angle_gamma 90.000000
_cell_volume 948.304731
_symmetry_space_group_name_H-M "C 2"
_symmetry_group_IT_number 5
_symmetry_cell_setting 'monoclinic'
loop_
_space_group_symop_operation_xyz
x,y,z
-x,y,-z
1/2+x,1/2+y,z
1/2-x,1/2+y,-z
loop_
_atom_site_type_symbol
_atom_site_label
_atom_site_fract_x
_atom_site_fract_y
_atom_site_fract_z
Si Si1 0.663635 0.465150 0.249748
Si Si2 0.344004 0.647480 0.750230
Si Si3 0.654548 0.242566 0.750330
Si Si4 0.165010 0.057735 0.249030
Si Si5 0.164715 0.833883 0.749549
Si Si6 0.000000 0.399657 0.500000
O O1 0.500000 0.465669 0.500000
O O2 0.784860 0.511822 0.237508
O O3 0.845974 0.428890 0.313769
O O4 0.500000 0.458894 0.000000
O O5 0.500000 0.645336 0.500000
O O6 0.249231 0.695004 0.750848
O O7 0.200180 0.603011 0.749589
O O8 0.500000 0.645224 0.000000
O O9 0.500000 0.244693 0.500000
O O10 0.790657 0.287347 0.758700
O O11 0.500000 0.245241 0.000000
O O12 0.000000 0.057433 0.500000
O O13 0.000000 0.057750 0.000000
O O14 0.345948 0.870386 0.686597
O O15 0.000000 0.833785 0.500000
O O16 0.000000 0.839835 0.000000
#
# Coordination Sequence:
#
# PCOD9121421 Si02
#       6
#     4   4   4   4   4   2
#     4  10  23  43  67  96 137 171 220 282 329 394
#     4  10  19  33  62  92 120 162 211 249 313 391
#     4  10  21  40  59  87 129 166 199 264 330 374
#     4   8  16  34  58  87 126 166 198 259 327 377
#     4  10  25  46  65  96 138 171 221 283 333 394
#     4  12  26  44  76 100 126 190 234 268 350 400
#
# _framework density 23.199297999999999
#
# number of rings (size 3 to 8) (size 9 to 14) (size 15 to 20)
#    0.000    2.182    0.000    1.636    1.273    5.818 
#    1.636    0.000    0.000    0.000    0.000    0.000 
#    0.000    0.000    0.000    0.000    0.000    0.000 
#
# Total GULP energy -61366.552436 kJ/mol
# GULP energy per Si atom -5578.777494 kJ/mol
# Density = 2.314649 g / cm^3
# Si number density = 23.199298 Si / 1000 Ang^3
#
#
#
# Elastic Constant Matrix: (Units=GPa)
#
#
# Indices 1 2 3 4 5 6 
#
# 1 41.3021 81.8940 32.0188 0.0000 1.2122 0.0000
# 2 81.8940 314.6141 42.1517 0.0000 1.3182 0.0000
# 3 32.0188 42.1517 195.7023 0.0000 1.7951 0.0000
# 4 0.0000 0.0000 0.0000 52.2613 0.0000 -10.0460
# 5 1.2122 1.3182 1.7951 0.0000 28.3342 0.0000
# 6 0.0000 0.0000 0.0000 -10.0460 0.0000 27.5020
#
#
#
# Elastic Compliance Matrix: (Units=1/GPa)
#
#
# Indices 1 2 3 4 5 6 
#
# 1 0.056697 -0.013913 -0.006267 0.000000 -0.001381 0.000000
# 2 -0.013913 0.006687 0.000834 0.000000 0.000231 0.000000
# 3 -0.006267 0.000834 0.005957 0.000000 -0.000148 0.000000
# 4 0.000000 0.000000 0.000000 0.020580 0.000000 0.007517
# 5 -0.001381 0.000231 -0.000148 0.000000 0.035351 0.000000
# 6 0.000000 0.000000 0.000000 0.007517 0.000000 0.039107
#
#
# Mechanical properties :
#
#
# Convention : Reuss Voigt Hill
#
# Bulk Modulus (GPa) = 32.62703 95.97195 64.29949
# Shear Modulus (GPa) = 23.44261 47.98978 35.71619
#
# Velocity S-wave (km/s) = 3.18227 4.55311 3.92795
# Velocity P-wave (km/s) = 5.25326 8.31260 6.95328
#
# Compressibility (1/GPa) = 0.03064943
#
# Stress axis : x y z
#
# Youngs Moduli (GPa) = 17.63762 149.53674 167.87272
#
# Poissons Ratio (x) = 2.08048 1.05204
# Poissons Ratio (y) = 0.24539 -0.13997
# Poissons Ratio (z) = 0.11053 -0.12468
#
# Static dielectric constant tensor:
#      x y z
#    x 1.904720 0.000000 -0.000660 
#    y 0.000000 2.067550 0.000000 
#    z -0.000660 0.000000 1.801790 
# 
# From -- ./inp_files/1285.got.cif
#   From: 2010.05.17/outbox.cif.g08.bks.cpg/sg5_1_cif.got.tgz:1285.got - 2010.06.03 18:56:24.
