data_PCOD9121157
_publ_section_title
;
Structure prediction by ZEFSAII (Michael W. Deem and Ramdas Pophale) SiO2 
 PCOD9121157
Probable space group: C 2
;
_chemical_formula_sum "Si O2"
_cell_formula_units_Z 26
_cell_length_a 8.956144
_cell_length_b 20.099230
_cell_length_c 12.554822
_cell_angle_alpha 90.000000
_cell_angle_beta 35.873162
_cell_angle_gamma 90.000000
_cell_volume 1324.351816
_symmetry_space_group_name_H-M "C 2"
_symmetry_group_IT_number 5
_symmetry_cell_setting 'monoclinic'
loop_
_space_group_symop_operation_xyz
x,y,z
-x,y,-z
1/2+x,1/2+y,z
1/2-x,1/2+y,-z
loop_
_atom_site_type_symbol
_atom_site_label
_atom_site_fract_x
_atom_site_fract_y
_atom_site_fract_z
Si Si1 0.237884 0.281560 0.592424
Si Si2 0.624326 0.180918 0.665381
Si Si3 0.000000 0.865545 0.000000
Si Si4 0.183944 0.558455 0.496418
Si Si5 0.752027 0.752613 0.012238
Si Si6 0.031775 0.412376 0.608332
Si Si7 0.234201 0.127650 0.183965
O O1 0.500000 0.272039 0.500000
O O2 0.219181 0.225978 0.509417
O O3 0.030400 0.277843 0.806597
O O4 0.194747 0.352031 0.561122
O O5 0.563012 0.111690 0.645708
O O6 0.748502 0.158542 0.706461
O O7 0.372094 0.223147 0.837202
O O8 0.930987 0.813496 0.945903
O O9 0.750461 0.906866 0.176358
O O10 0.477369 0.584365 0.314995
O O11 0.000000 0.560480 0.500000
O O12 0.164161 0.483376 0.549776
O O13 0.748548 0.690278 0.095857
O O14 0.000000 0.403249 0.500000
O O15 0.500000 0.090195 0.000000
#
# Coordination Sequence:
#
# PCOD9121157 Si02
#       7
#     4   4   2   4   4   4   4
#     4  11  24  39  62  97 131 163 215 279 326 383
#     4  11  21  38  66  93 125 172 211 267 334 378
#     4  10  18  40  66  96 116 156 230 266 306 394
#     4  11  24  43  62  97 136 173 221 268 323 393
#     4  10  20  36  65  97 121 154 217 274 310 388
#     4  10  24  43  67  86 129 178 220 262 325 389
#     4  10  21  39  65  96 125 167 218 263 322 391
#
# _framework density 19.632245000000001
#
# number of rings (size 3 to 8) (size 9 to 14) (size 15 to 20)
#    0.000    1.538    3.846    1.846    2.154    1.846 
#   13.846    0.000    3.385    0.000    0.000    0.000 
#    0.000    0.000    0.000    0.000    0.000    0.000 
#
# Total GULP energy -72446.201398 kJ/mol
# GULP energy per Si atom -5572.784723 kJ/mol
# Density = 1.958756 g / cm^3
# Si number density = 19.632245 Si / 1000 Ang^3
#
#
#
# Elastic Constant Matrix: (Units=GPa)
#
#
# Indices 1 2 3 4 5 6 
#
# 1 68.3001 42.6492 25.2303 -0.0003 -10.3410 0.0004
# 2 42.6492 112.3460 38.2064 0.0002 -10.8647 -0.0001
# 3 25.2303 38.2064 101.6686 -0.0009 -6.7919 0.0007
# 4 -0.0003 0.0002 -0.0009 22.8332 0.0006 0.8858
# 5 -10.3410 -10.8647 -6.7919 0.0006 27.1703 -0.0005
# 6 0.0004 -0.0001 0.0007 0.8858 -0.0005 26.2617
#
#
#
# Elastic Compliance Matrix: (Units=1/GPa)
#
#
# Indices 1 2 3 4 5 6 
#
# 1 0.020202 -0.006453 -0.002285 0.000000 0.004537 0.000000
# 2 -0.006453 0.012543 -0.002991 0.000000 0.001812 0.000000
# 3 -0.002285 -0.002991 0.011582 0.000000 0.000829 0.000000
# 4 0.000000 0.000000 0.000000 0.043853 -0.000001 -0.001479
# 5 0.004537 0.001812 0.000829 -0.000001 0.039464 0.000001
# 6 0.000000 0.000000 0.000000 -0.001479 0.000001 0.038128
#
#
# Mechanical properties :
#
#
# Convention : Reuss Voigt Hill
#
# Bulk Modulus (GPa) = 47.91900 54.94294 51.43097
# Shear Modulus (GPa) = 25.48572 27.00163 26.24367
#
# Velocity S-wave (km/s) = 3.60690 3.71262 3.66014
# Velocity P-wave (km/s) = 6.46588 6.81358 6.64201
#
# Compressibility (1/GPa) = 0.02086855
#
# Stress axis : x y z
#
# Youngs Moduli (GPa) = 49.49999 79.72354 86.33743
#
# Poissons Ratio (x) = 0.51448 0.19730
# Poissons Ratio (y) = 0.31944 0.25825
# Poissons Ratio (z) = 0.11312 0.23847
#
# Static dielectric constant tensor:
#      x y z
#    x 1.720680 0.000000 -0.036540 
#    y 0.000000 1.666510 0.000000 
#    z -0.036540 0.000000 1.760950 
# 
# From -- ./inp_files/37270.got.cif
#   From: 2010.05.17/outbox.cif.g08.bks.cpg/sg5_19_cif.got.tgz:37270.got - 2010.06.03 18:56:24.
