data_PCOD9121146
_publ_section_title
;
Structure prediction by ZEFSAII (Michael W. Deem and Ramdas Pophale) SiO2 
 PCOD9121146
Probable space group: C 2
;
_chemical_formula_sum "Si O2"
_cell_formula_units_Z 24
_cell_length_a 23.074397
_cell_length_b 5.414722
_cell_length_c 22.810538
_cell_angle_alpha 90.000000
_cell_angle_beta 162.103076
_cell_angle_gamma 90.000000
_cell_volume 875.815099
_symmetry_space_group_name_H-M "C 2"
_symmetry_group_IT_number 5
_symmetry_cell_setting 'monoclinic'
loop_
_space_group_symop_operation_xyz
x,y,z
-x,y,-z
1/2+x,1/2+y,z
1/2-x,1/2+y,-z
loop_
_atom_site_type_symbol
_atom_site_label
_atom_site_fract_x
_atom_site_fract_y
_atom_site_fract_z
Si Si1 0.331359 0.063220 0.655023
Si Si2 0.953865 0.086042 0.346219
Si Si3 0.246642 0.321207 0.304560
Si Si4 0.500000 0.232116 0.000000
Si Si5 0.500000 0.951564 0.500000
Si Si6 0.655800 0.052502 0.884882
Si Si7 0.374776 0.361164 0.999301
O O1 0.107572 0.104477 0.441754
O O2 0.357249 0.855118 0.731988
O O3 0.440388 0.021951 0.699385
O O4 0.439100 0.301957 0.784585
O O5 0.976954 0.298283 0.417361
O O6 0.745800 0.104829 0.121732
O O7 0.036585 0.865348 0.463908
O O8 0.156283 0.537487 0.177491
O O9 0.299310 0.084823 0.318320
O O10 0.559256 0.398546 0.002337
O O11 0.720418 0.037988 0.879706
O O12 0.763323 0.810992 0.013683
#
# Coordination Sequence:
#
# PCOD9121146 Si02
#       7
#     4   4   4   2   2   4   4
#     4   8  21  43  64  88 129 178 221 277 334 395
#     4  10  22  41  60  92 139 165 226 280 334 405
#     4   9  21  38  60  88 137 169 220 275 334 411
#     4  10  18  40  64  96 136 180 216 278 346 408
#     4  12  20  36  60  94 130 180 208 284 340 404
#     4  10  22  46  73  98 138 180 235 283 335 407
#     4  10  20  40  71  93 130 182 219 278 342 407
#
# _framework density 27.403047999999998
#
# number of rings (size 3 to 8) (size 9 to 14) (size 15 to 20)
#    1.000    1.333    0.000    2.500    0.000    2.667 
#   18.000    8.333    0.000    0.000    0.000    0.000 
#    0.000    0.000    0.000    0.000    0.000    0.000 
#
# Total GULP energy -66911.367589 kJ/mol
# GULP energy per Si atom -5575.947299 kJ/mol
# Density = 2.734068 g / cm^3
# Si number density = 27.403048 Si / 1000 Ang^3
#
#
#
# Elastic Constant Matrix: (Units=GPa)
#
#
# Indices 1 2 3 4 5 6 
#
# 1 152.7957 40.7866 22.5496 0.0005 53.0137 -0.0001
# 2 40.7866 76.5632 -1.6186 0.0018 9.0939 0.0020
# 3 22.5496 -1.6186 110.0056 0.0052 40.1536 0.0014
# 4 0.0005 0.0018 0.0052 36.7461 0.0006 8.7380
# 5 53.0137 9.0939 40.1536 0.0006 66.3418 0.0000
# 6 -0.0001 0.0020 0.0014 8.7380 0.0000 42.9318
#
#
#
# Elastic Compliance Matrix: (Units=1/GPa)
#
#
# Indices 1 2 3 4 5 6 
#
# 1 0.010522 -0.004608 0.000788 0.000000 -0.008253 0.000000
# 2 -0.004608 0.015401 0.000767 -0.000001 0.001107 -0.000001
# 3 0.000788 0.000767 0.011820 -0.000002 -0.007889 0.000000
# 4 0.000000 -0.000001 -0.000002 0.028598 0.000001 -0.005821
# 5 -0.008253 0.001107 -0.007889 0.000001 0.026292 0.000000
# 6 0.000000 -0.000001 0.000000 -0.005821 0.000000 0.024477
#
#
# Mechanical properties :
#
#
# Convention : Reuss Voigt Hill
#
# Bulk Modulus (GPa) = 31.60956 51.42221 41.51589
# Shear Modulus (GPa) = 37.37994 47.71372 42.54683
#
# Velocity S-wave (km/s) = 3.69735 4.17728 3.94462
# Velocity P-wave (km/s) = 5.45777 6.48630 5.99414
#
# Compressibility (1/GPa) = 0.03163600
#
# Stress axis : x y z
#
# Youngs Moduli (GPa) = 95.03782 64.93182 84.60440
#
# Poissons Ratio (x) = 0.29923 -0.06666
# Poissons Ratio (y) = 0.43797 -0.06490
# Poissons Ratio (z) = -0.07488 -0.04981
#
# Static dielectric constant tensor:
#      x y z
#    x 2.254780 0.000000 0.025560 
#    y 0.000000 2.255090 0.000000 
#    z 0.025560 0.000000 2.159990 
# 
# From -- ./inp_files/71174.got.cif
#   From: 2010.05.17/outbox.cif.g08.bks.cpg/sg5_36_cif.got.tgz:71174.got - 2010.06.03 18:56:24.
