data_PCOD9121870
_publ_section_title
;
Structure prediction by ZEFSAII (Michael W. Deem and Ramdas Pophale) SiO2 
 PCOD9121870
Probable space group: C 2
;
_chemical_formula_sum "Si O2"
_cell_formula_units_Z 32
_cell_length_a 30.587649
_cell_length_b 5.347347
_cell_length_c 9.293408
_cell_angle_alpha 90.000000
_cell_angle_beta 95.198049
_cell_angle_gamma 90.000000
_cell_volume 1513.804332
_symmetry_space_group_name_H-M "C 2"
_symmetry_group_IT_number 5
_symmetry_cell_setting 'monoclinic'
loop_
_space_group_symop_operation_xyz
x,y,z
-x,y,-z
1/2+x,1/2+y,z
1/2-x,1/2+y,-z
loop_
_atom_site_type_symbol
_atom_site_label
_atom_site_fract_x
_atom_site_fract_y
_atom_site_fract_z
Si Si1 0.676771 0.526410 0.688926
Si Si2 0.080692 0.166160 0.160320
Si Si3 0.738551 0.072423 0.407385
Si Si4 0.610451 0.159508 0.614845
Si Si5 0.469586 0.469615 0.364231
Si Si6 0.525162 0.159020 0.161734
Si Si7 0.403596 0.766256 0.163628
Si Si8 0.851945 0.329721 0.598585
O O1 0.728540 0.559991 0.720109
O O2 0.660288 0.246198 0.656966
O O3 0.641064 0.634755 0.789892
O O4 0.666969 0.659176 0.534024
O O5 0.047079 0.388659 0.195287
O O6 0.123460 0.177769 0.272544
O O7 0.059291 0.891436 0.156212
O O8 0.094555 0.244733 0.004405
O O9 0.755654 0.842750 0.515195
O O10 0.688127 0.002930 0.359862
O O11 0.575004 0.370797 0.574610
O O12 0.597369 0.034083 0.761045
O O13 0.611631 0.986107 0.477463
O O14 0.500000 0.575100 0.500000
O O15 0.495164 0.251677 0.286209
O O16 0.448591 0.647837 0.238387
O O17 0.500000 0.144441 0.000000
#
# Coordination Sequence:
#
# PCOD9121870 Si02
#       8
#     4   4   4   4   4   4   4   4
#     4   9  20  38  65  93 125 161 208 255 312 371
#     4  12  27  42  66  90 130 168 211 258 314 376
#     4  10  19  36  65  98 129 158 203 260 310 370
#     4  10  20  39  61  88 120 161 209 255 315 366
#     4  11  24  38  60  89 122 159 213 265 312 364
#     4  12  26  45  63  90 125 169 215 258 314 373
#     4  10  23  41  60  86 126 170 204 252 320 372
#     4  10  22  38  66  97 126 161 209 258 315 370
#
# _framework density 21.138797
#
# number of rings (size 3 to 8) (size 9 to 14) (size 15 to 20)
#    0.000    1.500    2.500    1.875   10.500    0.500 
#    0.000    0.000    2.750    0.000    0.000    0.000 
#    0.000    0.000    0.000    0.000    0.000    0.000 
#
# Total GULP energy -89277.288527 kJ/mol
# GULP energy per Si atom -5579.830533 kJ/mol
# Density = 2.109068 g / cm^3
# Si number density = 21.138797 Si / 1000 Ang^3
#
#
#
# Elastic Constant Matrix: (Units=GPa)
#
#
# Indices 1 2 3 4 5 6 
#
# 1 72.2770 1.6004 21.1665 0.0000 -15.0566 0.0000
# 2 1.6004 46.0053 -17.8048 0.0000 -3.0418 0.0000
# 3 21.1665 -17.8048 57.6910 0.0000 -6.5212 0.0000
# 4 0.0000 0.0000 0.0000 7.1729 0.0000 -8.8735
# 5 -15.0566 -3.0418 -6.5212 0.0000 28.5987 0.0000
# 6 0.0000 0.0000 0.0000 -8.8735 0.0000 34.1366
#
#
#
# Elastic Compliance Matrix: (Units=1/GPa)
#
#
# Indices 1 2 3 4 5 6 
#
# 1 0.017273 -0.002546 -0.006288 0.000000 0.007389 0.000000
# 2 -0.002546 0.025632 0.009239 0.000000 0.003493 0.000000
# 3 -0.006288 0.009239 0.022817 0.000000 0.002875 0.000000
# 4 0.000000 0.000000 0.000000 0.205493 0.000000 0.053416
# 5 0.007389 0.003493 0.002875 0.000000 0.039884 0.000000
# 6 0.000000 0.000000 0.000000 0.053416 0.000000 0.043179
#
#
# Mechanical properties :
#
#
# Convention : Reuss Voigt Hill
#
# Bulk Modulus (GPa) = 15.02994 20.65528 17.84261
# Shear Modulus (GPa) = 13.31048 25.38239 19.34644
#
# Velocity S-wave (km/s) = 2.51205 3.46894 3.02853
# Velocity P-wave (km/s) = 3.94200 5.08303 4.54844
#
# Compressibility (1/GPa) = 0.06653386
#
# Stress axis : x y z
#
# Youngs Moduli (GPa) = 57.89485 39.01383 43.82668
#
# Poissons Ratio (x) = 0.09932 0.27557
# Poissons Ratio (y) = 0.14739 -0.40493
# Poissons Ratio (z) = 0.36402 -0.36047
#
# Static dielectric constant tensor:
#      x y z
#    x 1.898600 0.000000 -0.019540 
#    y 0.000000 1.846510 0.000000 
#    z -0.019540 0.000000 1.729540 
# 
# From -- ./inp_files/32271.got.cif
#   From: 2010.05.17/outbox.cif.g08.bks.cpg/sg5_17_cif.got.tgz:32271.got - 2010.06.03 18:56:24.
