data_PCOD9121095
_publ_section_title
;
Structure prediction by ZEFSAII (Michael W. Deem and Ramdas Pophale) SiO2 
 PCOD9121095
Probable space group: C 2
;
_chemical_formula_sum "Si O2"
_cell_formula_units_Z 26
_cell_length_a 14.071684
_cell_length_b 14.331790
_cell_length_c 7.829382
_cell_angle_alpha 90.000000
_cell_angle_beta 138.762039
_cell_angle_gamma 90.000000
_cell_volume 1040.838072
_symmetry_space_group_name_H-M "C 2"
_symmetry_group_IT_number 5
_symmetry_cell_setting 'monoclinic'
loop_
_space_group_symop_operation_xyz
x,y,z
-x,y,-z
1/2+x,1/2+y,z
1/2-x,1/2+y,-z
loop_
_atom_site_type_symbol
_atom_site_label
_atom_site_fract_x
_atom_site_fract_y
_atom_site_fract_z
Si Si1 0.323961 0.254690 0.560626
Si Si2 0.491256 0.072283 0.811522
Si Si3 0.966342 0.171170 0.761041
Si Si4 0.000000 0.909862 0.000000
Si Si5 0.500000 0.316352 0.500000
Si Si6 0.713006 0.670451 0.820021
Si Si7 0.500000 0.971212 0.500000
Si Si8 0.214922 0.882713 0.046947
O O1 0.391418 0.159936 0.727251
O O2 0.151429 0.251720 0.344080
O O3 0.396038 0.252230 0.471823
O O4 0.403520 0.344932 0.744501
O O5 0.427669 0.025290 0.558169
O O6 0.500000 0.014893 0.000000
O O7 0.650285 0.104609 0.968036
O O8 0.876151 0.135034 0.468170
O O9 0.115684 0.184112 0.859149
O O10 0.000000 0.131463 0.000000
O O11 0.123738 0.950244 0.048180
O O12 0.616590 0.380066 0.749792
O O13 0.776663 0.775283 0.873429
O O14 0.377532 0.910772 0.245804
#
# Coordination Sequence:
#
# PCOD9121095 Si02
#       8
#     4   4   4   2   2   4   2   4
#     4  11  18  38  67 108 122 174 234 296 337 401
#     4  12  23  47  73  99 136 189 240 286 346 427
#     4  11  22  32  58 109 138 165 213 306 355 393
#     4  10  18  38  76  90 132 176 242 292 340 408
#     4  10  21  36  78  99 136 180 246 294 347 414
#     4  11  22  41  71  99 141 174 243 298 338 408
#     4  12  31  44  70 101 158 188 226 292 379 428
#     4  11  22  46  63 107 136 190 234 296 351 433
#
# _framework density 24.979869999999998
#
# number of rings (size 3 to 8) (size 9 to 14) (size 15 to 20)
#    0.000    0.923    6.923    2.308    2.154    0.000 
#    5.538    4.615    0.000    0.000    0.000    0.000 
#    0.000    0.000    0.000    0.000    0.000    0.000 
#
# Total GULP energy -72369.335870 kJ/mol
# GULP energy per Si atom -5566.871990 kJ/mol
# Density = 2.492301 g / cm^3
# Si number density = 24.979870 Si / 1000 Ang^3
#
#
#
# Elastic Constant Matrix: (Units=GPa)
#
#
# Indices 1 2 3 4 5 6 
#
# 1 177.9802 -2.2570 39.1222 0.0000 13.8131 0.0000
# 2 -2.2570 24.7703 22.5277 0.0000 -2.3100 0.0000
# 3 39.1222 22.5277 148.6577 0.0000 7.2480 0.0000
# 4 0.0000 0.0000 0.0000 8.8674 0.0000 3.7124
# 5 13.8131 -2.3100 7.2480 0.0000 56.3302 0.0000
# 6 0.0000 0.0000 0.0000 3.7124 0.0000 -1.0426
#
#
#
# Elastic Compliance Matrix: (Units=1/GPa)
#
#
# Indices 1 2 3 4 5 6 
#
# 1 0.006153 0.002171 -0.001891 0.000000 -0.001177 0.000000
# 2 0.002171 0.048049 -0.007973 0.000000 0.002464 0.000000
# 3 -0.001891 -0.007973 0.008479 0.000000 -0.000954 0.000000
# 4 0.000000 0.000000 0.000000 0.045278 0.000000 0.161218
# 5 -0.001177 0.002464 -0.000954 0.000000 0.018265 0.000000
# 6 0.000000 0.000000 0.000000 0.161218 0.000000 -0.385086
#
#
# Mechanical properties :
#
#
# Convention : Reuss Voigt Hill
#
# Bulk Modulus (GPa) = 21.14362 52.24378 36.69370
# Shear Modulus (GPa) = -21.95778 32.29869 5.17045
#
# Velocity S-wave (km/s) = -2.96804 3.59972 1.44026
# Velocity P-wave (km/s) = 1.80639 6.18361 4.18174
#
# Compressibility (1/GPa) = 0.04729559
#
# Stress axis : x y z
#
# Youngs Moduli (GPa) = 162.52039 20.81187 117.93536
#
# Poissons Ratio (x) = -0.04517 0.22300
# Poissons Ratio (y) = -0.35277 0.94028
# Poissons Ratio (z) = 0.30731 0.16593
#
# Static dielectric constant tensor:
#      x y z
#    x 2.128220 0.000000 -0.124230 
#    y 0.000000 2.054120 0.000000 
#    z -0.124230 0.000000 2.064890 
# 
# From -- ./inp_files/24844.got.cif
#   From: 2010.05.17/outbox.cif.g08.bks.cpg/sg5_13_cif.got.tgz:24844.got - 2010.06.03 18:56:24.
