data_PCOD9121583
_publ_section_title
;
Structure prediction by ZEFSAII (Michael W. Deem and Ramdas Pophale) SiO2 
 PCOD9121583
Probable space group: C 2
;
_chemical_formula_sum "Si O2"
_cell_formula_units_Z 32
_cell_length_a 5.311639
_cell_length_b 21.082301
_cell_length_c 15.693142
_cell_angle_alpha 90.000000
_cell_angle_beta 48.327518
_cell_angle_gamma 90.000000
_cell_volume 1312.660483
_symmetry_space_group_name_H-M "C 2"
_symmetry_group_IT_number 5
_symmetry_cell_setting 'monoclinic'
loop_
_space_group_symop_operation_xyz
x,y,z
-x,y,-z
1/2+x,1/2+y,z
1/2-x,1/2+y,-z
loop_
_atom_site_type_symbol
_atom_site_label
_atom_site_fract_x
_atom_site_fract_y
_atom_site_fract_z
Si Si1 0.979754 0.890670 0.404678
Si Si2 0.468247 0.260095 0.670524
Si Si3 0.294522 0.906967 0.817870
Si Si4 0.804918 0.992473 0.321032
Si Si5 0.451054 0.005999 0.916764
Si Si6 0.527498 0.137659 0.859230
Si Si7 0.159549 0.771534 0.826167
Si Si8 0.335826 0.125297 0.702840
O O1 0.866761 0.817769 0.418378
O O2 0.314064 0.888184 0.270574
O O3 0.000000 0.899840 0.500000
O O4 0.814571 0.954351 0.405925
O O5 0.597819 0.268751 0.738212
O O6 0.530586 0.187779 0.625357
O O7 0.057501 0.263683 0.757409
O O8 0.272083 0.938371 0.730667
O O9 0.076860 0.843109 0.875531
O O10 0.252467 0.963052 0.894408
O O11 0.590325 0.056350 0.354878
O O12 0.185676 0.010868 0.209940
O O13 0.352194 0.079714 0.948197
O O14 0.500000 0.977659 0.000000
O O15 0.451921 0.210075 0.904804
O O16 0.421655 0.125946 0.784486
O O17 0.934338 0.134952 0.778444
#
# Coordination Sequence:
#
# PCOD9121583 Si02
#       8
#     4   4   4   4   4   4   4   4
#     4  10  21  35  56  82 118 150 201 244 295 349
#     4   9  17  32  53  81 104 146 183 237 282 345
#     4  10  19  35  56  83 111 156 191 242 296 353
#     4  10  19  35  56  83 111 156 191 242 296 353
#     4  10  21  35  56  82 118 150 201 244 295 349
#     4   9  17  32  53  81 104 146 183 237 282 345
#     4   9  17  31  56  78 108 140 191 227 288 345
#     4   9  17  31  56  78 108 140 191 227 288 345
#
# _framework density 24.377972
#
# number of rings (size 3 to 8) (size 9 to 14) (size 15 to 20)
#    0.000    2.500    2.500    0.000    0.000    1.000 
#    0.000    0.000    5.500    0.000    0.000    0.000 
#    0.000    0.000    0.000    0.000    0.000    0.000 
#
# Total GULP energy -89146.013442 kJ/mol
# GULP energy per Si atom -5571.625840 kJ/mol
# Density = 2.432249 g / cm^3
# Si number density = 24.377972 Si / 1000 Ang^3
#
#
#
# Elastic Constant Matrix: (Units=GPa)
#
#
# Indices 1 2 3 4 5 6 
#
# 1 124.2519 14.2757 21.2755 0.0000 36.9652 0.0000
# 2 14.2757 211.0665 21.2985 0.0000 36.1731 0.0000
# 3 21.2755 21.2985 62.3001 0.0000 28.5685 0.0000
# 4 0.0000 0.0000 0.0000 0.0825 0.0000 30.9862
# 5 36.9652 36.1731 28.5685 0.0000 61.4419 0.0000
# 6 0.0000 0.0000 0.0000 30.9862 0.0000 26.8703
#
#
#
# Elastic Compliance Matrix: (Units=1/GPa)
#
#
# Indices 1 2 3 4 5 6 
#
# 1 0.009867 0.000410 -0.000860 0.000000 -0.005778 0.000000
# 2 0.000410 0.005298 -0.000518 0.000000 -0.003125 0.000000
# 3 -0.000860 -0.000518 0.020520 0.000000 -0.008719 0.000000
# 4 0.000000 0.000000 0.000000 -0.028050 0.000000 0.032347
# 5 -0.005778 -0.003125 -0.008719 0.000000 0.025645 0.000000
# 6 0.000000 0.000000 0.000000 0.032347 0.000000 -0.000086
#
#
# Mechanical properties :
#
#
# Convention : Reuss Voigt Hill
#
# Bulk Modulus (GPa) = 29.63183 56.81308 43.22246
# Shear Modulus (GPa) = 107.80249 40.39686 74.09968
#
# Velocity S-wave (km/s) = 6.65712 4.07517 5.51925
# Velocity P-wave (km/s) = 8.44223 6.74525 7.64100
#
# Compressibility (1/GPa) = 0.03374750
#
# Stress axis : x y z
#
# Youngs Moduli (GPa) = 101.34535 188.75306 48.73214
#
# Poissons Ratio (x) = -0.07731 0.04193
# Poissons Ratio (y) = -0.04151 0.02526
# Poissons Ratio (z) = 0.08719 0.09783
#
# Static dielectric constant tensor:
#      x y z
#    x 1.838820 0.000000 0.110550 
#    y 0.000000 2.161140 0.000000 
#    z 0.110550 0.000000 1.751670 
# 
# From -- ./inp_files/49531.got.cif
#   From: 2010.05.17/outbox.cif.g08.bks.cpg/sg5_25_cif.got.tgz:49531.got - 2010.06.03 18:56:24.
