data_PCOD9121819
_publ_section_title
;
Structure prediction by ZEFSAII (Michael W. Deem and Ramdas Pophale) SiO2 
 PCOD9121819
Probable space group: C 2
;
_chemical_formula_sum "Si O2"
_cell_formula_units_Z 24
_cell_length_a 15.484297
_cell_length_b 8.688595
_cell_length_c 10.360367
_cell_angle_alpha 90.000000
_cell_angle_beta 40.080645
_cell_angle_gamma 90.000000
_cell_volume 897.451808
_symmetry_space_group_name_H-M "C 2"
_symmetry_group_IT_number 5
_symmetry_cell_setting 'monoclinic'
loop_
_space_group_symop_operation_xyz
x,y,z
-x,y,-z
1/2+x,1/2+y,z
1/2-x,1/2+y,-z
loop_
_atom_site_type_symbol
_atom_site_label
_atom_site_fract_x
_atom_site_fract_y
_atom_site_fract_z
Si Si1 0.654539 0.176860 0.592694
Si Si2 0.205379 0.147118 0.804526
Si Si3 0.480565 0.442521 0.833040
Si Si4 0.416459 0.999681 0.751756
Si Si5 0.500000 0.187817 0.000000
Si Si6 0.500000 0.719036 0.500000
Si Si7 0.200917 0.975324 0.210126
O O1 0.785884 0.137821 0.361223
O O2 0.625285 0.358504 0.647780
O O3 0.538105 0.115804 0.630371
O O4 0.607684 0.105274 0.784382
O O5 0.257302 0.318887 0.770179
O O6 0.314155 0.041477 0.754978
O O7 0.070922 0.095457 0.033876
O O8 0.408983 0.443134 0.776969
O O9 0.422471 0.308299 0.994973
O O10 0.471110 0.830708 0.654188
O O11 0.332546 0.016379 0.978305
O O12 0.629065 0.610443 0.371120
#
# Coordination Sequence:
#
# PCOD9121819 Si02
#       7
#     4   4   4   4   2   2   4
#     4  10  19  36  62  85 124 162 202 255 315 361
#     4  11  19  36  63  90 118 163 205 253 329 369
#     4   9  20  36  63  86 124 164 204 255 313 375
#     4  11  21  36  59  95 126 159 201 261 315 379
#     4   8  20  38  60  84 116 178 200 262 308 354
#     4  12  24  34  58  98 132 160 204 242 326 384
#     4  11  23  36  60  95 129 157 197 268 320 375
#
# _framework density 26.742381999999999
#
# number of rings (size 3 to 8) (size 9 to 14) (size 15 to 20)
#    1.000    0.667    3.333    3.000    2.333    0.000 
#    0.000    1.667    7.333    4.000    0.000    0.000 
#    0.000    0.000    0.000    0.000    0.000    0.000 
#
# Total GULP energy -66929.589095 kJ/mol
# GULP energy per Si atom -5577.465758 kJ/mol
# Density = 2.668152 g / cm^3
# Si number density = 26.742382 Si / 1000 Ang^3
#
#
#
# Elastic Constant Matrix: (Units=GPa)
#
#
# Indices 1 2 3 4 5 6 
#
# 1 48.5788 25.1911 25.9846 0.0000 0.1658 0.0000
# 2 25.1911 171.2674 77.4804 0.0000 -9.0975 0.0000
# 3 25.9846 77.4804 207.5087 0.0000 -3.6419 0.0000
# 4 0.0000 0.0000 0.0000 60.4601 0.0000 5.5550
# 5 0.1658 -9.0975 -3.6419 0.0000 32.6523 0.0000
# 6 0.0000 0.0000 0.0000 5.5550 0.0000 39.0370
#
#
#
# Elastic Compliance Matrix: (Units=1/GPa)
#
#
# Indices 1 2 3 4 5 6 
#
# 1 0.022950 -0.002554 -0.001939 0.000000 -0.001044 0.000000
# 2 -0.002554 0.007402 -0.002412 0.000000 0.001806 0.000000
# 3 -0.001939 -0.002412 0.005963 0.000000 0.000003 0.000000
# 4 0.000000 0.000000 0.000000 0.016759 0.000000 -0.002385
# 5 -0.001044 0.001806 0.000003 0.000000 0.031135 0.000000
# 6 0.000000 0.000000 0.000000 -0.002385 0.000000 0.025956
#
#
# Mechanical properties :
#
#
# Convention : Reuss Voigt Hill
#
# Bulk Modulus (GPa) = 44.43518 76.07414 60.25466
# Shear Modulus (GPa) = 38.03004 46.34313 42.18658
#
# Velocity S-wave (km/s) = 3.77515 4.16738 3.97611
# Velocity P-wave (km/s) = 5.97113 7.18783 6.60755
#
# Compressibility (1/GPa) = 0.02250469
#
# Stress axis : x y z
#
# Youngs Moduli (GPa) = 43.57284 135.10439 167.71440
#
# Poissons Ratio (x) = 0.34508 0.32511
# Poissons Ratio (y) = 0.11129 0.40455
# Poissons Ratio (z) = 0.08447 0.32589
#
# Static dielectric constant tensor:
#      x y z
#    x 2.097220 0.000000 0.041870 
#    y 0.000000 2.063860 0.000000 
#    z 0.041870 0.000000 2.187870 
# 
# From -- ./inp_files/41296.got.cif
#   From: 2010.05.17/outbox.cif.g08.bks.cpg/sg5_21_cif.got.tgz:41296.got - 2010.06.03 18:56:24.
