data_PCOD9121663
_publ_section_title
;
Structure prediction by ZEFSAII (Michael W. Deem and Ramdas Pophale) SiO2 
 PCOD9121663
Probable space group: C 2
;
_chemical_formula_sum "Si O2"
_cell_formula_units_Z 28
_cell_length_a 14.890350
_cell_length_b 9.210034
_cell_length_c 9.656281
_cell_angle_alpha 90.000000
_cell_angle_beta 56.706056
_cell_angle_gamma 90.000000
_cell_volume 1106.910167
_symmetry_space_group_name_H-M "C 2"
_symmetry_group_IT_number 5
_symmetry_cell_setting 'monoclinic'
loop_
_space_group_symop_operation_xyz
x,y,z
-x,y,-z
1/2+x,1/2+y,z
1/2-x,1/2+y,-z
loop_
_atom_site_type_symbol
_atom_site_label
_atom_site_fract_x
_atom_site_fract_y
_atom_site_fract_z
Si Si1 0.161759 0.711680 0.917808
Si Si2 0.984314 0.772379 0.696757
Si Si3 0.225381 0.660300 0.234134
Si Si4 0.585325 0.954925 0.613490
Si Si5 0.912391 0.976802 0.197386
Si Si6 0.356688 0.872312 0.749833
Si Si7 0.379790 0.888908 0.124704
O O1 0.133355 0.823636 0.819919
O O2 0.288900 0.729174 0.822894
O O3 0.123923 0.552662 0.920131
O O4 0.096784 0.765300 0.104314
O O5 0.894530 0.736634 0.650411
O O6 0.058163 0.626639 0.644346
O O7 0.042756 0.926140 0.688129
O O8 0.312322 0.591746 0.274050
O O9 0.206525 0.519370 0.154001
O O10 0.296763 0.789550 0.116207
O O11 0.470811 0.874975 0.724019
O O12 0.624623 0.912062 0.428444
O O13 0.653101 0.901367 0.685451
O O14 0.000000 0.015565 0.000000
O O15 0.500000 0.835923 0.000000
#
# Coordination Sequence:
#
# PCOD9121663 Si02
#       7
#     4   4   4   4   4   4   4
#     4  10  19  35  61  88 118 162 215 251 320 390
#     4  10  19  37  64  87 120 168 210 264 321 391
#     4  10  23  35  56  94 123 159 215 260 324 385
#     4  10  20  40  64  84 125 160 210 258 322 378
#     4   9  17  36  55  83 122 163 201 257 321 380
#     4   9  22  41  62  86 116 175 210 248 318 406
#     4  12  22  36  57  95 125 154 203 279 318 366
#
# _framework density 25.295639000000001
#
# number of rings (size 3 to 8) (size 9 to 14) (size 15 to 20)
#    0.000    2.000    2.857    0.857    2.000    3.429 
#    2.571    0.000    0.000    1.714    0.000    0.000 
#    0.000    0.000    0.000    0.000    0.000    0.000 
#
# Total GULP energy -78033.730014 kJ/mol
# GULP energy per Si atom -5573.837858 kJ/mol
# Density = 2.523807 g / cm^3
# Si number density = 25.295639 Si / 1000 Ang^3
#
#
#
# Elastic Constant Matrix: (Units=GPa)
#
#
# Indices 1 2 3 4 5 6 
#
# 1 112.5504 40.0140 29.1480 0.0000 -1.1608 0.0000
# 2 40.0140 81.8026 9.3215 0.0000 -18.6969 0.0000
# 3 29.1480 9.3215 50.2247 0.0000 17.7289 0.0000
# 4 0.0000 0.0000 0.0000 17.7783 0.0000 -19.1106
# 5 -1.1608 -18.6969 17.7289 0.0000 42.5070 0.0000
# 6 0.0000 0.0000 0.0000 -19.1106 0.0000 47.9456
#
#
#
# Elastic Compliance Matrix: (Units=1/GPa)
#
#
# Indices 1 2 3 4 5 6 
#
# 1 0.012414 -0.005145 -0.006532 0.000000 0.000800 0.000000
# 2 -0.005145 0.017117 -0.003282 0.000000 0.008757 0.000000
# 3 -0.006532 -0.003282 0.029179 0.000000 -0.013792 0.000000
# 4 0.000000 0.000000 0.000000 0.098415 0.000000 0.039227
# 5 0.000800 0.008757 -0.013792 0.000000 0.033152 0.000000
# 6 0.000000 0.000000 0.000000 0.039227 0.000000 0.036492
#
#
# Mechanical properties :
#
#
# Convention : Reuss Voigt Hill
#
# Bulk Modulus (GPa) = 34.73269 44.61609 39.67439
# Shear Modulus (GPa) = 18.77687 32.71912 25.74799
#
# Velocity S-wave (km/s) = 2.72747 3.60038 3.19389
# Velocity P-wave (km/s) = 4.86614 5.91268 5.41475
#
# Compressibility (1/GPa) = 0.02879132
#
# Stress axis : x y z
#
# Youngs Moduli (GPa) = 80.55414 58.42184 34.27113
#
# Poissons Ratio (x) = 0.30059 0.22386
# Poissons Ratio (y) = 0.41446 0.11248
# Poissons Ratio (z) = 0.52619 0.19175
#
# Static dielectric constant tensor:
#      x y z
#    x 2.150210 0.000000 0.048780 
#    y 0.000000 1.981730 0.000000 
#    z 0.048780 0.000000 2.078410 
# 
# From -- ./inp_files/41862.got.cif
#   From: 2010.05.17/outbox.cif.g08.bks.cpg/sg5_21_cif.got.tgz:41862.got - 2010.06.03 18:56:24.
