data_PCOD9121321
_publ_section_title
;
Structure prediction by ZEFSAII (Michael W. Deem and Ramdas Pophale) SiO2 
 PCOD9121321
Probable space group: C 2
;
_chemical_formula_sum "Si O2"
_cell_formula_units_Z 28
_cell_length_a 12.594588
_cell_length_b 7.926315
_cell_length_c 14.589279
_cell_angle_alpha 90.000000
_cell_angle_beta 114.121551
_cell_angle_gamma 90.000000
_cell_volume 1329.253786
_symmetry_space_group_name_H-M "C 2"
_symmetry_group_IT_number 5
_symmetry_cell_setting 'monoclinic'
loop_
_space_group_symop_operation_xyz
x,y,z
-x,y,-z
1/2+x,1/2+y,z
1/2-x,1/2+y,-z
loop_
_atom_site_type_symbol
_atom_site_label
_atom_site_fract_x
_atom_site_fract_y
_atom_site_fract_z
Si Si1 0.798014 0.746450 0.734718
Si Si2 0.727278 0.211293 0.766968
Si Si3 0.641229 0.074644 0.918996
Si Si4 0.802143 0.047484 0.141731
Si Si5 0.076240 0.436890 0.616815
Si Si6 0.507329 0.430401 0.896412
Si Si7 0.932535 0.403102 0.746346
O O1 0.745089 0.697352 0.814795
O O2 0.857817 0.579578 0.714032
O O3 0.894996 0.882854 0.796692
O O4 0.688467 0.817187 0.640874
O O5 0.727567 0.106019 0.862945
O O6 0.679362 0.392130 0.783124
O O7 0.635999 0.110300 0.672795
O O8 0.845609 0.263270 0.757067
O O9 0.583690 0.256300 0.921680
O O10 0.536181 0.955918 0.851344
O O11 0.706931 0.007086 0.030747
O O12 0.920538 0.072821 0.130280
O O13 0.000000 0.457542 0.500000
O O14 0.993815 0.370211 0.670444
O O15 0.500000 0.474479 0.000000
#
# Coordination Sequence:
#
# PCOD9121321 Si02
#       7
#     4   4   4   4   4   4   4
#     4  10  22  41  60  84 125 160 201 250 298 362
#     4   9  21  38  60  89 121 158 203 251 298 358
#     4   9  18  34  59  88 131 166 194 232 289 360
#     4  10  20  37  60  90 128 166 202 238 289 364
#     4  11  25  44  65  88 116 156 209 269 318 359
#     4  10  19  32  56  87 123 165 191 233 291 342
#     4   9  21  41  62  89 123 160 199 251 307 363
#
# _framework density 21.064450000000001
#
# number of rings (size 3 to 8) (size 9 to 14) (size 15 to 20)
#    0.000    2.286    1.429    0.857    4.000    2.286 
#    0.000    4.286    0.000    0.000    0.000    0.000 
#    0.000    0.000    0.000    0.000    0.000    0.000 
#
# Total GULP energy -78182.433997 kJ/mol
# GULP energy per Si atom -5584.459571 kJ/mol
# Density = 2.101651 g / cm^3
# Si number density = 21.064450 Si / 1000 Ang^3
#
#
#
# Elastic Constant Matrix: (Units=GPa)
#
#
# Indices 1 2 3 4 5 6 
#
# 1 108.1971 23.3148 18.9666 0.0000 10.4451 0.0000
# 2 23.3148 69.6466 13.0239 0.0000 14.2001 0.0000
# 3 18.9666 13.0239 100.8368 0.0000 26.3456 0.0000
# 4 0.0000 0.0000 0.0000 15.9351 0.0000 9.4071
# 5 10.4451 14.2001 26.3456 0.0000 24.9874 0.0000
# 6 0.0000 0.0000 0.0000 9.4071 0.0000 44.3580
#
#
#
# Elastic Compliance Matrix: (Units=1/GPa)
#
#
# Indices 1 2 3 4 5 6 
#
# 1 0.010211 -0.002919 -0.001189 0.000000 -0.001355 0.000000
# 2 -0.002919 0.017088 0.000773 0.000000 -0.009306 0.000000
# 3 -0.001189 0.000773 0.013838 0.000000 -0.014532 0.000000
# 4 0.000000 0.000000 0.000000 0.071736 0.000000 -0.015213
# 5 -0.001355 -0.009306 -0.014532 0.000000 0.061197 0.000000
# 6 0.000000 0.000000 0.000000 -0.015213 0.000000 0.025770
#
#
# Mechanical properties :
#
#
# Convention : Reuss Voigt Hill
#
# Bulk Modulus (GPa) = 29.01420 43.25456 36.13438
# Shear Modulus (GPa) = 22.93586 31.94777 27.44181
#
# Velocity S-wave (km/s) = 3.30334 3.89867 3.61329
# Velocity P-wave (km/s) = 5.32478 6.39102 5.88211
#
# Compressibility (1/GPa) = 0.03446588
#
# Stress axis : x y z
#
# Youngs Moduli (GPa) = 97.93544 58.51959 72.26659
#
# Poissons Ratio (x) = 0.17084 0.08596
# Poissons Ratio (y) = 0.28592 -0.05590
# Poissons Ratio (z) = 0.11649 -0.04526
#
# Static dielectric constant tensor:
#      x y z
#    x 1.838810 0.000000 0.002700 
#    y 0.000000 1.804880 0.000000 
#    z 0.002700 0.000000 1.697050 
# 
# From -- ./inp_files/52187.got.cif
#   From: 2010.05.17/outbox.cif.g08.bks.cpg/sg5_27_cif.got.tgz:52187.got - 2010.06.03 18:56:24.
