data_PCOD9121069
_publ_section_title
;
Structure prediction by ZEFSAII (Michael W. Deem and Ramdas Pophale) SiO2 
 PCOD9121069
Probable space group: C 2
;
_chemical_formula_sum "Si O2"
_cell_formula_units_Z 22
_cell_length_a 18.207182
_cell_length_b 9.387760
_cell_length_c 12.549952
_cell_angle_alpha 90.000000
_cell_angle_beta 24.266375
_cell_angle_gamma 90.000000
_cell_volume 881.590388
_symmetry_space_group_name_H-M "C 2"
_symmetry_group_IT_number 5
_symmetry_cell_setting 'monoclinic'
loop_
_space_group_symop_operation_xyz
x,y,z
-x,y,-z
1/2+x,1/2+y,z
1/2-x,1/2+y,-z
loop_
_atom_site_type_symbol
_atom_site_label
_atom_site_fract_x
_atom_site_fract_y
_atom_site_fract_z
Si Si1 0.841429 0.971620 0.632537
Si Si2 0.958927 0.437433 0.241433
Si Si3 0.297801 0.667071 0.375630
Si Si4 0.663814 0.544229 0.912497
Si Si5 0.856174 0.284927 0.595919
Si Si6 0.000000 0.711118 0.500000
O O1 0.938445 0.817481 0.484720
O O2 0.000000 0.024498 0.500000
O O3 0.802531 0.125258 0.631885
O O4 0.658525 0.930164 0.933949
O O5 0.882095 0.596288 0.344126
O O6 0.831963 0.335247 0.337833
O O7 0.935479 0.369362 0.389367
O O8 0.315860 0.611603 0.231668
O O9 0.470377 0.593636 0.205298
O O10 0.689546 0.376974 0.861016
O O11 0.830807 0.613726 0.754394
O O12 0.000000 0.297469 0.500000
#
# Coordination Sequence:
#
# PCOD9121069 Si02
#       6
#     4   4   4   4   4   2
#     4   9  21  42  64  97 133 170 225 279 334 394
#     4  11  23  44  66 100 135 180 230 270 347 407
#     4  10  23  40  62  99 128 178 226 271 338 414
#     4  10  20  41  66  87 135 174 219 281 339 389
#     4  10  22  43  65  98 134 177 221 284 335 398
#     4  10  18  38  66  90 128 174 218 288 332 388
#
# _framework density 24.954899999999999
#
# number of rings (size 3 to 8) (size 9 to 14) (size 15 to 20)
#    0.545    1.455    2.727    0.000    2.545    1.455 
#   19.636    0.000    0.000    0.000    0.000    0.000 
#    0.000    0.000    0.000    0.000    0.000    0.000 
#
# Total GULP energy -61280.568623 kJ/mol
# GULP energy per Si atom -5570.960784 kJ/mol
# Density = 2.489810 g / cm^3
# Si number density = 24.954900 Si / 1000 Ang^3
#
#
#
# Elastic Constant Matrix: (Units=GPa)
#
#
# Indices 1 2 3 4 5 6 
#
# 1 40.4318 7.6577 12.0627 0.0000 6.4447 0.0000
# 2 7.6577 154.1391 35.4757 0.0000 1.8194 0.0000
# 3 12.0627 35.4757 102.4936 0.0000 -3.9080 0.0000
# 4 0.0000 0.0000 0.0000 52.0559 0.0000 -3.3263
# 5 6.4447 1.8194 -3.9080 0.0000 22.2888 0.0000
# 6 0.0000 0.0000 0.0000 -3.3263 0.0000 19.8645
#
#
#
# Elastic Compliance Matrix: (Units=1/GPa)
#
#
# Indices 1 2 3 4 5 6 
#
# 1 0.027163 -0.000479 -0.003352 0.000000 -0.008403 0.000000
# 2 -0.000479 0.007080 -0.002427 0.000000 -0.000865 0.000000
# 3 -0.003352 -0.002427 0.011110 0.000000 0.003115 0.000000
# 4 0.000000 0.000000 0.000000 0.019418 0.000000 0.003251
# 5 -0.008403 -0.000865 0.003115 0.000000 0.047912 0.000000
# 6 0.000000 0.000000 0.000000 0.003251 0.000000 0.050886
#
#
# Mechanical properties :
#
#
# Convention : Reuss Voigt Hill
#
# Bulk Modulus (GPa) = 30.45258 45.27297 37.86278
# Shear Modulus (GPa) = 26.73364 34.96640 30.85002
#
# Velocity S-wave (km/s) = 3.27659 3.74730 3.51982
# Velocity P-wave (km/s) = 5.15211 6.07489 5.63243
#
# Compressibility (1/GPa) = 0.03283794
#
# Stress axis : x y z
#
# Youngs Moduli (GPa) = 36.81478 141.23684 90.00827
#
# Poissons Ratio (x) = 0.06764 0.30166
# Poissons Ratio (y) = 0.01763 0.21848
# Poissons Ratio (z) = 0.12338 0.34282
#
# Static dielectric constant tensor:
#      x y z
#    x 2.116370 0.000000 -0.041170 
#    y 0.000000 2.091400 0.000000 
#    z -0.041170 0.000000 1.845170 
# 
# From -- ./inp_files/63224.got.cif
#   From: 2010.05.17/outbox.cif.g08.bks.cpg/sg5_32_cif.got.tgz:63224.got - 2010.06.03 18:56:24.
