data_PCOD9121431
_publ_section_title
;
Structure prediction by ZEFSAII (Michael W. Deem and Ramdas Pophale) SiO2 
 PCOD9121431
Probable space group: C 2
;
_chemical_formula_sum "Si O2"
_cell_formula_units_Z 24
_cell_length_a 24.614010
_cell_length_b 5.185946
_cell_length_c 11.066334
_cell_angle_alpha 90.000000
_cell_angle_beta 122.326780
_cell_angle_gamma 90.000000
_cell_volume 1193.650008
_symmetry_space_group_name_H-M "C 2"
_symmetry_group_IT_number 5
_symmetry_cell_setting 'monoclinic'
loop_
_space_group_symop_operation_xyz
x,y,z
-x,y,-z
1/2+x,1/2+y,z
1/2-x,1/2+y,-z
loop_
_atom_site_type_symbol
_atom_site_label
_atom_site_fract_x
_atom_site_fract_y
_atom_site_fract_z
Si Si1 0.190321 0.921370 0.178707
Si Si2 0.537585 0.002516 0.854036
Si Si3 0.228787 0.112471 0.900113
Si Si4 0.777121 0.273162 0.592709
Si Si5 0.601276 0.511622 0.844556
Si Si6 0.598041 0.052421 0.192506
O O1 0.233579 0.693843 0.175148
O O2 0.140387 0.806148 0.216517
O O3 0.234269 0.138252 0.291091
O O4 0.147419 0.023300 0.017883
O O5 0.570267 0.230903 0.816896
O O6 0.464570 0.073722 0.799428
O O7 0.549150 0.734652 0.799543
O O8 0.572656 0.981567 0.027406
O O9 0.152802 0.058066 0.800000
O O10 0.239358 0.364819 0.998020
O O11 0.739843 0.536742 0.517194
O O12 0.851733 0.354712 0.689627
#
# Coordination Sequence:
#
# PCOD9121431 Si02
#       6
#     4   4   4   4   4   4
#     4  10  21  36  55  80 120 149 186 235 281 336
#     4  10  21  32  57  79 119 151 176 223 286 349
#     4  10  20  32  54  80 117 155 181 226 284 348
#     4  12  24  37  55  79 117 156 199 233 275 330
#     4  10  19  34  51  85 113 150 181 216 284 354
#     4  10  21  36  54  82 115 151 186 231 286 337
#
# _framework density 20.106397999999999
#
# number of rings (size 3 to 8) (size 9 to 14) (size 15 to 20)
#    0.000    1.667    3.333    3.000    4.667    1.333 
#    0.000    0.000    0.000    0.000    0.000    1.167 
#   10.000    0.000    0.000    0.000    0.000    0.000 
#
# Total GULP energy -66913.548934 kJ/mol
# GULP energy per Si atom -5576.129078 kJ/mol
# Density = 2.006064 g / cm^3
# Si number density = 20.106398 Si / 1000 Ang^3
#
#
#
# Elastic Constant Matrix: (Units=GPa)
#
#
# Indices 1 2 3 4 5 6 
#
# 1 119.6082 35.7296 9.1087 0.0000 22.7547 0.0000
# 2 35.7296 127.3397 27.0477 0.0000 8.8808 0.0000
# 3 9.1087 27.0477 44.7078 0.0000 14.4934 0.0000
# 4 0.0000 0.0000 0.0000 28.3906 0.0000 -7.1320
# 5 22.7547 8.8808 14.4934 0.0000 13.2244 0.0000
# 6 0.0000 0.0000 0.0000 -7.1320 0.0000 34.5074
#
#
#
# Elastic Compliance Matrix: (Units=1/GPa)
#
#
# Indices 1 2 3 4 5 6 
#
# 1 0.015705 -0.004239 0.011171 0.000000 -0.036419 0.000000
# 2 -0.004239 0.010156 -0.008429 0.000000 0.009712 0.000000
# 3 0.011171 -0.008429 0.045892 0.000000 -0.063858 0.000000
# 4 0.000000 0.000000 0.000000 0.037152 0.000000 0.007679
# 5 -0.036419 0.009712 -0.063858 0.000000 0.201745 0.000000
# 6 0.000000 0.000000 0.000000 0.007679 0.000000 0.030566
#
#
# Mechanical properties :
#
#
# Convention : Reuss Voigt Hill
#
# Bulk Modulus (GPa) = 14.54361 48.38084 31.46222
# Shear Modulus (GPa) = 13.61919 29.87579 21.74749
#
# Velocity S-wave (km/s) = 2.60543 3.85890 3.29237
# Velocity P-wave (km/s) = 4.03733 6.63095 5.48951
#
# Compressibility (1/GPa) = 0.06875871
#
# Stress axis : x y z
#
# Youngs Moduli (GPa) = 63.67494 98.46866 21.79027
#
# Poissons Ratio (x) = 0.41746 -0.24343
# Poissons Ratio (y) = 0.26995 0.18366
# Poissons Ratio (z) = -0.71134 0.82997
#
# Static dielectric constant tensor:
#      x y z
#    x 1.743870 0.000000 -0.033280 
#    y 0.000000 1.759280 0.000000 
#    z -0.033280 0.000000 1.751970 
# 
# From -- ./inp_files/46822.got.cif
#   From: 2010.05.17/outbox.cif.g08.bks.cpg/sg5_24_cif.got.tgz:46822.got - 2010.06.03 18:56:24.
