data_PCOD9121448
_publ_section_title
;
Structure prediction by ZEFSAII (Michael W. Deem and Ramdas Pophale) SiO2 
 PCOD9121448
Probable space group: C 2
;
_chemical_formula_sum "Si O2"
_cell_formula_units_Z 28
_cell_length_a 12.205283
_cell_length_b 12.931301
_cell_length_c 7.682023
_cell_angle_alpha 90.000000
_cell_angle_beta 101.755743
_cell_angle_gamma 90.000000
_cell_volume 1187.023957
_symmetry_space_group_name_H-M "C 2"
_symmetry_group_IT_number 5
_symmetry_cell_setting 'monoclinic'
loop_
_space_group_symop_operation_xyz
x,y,z
-x,y,-z
1/2+x,1/2+y,z
1/2-x,1/2+y,-z
loop_
_atom_site_type_symbol
_atom_site_label
_atom_site_fract_x
_atom_site_fract_y
_atom_site_fract_z
Si Si1 0.665216 0.870060 0.881814
Si Si2 0.162499 0.250340 0.509928
Si Si3 0.449695 0.949164 0.672513
Si Si4 0.292210 0.546256 0.293756
Si Si5 0.113696 0.969781 0.150590
Si Si6 0.117321 0.847599 0.512600
Si Si7 0.633403 0.668106 0.032469
O O1 0.661461 0.808805 0.696992
O O2 0.555888 0.942608 0.837415
O O3 0.782561 0.925208 0.921283
O O4 0.672035 0.784545 0.033053
O O5 0.084704 0.327452 0.371751
O O6 0.152331 0.131018 0.557786
O O7 0.283754 0.267215 0.467244
O O8 0.500000 0.985336 0.500000
O O9 0.338385 0.013294 0.700056
O O10 0.357170 0.438594 0.341879
O O11 0.316680 0.605332 0.118581
O O12 0.108189 0.907240 0.325754
O O13 0.000000 0.965231 0.000000
O O14 0.150638 0.088609 0.193874
O O15 0.000000 0.793722 0.500000
O O16 0.500000 0.679928 0.000000
#
# Coordination Sequence:
#
# PCOD9121448 Si02
#       7
#     4   4   4   4   4   4   4
#     4   9  19  37  56  77 111 153 192 234 285 340
#     4   8  18  33  52  81 113 140 178 232 285 335
#     4   9  18  35  59  87 116 145 186 242 292 341
#     4  10  20  36  59  86 111 144 188 236 286 341
#     4  10  21  38  55  79 115 152 192 240 286 341
#     4  10  19  34  55  79 107 143 184 229 283 336
#     4  10  21  37  56  81 112 149 193 237 286 344
#
# _framework density 23.588403
#
# number of rings (size 3 to 8) (size 9 to 14) (size 15 to 20)
#    0.000    2.571    0.000    2.571    0.000    6.857 
#    0.000    7.143    0.000    0.000    0.000    0.000 
#    0.000    0.000    0.000    0.000    0.000    0.000 
#
# Total GULP energy -78015.573877 kJ/mol
# GULP energy per Si atom -5572.540991 kJ/mol
# Density = 2.353472 g / cm^3
# Si number density = 23.588403 Si / 1000 Ang^3
#
#
#
# Elastic Constant Matrix: (Units=GPa)
#
#
# Indices 1 2 3 4 5 6 
#
# 1 168.8625 17.6798 15.2052 0.0000 7.0379 0.0000
# 2 17.6798 52.3334 7.5796 0.0000 6.2205 0.0000
# 3 15.2052 7.5796 102.0004 0.0000 -9.7526 0.0000
# 4 0.0000 0.0000 0.0000 -27.6842 0.0000 25.1138
# 5 7.0379 6.2205 -9.7526 0.0000 28.3074 0.0000
# 6 0.0000 0.0000 0.0000 25.1138 0.0000 7.7181
#
#
#
# Elastic Compliance Matrix: (Units=1/GPa)
#
#
# Indices 1 2 3 4 5 6 
#
# 1 0.006257 -0.001801 -0.000941 0.000000 -0.001484 0.000000
# 2 -0.001801 0.020515 -0.001700 0.000000 -0.004646 0.000000
# 3 -0.000941 -0.001700 0.010474 0.000000 0.004216 0.000000
# 4 0.000000 0.000000 0.000000 -0.009141 0.000000 0.029743
# 5 -0.001484 -0.004646 0.004216 0.000000 0.038169 0.000000
# 6 0.000000 0.000000 0.000000 0.029743 0.000000 0.032787
#
#
# Mechanical properties :
#
#
# Convention : Reuss Voigt Hill
#
# Bulk Modulus (GPa) = 35.25902 44.90286 40.08094
# Shear Modulus (GPa) = 42.58977 20.51705 31.55341
#
# Velocity S-wave (km/s) = 4.25377 2.95243 3.66138
# Velocity P-wave (km/s) = 6.25349 5.54073 5.90787
#
# Compressibility (1/GPa) = 0.02836154
#
# Stress axis : x y z
#
# Youngs Moduli (GPa) = 159.81773 48.74424 95.47852
#
# Poissons Ratio (x) = 0.08780 0.08983
# Poissons Ratio (y) = 0.28786 0.16233
# Poissons Ratio (z) = 0.15036 0.08288
#
# Static dielectric constant tensor:
#      x y z
#    x 1.922430 0.000000 -0.046860 
#    y 0.000000 1.906820 0.000000 
#    z -0.046860 0.000000 2.005770 
# 
# From -- ./inp_files/20425.got.cif
#   From: 2010.05.17/outbox.cif.g08.bks.cpg/sg5_11_cif.got.tgz:20425.got - 2010.06.03 18:56:24.
