data_PCOD9121343
_publ_section_title
;
Structure prediction by ZEFSAII (Michael W. Deem and Ramdas Pophale) SiO2 
 PCOD9121343
Probable space group: C 2
;
_chemical_formula_sum "Si O2"
_cell_formula_units_Z 28
_cell_length_a 30.005286
_cell_length_b 10.360479
_cell_length_c 15.715654
_cell_angle_alpha 90.000000
_cell_angle_beta 160.696988
_cell_angle_gamma 90.000000
_cell_volume 1614.974349
_symmetry_space_group_name_H-M "C 2"
_symmetry_group_IT_number 5
_symmetry_cell_setting 'monoclinic'
loop_
_space_group_symop_operation_xyz
x,y,z
-x,y,-z
1/2+x,1/2+y,z
1/2-x,1/2+y,-z
loop_
_atom_site_type_symbol
_atom_site_label
_atom_site_fract_x
_atom_site_fract_y
_atom_site_fract_z
Si Si1 0.082722 0.084850 0.823527
Si Si2 0.500000 0.706701 0.500000
Si Si3 0.658184 0.029271 0.292229
Si Si4 0.306946 0.301647 0.250268
Si Si5 0.355553 0.453657 0.509964
Si Si6 0.221061 0.420942 0.920940
Si Si7 0.869082 0.822484 0.706287
Si Si8 0.000000 0.634727 0.500000
O O1 0.011719 0.126296 0.607328
O O2 0.183821 0.199651 0.031470
O O3 0.974854 0.050508 0.700299
O O4 0.171212 0.960926 0.955788
O O5 0.630455 0.799167 0.731781
O O6 0.670183 0.173484 0.350848
O O7 0.729233 0.023856 0.327406
O O8 0.745498 0.922111 0.500747
O O9 0.500000 0.997468 0.000000
O O10 0.317119 0.380836 0.354573
O O11 0.441515 0.221546 0.470252
O O12 0.283970 0.389907 0.125663
O O13 0.401839 0.353539 0.666670
O O14 0.121171 0.543234 0.748516
O O15 0.000000 0.848682 0.000000
#
# Coordination Sequence:
#
# PCOD9121343 Si02
#       8
#     4   2   4   4   4   4   4   2
#     4  10  19  33  52  84 113 147 186 233 270 323
#     4   9  18  33  52  76 116 155 183 212 272 330
#     4   9  21  42  62  84 112 151 191 242 306 362
#     4  10  19  33  52  84 113 147 186 233 270 323
#     4  10  22  37  60  86 112 140 200 237 284 352
#     4   9  18  33  52  76 116 155 183 212 272 330
#     4   9  21  42  62  84 112 151 191 242 306 362
#     4   9  18  33  52  76 116 155 183 212 272 330
#
# _framework density 17.337737000000001
#
# number of rings (size 3 to 8) (size 9 to 14) (size 15 to 20)
#    0.857    1.714    0.000    1.714    0.000    2.857 
#   10.286    0.000    0.000    0.000    0.000    0.000 
#    0.000    0.000    0.000    0.000    0.000    0.000 
#
# Total GULP energy -77979.365159 kJ/mol
# GULP energy per Si atom -5569.954654 kJ/mol
# Density = 1.729828 g / cm^3
# Si number density = 17.337737 Si / 1000 Ang^3
#
#
#
# Elastic Constant Matrix: (Units=GPa)
#
#
# Indices 1 2 3 4 5 6 
#
# 1 58.7053 -1.3939 6.8898 0.0000 22.2814 0.0000
# 2 -1.3939 52.0259 22.0928 0.0000 8.2272 0.0000
# 3 6.8898 22.0928 66.8788 0.0000 12.3027 0.0000
# 4 0.0000 0.0000 0.0000 18.8303 0.0000 3.5196
# 5 22.2814 8.2272 12.3027 0.0000 26.7635 0.0000
# 6 0.0000 0.0000 0.0000 3.5196 0.0000 22.3048
#
#
#
# Elastic Compliance Matrix: (Units=1/GPa)
#
#
# Indices 1 2 3 4 5 6 
#
# 1 0.025786 0.004241 0.000144 0.000000 -0.022837 0.000000
# 2 0.004241 0.023414 -0.006771 0.000000 -0.007616 0.000000
# 3 0.000144 -0.006771 0.018366 0.000000 -0.006481 0.000000
# 4 0.000000 0.000000 0.000000 0.054720 0.000000 -0.008635
# 5 -0.022837 -0.007616 -0.006481 0.000000 0.061698 0.000000
# 6 0.000000 0.000000 0.000000 -0.008635 0.000000 0.046196
#
#
# Mechanical properties :
#
#
# Convention : Reuss Voigt Hill
#
# Bulk Modulus (GPa) = 15.92474 25.86525 20.89500
# Shear Modulus (GPa) = 19.54015 23.58113 21.56064
#
# Velocity S-wave (km/s) = 3.36077 3.69196 3.53025
# Velocity P-wave (km/s) = 4.92592 5.75543 5.35675
#
# Compressibility (1/GPa) = 0.06279537
#
# Stress axis : x y z
#
# Youngs Moduli (GPa) = 38.78078 42.70884 54.44714
#
# Poissons Ratio (x) = -0.18114 -0.00782
# Poissons Ratio (y) = -0.16448 0.36864
# Poissons Ratio (z) = -0.00557 0.28916
#
# Static dielectric constant tensor:
#      x y z
#    x 1.555710 0.000000 0.021330 
#    y 0.000000 1.601290 0.000000 
#    z 0.021330 0.000000 1.605670 
# 
# From -- ./inp_files/58398.got.cif
#   From: 2010.05.17/outbox.cif.g08.bks.cpg/sg5_30_cif.got.tgz:58398.got - 2010.06.03 18:56:24.
