data_PCOD9121738
_publ_section_title
;
Structure prediction by ZEFSAII (Michael W. Deem and Ramdas Pophale) SiO2 
 PCOD9121738
Probable space group: C 2
;
_chemical_formula_sum "Si O2"
_cell_formula_units_Z 20
_cell_length_a 13.658400
_cell_length_b 7.038739
_cell_length_c 14.181253
_cell_angle_alpha 90.000000
_cell_angle_beta 147.866464
_cell_angle_gamma 90.000000
_cell_volume 725.161347
_symmetry_space_group_name_H-M "C 2"
_symmetry_group_IT_number 5
_symmetry_cell_setting 'monoclinic'
loop_
_space_group_symop_operation_xyz
x,y,z
-x,y,-z
1/2+x,1/2+y,z
1/2-x,1/2+y,-z
loop_
_atom_site_type_symbol
_atom_site_label
_atom_site_fract_x
_atom_site_fract_y
_atom_site_fract_z
Si Si1 0.139018 0.881140 0.691842
Si Si2 0.662670 0.348888 0.911857
Si Si3 0.623156 0.925149 0.723567
Si Si4 0.540703 0.708163 0.134261
Si Si5 0.773073 0.847961 0.645710
O O1 0.125834 0.969730 0.784963
O O2 0.102088 0.651940 0.680104
O O3 0.335117 0.882290 0.799606
O O4 0.000000 0.949367 0.500000
O O5 0.463660 0.248370 0.768111
O O6 0.740359 0.405874 0.077287
O O7 0.853055 0.260305 0.029638
O O8 0.709046 0.821061 0.701856
O O9 0.414500 0.847645 0.566890
O O10 0.653660 0.566319 0.291141
O O11 0.500000 0.610735 0.000000
#
# Coordination Sequence:
#
# PCOD9121738 Si02
#       5
#     4   4   4   4   4
#     4  10  19  38  59  82 113 148 184 233 278 328
#     4  11  21  29  58  92 112 139 190 238 276 326
#     4  10  20  37  59  84 110 149 191 232 275 332
#     4   9  18  34  55  81 114 143 185 229 277 327
#     4  10  19  36  58  81 115 147 188 233 278 327
#
# _framework density 27.580069000000002
#
# number of rings (size 3 to 8) (size 9 to 14) (size 15 to 20)
#    0.000    2.000    4.000    4.200    2.800    0.000 
#    0.000    0.000    0.000   28.800   20.800    0.000 
#    0.000    0.000    0.000    0.000    0.000    0.000 
#
# Total GULP energy -55780.801999 kJ/mol
# GULP energy per Si atom -5578.080200 kJ/mol
# Density = 2.751730 g / cm^3
# Si number density = 27.580069 Si / 1000 Ang^3
#
#
#
# Elastic Constant Matrix: (Units=GPa)
#
#
# Indices 1 2 3 4 5 6 
#
# 1 232.6268 39.1107 83.0810 0.0001 25.9685 0.0000
# 2 39.1107 62.9274 28.1080 0.0001 -0.3453 0.0000
# 3 83.0810 28.1080 220.3510 0.0002 12.4575 0.0001
# 4 0.0001 0.0001 0.0002 26.7946 0.0001 3.9603
# 5 25.9685 -0.3453 12.4575 0.0001 69.5782 0.0000
# 6 0.0000 0.0000 0.0001 3.9603 0.0000 33.1101
#
#
#
# Elastic Compliance Matrix: (Units=1/GPa)
#
#
# Indices 1 2 3 4 5 6 
#
# 1 0.005542 -0.002721 -0.001641 0.000000 -0.001788 0.000000
# 2 -0.002721 0.018203 -0.001372 0.000000 0.001352 0.000000
# 3 -0.001641 -0.001372 0.005352 0.000000 -0.000352 0.000000
# 4 0.000000 0.000000 0.000000 0.037993 0.000000 -0.004544
# 5 -0.001788 0.001352 -0.000352 0.000000 0.015109 0.000000
# 6 0.000000 0.000000 0.000000 -0.004544 0.000000 0.030746
#
#
# Mechanical properties :
#
#
# Convention : Reuss Voigt Hill
#
# Bulk Modulus (GPa) = 56.73029 90.72272 73.72651
# Shear Modulus (GPa) = 38.37576 50.27028 44.32302
#
# Velocity S-wave (km/s) = 3.73424 4.27394 4.01317
# Velocity P-wave (km/s) = 6.26152 7.57108 6.94722
#
# Compressibility (1/GPa) = 0.01762727
#
# Stress axis : x y z
#
# Youngs Moduli (GPa) = 180.43911 54.93592 186.84368
#
# Poissons Ratio (x) = 0.14949 0.30668
# Poissons Ratio (y) = 0.49100 0.25643
# Poissons Ratio (z) = 0.29617 0.07540
#
# Static dielectric constant tensor:
#      x y z
#    x 2.226740 0.000000 0.036180 
#    y 0.000000 2.417640 0.000000 
#    z 0.036180 0.000000 2.241210 
# 
# From -- ./inp_files/19007.got.cif
#   From: 2010.05.17/outbox.cif.g08.bks.cpg/sg5_10_cif.got.tgz:19007.got - 2010.06.03 18:56:24.
