data_PCOD9121613
_publ_section_title
;
Structure prediction by ZEFSAII (Michael W. Deem and Ramdas Pophale) SiO2 
 PCOD9121613
Probable space group: C 2
;
_chemical_formula_sum "Si O2"
_cell_formula_units_Z 24
_cell_length_a 8.385225
_cell_length_b 28.675794
_cell_length_c 9.501298
_cell_angle_alpha 90.000000
_cell_angle_beta 32.364457
_cell_angle_gamma 90.000000
_cell_volume 1222.961327
_symmetry_space_group_name_H-M "C 2"
_symmetry_group_IT_number 5
_symmetry_cell_setting 'monoclinic'
loop_
_space_group_symop_operation_xyz
x,y,z
-x,y,-z
1/2+x,1/2+y,z
1/2-x,1/2+y,-z
loop_
_atom_site_type_symbol
_atom_site_label
_atom_site_fract_x
_atom_site_fract_y
_atom_site_fract_z
Si Si1 0.648368 0.942510 0.240105
Si Si2 0.815564 0.797660 0.490591
Si Si3 0.327171 0.856018 0.979930
Si Si4 0.746528 0.688921 0.567172
Si Si5 0.381615 0.135802 0.931232
Si Si6 0.148843 0.546947 0.240196
O O1 0.500000 0.927971 0.500000
O O2 0.630754 0.905559 0.127283
O O3 0.529569 0.994777 0.295841
O O4 0.000000 0.946113 0.000000
O O5 0.500468 0.820898 0.750232
O O6 0.749931 0.743146 0.518220
O O7 0.000000 0.798786 0.500000
O O8 0.008885 0.831362 0.245208
O O9 0.500000 0.858114 0.000000
O O10 0.000000 0.684185 0.500000
O O11 0.869529 0.662241 0.342244
O O12 0.430875 0.665174 0.845915
O O13 0.374648 0.085201 0.863365
O O14 0.500000 0.132173 0.000000
O O15 0.000000 0.561886 0.500000
O O16 0.500000 0.542807 0.000000
#
# Coordination Sequence:
#
# PCOD9121613 Si02
#       6
#     4   4   4   4   4   4
#     4  10  21  37  57  84 115 147 188 235 282 339
#     4   9  19  35  57  83 109 146 196 237 270 333
#     4  10  19  35  58  83 112 146 187 235 284 333
#     4  11  22  40  63  83 112 159 204 234 279 350
#     4  12  24  38  58  89 122 147 187 249 303 340
#     4  10  21  39  61  82 110 153 198 232 277 351
#
# _framework density 19.624496000000001
#
# number of rings (size 3 to 8) (size 9 to 14) (size 15 to 20)
#    0.000    1.667    0.000    5.500    0.000    3.333 
#    0.000    8.333    0.000   10.000    0.000    0.000 
#    0.000    0.000    0.000    0.000    0.000    0.000 
#
# Total GULP energy -66873.812908 kJ/mol
# GULP energy per Si atom -5572.817742 kJ/mol
# Density = 1.957983 g / cm^3
# Si number density = 19.624496 Si / 1000 Ang^3
#
#
#
# Elastic Constant Matrix: (Units=GPa)
#
#
# Indices 1 2 3 4 5 6 
#
# 1 36.1553 28.9050 4.6237 0.0000 10.1215 0.0000
# 2 28.9050 133.2521 19.9138 0.0000 22.5761 0.0000
# 3 4.6237 19.9138 117.0959 0.0000 8.3346 0.0000
# 4 0.0000 0.0000 0.0000 434.4090 0.0000 517.7893
# 5 10.1215 22.5761 8.3346 0.0000 22.2426 0.0000
# 6 0.0000 0.0000 0.0000 517.7893 0.0000 674.5819
#
#
#
# Elastic Compliance Matrix: (Units=1/GPa)
#
#
# Indices 1 2 3 4 5 6 
#
# 1 0.035221 -0.005983 0.000344 0.000000 -0.010083 0.000000
# 2 -0.005983 0.010175 -0.000979 0.000000 -0.007238 0.000000
# 3 0.000344 -0.000979 0.008870 0.000000 -0.002487 0.000000
# 4 0.000000 0.000000 0.000000 0.027050 0.000000 -0.020763
# 5 -0.010083 -0.007238 -0.002487 0.000000 0.057826 0.000000
# 6 0.000000 0.000000 0.000000 -0.020763 0.000000 0.017419
#
#
# Mechanical properties :
#
#
# Convention : Reuss Voigt Hill
#
# Bulk Modulus (GPa) = 24.37226 43.70980 34.04103
# Shear Modulus (GPa) = 27.25213 241.78410 134.51811
#
# Velocity S-wave (km/s) = 3.73054 11.11183 8.28823
# Velocity P-wave (km/s) = 5.56796 13.67303 10.43920
#
# Compressibility (1/GPa) = 0.04103025
#
# Stress axis : x y z
#
# Youngs Moduli (GPa) = 28.39253 98.27957 112.74087
#
# Poissons Ratio (x) = 0.58802 -0.03884
# Poissons Ratio (y) = 0.16988 0.11037
# Poissons Ratio (z) = -0.00978 0.09621
#
# Static dielectric constant tensor:
#      x y z
#    x 1.628590 0.000000 -0.054530 
#    y 0.000000 1.806050 0.000000 
#    z -0.054530 0.000000 1.618000 
# 
# From -- ./inp_files/17619.got.cif
#   From: 2010.05.17/outbox.cif.g08.bks.cpg/sg5_9_cif.got.tgz:17619.got - 2010.06.03 18:56:24.
