data_PCOD9121107
_publ_section_title
;
Structure prediction by ZEFSAII (Michael W. Deem and Ramdas Pophale) SiO2 
 PCOD9121107
Probable space group: C 2
;
_chemical_formula_sum "Si O2"
_cell_formula_units_Z 26
_cell_length_a 14.267963
_cell_length_b 9.649640
_cell_length_c 11.115981
_cell_angle_alpha 90.000000
_cell_angle_beta 59.546654
_cell_angle_gamma 90.000000
_cell_volume 1319.317676
_symmetry_space_group_name_H-M "C 2"
_symmetry_group_IT_number 5
_symmetry_cell_setting 'monoclinic'
loop_
_space_group_symop_operation_xyz
x,y,z
-x,y,-z
1/2+x,1/2+y,z
1/2-x,1/2+y,-z
loop_
_atom_site_type_symbol
_atom_site_label
_atom_site_fract_x
_atom_site_fract_y
_atom_site_fract_z
Si Si1 0.626814 0.386790 0.947009
Si Si2 0.000000 0.485764 0.000000
Si Si3 0.954768 0.695993 0.809134
Si Si4 0.304686 0.187021 0.308777
Si Si5 0.208247 0.599603 0.284321
Si Si6 0.164897 0.371366 0.731739
Si Si7 0.105543 0.366805 0.511331
O O1 0.671698 0.259603 0.835708
O O2 0.703846 0.512714 0.853933
O O3 0.500000 0.417358 0.000000
O O4 0.613354 0.325188 0.090494
O O5 0.967548 0.584206 0.909513
O O6 0.096664 0.387741 0.896975
O O7 0.890960 0.636128 0.738744
O O8 0.081842 0.723769 0.697263
O O9 0.199192 0.254565 0.432188
O O10 0.283233 0.023677 0.314764
O O11 0.260330 0.738418 0.304330
O O12 0.161911 0.505156 0.422039
O O13 0.086108 0.366172 0.666418
O O14 0.000000 0.339766 0.500000
#
# Coordination Sequence:
#
# PCOD9121107 Si02
#       7
#     4   2   4   4   4   4   4
#     4   9  18  37  57  86 130 166 201 253 304 362
#     4  10  20  38  62  90 126 176 192 260 308 370
#     4  10  18  39  64  90 125 164 207 248 314 369
#     4   9  19  40  64  82 122 170 204 249 312 363
#     4  11  25  35  65 100 120 169 207 256 312 372
#     4  11  22  40  61  92 129 158 214 255 311 368
#     4  11  23  44  65  88 122 167 213 261 311 368
#
# _framework density 19.707156999999999
#
# number of rings (size 3 to 8) (size 9 to 14) (size 15 to 20)
#    0.000    1.846    3.846    2.769    3.231    0.000 
#    0.000    6.923    0.000    0.000    0.000    0.000 
#    0.000    0.000    0.000    0.000    0.000    0.000 
#
# Total GULP energy -72452.146507 kJ/mol
# GULP energy per Si atom -5573.242039 kJ/mol
# Density = 1.966230 g / cm^3
# Si number density = 19.707157 Si / 1000 Ang^3
#
#
#
# Elastic Constant Matrix: (Units=GPa)
#
#
# Indices 1 2 3 4 5 6 
#
# 1 85.2952 57.6057 23.4150 0.0000 -0.8319 0.0000
# 2 57.6057 94.2026 18.1315 0.0000 5.8241 0.0000
# 3 23.4150 18.1315 46.2643 0.0000 -10.3505 0.0000
# 4 0.0000 0.0000 0.0000 23.4591 0.0000 -9.2549
# 5 -0.8319 5.8241 -10.3505 0.0000 24.4928 0.0000
# 6 0.0000 0.0000 0.0000 -9.2549 0.0000 28.0456
#
#
#
# Elastic Compliance Matrix: (Units=1/GPa)
#
#
# Indices 1 2 3 4 5 6 
#
# 1 0.021524 -0.012094 -0.005905 0.000000 0.001112 0.000000
# 2 -0.012094 0.018888 -0.002627 0.000000 -0.006012 0.000000
# 3 -0.005905 -0.002627 0.028414 0.000000 0.012432 0.000000
# 4 0.000000 0.000000 0.000000 0.049008 0.000000 0.016172
# 5 0.001112 -0.006012 0.012432 0.000000 0.047549 0.000000
# 6 0.000000 0.000000 0.000000 0.016172 0.000000 0.040993
#
#
# Mechanical properties :
#
#
# Convention : Reuss Voigt Hill
#
# Bulk Modulus (GPa) = 36.26492 47.11852 41.69172
# Shear Modulus (GPa) = 19.46890 23.64015 21.55453
#
# Velocity S-wave (km/s) = 3.14651 3.46724 3.31076
# Velocity P-wave (km/s) = 5.62517 6.32379 5.98468
#
# Compressibility (1/GPa) = 0.02757486
#
# Stress axis : x y z
#
# Youngs Moduli (GPa) = 46.45992 52.94248 35.19359
#
# Poissons Ratio (x) = 0.64030 0.20782
# Poissons Ratio (y) = 0.56190 0.09244
# Poissons Ratio (z) = 0.27435 0.13906
#
# Static dielectric constant tensor:
#      x y z
#    x 1.677680 0.000000 0.001640 
#    y 0.000000 1.719240 0.000000 
#    z 0.001640 0.000000 1.784620 
# 
# From -- ./inp_files/41620.got.cif
#   From: 2010.05.17/outbox.cif.g08.bks.cpg/sg5_21_cif.got.tgz:41620.got - 2010.06.03 18:56:24.
