data_PCOD9121762
_publ_section_title
;
Structure prediction by ZEFSAII (Michael W. Deem and Ramdas Pophale) SiO2 
 PCOD9121762
Probable space group: C 2
;
_chemical_formula_sum "Si O2"
_cell_formula_units_Z 32
_cell_length_a 16.761154
_cell_length_b 22.612479
_cell_length_c 10.100656
_cell_angle_alpha 90.000000
_cell_angle_beta 27.005954
_cell_angle_gamma 90.000000
_cell_volume 1738.349114
_symmetry_space_group_name_H-M "C 2"
_symmetry_group_IT_number 5
_symmetry_cell_setting 'monoclinic'
loop_
_space_group_symop_operation_xyz
x,y,z
-x,y,-z
1/2+x,1/2+y,z
1/2-x,1/2+y,-z
loop_
_atom_site_type_symbol
_atom_site_label
_atom_site_fract_x
_atom_site_fract_y
_atom_site_fract_z
Si Si1 0.227299 0.292360 0.891437
Si Si2 0.309286 0.802576 0.503973
Si Si3 0.662937 0.432291 0.665307
Si Si4 0.975755 0.632573 0.876050
Si Si5 0.485764 0.997880 0.861887
Si Si6 0.344498 0.419784 0.635924
Si Si7 0.293253 0.703146 0.306327
Si Si8 0.788054 0.236880 0.805371
O O1 0.267410 0.272883 0.981689
O O2 0.020305 0.308139 0.190272
O O3 0.323384 0.349408 0.690247
O O4 0.252870 0.234989 0.762630
O O5 0.223252 0.864901 0.600650
O O6 0.266303 0.753636 0.457545
O O7 0.255815 0.777641 0.725341
O O8 0.626024 0.435296 0.562027
O O9 0.825382 0.474624 0.462967
O O10 0.500000 0.445685 0.000000
O O11 0.939072 0.564685 0.893259
O O12 0.160122 0.651570 0.538446
O O13 0.825243 0.677665 0.049383
O O14 0.000000 0.637172 0.000000
O O15 0.500000 0.997433 0.000000
O O16 0.334013 0.951481 0.053487
O O17 0.500000 0.440828 0.500000
O O18 0.500000 0.686787 0.000000
O O19 0.000000 0.225225 0.500000
#
# Coordination Sequence:
#
# PCOD9121762 Si02
#       8
#     4   4   4   4   4   4   4   4
#     4  10  21  36  58  89 132 155 190 246 313 362
#     4  10  19  36  59  90 125 157 192 250 303 355
#     4  11  23  38  64  91 119 158 204 252 298 354
#     4  11  22  40  67  89 117 163 213 242 286 370
#     4   9  22  44  64  85 119 166 207 245 293 357
#     4  11  23  39  62  92 120 160 200 248 305 362
#     4  10  21  35  60  91 122 157 193 250 302 351
#     4  10  23  37  58  93 128 158 193 251 308 351
#
# _framework density 18.408269000000001
#
# number of rings (size 3 to 8) (size 9 to 14) (size 15 to 20)
#    0.000    1.750    3.750    0.000    5.250    1.000 
#    0.000    0.625    5.500    0.000    0.000    0.000 
#    0.000    0.000    0.000    0.000    0.000    0.000 
#
# Total GULP energy -89328.874133 kJ/mol
# GULP energy per Si atom -5583.054633 kJ/mol
# Density = 1.836637 g / cm^3
# Si number density = 18.408269 Si / 1000 Ang^3
#
#
#
# Elastic Constant Matrix: (Units=GPa)
#
#
# Indices 1 2 3 4 5 6 
#
# 1 77.8907 14.8029 31.1994 -0.0036 9.8237 0.0064
# 2 14.8029 62.7572 26.0309 -0.0045 -9.4016 0.0034
# 3 31.1994 26.0309 99.3771 -0.0170 6.9595 -0.0020
# 4 -0.0036 -0.0045 -0.0170 16.7519 0.0072 -5.2856
# 5 9.8237 -9.4016 6.9595 0.0072 27.4186 -0.0068
# 6 0.0064 0.0034 -0.0020 -5.2856 -0.0068 20.4474
#
#
#
# Elastic Compliance Matrix: (Units=1/GPa)
#
#
# Indices 1 2 3 4 5 6 
#
# 1 0.015613 -0.002989 -0.003721 -0.000001 -0.005674 -0.000007
# 2 -0.002989 0.020081 -0.004967 -0.000004 0.009217 -0.000001
# 3 -0.003721 -0.004967 0.012785 0.000014 -0.003615 0.000006
# 4 -0.000001 -0.000004 0.000014 0.064996 -0.000018 0.016801
# 5 -0.005674 0.009217 -0.003615 -0.000018 0.042583 0.000010
# 6 -0.000007 -0.000001 0.000006 0.016801 0.000010 0.053249
#
#
# Mechanical properties :
#
#
# Convention : Reuss Voigt Hill
#
# Bulk Modulus (GPa) = 39.80302 42.67681 41.23992
# Shear Modulus (GPa) = 20.74379 24.12302 22.43340
#
# Velocity S-wave (km/s) = 3.36054 3.62393 3.49472
# Velocity P-wave (km/s) = 6.06027 6.38313 6.22380
#
# Compressibility (1/GPa) = 0.02512372
#
# Stress axis : x y z
#
# Youngs Moduli (GPa) = 64.04996 49.79947 78.21558
#
# Poissons Ratio (x) = 0.14886 0.29106
# Poissons Ratio (y) = 0.19146 0.38849
# Poissons Ratio (z) = 0.23835 0.24735
#
# Static dielectric constant tensor:
#      x y z
#    x 1.628010 0.000000 -0.010860 
#    y 0.000000 1.602930 0.000000 
#    z -0.010860 0.000000 1.661870 
# 
# From -- ./inp_files/25584.got.cif
#   From: 2010.05.17/outbox.cif.g08.bks.cpg/sg5_13_cif.got.tgz:25584.got - 2010.06.03 18:56:24.
