data_PCOD9121765
_publ_section_title
;
Structure prediction by ZEFSAII (Michael W. Deem and Ramdas Pophale) SiO2 
 PCOD9121765
Probable space group: C 2
;
_chemical_formula_sum "Si O2"
_cell_formula_units_Z 26
_cell_length_a 7.669818
_cell_length_b 11.846398
_cell_length_c 14.065924
_cell_angle_alpha 90.000000
_cell_angle_beta 105.511229
_cell_angle_gamma 90.000000
_cell_volume 1231.477688
_symmetry_space_group_name_H-M "C 2"
_symmetry_group_IT_number 5
_symmetry_cell_setting 'monoclinic'
loop_
_space_group_symop_operation_xyz
x,y,z
-x,y,-z
1/2+x,1/2+y,z
1/2-x,1/2+y,-z
loop_
_atom_site_type_symbol
_atom_site_label
_atom_site_fract_x
_atom_site_fract_y
_atom_site_fract_z
Si Si1 0.306226 0.750000 0.559059
Si Si2 0.742381 0.637340 0.979639
Si Si3 0.000000 0.448266 0.500000
Si Si4 0.655037 0.536111 0.351058
Si Si5 0.495291 0.257637 0.868482
Si Si6 0.374449 0.517108 0.870500
Si Si7 0.030065 0.783823 0.354415
O O1 0.420143 0.863887 0.567226
O O2 0.428073 0.645404 0.610492
O O3 0.197836 0.740995 0.443246
O O4 0.152995 0.760365 0.616337
O O5 0.868045 0.669053 0.907900
O O6 0.544816 0.602873 0.911821
O O7 0.762613 0.537389 0.061823
O O8 0.802875 0.739679 0.059188
O O9 0.156953 0.521162 0.566786
O O10 0.691447 0.545163 0.244480
O O11 0.549780 0.419773 0.351471
O O12 0.435905 0.386642 0.879571
O O13 0.477328 0.239143 0.753724
#
# Coordination Sequence:
#
# PCOD9121765 Si02
#       7
#     4   4   2   4   4   4   4
#     4  10  20  37  58  84 117 151 195 239 284 346
#     4  10  19  36  60  79 108 149 191 238 291 337
#     4  10  22  36  58  90 118 156 200 234 284 346
#     4  10  21  38  59  83 120 155 189 241 287 343
#     4  10  21  40  59  82 119 152 191 248 287 342
#     4  10  22  39  57  86 117 151 194 240 296 345
#     4   9  20  38  58  83 118 156 190 236 297 342
#
# _framework density 21.112846999999999
#
# number of rings (size 3 to 8) (size 9 to 14) (size 15 to 20)
#    0.000    2.154    0.000    3.692    0.000    6.154 
#    0.000   26.154    0.000    0.000    0.000    0.000 
#    0.000    0.000    0.000    0.000    0.000    0.000 
#
# Total GULP energy -72381.224633 kJ/mol
# GULP energy per Si atom -5567.786510 kJ/mol
# Density = 2.106479 g / cm^3
# Si number density = 21.112847 Si / 1000 Ang^3
#
#
#
# Elastic Constant Matrix: (Units=GPa)
#
#
# Indices 1 2 3 4 5 6 
#
# 1 59.4813 35.6028 13.0135 0.0000 -21.0553 0.0000
# 2 35.6028 89.1268 47.4497 0.0000 -13.5836 0.0000
# 3 13.0135 47.4497 133.5146 0.0000 -28.7093 0.0000
# 4 0.0000 0.0000 0.0000 41.3220 0.0000 -6.2115
# 5 -21.0553 -13.5836 -28.7093 0.0000 23.3842 0.0000
# 6 0.0000 0.0000 0.0000 -6.2115 0.0000 19.0263
#
#
#
# Elastic Compliance Matrix: (Units=1/GPa)
#
#
# Indices 1 2 3 4 5 6 
#
# 1 0.035252 -0.013486 0.008828 0.000000 0.034746 0.000000
# 2 -0.013486 0.019126 -0.007751 0.000000 -0.010549 0.000000
# 3 0.008828 -0.007751 0.013757 0.000000 0.020336 0.000000
# 4 0.000000 0.000000 0.000000 0.025449 0.000000 0.008308
# 5 0.034746 -0.010549 0.020336 0.000000 0.092889 0.000000
# 6 0.000000 0.000000 0.000000 0.008308 0.000000 0.055271
#
#
# Mechanical properties :
#
#
# Convention : Reuss Voigt Hill
#
# Bulk Modulus (GPa) = 23.08576 52.69497 37.89037
# Shear Modulus (GPa) = 17.79347 29.15028 23.47188
#
# Velocity S-wave (km/s) = 2.90622 3.71979 3.33789
# Velocity P-wave (km/s) = 4.71377 6.59258 5.73069
#
# Compressibility (1/GPa) = 0.04331675
#
# Stress axis : x y z
#
# Youngs Moduli (GPa) = 28.36687 52.28471 72.69117
#
# Poissons Ratio (x) = 0.70514 -0.64174
# Poissons Ratio (y) = 0.38257 0.56344
# Poissons Ratio (z) = -0.25043 0.40526
#
# Static dielectric constant tensor:
#      x y z
#    x 1.801110 0.000000 -0.006090 
#    y 0.000000 1.787470 0.000000 
#    z -0.006090 0.000000 1.768400 
# 
# From -- ./inp_files/50152.got.cif
#   From: 2010.05.17/outbox.cif.g08.bks.cpg/sg5_26_cif.got.tgz:50152.got - 2010.06.03 18:56:24.
