data_PCOD9121907
_publ_section_title
;
Structure prediction by ZEFSAII (Michael W. Deem and Ramdas Pophale) SiO2 
 PCOD9121907
Probable space group: C 2
;
_chemical_formula_sum "Si O2"
_cell_formula_units_Z 28
_cell_length_a 13.998189
_cell_length_b 12.294436
_cell_length_c 6.992163
_cell_angle_alpha 90.000000
_cell_angle_beta 108.904418
_cell_angle_gamma 90.000000
_cell_volume 1138.441876
_symmetry_space_group_name_H-M "C 2"
_symmetry_group_IT_number 5
_symmetry_cell_setting 'monoclinic'
loop_
_space_group_symop_operation_xyz
x,y,z
-x,y,-z
1/2+x,1/2+y,z
1/2-x,1/2+y,-z
loop_
_atom_site_type_symbol
_atom_site_label
_atom_site_fract_x
_atom_site_fract_y
_atom_site_fract_z
Si Si1 0.604788 0.543020 0.069183
Si Si2 0.875651 0.699287 0.099414
Si Si3 0.185414 0.209780 0.430464
Si Si4 0.687153 0.961530 0.849943
Si Si5 0.905748 0.433016 0.587066
Si Si6 0.847413 0.233713 0.134622
Si Si7 0.409733 0.183847 0.683215
O O1 0.643832 0.605597 0.285846
O O2 0.694696 0.474018 0.030884
O O3 0.500000 0.479479 0.000000
O O4 0.584120 0.643192 0.911801
O O5 0.866128 0.569705 0.119911
O O6 0.976367 0.726465 0.283476
O O7 0.759367 0.732085 0.049285
O O8 0.891719 0.723416 0.887018
O O9 0.125379 0.320431 0.331302
O O10 0.165235 0.205742 0.648404
O O11 0.308793 0.214324 0.498877
O O12 0.686486 0.949416 0.621074
O O13 0.624753 0.858108 0.877567
O O14 0.913523 0.550840 0.690510
O O15 0.000000 0.421571 0.500000
#
# Coordination Sequence:
#
# PCOD9121907 Si02
#       7
#     4   4   4   4   4   4   4
#     4  11  24  39  61  87 116 159 196 239 295 354
#     4   9  19  35  61  86 113 154 193 246 293 342
#     4  10  23  39  57  89 123 150 193 249 293 346
#     4  10  20  40  56  85 119 151 194 247 293 345
#     4  11  21  35  61  87 113 156 193 245 298 343
#     4   9  22  41  59  86 121 153 194 247 293 346
#     4  10  19  37  58  87 115 151 197 240 292 354
#
# _framework density 24.595020999999999
#
# number of rings (size 3 to 8) (size 9 to 14) (size 15 to 20)
#    0.000    2.000    2.857    0.000    6.000    0.000 
#    7.714    0.000    0.000    0.000    3.714    0.000 
#    0.000    0.000    0.000    0.000    0.000    0.000 
#
# Total GULP energy -77998.684318 kJ/mol
# GULP energy per Si atom -5571.334594 kJ/mol
# Density = 2.453904 g / cm^3
# Si number density = 24.595021 Si / 1000 Ang^3
#
#
#
# Elastic Constant Matrix: (Units=GPa)
#
#
# Indices 1 2 3 4 5 6 
#
# 1 94.1812 -4.1480 11.3749 0.0000 25.7648 0.0000
# 2 -4.1480 70.9657 -5.7621 0.0000 -2.7333 0.0000
# 3 11.3749 -5.7621 97.6682 0.0000 4.5943 0.0000
# 4 0.0000 0.0000 0.0000 19.2126 0.0000 -6.0147
# 5 25.7648 -2.7333 4.5943 0.0000 39.4142 0.0000
# 6 0.0000 0.0000 0.0000 -6.0147 0.0000 21.5090
#
#
#
# Elastic Compliance Matrix: (Units=1/GPa)
#
#
# Indices 1 2 3 4 5 6 
#
# 1 0.013061 0.000351 -0.001106 0.000000 -0.008384 0.000000
# 2 0.000351 0.014200 0.000766 0.000000 0.000666 0.000000
# 3 -0.001106 0.000766 0.010433 0.000000 -0.000440 0.000000
# 4 0.000000 0.000000 0.000000 0.057043 0.000000 0.015951
# 5 -0.008384 0.000666 -0.000440 0.000000 0.030950 0.000000
# 6 0.000000 0.000000 0.000000 0.015951 0.000000 0.050953
#
#
# Mechanical properties :
#
#
# Convention : Reuss Voigt Hill
#
# Bulk Modulus (GPa) = 26.51534 29.52720 28.02127
# Shear Modulus (GPa) = 26.42845 33.45052 29.93949
#
# Velocity S-wave (km/s) = 3.28158 3.69189 3.49277
# Velocity P-wave (km/s) = 5.01623 5.49589 5.26153
#
# Compressibility (1/GPa) = 0.03771401
#
# Stress axis : x y z
#
# Youngs Moduli (GPa) = 76.56652 70.42441 95.84584
#
# Poissons Ratio (x) = -0.02470 0.10601
# Poissons Ratio (y) = -0.02685 -0.07337
# Poissons Ratio (z) = 0.08468 -0.05391
#
# Static dielectric constant tensor:
#      x y z
#    x 1.987610 0.000000 0.012910 
#    y 0.000000 2.003850 0.000000 
#    z 0.012910 0.000000 2.056070 
# 
# From -- ./inp_files/23675.got.cif
#   From: 2010.05.17/outbox.cif.g08.bks.cpg/sg5_12_cif.got.tgz:23675.got - 2010.06.03 18:56:24.
