data_PCOD9121487
_publ_section_title
;
Structure prediction by ZEFSAII (Michael W. Deem and Ramdas Pophale) SiO2 
 PCOD9121487
Probable space group: C 2
;
_chemical_formula_sum "Si O2"
_cell_formula_units_Z 28
_cell_length_a 13.964390
_cell_length_b 10.184310
_cell_length_c 19.236942
_cell_angle_alpha 90.000000
_cell_angle_beta 149.400274
_cell_angle_gamma 90.000000
_cell_volume 1392.641143
_symmetry_space_group_name_H-M "C 2"
_symmetry_group_IT_number 5
_symmetry_cell_setting 'monoclinic'
loop_
_space_group_symop_operation_xyz
x,y,z
-x,y,-z
1/2+x,1/2+y,z
1/2-x,1/2+y,-z
loop_
_atom_site_type_symbol
_atom_site_label
_atom_site_fract_x
_atom_site_fract_y
_atom_site_fract_z
Si Si1 0.003624 0.871450 0.834465
Si Si2 0.033662 0.897454 0.351914
Si Si3 0.701553 0.667480 0.510955
Si Si4 0.636946 0.978857 0.149478
Si Si5 0.005235 0.591873 0.199315
Si Si6 0.789930 0.276016 0.248655
Si Si7 0.179695 0.994706 0.072817
O O1 0.002583 0.907830 0.753618
O O2 0.081828 0.722727 0.889047
O O3 0.799585 0.855861 0.742957
O O4 0.117195 0.966837 0.955044
O O5 0.151914 0.764157 0.436062
O O6 0.150075 0.027196 0.445740
O O7 0.832456 0.900509 0.264882
O O8 0.792978 0.633104 0.642789
O O9 0.509356 0.749953 0.394879
O O10 0.535357 0.978235 0.161345
O O11 0.697721 0.132365 0.182571
O O12 0.500000 0.945761 0.000000
O O13 0.876571 0.565823 0.185887
O O14 0.728287 0.361312 0.143845
O O15 0.000000 0.056185 0.000000
#
# Coordination Sequence:
#
# PCOD9121487 Si02
#       7
#     4   4   4   4   4   4   4
#     4   9  19  34  55  83 108 143 190 231 276 324
#     4  10  21  35  58  84 114 147 186 236 275 333
#     4  10  21  38  57  83 114 151 192 225 279 333
#     4  10  19  34  57  84 109 142 190 235 275 323
#     4  10  20  34  55  80 112 148 183 228 276 338
#     4   9  18  33  58  81 107 146 192 233 261 328
#     4  10  19  35  57  82 109 140 183 232 283 327
#
# _framework density 20.105682000000002
#
# number of rings (size 3 to 8) (size 9 to 14) (size 15 to 20)
#    0.000    2.286    0.000    3.857    0.000   10.286 
#    0.000    5.714    0.000   24.000    0.000    0.000 
#    0.000    0.000    0.000    0.000    0.000    0.000 
#
# Total GULP energy -78005.101459 kJ/mol
# GULP energy per Si atom -5571.792961 kJ/mol
# Density = 2.005992 g / cm^3
# Si number density = 20.105682 Si / 1000 Ang^3
#
#
#
# Elastic Constant Matrix: (Units=GPa)
#
#
# Indices 1 2 3 4 5 6 
#
# 1 76.0234 15.2392 24.2561 -0.0001 10.6516 0.0000
# 2 15.2392 31.2323 11.9943 0.0005 10.7142 0.0001
# 3 24.2561 11.9943 76.8323 0.0007 13.7966 0.0001
# 4 -0.0001 0.0005 0.0007 24.1023 0.0001 -0.5358
# 5 10.6516 10.7142 13.7966 0.0001 32.8195 0.0000
# 6 0.0000 0.0001 0.0001 -0.5358 0.0000 27.6716
#
#
#
# Elastic Compliance Matrix: (Units=1/GPa)
#
#
# Indices 1 2 3 4 5 6 
#
# 1 0.015727 -0.005648 -0.003784 0.000000 -0.001670 0.000000
# 2 -0.005648 0.039141 -0.002555 -0.000001 -0.009871 0.000000
# 3 -0.003784 -0.002555 0.015401 0.000000 -0.004412 0.000000
# 4 0.000000 -0.000001 0.000000 0.041508 0.000000 0.000804
# 5 -0.001670 -0.009871 -0.004412 0.000000 0.036089 0.000000
# 6 0.000000 0.000000 0.000000 0.000804 0.000000 0.036154
#
#
# Mechanical properties :
#
#
# Convention : Reuss Voigt Hill
#
# Bulk Modulus (GPa) = 21.59969 31.89635 26.74802
# Shear Modulus (GPa) = 22.37896 25.75859 24.06877
#
# Velocity S-wave (km/s) = 3.33988 3.58321 3.46369
# Velocity P-wave (km/s) = 5.06355 5.74613 5.41560
#
# Compressibility (1/GPa) = 0.04629696
#
# Stress axis : x y z
#
# Youngs Moduli (GPa) = 63.58442 25.54853 64.93104
#
# Poissons Ratio (x) = 0.14429 0.24567
# Poissons Ratio (y) = 0.35911 0.16588
# Poissons Ratio (z) = 0.24057 0.06527
#
# Static dielectric constant tensor:
#      x y z
#    x 1.779310 0.000000 0.033570 
#    y 0.000000 1.725660 0.000000 
#    z 0.033570 0.000000 1.735750 
# 
# From -- ./inp_files/54447.got.cif
#   From: 2010.05.17/outbox.cif.g08.bks.cpg/sg5_28_cif.got.tgz:54447.got - 2010.06.03 18:56:24.
