data_PCOD9121355
_publ_section_title
;
Structure prediction by ZEFSAII (Michael W. Deem and Ramdas Pophale) SiO2 
 PCOD9121355
Probable space group: C 2
;
_chemical_formula_sum "Si O2"
_cell_formula_units_Z 20
_cell_length_a 20.765464
_cell_length_b 6.887162
_cell_length_c 7.465548
_cell_angle_alpha 90.000000
_cell_angle_beta 127.499861
_cell_angle_gamma 90.000000
_cell_volume 847.053992
_symmetry_space_group_name_H-M "C 2"
_symmetry_group_IT_number 5
_symmetry_cell_setting 'monoclinic'
loop_
_space_group_symop_operation_xyz
x,y,z
-x,y,-z
1/2+x,1/2+y,z
1/2-x,1/2+y,-z
loop_
_atom_site_type_symbol
_atom_site_label
_atom_site_fract_x
_atom_site_fract_y
_atom_site_fract_z
Si Si1 0.203713 0.085220 0.639345
Si Si2 0.357993 0.663082 0.101289
Si Si3 0.081655 0.519768 0.571594
Si Si4 0.026156 0.152913 0.248270
Si Si5 0.769748 0.534969 0.381277
O O1 0.192971 0.048994 0.832601
O O2 0.112395 0.048916 0.411510
O O3 0.226014 0.313953 0.676247
O O4 0.263764 0.016184 0.585034
O O5 0.377167 0.883673 0.202821
O O6 0.447458 0.574993 0.220351
O O7 0.306861 0.642981 0.834517
O O8 0.046627 0.359623 0.373364
O O9 0.150892 0.628950 0.577190
O O10 0.000000 0.624724 0.500000
O O11 0.000000 0.172790 0.000000
#
# Coordination Sequence:
#
# PCOD9121355 Si02
#       5
#     4   4   4   4   4
#     4  10  21  33  53  85 106 138 175 218 264 314
#     4   9  17  31  51  77 104 135 172 219 253 301
#     4   8  18  33  51  78 105 135 183 214 257 309
#     4   9  14  29  54  76 101 133 181 218 247 297
#     4  10  19  33  54  79 110 136 174 221 263 309
#
# _framework density 23.611245
#
# number of rings (size 3 to 8) (size 9 to 14) (size 15 to 20)
#    0.000    3.200    2.000    1.800    0.000    3.200 
#    3.600    0.000    0.000   12.000    0.000    0.000 
#    0.000    0.000    0.000    0.000    0.000    0.000 
#
# Total GULP energy -55681.081440 kJ/mol
# GULP energy per Si atom -5568.108144 kJ/mol
# Density = 2.355751 g / cm^3
# Si number density = 23.611245 Si / 1000 Ang^3
#
#
#
# Elastic Constant Matrix: (Units=GPa)
#
#
# Indices 1 2 3 4 5 6 
#
# 1 175.8427 14.7718 24.4929 0.0000 15.5883 0.0000
# 2 14.7718 41.8012 40.4768 0.0000 -2.9143 0.0000
# 3 24.4929 40.4768 92.2314 0.0000 -2.1773 0.0000
# 4 0.0000 0.0000 0.0000 5.0893 0.0000 1.8328
# 5 15.5883 -2.9143 -2.1773 0.0000 44.1546 0.0000
# 6 0.0000 0.0000 0.0000 1.8328 0.0000 11.6297
#
#
#
# Elastic Compliance Matrix: (Units=1/GPa)
#
#
# Indices 1 2 3 4 5 6 
#
# 1 0.006155 -0.001218 -0.001154 0.000000 -0.002310 0.000000
# 2 -0.001218 0.041994 -0.018051 0.000000 0.002312 0.000000
# 3 -0.001154 -0.018051 0.019075 0.000000 0.000157 0.000000
# 4 0.000000 0.000000 0.000000 0.208313 0.000000 -0.032830
# 5 -0.002310 0.002312 0.000157 0.000000 0.023624 0.000000
# 6 0.000000 0.000000 0.000000 -0.032830 0.000000 0.091160
#
#
# Mechanical properties :
#
#
# Convention : Reuss Voigt Hill
#
# Bulk Modulus (GPa) = 37.91434 52.15092 45.03263
# Shear Modulus (GPa) = 11.36466 27.51697 19.44082
#
# Velocity S-wave (km/s) = 2.19629 3.41753 2.87256
# Velocity P-wave (km/s) = 4.74597 6.14068 5.48781
#
# Compressibility (1/GPa) = 0.02637524
#
# Stress axis : x y z
#
# Youngs Moduli (GPa) = 162.47396 23.81294 52.42563
#
# Poissons Ratio (x) = 0.02901 0.06052
# Poissons Ratio (y) = 0.19794 0.94636
# Poissons Ratio (z) = 0.18755 0.42986
#
# Static dielectric constant tensor:
#      x y z
#    x 2.030530 0.000000 0.040280 
#    y 0.000000 1.961230 0.000000 
#    z 0.040280 0.000000 1.865160 
# 
# From -- ./inp_files/30627.got.cif
#   From: 2010.05.17/outbox.cif.g08.bks.cpg/sg5_16_cif.got.tgz:30627.got - 2010.06.03 18:56:24.
