data_PCOD9121352
_publ_section_title
;
Structure prediction by ZEFSAII (Michael W. Deem and Ramdas Pophale) SiO2 
 PCOD9121352
Probable space group: C 2
;
_chemical_formula_sum "Si O2"
_cell_formula_units_Z 30
_cell_length_a 9.027550
_cell_length_b 11.505046
_cell_length_c 26.450089
_cell_angle_alpha 90.000000
_cell_angle_beta 29.672171
_cell_angle_gamma 90.000000
_cell_volume 1359.949571
_symmetry_space_group_name_H-M "C 2"
_symmetry_group_IT_number 5
_symmetry_cell_setting 'monoclinic'
loop_
_space_group_symop_operation_xyz
x,y,z
-x,y,-z
1/2+x,1/2+y,z
1/2-x,1/2+y,-z
loop_
_atom_site_type_symbol
_atom_site_label
_atom_site_fract_x
_atom_site_fract_y
_atom_site_fract_z
Si Si1 0.000000 0.037720 0.000000
Si Si2 0.256282 0.558970 0.540229
Si Si3 0.935939 0.110053 0.861902
Si Si4 0.992208 0.660611 0.916171
Si Si5 0.796261 0.075220 0.683527
Si Si6 0.990760 0.735413 0.304928
Si Si7 0.246949 0.491703 0.381510
Si Si8 0.759714 0.413653 0.826416
O O1 0.288849 0.111710 0.931519
O O2 0.100372 0.958561 0.924277
O O3 0.500000 0.483154 0.500000
O O4 0.437875 0.588876 0.436062
O O5 0.180769 0.663445 0.600552
O O6 0.940074 0.514029 0.613814
O O7 0.747896 0.083767 0.867420
O O8 0.166254 0.213788 0.783891
O O9 0.739934 0.159236 0.967079
O O10 0.116748 0.995971 0.825514
O O11 0.153458 0.781063 0.853472
O O12 0.605148 0.956743 0.729952
O O13 0.974674 0.072990 0.683373
O O14 0.574500 0.176852 0.730664
O O15 0.886147 0.865168 0.336884
O O16 0.000000 0.492077 0.500000
#
# Coordination Sequence:
#
# PCOD9121352 Si02
#       8
#     2   4   4   4   4   4   4   4
#     4  10  22  34  54  82 102 136 186 214 258 330
#     4   9  19  36  54  78 109 140 181 220 261 323
#     4   9  20  36  56  81 107 140 183 216 266 332
#     4  10  20  37  54  77 109 139 175 222 266 315
#     4   9  19  35  54  80 108 137 180 221 263 323
#     4  10  19  37  57  77 109 143 175 224 270 313
#     4  10  19  33  54  77 105 142 178 220 269 312
#     4  10  20  37  56  76 110 142 170 226 273 305
#
# _framework density 22.059640999999999
#
# number of rings (size 3 to 8) (size 9 to 14) (size 15 to 20)
#    0.000    2.400    0.000    2.800    0.000    3.200 
#    0.000   22.000    0.000    0.000    0.000    0.000 
#    0.000    0.000    0.000    0.000    0.000    0.000 
#
# Total GULP energy -83571.668210 kJ/mol
# GULP energy per Si atom -5571.444547 kJ/mol
# Density = 2.200943 g / cm^3
# Si number density = 22.059641 Si / 1000 Ang^3
#
#
#
# Elastic Constant Matrix: (Units=GPa)
#
#
# Indices 1 2 3 4 5 6 
#
# 1 152.9498 35.3617 16.3405 -0.0047 -36.5381 -0.0049
# 2 35.3617 49.5757 -7.8114 0.0011 -6.9553 0.0102
# 3 16.3405 -7.8114 50.8574 0.0120 -14.8868 -0.0086
# 4 -0.0047 0.0011 0.0120 25.2727 -0.0055 -0.7720
# 5 -36.5381 -6.9553 -14.8868 -0.0055 45.4150 -0.0001
# 6 -0.0049 0.0102 -0.0086 -0.7720 -0.0001 -0.6525
#
#
#
# Elastic Compliance Matrix: (Units=1/GPa)
#
#
# Indices 1 2 3 4 5 6 
#
# 1 0.009732 -0.006459 -0.002341 0.000000 0.006073 -0.000144
# 2 -0.006459 0.025887 0.006295 0.000006 0.000832 0.000362
# 3 -0.002341 0.006295 0.023353 -0.000016 0.006736 -0.000175
# 4 0.000000 0.000006 -0.000016 0.038188 0.000000 -0.045182
# 5 0.006073 0.000832 0.006736 0.000000 0.029241 -0.000126
# 6 -0.000144 0.000362 -0.000175 -0.045182 -0.000126 -1.479141
#
#
# Mechanical properties :
#
#
# Convention : Reuss Voigt Hill
#
# Bulk Modulus (GPa) = 18.53169 37.90719 28.21944
# Shear Modulus (GPa) = -3.76013 27.97319 12.10653
#
# Velocity S-wave (km/s) = -1.30699 3.56486 2.34521
# Velocity P-wave (km/s) = 2.47817 5.84513 4.48926
#
# Compressibility (1/GPa) = 0.05396162
#
# Stress axis : x y z
#
# Youngs Moduli (GPa) = 102.75014 38.63016 42.82022
#
# Poissons Ratio (x) = 0.24950 0.10025
# Poissons Ratio (y) = 0.66364 -0.26954
# Poissons Ratio (z) = 0.24057 -0.24316
#
# Static dielectric constant tensor:
#      x y z
#    x 1.909520 0.000000 -0.022270 
#    y 0.000000 1.772810 -0.000010 
#    z -0.022270 -0.000010 1.885030 
# 
# From -- ./inp_files/59495.got.cif
#   From: 2010.05.17/outbox.cif.g08.bks.cpg/sg5_30_cif.got.tgz:59495.got - 2010.06.03 18:56:24.
