data_PCOD9121836
_publ_section_title
;
Structure prediction by ZEFSAII (Michael W. Deem and Ramdas Pophale) SiO2 
 PCOD9121836
Probable space group: C 2
;
_chemical_formula_sum "Si O2"
_cell_formula_units_Z 18
_cell_length_a 7.941966
_cell_length_b 16.675845
_cell_length_c 11.382780
_cell_angle_alpha 90.000000
_cell_angle_beta 39.717284
_cell_angle_gamma 90.000000
_cell_volume 963.307623
_symmetry_space_group_name_H-M "C 2"
_symmetry_group_IT_number 5
_symmetry_cell_setting 'monoclinic'
loop_
_space_group_symop_operation_xyz
x,y,z
-x,y,-z
1/2+x,1/2+y,z
1/2-x,1/2+y,-z
loop_
_atom_site_type_symbol
_atom_site_label
_atom_site_fract_x
_atom_site_fract_y
_atom_site_fract_z
Si Si1 0.218096 0.674700 0.705633
Si Si2 0.852246 0.008129 0.750968
Si Si3 0.443252 0.056206 0.395607
Si Si4 0.000000 0.803271 0.000000
Si Si5 0.851368 0.444565 0.898808
O O1 0.500000 0.697290 0.500000
O O2 0.253068 0.598158 0.773960
O O3 0.063549 0.636605 0.678554
O O4 0.096059 0.746851 0.842748
O O5 0.154921 0.013119 0.548728
O O6 0.651131 0.949593 0.789000
O O7 0.816461 0.984592 0.905749
O O8 0.500000 0.072108 0.500000
O O9 0.642403 0.997787 0.222023
O O10 0.769480 0.860024 0.072803
#
# Coordination Sequence:
#
# PCOD9121836 Si02
#       5
#     4   4   4   2   4
#     4   9  20  38  57  79 115 154 188 232 282 330
#     4   9  19  40  61  80 109 151 197 236 273 329
#     4  10  19  36  63  86 106 147 201 237 269 331
#     4  12  22  34  56  88 122 152 180 228 292 344
#     4  10  20  33  56  86 114 146 184 232 284 330
#
# _framework density 18.68562
#
# number of rings (size 3 to 8) (size 9 to 14) (size 15 to 20)
#    0.000    2.222    0.000    6.000    0.000    2.667 
#    0.000    8.889    0.000    2.667    0.000    0.000 
#    0.000    0.000    0.000    0.000    0.000    0.000 
#
# Total GULP energy -50163.744215 kJ/mol
# GULP energy per Si atom -5573.749357 kJ/mol
# Density = 1.864309 g / cm^3
# Si number density = 18.685620 Si / 1000 Ang^3
#
#
#
# Elastic Constant Matrix: (Units=GPa)
#
#
# Indices 1 2 3 4 5 6 
#
# 1 107.4563 72.1817 60.6618 0.0005 20.3713 0.0013
# 2 72.1817 130.1752 81.0260 0.0002 14.5812 0.0000
# 3 60.6618 81.0260 126.9641 0.0007 28.9396 0.0027
# 4 0.0005 0.0002 0.0007 8.6799 -0.0006 -6.3415
# 5 20.3713 14.5812 28.9396 -0.0006 41.8713 -0.0017
# 6 0.0013 0.0000 0.0027 -6.3415 -0.0017 11.9531
#
#
#
# Elastic Compliance Matrix: (Units=1/GPa)
#
#
# Indices 1 2 3 4 5 6 
#
# 1 0.016057 -0.007035 -0.002327 -0.000003 -0.003754 -0.000004
# 2 -0.007035 0.015896 -0.007480 0.000005 0.003057 0.000006
# 3 -0.002327 -0.007480 0.015324 -0.000007 -0.006854 -0.000008
# 4 -0.000003 0.000005 -0.000007 0.188129 0.000012 0.099809
# 5 -0.003754 0.003057 -0.006854 0.000012 0.029382 0.000012
# 6 -0.000004 0.000006 -0.000008 0.099809 0.000012 0.136613
#
#
# Mechanical properties :
#
#
# Convention : Reuss Voigt Hill
#
# Bulk Modulus (GPa) = 73.56356 88.03718 80.80037
# Shear Modulus (GPa) = 11.37358 22.54926 16.96142
#
# Velocity S-wave (km/s) = 2.46982 3.47763 3.01612
# Velocity P-wave (km/s) = 6.89840 7.95880 7.44749
#
# Compressibility (1/GPa) = 0.01359369
#
# Stress axis : x y z
#
# Youngs Moduli (GPa) = 62.27965 62.90739 65.25679
#
# Poissons Ratio (x) = 0.44253 0.15182
# Poissons Ratio (y) = 0.43812 0.48815
# Poissons Ratio (z) = 0.14489 0.47058
#
# Static dielectric constant tensor:
#      x y z
#    x 1.703540 0.000000 -0.010810 
#    y 0.000000 1.609500 0.000000 
#    z -0.010810 0.000000 1.660380 
# 
# From -- ./inp_files/36567.got.cif
#   From: 2010.05.17/outbox.cif.g08.bks.cpg/sg5_19_cif.got.tgz:36567.got - 2010.06.03 18:56:24.
