data_PCOD9121547
_publ_section_title
;
Structure prediction by ZEFSAII (Michael W. Deem and Ramdas Pophale) SiO2 
 PCOD9121547
Probable space group: C 2
;
_chemical_formula_sum "Si O2"
_cell_formula_units_Z 32
_cell_length_a 18.969131
_cell_length_b 12.148755
_cell_length_c 10.888391
_cell_angle_alpha 90.000000
_cell_angle_beta 141.577371
_cell_angle_gamma 90.000000
_cell_volume 1559.387964
_symmetry_space_group_name_H-M "C 2"
_symmetry_group_IT_number 5
_symmetry_cell_setting 'monoclinic'
loop_
_space_group_symop_operation_xyz
x,y,z
-x,y,-z
1/2+x,1/2+y,z
1/2-x,1/2+y,-z
loop_
_atom_site_type_symbol
_atom_site_label
_atom_site_fract_x
_atom_site_fract_y
_atom_site_fract_z
Si Si1 0.294220 0.198990 0.506225
Si Si2 0.115005 0.213201 0.716457
Si Si3 0.027353 0.415248 0.766512
Si Si4 0.679572 0.261074 0.183241
Si Si5 0.735449 0.140398 0.873436
Si Si6 0.385063 0.783435 0.892543
Si Si7 0.223243 0.478268 0.644218
Si Si8 0.457283 0.174722 0.228523
O O1 0.320458 0.203532 0.685389
O O2 0.203386 0.291118 0.340747
O O3 0.411019 0.205561 0.587593
O O4 0.248452 0.078053 0.408705
O O5 0.080907 0.323691 0.747823
O O6 0.202954 0.241811 0.729389
O O7 0.000000 0.169555 0.500000
O O8 0.181480 0.128873 0.896112
O O9 0.058920 0.542442 0.789482
O O10 0.891992 0.419882 0.559505
O O11 0.067281 0.382687 0.958676
O O12 0.677341 0.390692 0.207189
O O13 0.586432 0.220226 0.960775
O O14 0.811664 0.210962 0.885087
O O15 0.627139 0.207824 0.776975
O O16 0.702314 0.033692 0.749453
O O17 0.500000 0.728249 0.000000
#
# Coordination Sequence:
#
# PCOD9121547 Si02
#       8
#     4   4   4   4   4   4   4   4
#     4  10  23  38  59  86 121 162 200 247 303 359
#     4  10  19  34  62  93 117 152 194 262 305 352
#     4  10  20  35  64  92 112 152 210 257 299 341
#     4  11  21  36  59  88 123 156 200 246 307 360
#     4   9  21  37  59  92 118 151 202 251 299 357
#     4  10  21  37  59  90 120 148 195 259 300 351
#     4  10  20  38  63  88 117 160 205 247 302 361
#     4  10  22  38  60  88 120 153 203 251 294 364
#
# _framework density 20.520871
#
# number of rings (size 3 to 8) (size 9 to 14) (size 15 to 20)
#    0.000    2.000    1.250    1.875    1.750    7.000 
#    0.000    5.000    5.500    0.000    0.000    0.000 
#    0.000    0.000    0.000    0.000    0.000    0.000 
#
# Total GULP energy -89167.859378 kJ/mol
# GULP energy per Si atom -5572.991211 kJ/mol
# Density = 2.047416 g / cm^3
# Si number density = 20.520871 Si / 1000 Ang^3
#
#
#
# Elastic Constant Matrix: (Units=GPa)
#
#
# Indices 1 2 3 4 5 6 
#
# 1 102.2260 29.6604 38.4091 0.0000 -7.7741 0.0000
# 2 29.6604 42.8357 35.0379 0.0000 -3.8278 0.0000
# 3 38.4091 35.0379 103.3736 0.0000 8.4226 0.0000
# 4 0.0000 0.0000 0.0000 39.2757 0.0000 -6.5184
# 5 -7.7741 -3.8278 8.4226 0.0000 31.1892 0.0000
# 6 0.0000 0.0000 0.0000 -6.5184 0.0000 23.6462
#
#
#
# Elastic Compliance Matrix: (Units=1/GPa)
#
#
# Indices 1 2 3 4 5 6 
#
# 1 0.012958 -0.006262 -0.002958 0.000000 0.003260 0.000000
# 2 -0.006262 0.036929 -0.010667 0.000000 0.005852 0.000000
# 3 -0.002958 -0.010667 0.014882 0.000000 -0.006065 0.000000
# 4 0.000000 0.000000 0.000000 0.026682 0.000000 0.007355
# 5 0.003260 0.005852 -0.006065 0.000000 0.035231 0.000000
# 6 0.000000 0.000000 0.000000 0.007355 0.000000 0.044318
#
#
# Mechanical properties :
#
#
# Convention : Reuss Voigt Hill
#
# Bulk Modulus (GPa) = 40.00624 50.51669 45.26146
# Shear Modulus (GPa) = 22.81994 28.51074 25.66534
#
# Velocity S-wave (km/s) = 3.33834 3.73145 3.54035
# Velocity P-wave (km/s) = 5.86490 6.57538 6.23027
#
# Compressibility (1/GPa) = 0.02499610
#
# Stress axis : x y z
#
# Youngs Moduli (GPa) = 77.16975 27.07887 67.19319
#
# Poissons Ratio (x) = 0.16956 0.19876
# Poissons Ratio (y) = 0.48323 0.71676
# Poissons Ratio (z) = 0.22827 0.28885
#
# Static dielectric constant tensor:
#      x y z
#    x 1.782900 0.000000 -0.015010 
#    y 0.000000 1.754460 0.000000 
#    z -0.015010 0.000000 1.801440 
# 
# From -- ./inp_files/46347.got.cif
#   From: 2010.05.17/outbox.cif.g08.bks.cpg/sg5_24_cif.got.tgz:46347.got - 2010.06.03 18:56:24.
