data_PCOD9121506
_publ_section_title
;
Structure prediction by ZEFSAII (Michael W. Deem and Ramdas Pophale) SiO2 
 PCOD9121506
Probable space group: C 2
;
_chemical_formula_sum "Si O2"
_cell_formula_units_Z 24
_cell_length_a 7.827091
_cell_length_b 28.850390
_cell_length_c 7.483335
_cell_angle_alpha 90.000000
_cell_angle_beta 141.756251
_cell_angle_gamma 90.000000
_cell_volume 1046.028959
_symmetry_space_group_name_H-M "C 2"
_symmetry_group_IT_number 5
_symmetry_cell_setting 'monoclinic'
loop_
_space_group_symop_operation_xyz
x,y,z
-x,y,-z
1/2+x,1/2+y,z
1/2-x,1/2+y,-z
loop_
_atom_site_type_symbol
_atom_site_label
_atom_site_fract_x
_atom_site_fract_y
_atom_site_fract_z
Si Si1 0.306552 0.384850 0.181547
Si Si2 0.694740 0.041443 0.330583
Si Si3 0.596109 0.795834 0.868762
Si Si4 0.409540 0.243282 0.629420
Si Si5 0.302648 0.143193 0.669028
Si Si6 0.209007 0.958404 0.327114
O O1 0.500000 0.364016 0.500000
O O2 0.507535 0.424409 0.272246
O O3 0.233881 0.346293 0.972553
O O4 0.000000 0.400436 0.000000
O O5 0.635035 0.092596 0.362221
O O6 0.000000 0.041534 0.500000
O O7 0.686734 0.000801 0.466727
O O8 0.500000 0.033545 0.000000
O O9 0.334993 0.780042 0.540972
O O10 0.500000 0.795729 0.000000
O O11 0.827618 0.756753 0.037578
O O12 0.500000 0.249549 0.500000
O O13 0.325277 0.190025 0.576875
O O14 0.000000 0.140953 0.500000
O O15 0.500000 0.148013 0.000000
O O16 0.500000 0.936131 0.500000
O O17 0.000000 0.974865 0.000000
#
# Coordination Sequence:
#
# PCOD9121506 Si02
#       6
#     4   4   4   4   4   4
#     4  11  22  41  68  90 118 170 224 257 305 386
#     4  10  22  43  67  89 121 171 220 253 303 391
#     4   9  18  34  58  87 115 152 206 252 287 357
#     4  10  19  34  58  87 118 153 195 247 304 358
#     4  10  21  38  60  89 122 158 204 252 301 370
#     4  12  26  42  63  98 135 160 205 279 341 376
#
# _framework density 22.943916000000002
#
# number of rings (size 3 to 8) (size 9 to 14) (size 15 to 20)
#    0.000    1.667    0.000    6.000    0.000    2.000 
#    0.000    5.833    0.000    0.000    0.000    0.000 
#    0.000    0.000    0.000    0.000    0.000    0.000 
#
# Total GULP energy -67039.342401 kJ/mol
# GULP energy per Si atom -5586.611867 kJ/mol
# Density = 2.289169 g / cm^3
# Si number density = 22.943916 Si / 1000 Ang^3
#
#
#
# Elastic Constant Matrix: (Units=GPa)
#
#
# Indices 1 2 3 4 5 6 
#
# 1 69.0336 41.2003 27.3802 0.0000 22.3913 0.0000
# 2 41.2003 159.6675 41.6973 0.0000 7.1578 0.0000
# 3 27.3802 41.6973 164.8025 0.0000 30.7189 0.0000
# 4 0.0000 0.0000 0.0000 31.0193 0.0000 3.6972
# 5 22.3913 7.1578 30.7189 0.0000 29.2285 0.0000
# 6 0.0000 0.0000 0.0000 3.6972 0.0000 29.4081
#
#
#
# Elastic Compliance Matrix: (Units=1/GPa)
#
#
# Indices 1 2 3 4 5 6 
#
# 1 0.022893 -0.005332 0.000710 0.000000 -0.016979 0.000000
# 2 -0.005332 0.007949 -0.001895 0.000000 0.004130 0.000000
# 3 0.000710 -0.001895 0.008014 0.000000 -0.008503 0.000000
# 4 0.000000 0.000000 0.000000 0.032728 0.000000 -0.004115
# 5 -0.016979 0.004130 -0.008503 0.000000 0.055146 0.000000
# 6 0.000000 0.000000 0.000000 -0.004115 0.000000 0.034522
#
#
# Mechanical properties :
#
#
# Convention : Reuss Voigt Hill
#
# Bulk Modulus (GPa) = 38.72475 68.22878 53.47676
# Shear Modulus (GPa) = 27.33853 36.81290 32.07571
#
# Velocity S-wave (km/s) = 3.45561 4.00993 3.74305
# Velocity P-wave (km/s) = 5.73030 7.15829 6.48373
#
# Compressibility (1/GPa) = 0.02582328
#
# Stress axis : x y z
#
# Youngs Moduli (GPa) = 43.68126 125.80910 124.77719
#
# Poissons Ratio (x) = 0.67077 -0.08864
# Poissons Ratio (y) = 0.23289 0.23646
# Poissons Ratio (z) = -0.03103 0.23841
#
# Static dielectric constant tensor:
#      x y z
#    x 1.918080 0.000000 -0.005770 
#    y 0.000000 1.919860 0.000000 
#    z -0.005770 0.000000 1.821950 
# 
# From -- ./inp_files/17655.got.cif
#   From: 2010.05.17/outbox.cif.g08.bks.cpg/sg5_9_cif.got.tgz:17655.got - 2010.06.03 18:56:24.
