data_PCOD9121652
_publ_section_title
;
Structure prediction by ZEFSAII (Michael W. Deem and Ramdas Pophale) SiO2 
 PCOD9121652
Probable space group: C 2
;
_chemical_formula_sum "Si O2"
_cell_formula_units_Z 24
_cell_length_a 13.935207
_cell_length_b 10.564682
_cell_length_c 7.348349
_cell_angle_alpha 90.000000
_cell_angle_beta 86.204159
_cell_angle_gamma 90.000000
_cell_volume 1079.458273
_symmetry_space_group_name_H-M "C 2"
_symmetry_group_IT_number 5
_symmetry_cell_setting 'monoclinic'
loop_
_space_group_symop_operation_xyz
x,y,z
-x,y,-z
1/2+x,1/2+y,z
1/2-x,1/2+y,-z
loop_
_atom_site_type_symbol
_atom_site_label
_atom_site_fract_x
_atom_site_fract_y
_atom_site_fract_z
Si Si1 0.225534 0.677670 0.998870
Si Si2 0.874507 0.534663 0.693455
Si Si3 0.389076 0.739446 0.729473
Si Si4 0.595861 0.381873 0.868148
Si Si5 0.913625 0.617696 0.283964
Si Si6 0.576904 0.607116 0.620936
O O1 0.332032 0.679993 0.904736
O O2 0.179263 0.818372 0.980475
O O3 0.161389 0.592388 0.867954
O O4 0.201640 0.623580 0.197177
O O5 0.862723 0.385764 0.722755
O O6 0.879653 0.564890 0.479798
O O7 0.979505 0.567795 0.762380
O O8 0.503717 0.710664 0.719395
O O9 0.358592 0.675810 0.539273
O O10 0.579551 0.270191 0.722637
O O11 0.617100 0.509527 0.758820
O O12 0.500000 0.396982 0.000000
O O13 0.500000 0.533095 0.500000
#
# Coordination Sequence:
#
# PCOD9121652 Si02
#       6
#     4   4   4   4   4   4
#     4  10  21  38  56  95 116 148 208 253 285 344
#     4  11  19  38  63  84 121 161 196 243 299 356
#     4   9  22  39  57  88 119 158 200 240 303 359
#     4  10  19  35  60  89 119 145 205 245 284 358
#     4   9  20  36  62  87 112 158 203 242 289 347
#     4   8  20  39  59  78 117 164 189 231 307 355
#
# _framework density 22.233373
#
# number of rings (size 3 to 8) (size 9 to 14) (size 15 to 20)
#    2.000    0.333    1.667    2.500    2.333    2.667 
#    3.000    3.333    0.000    0.000    0.000    0.000 
#    0.000    0.000    0.000    0.000    0.000    0.000 
#
# Total GULP energy -66870.175004 kJ/mol
# GULP energy per Si atom -5572.514584 kJ/mol
# Density = 2.218277 g / cm^3
# Si number density = 22.233373 Si / 1000 Ang^3
#
#
#
# Elastic Constant Matrix: (Units=GPa)
#
#
# Indices 1 2 3 4 5 6 
#
# 1 39.9107 7.7798 16.8867 0.0000 -9.6285 0.0000
# 2 7.7798 109.4973 51.9472 0.0000 -9.7872 0.0000
# 3 16.8867 51.9472 103.5567 0.0000 -33.7392 0.0000
# 4 0.0000 0.0000 0.0000 31.2122 0.0000 -3.2491
# 5 -9.6285 -9.7872 -33.7392 0.0000 33.7959 0.0000
# 6 0.0000 0.0000 0.0000 -3.2491 0.0000 16.1977
#
#
#
# Elastic Compliance Matrix: (Units=1/GPa)
#
#
# Indices 1 2 3 4 5 6 
#
# 1 0.027468 -0.000203 -0.002737 0.000000 0.005035 0.000000
# 2 -0.000203 0.012316 -0.007413 0.000000 -0.003892 0.000000
# 3 -0.002737 -0.007413 0.019071 0.000000 0.016112 0.000000
# 4 0.000000 0.000000 0.000000 0.032722 0.000000 0.006564
# 5 0.005035 -0.003892 0.016112 0.000000 0.045982 0.000000
# 6 0.000000 0.000000 0.000000 0.006564 0.000000 0.063054
#
#
# Mechanical properties :
#
#
# Convention : Reuss Voigt Hill
#
# Bulk Modulus (GPa) = 26.21297 45.13246 35.67272
# Shear Modulus (GPa) = 21.36429 27.99789 24.68109
#
# Velocity S-wave (km/s) = 3.10322 3.55247 3.33542
# Velocity P-wave (km/s) = 4.96543 6.09674 5.55993
#
# Compressibility (1/GPa) = 0.03814905
#
# Stress axis : x y z
#
# Youngs Moduli (GPa) = 36.40574 81.19514 52.43605
#
# Poissons Ratio (x) = 0.01649 0.14352
# Poissons Ratio (y) = 0.00740 0.38870
# Poissons Ratio (z) = 0.09964 0.60189
#
# Static dielectric constant tensor:
#      x y z
#    x 1.890970 0.000000 0.026650 
#    y 0.000000 1.787800 0.000000 
#    z 0.026650 0.000000 1.808580 
# 
# From -- ./inp_files/28665.got.cif
#   From: 2010.05.17/outbox.cif.g08.bks.cpg/sg5_15_cif.got.tgz:28665.got - 2010.06.03 18:56:24.
