data_PCOD9121246
_publ_section_title
;
Structure prediction by ZEFSAII (Michael W. Deem and Ramdas Pophale) SiO2 
 PCOD9121246
Probable space group: C 2
;
_chemical_formula_sum "Si O2"
_cell_formula_units_Z 32
_cell_length_a 10.946867
_cell_length_b 16.913124
_cell_length_c 12.426491
_cell_angle_alpha 90.000000
_cell_angle_beta 130.324192
_cell_angle_gamma 90.000000
_cell_volume 1754.051414
_symmetry_space_group_name_H-M "C 2"
_symmetry_group_IT_number 5
_symmetry_cell_setting 'monoclinic'
loop_
_space_group_symop_operation_xyz
x,y,z
-x,y,-z
1/2+x,1/2+y,z
1/2-x,1/2+y,-z
loop_
_atom_site_type_symbol
_atom_site_label
_atom_site_fract_x
_atom_site_fract_y
_atom_site_fract_z
Si Si1 0.863550 0.450380 0.631922
Si Si2 0.850973 0.949441 0.045013
Si Si3 0.322593 0.892313 0.848066
Si Si4 0.851712 0.554627 0.238559
Si Si5 0.171175 0.767287 0.047509
Si Si6 0.806216 0.216376 0.896284
Si Si7 0.098545 0.319435 0.655035
Si Si8 0.299704 0.457107 0.675266
O O1 0.818490 0.427093 0.726703
O O2 0.720386 0.457884 0.464242
O O3 0.968611 0.530455 0.691074
O O4 0.982864 0.380868 0.653708
O O5 0.774436 0.941455 0.119234
O O6 0.031605 0.973730 0.173210
O O7 0.843906 0.861129 0.990333
O O8 0.758090 0.007674 0.912030
O O9 0.271661 0.800345 0.819615
O O10 0.500000 0.891298 0.000000
O O11 0.792368 0.643695 0.207137
O O12 0.821917 0.517763 0.338909
O O13 0.313037 0.760858 0.215057
O O14 0.236935 0.726089 0.977754
O O15 0.000000 0.741963 0.000000
O O16 0.000000 0.203102 0.000000
O O17 0.238823 0.371982 0.681420
O O18 0.000000 0.283968 0.500000
#
# Coordination Sequence:
#
# PCOD9121246 Si02
#       8
#     4   4   4   4   4   4   4   4
#     4  10  19  34  56  83 111 146 193 238 293 355
#     4  11  18  31  59  82 109 144 198 244 282 341
#     4  10  19  36  55  85 117 154 189 246 295 351
#     4  11  19  36  58  86 105 150 197 242 284 353
#     4  11  18  34  56  85 117 153 198 255 284 351
#     4  10  22  34  57  86 125 155 194 244 313 350
#     4   9  16  28  52  81 106 139 187 242 287 336
#     4  10  19  30  56  84 110 138 190 249 290 333
#
# _framework density 18.243479000000001
#
# number of rings (size 3 to 8) (size 9 to 14) (size 15 to 20)
#    0.000    1.750    5.000    3.750    0.000    0.500 
#    2.250    0.000   11.000    1.500    0.000    0.000 
#    0.000    0.000    0.000    0.000    0.000    0.000 
#
# Total GULP energy -89190.225069 kJ/mol
# GULP energy per Si atom -5574.389067 kJ/mol
# Density = 1.820196 g / cm^3
# Si number density = 18.243479 Si / 1000 Ang^3
#
#
#
# Elastic Constant Matrix: (Units=GPa)
#
#
# Indices 1 2 3 4 5 6 
#
# 1 71.0378 3.3100 9.1912 0.0000 -21.6983 0.0000
# 2 3.3100 28.9985 -0.4175 0.0000 -11.2072 0.0000
# 3 9.1912 -0.4175 91.2304 0.0000 -19.1223 0.0000
# 4 0.0000 0.0000 0.0000 12.6198 0.0000 3.6934
# 5 -21.6983 -11.2072 -19.1223 0.0000 34.9607 0.0000
# 6 0.0000 0.0000 0.0000 3.6934 0.0000 10.2355
#
#
#
# Elastic Compliance Matrix: (Units=1/GPa)
#
#
# Indices 1 2 3 4 5 6 
#
# 1 0.017580 0.002730 0.000804 0.000000 0.012226 0.000000
# 2 0.002730 0.040625 0.003384 0.000000 0.016568 0.000000
# 3 0.000804 0.003384 0.012682 0.000000 0.008520 0.000000
# 4 0.000000 0.000000 0.000000 0.088597 0.000000 -0.031969
# 5 0.012226 0.016568 0.008520 0.000000 0.046163 0.000000
# 6 0.000000 0.000000 0.000000 -0.031969 0.000000 0.109235
#
#
# Mechanical properties :
#
#
# Convention : Reuss Voigt Hill
#
# Bulk Modulus (GPa) = 11.80337 23.93714 17.87026
# Shear Modulus (GPa) = 15.18431 23.50872 19.34651
#
# Velocity S-wave (km/s) = 2.88812 3.59361 3.26001
# Velocity P-wave (km/s) = 4.19590 5.51073 4.89764
#
# Compressibility (1/GPa) = 0.08472155
#
# Stress axis : x y z
#
# Youngs Moduli (GPa) = 56.88226 24.61549 78.85447
#
# Poissons Ratio (x) = -0.06720 -0.06340
# Poissons Ratio (y) = -0.15528 -0.26681
# Poissons Ratio (z) = -0.04573 -0.08329
#
# Static dielectric constant tensor:
#      x y z
#    x 1.709600 0.000000 0.043210 
#    y 0.000000 1.611960 0.000000 
#    z 0.043210 0.000000 1.660810 
# 
# From -- ./inp_files/40367.got.cif
#   From: 2010.05.17/outbox.cif.g08.bks.cpg/sg5_21_cif.got.tgz:40367.got - 2010.06.03 18:56:24.
