data_PCOD9121119
_publ_section_title
;
Structure prediction by ZEFSAII (Michael W. Deem and Ramdas Pophale) SiO2 
 PCOD9121119
Probable space group: C 2
;
_chemical_formula_sum "Si O2"
_cell_formula_units_Z 26
_cell_length_a 14.081856
_cell_length_b 13.583538
_cell_length_c 7.854557
_cell_angle_alpha 90.000000
_cell_angle_beta 123.215852
_cell_angle_gamma 90.000000
_cell_volume 1256.952873
_symmetry_space_group_name_H-M "C 2"
_symmetry_group_IT_number 5
_symmetry_cell_setting 'monoclinic'
loop_
_space_group_symop_operation_xyz
x,y,z
-x,y,-z
1/2+x,1/2+y,z
1/2-x,1/2+y,-z
loop_
_atom_site_type_symbol
_atom_site_label
_atom_site_fract_x
_atom_site_fract_y
_atom_site_fract_z
Si Si1 0.876272 0.056660 0.935804
Si Si2 0.239849 0.846607 0.689815
Si Si3 0.000000 0.360266 0.500000
Si Si4 0.351125 0.746829 0.098626
Si Si5 0.063979 0.701134 0.379048
Si Si6 0.325019 0.004181 0.511228
Si Si7 0.622226 0.341737 0.916867
O O1 0.776570 0.053235 0.698098
O O2 0.844309 0.130943 0.056475
O O3 0.000000 0.092832 0.000000
O O4 0.890940 0.943201 0.000860
O O5 0.178433 0.763692 0.517964
O O6 0.276163 0.938369 0.614647
O O7 0.146946 0.871547 0.743820
O O8 0.339746 0.798459 0.901258
O O9 0.955171 0.290381 0.305007
O O10 0.899458 0.431428 0.466124
O O11 0.236284 0.783547 0.079365
O O12 0.095091 0.592835 0.347771
O O13 0.000000 0.689060 0.500000
O O14 0.981843 0.767365 0.184665
#
# Coordination Sequence:
#
# PCOD9121119 Si02
#       7
#     4   4   2   4   4   4   4
#     4  12  24  44  69  99 140 183 220 279 350 405
#     4   9  21  40  68  94 137 167 229 279 334 399
#     4  12  26  42  72  96 138 182 242 282 326 416
#     4  10  24  44  65  95 139 182 222 284 339 395
#     4  10  18  39  70  94 131 180 216 274 338 401
#     4  12  22  41  72 102 127 187 226 276 348 408
#     4   9  21  44  65  96 134 181 226 276 333 409
#
# _framework density 20.684943000000001
#
# number of rings (size 3 to 8) (size 9 to 14) (size 15 to 20)
#    0.923    0.615    3.846    0.923    2.154    0.000 
#    9.692    0.000    3.385    0.000    0.000    0.000 
#    0.000    0.000    0.000    0.000    0.000    0.000 
#
# Total GULP energy -72526.974150 kJ/mol
# GULP energy per Si atom -5578.998012 kJ/mol
# Density = 2.063786 g / cm^3
# Si number density = 20.684943 Si / 1000 Ang^3
#
#
#
# Elastic Constant Matrix: (Units=GPa)
#
#
# Indices 1 2 3 4 5 6 
#
# 1 60.3653 40.2935 32.7582 0.0000 8.5818 0.0000
# 2 40.2935 137.9776 38.0846 0.0000 15.8799 0.0000
# 3 32.7582 38.0846 65.4031 0.0000 30.3774 0.0000
# 4 0.0000 0.0000 0.0000 38.4279 0.0000 -2.5510
# 5 8.5818 15.8799 30.3774 0.0000 20.6956 0.0000
# 6 0.0000 0.0000 0.0000 -2.5510 0.0000 43.9406
#
#
#
# Elastic Compliance Matrix: (Units=1/GPa)
#
#
# Indices 1 2 3 4 5 6 
#
# 1 0.029399 -0.004946 -0.024966 0.000000 0.028250 0.000000
# 2 -0.004946 0.009505 -0.001957 0.000000 -0.002370 0.000000
# 3 -0.024966 -0.001957 0.073616 0.000000 -0.096200 0.000000
# 4 0.000000 0.000000 0.000000 0.026123 0.000000 0.001517
# 5 0.028250 -0.002370 -0.096200 0.000000 0.179629 0.000000
# 6 0.000000 0.000000 0.000000 0.001517 0.000000 0.022846
#
#
# Mechanical properties :
#
#
# Convention : Reuss Voigt Hill
#
# Bulk Modulus (GPa) = 20.49924 54.00205 37.25065
# Shear Modulus (GPa) = 11.87323 30.78682 21.33002
#
# Velocity S-wave (km/s) = 2.39844 3.86212 3.21469
# Velocity P-wave (km/s) = 4.19544 6.78613 5.64151
#
# Compressibility (1/GPa) = 0.04878230
#
# Stress axis : x y z
#
# Youngs Moduli (GPa) = 34.01461 105.21152 13.58407
#
# Poissons Ratio (x) = 0.52032 0.33914
# Poissons Ratio (y) = 0.16822 0.02658
# Poissons Ratio (z) = 0.84922 0.20587
#
# Static dielectric constant tensor:
#      x y z
#    x 1.764720 0.000000 0.001700 
#    y 0.000000 1.707800 0.000000 
#    z 0.001700 0.000000 1.749920 
# 
# From -- ./inp_files/23714.got.cif
#   From: 2010.05.17/outbox.cif.g08.bks.cpg/sg5_12_cif.got.tgz:23714.got - 2010.06.03 18:56:24.
