data_PCOD9121626
_publ_section_title
;
Structure prediction by ZEFSAII (Michael W. Deem and Ramdas Pophale) SiO2 
 PCOD9121626
Probable space group: C 2
;
_chemical_formula_sum "Si O2"
_cell_formula_units_Z 20
_cell_length_a 15.451670
_cell_length_b 9.146956
_cell_length_c 16.489304
_cell_angle_alpha 90.000000
_cell_angle_beta 156.052696
_cell_angle_gamma 90.000000
_cell_volume 945.952644
_symmetry_space_group_name_H-M "C 2"
_symmetry_group_IT_number 5
_symmetry_cell_setting 'monoclinic'
loop_
_space_group_symop_operation_xyz
x,y,z
-x,y,-z
1/2+x,1/2+y,z
1/2-x,1/2+y,-z
loop_
_atom_site_type_symbol
_atom_site_label
_atom_site_fract_x
_atom_site_fract_y
_atom_site_fract_z
Si Si1 0.612318 0.606830 0.940423
Si Si2 0.241559 0.796179 0.549179
Si Si3 0.006028 0.776084 0.824867
Si Si4 0.444589 0.996511 0.837198
Si Si5 0.732535 0.323918 0.803398
O O1 0.396413 0.669494 0.714426
O O2 0.594177 0.432851 0.926241
O O3 0.805453 0.678986 0.054422
O O4 0.653930 0.678105 0.064730
O O5 0.176446 0.793492 0.399720
O O6 0.016339 0.797004 0.403278
O O7 0.363679 0.943118 0.680749
O O8 0.922399 0.669299 0.824111
O O9 0.311070 0.899545 0.787795
O O10 0.685513 0.944339 0.060977
#
# Coordination Sequence:
#
# PCOD9121626 Si02
#       5
#     4   4   4   4   4
#     4  10  21  36  58  90 122 153 197 247 299 354
#     4  10  19  35  59  85 117 153 194 244 296 350
#     4  11  21  36  60  91 119 153 199 248 296 353
#     4  10  20  37  60  83 116 158 197 238 295 353
#     4   9  20  38  59  82 114 159 197 239 295 354
#
# _framework density 21.142707999999999
#
# number of rings (size 3 to 8) (size 9 to 14) (size 15 to 20)
#    0.000    2.000    0.000    5.400    0.000    1.600 
#    0.000    8.000    0.000    7.200    0.000    0.000 
#    0.000    0.000    0.000    0.000    0.000    0.000 
#
# Total GULP energy -55737.371677 kJ/mol
# GULP energy per Si atom -5573.737168 kJ/mol
# Density = 2.109459 g / cm^3
# Si number density = 21.142708 Si / 1000 Ang^3
#
#
#
# Elastic Constant Matrix: (Units=GPa)
#
#
# Indices 1 2 3 4 5 6 
#
# 1 54.3976 34.0590 19.7321 0.0006 -3.9574 0.0001
# 2 34.0590 196.9174 49.6188 0.0031 -16.7804 0.0018
# 3 19.7321 49.6188 144.3447 0.0021 -6.0665 0.0015
# 4 0.0006 0.0031 0.0021 19.7208 0.0008 3.0428
# 5 -3.9574 -16.7804 -6.0665 0.0008 26.0631 0.0002
# 6 0.0001 0.0018 0.0015 3.0428 0.0002 24.2276
#
#
#
# Elastic Compliance Matrix: (Units=1/GPa)
#
#
# Indices 1 2 3 4 5 6 
#
# 1 0.021039 -0.003128 -0.001769 0.000000 0.000769 0.000000
# 2 -0.003128 0.006296 -0.001602 -0.000001 0.003206 0.000000
# 3 -0.001769 -0.001602 0.007741 -0.000001 0.000502 0.000000
# 4 0.000000 -0.000001 -0.000001 0.051710 -0.000002 -0.006494
# 5 0.000769 0.003206 0.000502 -0.000002 0.040666 0.000000
# 6 0.000000 0.000000 0.000000 -0.006494 0.000000 0.042091
#
#
# Mechanical properties :
#
#
# Convention : Reuss Voigt Hill
#
# Bulk Modulus (GPa) = 45.29010 66.94215 56.11613
# Shear Modulus (GPa) = 26.32968 33.48563 29.90766
#
# Velocity S-wave (km/s) = 3.53275 3.98400 3.76515
# Velocity P-wave (km/s) = 6.17318 7.27282 6.74544
#
# Compressibility (1/GPa) = 0.02207988
#
# Stress axis : x y z
#
# Youngs Moduli (GPa) = 47.53089 158.82835 129.17542
#
# Poissons Ratio (x) = 0.49677 0.22845
# Poissons Ratio (y) = 0.14866 0.20694
# Poissons Ratio (z) = 0.08406 0.25444
#
# Static dielectric constant tensor:
#      x y z
#    x 1.910250 0.000000 0.009890 
#    y 0.000000 1.795640 0.000000 
#    z 0.009890 0.000000 1.782670 
# 
# From -- ./inp_files/62274.got.cif
#   From: 2010.05.17/outbox.cif.g08.bks.cpg/sg5_32_cif.got.tgz:62274.got - 2010.06.03 18:56:24.
