data_PCOD9121194
_publ_section_title
;
Structure prediction by ZEFSAII (Michael W. Deem and Ramdas Pophale) SiO2 
 PCOD9121194
Probable space group: C 2
;
_chemical_formula_sum "Si O2"
_cell_formula_units_Z 20
_cell_length_a 17.738285
_cell_length_b 7.664885
_cell_length_c 9.758154
_cell_angle_alpha 90.000000
_cell_angle_beta 143.845575
_cell_angle_gamma 90.000000
_cell_volume 782.726711
_symmetry_space_group_name_H-M "C 2"
_symmetry_group_IT_number 5
_symmetry_cell_setting 'monoclinic'
loop_
_space_group_symop_operation_xyz
x,y,z
-x,y,-z
1/2+x,1/2+y,z
1/2-x,1/2+y,-z
loop_
_atom_site_type_symbol
_atom_site_label
_atom_site_fract_x
_atom_site_fract_y
_atom_site_fract_z
Si Si1 0.121832 0.568830 0.483943
Si Si2 0.712201 0.483709 0.039960
Si Si3 0.017591 0.239164 0.263010
Si Si4 0.738766 0.609163 0.783320
Si Si5 0.728228 0.863210 0.406595
O O1 0.001361 0.446764 0.272259
O O2 0.146582 0.759760 0.459237
O O3 0.229867 0.457332 0.556336
O O4 0.160327 0.555140 0.697636
O O5 0.604664 0.621016 0.927163
O O6 0.715189 0.491175 0.880938
O O7 0.695601 0.286019 0.066757
O O8 0.103993 0.166837 0.515577
O O9 0.107628 0.239663 0.261609
O O10 0.804570 0.504494 0.756586
#
# Coordination Sequence:
#
# PCOD9121194 Si02
#       5
#     4   4   4   4   4
#     4   9  19  37  66  94 138 187 229 293 364 421
#     4  11  22  39  67 102 145 186 243 295 362 442
#     4   9  20  39  67  99 138 186 237 299 356 435
#     4  11  22  41  68 105 142 195 236 300 376 424
#     4  10  18  42  67  99 142 188 233 297 367 424
#
# _framework density 25.551701000000001
#
# number of rings (size 3 to 8) (size 9 to 14) (size 15 to 20)
#    1.200    0.800    2.000    1.800    0.000    0.800 
#    0.000    4.000    0.000    9.600    0.000    0.000 
#    0.000    0.000    0.000    0.000    0.000    0.000 
#
# Total GULP energy -55813.018529 kJ/mol
# GULP energy per Si atom -5581.301853 kJ/mol
# Density = 2.549354 g / cm^3
# Si number density = 25.551701 Si / 1000 Ang^3
#
#
#
# Elastic Constant Matrix: (Units=GPa)
#
#
# Indices 1 2 3 4 5 6 
#
# 1 88.5506 40.8973 23.9636 0.0000 -17.5335 0.0000
# 2 40.8973 134.5510 34.4401 0.0000 -0.9655 0.0000
# 3 23.9636 34.4401 95.5923 0.0000 -13.3229 0.0000
# 4 0.0000 0.0000 0.0000 45.2316 0.0000 -13.1476
# 5 -17.5335 -0.9655 -13.3229 0.0000 49.5849 0.0000
# 6 0.0000 0.0000 0.0000 -13.1476 0.0000 42.2977
#
#
#
# Elastic Compliance Matrix: (Units=1/GPa)
#
#
# Indices 1 2 3 4 5 6 
#
# 1 0.014458 -0.003964 -0.001553 0.000000 0.004618 0.000000
# 2 -0.003964 0.009295 -0.002623 0.000000 -0.001926 0.000000
# 3 -0.001553 -0.002623 0.012167 0.000000 0.002669 0.000000
# 4 0.000000 0.000000 0.000000 0.024304 0.000000 0.007555
# 5 0.004618 -0.001926 0.002669 0.000000 0.022480 0.000000
# 6 0.000000 0.000000 0.000000 0.007555 0.000000 0.025990
#
#
# Mechanical properties :
#
#
# Convention : Reuss Voigt Hill
#
# Bulk Modulus (GPa) = 50.91563 57.47734 54.19649
# Shear Modulus (GPa) = 38.01635 42.04903 40.03269
#
# Velocity S-wave (km/s) = 3.86141 4.06106 3.96249
# Velocity P-wave (km/s) = 6.31272 6.67330 6.49551
#
# Compressibility (1/GPa) = 0.01964033
#
# Stress axis : x y z
#
# Youngs Moduli (GPa) = 69.16374 107.58819 82.18635
#
# Poissons Ratio (x) = 0.42649 0.12761
# Poissons Ratio (y) = 0.27417 0.21560
# Poissons Ratio (z) = 0.10739 0.28224
#
# Static dielectric constant tensor:
#      x y z
#    x 2.018080 0.000000 0.064050 
#    y 0.000000 2.099340 0.000000 
#    z 0.064050 0.000000 2.017260 
# 
# From -- ./inp_files/29056.got.cif
#   From: 2010.05.17/outbox.cif.g08.bks.cpg/sg5_15_cif.got.tgz:29056.got - 2010.06.03 18:56:24.
