data_PCOD9121633
_publ_section_title
;
Structure prediction by ZEFSAII (Michael W. Deem and Ramdas Pophale) SiO2 
 PCOD9121633
Probable space group: C 2
;
_chemical_formula_sum "Si O2"
_cell_formula_units_Z 30
_cell_length_a 13.752706
_cell_length_b 9.243156
_cell_length_c 11.218077
_cell_angle_alpha 90.000000
_cell_angle_beta 89.776025
_cell_angle_gamma 90.000000
_cell_volume 1426.013182
_symmetry_space_group_name_H-M "C 2"
_symmetry_group_IT_number 5
_symmetry_cell_setting 'monoclinic'
loop_
_space_group_symop_operation_xyz
x,y,z
-x,y,-z
1/2+x,1/2+y,z
1/2-x,1/2+y,-z
loop_
_atom_site_type_symbol
_atom_site_label
_atom_site_fract_x
_atom_site_fract_y
_atom_site_fract_z
Si Si1 0.936111 0.724910 0.112035
Si Si2 0.121441 0.490019 0.594866
Si Si3 0.543294 0.660428 0.130349
Si Si4 0.251063 0.120426 0.206831
Si Si5 0.950912 0.466852 0.761980
Si Si6 0.500000 0.257126 0.500000
Si Si7 0.730510 0.909796 0.366119
Si Si8 0.441632 0.464162 0.307297
O O1 0.827905 0.660421 0.102493
O O2 0.998422 0.603711 0.179951
O O3 0.922551 0.862134 0.194689
O O4 0.000000 0.764282 0.000000
O O5 0.193945 0.509486 0.706501
O O6 0.020850 0.428921 0.649092
O O7 0.177960 0.402794 0.493648
O O8 0.086741 0.647492 0.540109
O O9 0.648075 0.585766 0.149593
O O10 0.553904 0.832951 0.147855
O O11 0.481942 0.606506 0.245150
O O12 0.500000 0.630757 0.000000
O O13 0.235041 0.256928 0.296730
O O14 0.843998 0.501585 0.714466
O O15 0.513003 0.369094 0.390550
O O16 0.838075 0.975996 0.373779
#
# Coordination Sequence:
#
# PCOD9121633 Si02
#       8
#     4   4   4   4   4   2   4   4
#     4  10  19  40  66  88 113 160 210 253 296 352
#     4  11  19  38  64  91 122 158 202 256 303 361
#     4  11  25  44  58  85 131 165 201 258 302 359
#     4   9  22  38  58  88 122 156 207 246 306 359
#     4  10  20  39  61  91 117 160 207 250 304 363
#     4  12  20  42  62  88 130 154 200 262 290 378
#     4  10  19  35  59  88 125 158 194 247 306 368
#     4  11  24  39  60  93 125 162 201 245 313 362
#
# _framework density 21.037673999999999
#
# number of rings (size 3 to 8) (size 9 to 14) (size 15 to 20)
#    0.000    1.600    5.333    0.800    1.867    2.133 
#    2.400   10.667    0.000    0.000    0.000    0.000 
#    0.000    0.000    0.000    0.000    0.000    0.000 
#
# Total GULP energy -83611.069561 kJ/mol
# GULP energy per Si atom -5574.071304 kJ/mol
# Density = 2.098979 g / cm^3
# Si number density = 21.037674 Si / 1000 Ang^3
#
#
#
# Elastic Constant Matrix: (Units=GPa)
#
#
# Indices 1 2 3 4 5 6 
#
# 1 98.4234 -3.1902 36.7008 0.0000 11.4970 0.0000
# 2 -3.1902 31.4524 -2.5169 0.0000 3.7135 0.0000
# 3 36.7008 -2.5169 86.7582 0.0000 -3.9440 0.0000
# 4 0.0000 0.0000 0.0000 18.8825 0.0000 -4.3350
# 5 11.4970 3.7135 -3.9440 0.0000 37.2053 0.0000
# 6 0.0000 0.0000 0.0000 -4.3350 0.0000 17.0826
#
#
#
# Elastic Compliance Matrix: (Units=1/GPa)
#
#
# Indices 1 2 3 4 5 6 
#
# 1 0.012846 0.001410 -0.005607 0.000000 -0.004705 0.000000
# 2 0.001410 0.032382 0.000177 0.000000 -0.003649 0.000000
# 3 -0.005607 0.000177 0.014049 0.000000 0.003204 0.000000
# 4 0.000000 0.000000 0.000000 0.056235 0.000000 0.014271
# 5 -0.004705 -0.003649 0.003204 0.000000 0.029036 0.000000
# 6 0.000000 0.000000 0.000000 0.014271 0.000000 0.062161
#
#
# Mechanical properties :
#
#
# Convention : Reuss Voigt Hill
#
# Bulk Modulus (GPa) = 19.51722 30.95794 25.23758
# Shear Modulus (GPa) = 21.56764 27.01010 24.28887
#
# Velocity S-wave (km/s) = 3.20533 3.58703 3.40154
# Velocity P-wave (km/s) = 4.79545 5.64829 5.23925
#
# Compressibility (1/GPa) = 0.05123681
#
# Stress axis : x y z
#
# Youngs Moduli (GPa) = 77.84311 30.88130 71.17888
#
# Poissons Ratio (x) = -0.04354 0.39912
# Poissons Ratio (y) = -0.10974 -0.01261
# Poissons Ratio (z) = 0.43649 -0.00547
#
# Static dielectric constant tensor:
#      x y z
#    x 1.814160 0.000000 -0.015490 
#    y 0.000000 1.778470 0.000000 
#    z -0.015490 0.000000 1.792590 
# 
# From -- ./inp_files/39236.got.cif
#   From: 2010.05.17/outbox.cif.g08.bks.cpg/sg5_20_cif.got.tgz:39236.got - 2010.06.03 18:56:24.
