data_PCOD9121782
_publ_section_title
;
Structure prediction by ZEFSAII (Michael W. Deem and Ramdas Pophale) SiO2 
 PCOD9121782
Probable space group: C 2
;
_chemical_formula_sum "Si O2"
_cell_formula_units_Z 30
_cell_length_a 17.157254
_cell_length_b 8.769445
_cell_length_c 13.216315
_cell_angle_alpha 90.000000
_cell_angle_beta 126.932505
_cell_angle_gamma 90.000000
_cell_volume 1589.512456
_symmetry_space_group_name_H-M "C 2"
_symmetry_group_IT_number 5
_symmetry_cell_setting 'monoclinic'
loop_
_space_group_symop_operation_xyz
x,y,z
-x,y,-z
1/2+x,1/2+y,z
1/2-x,1/2+y,-z
loop_
_atom_site_type_symbol
_atom_site_label
_atom_site_fract_x
_atom_site_fract_y
_atom_site_fract_z
Si Si1 0.139365 0.348090 0.642159
Si Si2 0.630817 0.359742 0.170195
Si Si3 0.024411 0.392961 0.854364
Si Si4 0.975310 0.208840 0.635201
Si Si5 0.138171 0.111311 0.018329
Si Si6 0.518254 0.408130 0.766490
Si Si7 0.500000 0.120561 0.000000
Si Si8 0.868664 0.613079 0.217103
O O1 0.255167 0.334228 0.725248
O O2 0.090576 0.289992 0.500645
O O3 0.118309 0.520410 0.666514
O O4 0.086353 0.242490 0.684853
O O5 0.615557 0.522430 0.104542
O O6 0.564412 0.352512 0.218470
O O7 0.590702 0.234367 0.059560
O O8 0.093373 0.495531 0.837833
O O9 0.958207 0.295231 0.727306
O O10 0.973512 0.511974 0.887317
O O11 0.085582 0.272186 0.966428
O O12 0.969272 0.029495 0.651345
O O13 0.254083 0.134580 0.107910
O O14 0.096593 0.005074 0.894760
O O15 0.570797 0.268083 0.751305
#
# Coordination Sequence:
#
# PCOD9121782 Si02
#       8
#     4   4   4   4   4   4   2   4
#     4   9  21  43  63  81 117 162 202 250 301 350
#     4  11  21  38  60  89 124 157 194 253 306 351
#     4  10  21  33  57  85 117 158 191 242 295 356
#     4   9  21  42  62  80 119 161 206 244 297 356
#     4  10  20  33  59  87 129 159 191 241 307 368
#     4  11  20  36  60  90 121 157 200 253 301 356
#     4  12  22  34  56  84 130 150 196 242 300 356
#     4  10  19  36  60  91 114 159 206 247 296 356
#
# _framework density 18.873712000000001
#
# number of rings (size 3 to 8) (size 9 to 14) (size 15 to 20)
#    0.000    1.867    2.667    0.800    3.733    5.333 
#    2.400    5.333    0.000    0.000    0.000    0.000 
#    0.000    0.000    0.000    0.000    0.000    0.000 
#
# Total GULP energy -83605.196532 kJ/mol
# GULP energy per Si atom -5573.679769 kJ/mol
# Density = 1.883075 g / cm^3
# Si number density = 18.873712 Si / 1000 Ang^3
#
#
#
# Elastic Constant Matrix: (Units=GPa)
#
#
# Indices 1 2 3 4 5 6 
#
# 1 59.3321 36.8221 35.4167 0.0000 7.5508 0.0000
# 2 36.8221 129.6635 46.5096 0.0000 1.6481 0.0000
# 3 35.4167 46.5096 83.7382 0.0000 4.5719 0.0000
# 4 0.0000 0.0000 0.0000 29.0703 0.0000 -7.0329
# 5 7.5508 1.6481 4.5719 0.0000 24.3608 0.0000
# 6 0.0000 0.0000 0.0000 -7.0329 0.0000 26.7801
#
#
#
# Elastic Compliance Matrix: (Units=1/GPa)
#
#
# Indices 1 2 3 4 5 6 
#
# 1 0.024912 -0.004166 -0.007897 0.000000 -0.005958 0.000000
# 2 -0.004166 0.010331 -0.004050 0.000000 0.001352 0.000000
# 3 -0.007897 -0.004050 0.017563 0.000000 -0.000574 0.000000
# 4 0.000000 0.000000 0.000000 0.036733 0.000000 0.009647
# 5 -0.005958 0.001352 -0.000574 0.000000 0.042912 0.000000
# 6 0.000000 0.000000 0.000000 0.009647 0.000000 0.039875
#
#
# Mechanical properties :
#
#
# Convention : Reuss Voigt Hill
#
# Bulk Modulus (GPa) = 48.59218 56.69228 52.64223
# Shear Modulus (GPa) = 23.65053 26.30794 24.97923
#
# Velocity S-wave (km/s) = 3.54375 3.73754 3.64193
# Velocity P-wave (km/s) = 6.52273 6.98058 6.75554
#
# Compressibility (1/GPa) = 0.02057944
#
# Stress axis : x y z
#
# Youngs Moduli (GPa) = 40.14120 96.79799 56.93887
#
# Poissons Ratio (x) = 0.40328 0.44966
# Poissons Ratio (y) = 0.16723 0.23058
# Poissons Ratio (z) = 0.31700 0.39200
#
# Static dielectric constant tensor:
#      x y z
#    x 1.678020 0.000000 -0.031740 
#    y 0.000000 1.659740 0.000000 
#    z -0.031740 0.000000 1.674790 
# 
# From -- ./inp_files/55659.got.cif
#   From: 2010.05.17/outbox.cif.g08.bks.cpg/sg5_28_cif.got.tgz:55659.got - 2010.06.03 18:56:24.
