data_PCOD9121519
_publ_section_title
;
Structure prediction by ZEFSAII (Michael W. Deem and Ramdas Pophale) SiO2 
 PCOD9121519
Probable space group: C 2
;
_chemical_formula_sum "Si O2"
_cell_formula_units_Z 30
_cell_length_a 23.588292
_cell_length_b 7.197259
_cell_length_c 7.092220
_cell_angle_alpha 90.000000
_cell_angle_beta 119.004724
_cell_angle_gamma 90.000000
_cell_volume 1053.040887
_symmetry_space_group_name_H-M "C 2"
_symmetry_group_IT_number 5
_symmetry_cell_setting 'monoclinic'
loop_
_space_group_symop_operation_xyz
x,y,z
-x,y,-z
1/2+x,1/2+y,z
1/2-x,1/2+y,-z
loop_
_atom_site_type_symbol
_atom_site_label
_atom_site_fract_x
_atom_site_fract_y
_atom_site_fract_z
Si Si1 0.876324 0.015340 0.378940
Si Si2 0.255421 0.002451 0.710300
Si Si3 0.000000 0.806216 0.500000
Si Si4 0.536122 0.967031 0.728010
Si Si5 0.577842 0.412758 0.129544
Si Si6 0.212405 0.937875 0.211917
Si Si7 0.847968 0.436341 0.318714
Si Si8 0.890997 0.470575 0.820875
O O1 0.858482 0.220992 0.286248
O O2 0.804883 0.922756 0.269184
O O3 0.936934 0.926964 0.374089
O O4 0.900738 0.001476 0.635554
O O5 0.231487 0.996261 0.455431
O O6 0.324553 0.904816 0.815351
O O7 0.273513 0.216390 0.778791
O O8 0.004116 0.659586 0.333261
O O9 0.500000 0.856573 0.500000
O O10 0.603650 0.035795 0.745266
O O11 0.552693 0.884755 0.955659
O O12 0.635804 0.480594 0.078566
O O13 0.593254 0.190998 0.146434
O O14 0.500000 0.444894 0.000000
O O15 0.274655 0.008625 0.193762
O O16 0.876677 0.439426 0.578100
#
# Coordination Sequence:
#
# PCOD9121519 Si02
#       8
#     4   4   2   4   4   4   4   4
#     4  10  20  38  58  88 126 156 197 249 315 347
#     4   8  16  32  58  85 114 155 196 247 290 358
#     4  10  22  38  58  84 124 166 194 246 304 358
#     4  10  24  41  60  87 122 158 209 249 297 357
#     4  10  19  34  59  90 121 157 200 242 291 365
#     4   8  16  32  56  85 116 152 195 242 296 343
#     4  10  21  39  66  88 119 162 197 256 301 352
#     4  10  20  39  65  90 118 158 212 239 293 363
#
# _framework density 28.488923
#
# number of rings (size 3 to 8) (size 9 to 14) (size 15 to 20)
#    0.400    2.133    0.000    1.600    2.800    1.067 
#    2.400    6.667    0.000    0.000    0.000    0.000 
#    0.000    0.000    0.000    0.000    0.000    0.000 
#
# Total GULP energy -83747.783871 kJ/mol
# GULP energy per Si atom -5583.185591 kJ/mol
# Density = 2.842408 g / cm^3
# Si number density = 28.488923 Si / 1000 Ang^3
#
#
#
# Elastic Constant Matrix: (Units=GPa)
#
#
# Indices 1 2 3 4 5 6 
#
# 1 243.6884 41.5536 61.9881 0.0000 65.8619 0.0000
# 2 41.5536 102.3004 1.8365 0.0000 13.4778 0.0000
# 3 61.9881 1.8365 187.1201 0.0000 29.5213 0.0000
# 4 0.0000 0.0000 0.0000 14.5096 0.0000 0.7181
# 5 65.8619 13.4778 29.5213 0.0000 26.8254 0.0000
# 6 0.0000 0.0000 0.0000 0.7181 0.0000 21.1709
#
#
#
# Elastic Compliance Matrix: (Units=1/GPa)
#
#
# Indices 1 2 3 4 5 6 
#
# 1 0.012397 -0.000995 0.000758 0.000000 -0.030771 0.000000
# 2 -0.000995 0.010669 0.000829 0.000000 -0.003829 0.000000
# 3 0.000758 0.000829 0.006588 0.000000 -0.009527 0.000000
# 4 0.000000 0.000000 0.000000 0.069036 0.000000 -0.002342
# 5 -0.030771 -0.003829 -0.009527 0.000000 0.125237 0.000000
# 6 0.000000 0.000000 0.000000 -0.002342 0.000000 0.047314
#
#
# Mechanical properties :
#
#
# Convention : Reuss Voigt Hill
#
# Bulk Modulus (GPa) = 32.42824 82.65170 57.53997
# Shear Modulus (GPa) = 17.83568 41.01655 29.42611
#
# Velocity S-wave (km/s) = 2.50483 3.79850 3.21736
# Velocity P-wave (km/s) = 4.44669 6.95076 5.83464
#
# Compressibility (1/GPa) = 0.03083732
#
# Stress axis : x y z
#
# Youngs Moduli (GPa) = 80.66321 93.72946 151.78977
#
# Poissons Ratio (x) = 0.09328 -0.11499
# Poissons Ratio (y) = 0.08028 -0.12585
# Poissons Ratio (z) = -0.06111 -0.07771
#
# Static dielectric constant tensor:
#      x y z
#    x 2.336030 0.000000 -0.062090 
#    y 0.000000 2.178610 0.000000 
#    z -0.062090 0.000000 2.611360 
# 
# From -- ./inp_files/30686.got.cif
#   From: 2010.05.17/outbox.cif.g08.bks.cpg/sg5_16_cif.got.tgz:30686.got - 2010.06.03 18:56:24.
