data_PCOD9121400
_publ_section_title
;
Structure prediction by ZEFSAII (Michael W. Deem and Ramdas Pophale) SiO2 
 PCOD9121400
Probable space group: C 2
;
_chemical_formula_sum "Si O2"
_cell_formula_units_Z 20
_cell_length_a 5.299280
_cell_length_b 22.385965
_cell_length_c 7.065143
_cell_angle_alpha 90.000000
_cell_angle_beta 77.648047
_cell_angle_gamma 90.000000
_cell_volume 818.733230
_symmetry_space_group_name_H-M "C 2"
_symmetry_group_IT_number 5
_symmetry_cell_setting 'monoclinic'
loop_
_space_group_symop_operation_xyz
x,y,z
-x,y,-z
1/2+x,1/2+y,z
1/2-x,1/2+y,-z
loop_
_atom_site_type_symbol
_atom_site_label
_atom_site_fract_x
_atom_site_fract_y
_atom_site_fract_z
Si Si1 0.716748 0.724370 0.624420
Si Si2 0.553300 0.840295 0.264912
Si Si3 0.562087 0.410986 0.264070
Si Si4 0.820987 0.598852 0.774206
Si Si5 0.324053 0.547005 0.792359
O O1 0.500000 0.705594 0.500000
O O2 0.542590 0.772875 0.765165
O O3 0.818193 0.668991 0.732596
O O4 0.000000 0.749578 0.500000
O O5 0.500000 0.841192 0.500000
O O6 0.335549 0.879280 0.202393
O O7 0.833466 0.871404 0.207075
O O8 0.500000 0.415800 0.500000
O O9 0.614741 0.477822 0.184685
O O10 0.591671 0.573858 0.685837
O O11 0.083724 0.563239 0.701052
O O12 0.747292 0.581339 0.001095
#
# Coordination Sequence:
#
# PCOD9121400 Si02
#       5
#     4   4   4   4   4
#     4  11  21  36  60  91 125 159 201 251 305 368
#     4   9  18  33  54  85 119 148 189 248 306 358
#     4  10  19  33  57  87 116 151 196 245 301 362
#     4  10  22  38  57  82 120 165 203 246 303 358
#     4  10  21  38  58  81 120 164 203 248 301 358
#
# _framework density 24.427983999999999
#
# number of rings (size 3 to 8) (size 9 to 14) (size 15 to 20)
#    0.000    2.000    0.000    5.400    0.000    2.400 
#    0.000    0.000    0.000   19.200    0.000    0.000 
#    0.000    0.000    0.000    0.000    0.000    0.000 
#
# Total GULP energy -55762.736386 kJ/mol
# GULP energy per Si atom -5576.273639 kJ/mol
# Density = 2.437238 g / cm^3
# Si number density = 24.427984 Si / 1000 Ang^3
#
#
#
# Elastic Constant Matrix: (Units=GPa)
#
#
# Indices 1 2 3 4 5 6 
#
# 1 245.4242 56.8515 42.4222 0.0000 -7.2462 0.0000
# 2 56.8515 172.7544 21.6671 0.0000 -9.1157 0.0000
# 3 42.4222 21.6671 105.9399 0.0000 -4.6161 0.0000
# 4 0.0000 0.0000 0.0000 -153.1383 0.0000 -14.3678
# 5 -7.2462 -9.1157 -4.6161 0.0000 24.8739 0.0000
# 6 0.0000 0.0000 0.0000 -14.3678 0.0000 46.8034
#
#
#
# Elastic Compliance Matrix: (Units=1/GPa)
#
#
# Indices 1 2 3 4 5 6 
#
# 1 0.004667 -0.001307 -0.001576 0.000000 0.000588 0.000000
# 2 -0.001307 0.006404 -0.000706 0.000000 0.001835 0.000000
# 3 -0.001576 -0.000706 0.010267 0.000000 0.001187 0.000000
# 4 0.000000 0.000000 0.000000 -0.006347 0.000000 -0.001948
# 5 0.000588 0.001835 0.001187 0.000000 0.041267 0.000000
# 6 0.000000 0.000000 0.000000 -0.001948 0.000000 0.020768
#
#
# Mechanical properties :
#
#
# Convention : Reuss Voigt Hill
#
# Bulk Modulus (GPa) = 70.62708 85.11111 77.86909
# Shear Modulus (GPa) = 56.22768 10.58630 33.40699
#
# Velocity S-wave (km/s) = 4.80288 2.08401 3.70208
# Velocity P-wave (km/s) = 7.72865 6.38029 7.08661
#
# Compressibility (1/GPa) = 0.01415887
#
# Stress axis : x y z
#
# Youngs Moduli (GPa) = 214.26325 156.14797 97.40346
#
# Poissons Ratio (x) = 0.20412 0.15350
# Poissons Ratio (y) = 0.28009 0.06880
# Poissons Ratio (z) = 0.33766 0.11030
#
# Static dielectric constant tensor:
#      x y z
#    x 2.168060 0.000000 0.140100 
#    y 0.000000 2.026950 0.000000 
#    z 0.140100 0.000000 2.040710 
# 
# From -- ./inp_files/12495.got.cif
#   From: 2010.05.17/outbox.cif.g08.bks.cpg/sg5_7_cif.got.tgz:12495.got - 2010.06.03 18:56:24.
