data_PCOD9121700
_publ_section_title
;
Structure prediction by ZEFSAII (Michael W. Deem and Ramdas Pophale) SiO2 
 PCOD9121700
Probable space group: C 2
;
_chemical_formula_sum "Si O2"
_cell_formula_units_Z 26
_cell_length_a 8.806518
_cell_length_b 30.084169
_cell_length_c 5.140350
_cell_angle_alpha 90.000000
_cell_angle_beta 117.685709
_cell_angle_gamma 90.000000
_cell_volume 1205.946892
_symmetry_space_group_name_H-M "C 2"
_symmetry_group_IT_number 5
_symmetry_cell_setting 'monoclinic'
loop_
_space_group_symop_operation_xyz
x,y,z
-x,y,-z
1/2+x,1/2+y,z
1/2-x,1/2+y,-z
loop_
_atom_site_type_symbol
_atom_site_label
_atom_site_fract_x
_atom_site_fract_y
_atom_site_fract_z
Si Si1 0.390383 0.909010 0.175892
Si Si2 0.000000 0.794711 0.500000
Si Si3 0.121698 0.641771 0.347136
Si Si4 0.808078 0.734428 0.725332
Si Si5 0.671616 0.812034 0.954527
Si Si6 0.676228 0.041831 0.315835
Si Si7 0.191902 0.995567 0.063111
O O1 0.500000 0.926925 0.500000
O O2 0.245703 0.945718 0.026573
O O3 0.500000 0.907325 0.000000
O O4 0.347719 0.858174 0.215584
O O5 0.143392 0.763360 0.484352
O O6 0.133406 0.820936 0.782229
O O7 0.242530 0.684609 0.393973
O O8 0.201533 0.592956 0.424030
O O9 0.000000 0.650183 0.500000
O O10 0.000000 0.638782 0.000000
O O11 0.690935 0.765898 0.810150
O O12 0.000000 0.730533 0.000000
O O13 0.500000 0.808641 0.000000
O O14 0.698058 0.014459 0.601923
O O15 0.500000 0.037082 0.000000
O O16 0.801818 0.025636 0.190386
O O17 0.000000 0.994945 0.000000
#
# Coordination Sequence:
#
# PCOD9121700 Si02
#       7
#     4   2   4   4   4   4   4
#     4  11  25  45  68  93 126 169 222 271 322 398
#     4  10  20  40  66  88 134 170 220 274 332 388
#     4  10  19  35  64  98 126 168 224 270 317 388
#     4   9  19  36  61  94 129 168 222 273 325 390
#     4  10  24  41  65  96 132 178 221 282 332 401
#     4  11  22  41  69  97 127 175 222 271 326 400
#     4  12  25  43  66  95 136 169 215 278 343 397
#
# _framework density 21.559822
#
# number of rings (size 3 to 8) (size 9 to 14) (size 15 to 20)
#    0.000    1.538    0.769    5.077    4.308    1.846 
#    2.769    0.769    3.385    0.000    0.000    0.000 
#    0.000    0.000    0.000    0.000    0.000    0.000 
#
# Total GULP energy -72377.440093 kJ/mol
# GULP energy per Si atom -5567.495392 kJ/mol
# Density = 2.151075 g / cm^3
# Si number density = 21.559822 Si / 1000 Ang^3
#
#
#
# Elastic Constant Matrix: (Units=GPa)
#
#
# Indices 1 2 3 4 5 6 
#
# 1 102.8197 62.7918 12.9785 0.0000 -8.4510 0.0000
# 2 62.7918 176.8707 24.1387 0.0000 -1.7382 0.0000
# 3 12.9785 24.1387 78.5121 0.0000 -9.4905 0.0000
# 4 0.0000 0.0000 0.0000 105.6995 0.0000 24.1325
# 5 -8.4510 -1.7382 -9.4905 0.0000 35.5703 0.0000
# 6 0.0000 0.0000 0.0000 24.1325 0.0000 -67.0900
#
#
#
# Elastic Compliance Matrix: (Units=1/GPa)
#
#
# Indices 1 2 3 4 5 6 
#
# 1 0.012703 -0.004427 -0.000413 0.000000 0.002691 0.000000
# 2 -0.004427 0.007446 -0.001695 0.000000 -0.001140 0.000000
# 3 -0.000413 -0.001695 0.013748 0.000000 0.003487 0.000000
# 4 0.000000 0.000000 0.000000 0.008743 0.000000 0.003145
# 5 0.002691 -0.001140 0.003487 0.000000 0.029627 0.000000
# 6 0.000000 0.000000 0.000000 0.003145 0.000000 -0.013774
#
#
# Mechanical properties :
#
#
# Convention : Reuss Voigt Hill
#
# Bulk Modulus (GPa) = 48.01869 62.00228 55.01048
# Shear Modulus (GPa) = 63.69046 32.05551 47.87298
#
# Velocity S-wave (km/s) = 5.44108 3.86011 4.71730
# Velocity P-wave (km/s) = 7.86095 6.97767 7.43244
#
# Compressibility (1/GPa) = 0.02082523
#
# Stress axis : x y z
#
# Youngs Moduli (GPa) = 78.72436 134.30837 72.73812
#
# Poissons Ratio (x) = 0.59455 0.03008
# Poissons Ratio (y) = 0.34849 0.12331
# Poissons Ratio (z) = 0.03255 0.22768
#
# Static dielectric constant tensor:
#      x y z
#    x 1.761350 0.000000 -0.080850 
#    y 0.000000 1.818050 0.000000 
#    z -0.080850 0.000000 2.091620 
# 
# From -- ./inp_files/3835.got.cif
#   From: 2010.05.17/outbox.cif.g08.bks.cpg/sg5_2_cif.got.tgz:3835.got - 2010.06.03 18:56:24.
