data_PCOD9121414
_publ_section_title
;
Structure prediction by ZEFSAII (Michael W. Deem and Ramdas Pophale) SiO2 
 PCOD9121414
Probable space group: C 2
;
_chemical_formula_sum "Si O2"
_cell_formula_units_Z 32
_cell_length_a 14.784585
_cell_length_b 14.621179
_cell_length_c 12.396677
_cell_angle_alpha 90.000000
_cell_angle_beta 36.635412
_cell_angle_gamma 90.000000
_cell_volume 1599.072305
_symmetry_space_group_name_H-M "C 2"
_symmetry_group_IT_number 5
_symmetry_cell_setting 'monoclinic'
loop_
_space_group_symop_operation_xyz
x,y,z
-x,y,-z
1/2+x,1/2+y,z
1/2-x,1/2+y,-z
loop_
_atom_site_type_symbol
_atom_site_label
_atom_site_fract_x
_atom_site_fract_y
_atom_site_fract_z
Si Si1 0.904484 0.483430 0.311557
Si Si2 0.170497 0.669256 0.288958
Si Si3 0.268261 0.963657 0.096644
Si Si4 0.135725 0.804238 0.786307
Si Si5 0.318749 0.110470 0.203409
Si Si6 0.962971 0.817313 0.729974
Si Si7 0.238931 0.338258 0.684991
Si Si8 0.834584 0.482536 0.620207
O O1 0.817051 0.549058 0.312027
O O2 0.853048 0.380976 0.326150
O O3 0.861829 0.514984 0.471148
O O4 0.083366 0.482982 0.116100
O O5 0.138652 0.730852 0.212916
O O6 0.274397 0.733239 0.265745
O O7 0.222512 0.564464 0.247371
O O8 0.000000 0.661988 0.500000
O O9 0.142309 0.906294 0.154055
O O10 0.300398 0.897939 0.170762
O O11 0.230913 0.059245 0.191448
O O12 0.228531 0.713059 0.726547
O O13 0.227431 0.896443 0.712041
O O14 0.059709 0.793312 0.741942
O O15 0.000000 0.808806 0.000000
O O16 0.500000 0.110735 0.000000
O O17 0.085649 0.844011 0.520556
O O18 0.000000 0.451759 0.500000
#
# Coordination Sequence:
#
# PCOD9121414 Si02
#       8
#     4   4   4   4   4   4   4   4
#     4  10  19  33  60  88 115 146 184 235 291 332
#     4   8  18  34  59  84 108 146 195 231 269 339
#     4   9  18  34  59  93 110 140 191 244 277 328
#     4  11  24  41  58  81 117 155 192 230 283 346
#     4   8  18  36  59  82 110 149 193 229 271 341
#     4  10  19  36  63  87 110 147 192 239 285 323
#     4   9  16  34  58  89 113 142 192 237 280 328
#     4  11  24  38  56  82 119 153 186 230 284 347
#
# _framework density 20.011602
#
# number of rings (size 3 to 8) (size 9 to 14) (size 15 to 20)
#    0.000    2.500    1.250    2.250    7.000    0.000 
#    0.000    5.000    2.750    0.000    0.000    0.000 
#    0.000    0.000    0.000    0.000    0.000    0.000 
#
# Total GULP energy -89104.827801 kJ/mol
# GULP energy per Si atom -5569.051738 kJ/mol
# Density = 1.996605 g / cm^3
# Si number density = 20.011602 Si / 1000 Ang^3
#
#
#
# Elastic Constant Matrix: (Units=GPa)
#
#
# Indices 1 2 3 4 5 6 
#
# 1 60.7430 49.0120 -2.4223 0.0000 7.3884 0.0000
# 2 49.0120 145.1694 22.4198 0.0000 1.3572 0.0000
# 3 -2.4223 22.4198 32.6370 0.0000 4.7804 0.0000
# 4 0.0000 0.0000 0.0000 15.6139 0.0000 -0.0041
# 5 7.3884 1.3572 4.7804 0.0000 10.8847 0.0000
# 6 0.0000 0.0000 0.0000 -0.0041 0.0000 28.6184
#
#
#
# Elastic Compliance Matrix: (Units=1/GPa)
#
#
# Indices 1 2 3 4 5 6 
#
# 1 0.029703 -0.011968 0.014065 0.000000 -0.024847 0.000000
# 2 -0.011968 0.012550 -0.011190 0.000000 0.011474 0.000000
# 3 0.014065 -0.011190 0.043354 0.000000 -0.027193 0.000000
# 4 0.000000 0.000000 0.000000 0.064046 0.000000 0.000009
# 5 -0.024847 0.011474 -0.027193 0.000000 0.119250 0.000000
# 6 0.000000 0.000000 0.000000 0.000009 0.000000 0.034943
#
#
# Mechanical properties :
#
#
# Convention : Reuss Voigt Hill
#
# Bulk Modulus (GPa) = 14.83216 41.84092 28.33654
# Shear Modulus (GPa) = 14.51360 22.32606 18.41983
#
# Velocity S-wave (km/s) = 2.69599 3.34377 3.03720
# Velocity P-wave (km/s) = 4.13751 5.98844 5.14686
#
# Compressibility (1/GPa) = 0.06742108
#
# Stress axis : x y z
#
# Youngs Moduli (GPa) = 33.66691 79.68072 23.06601
#
# Poissons Ratio (x) = 0.95363 -0.32443
# Poissons Ratio (y) = 0.40293 0.25811
# Poissons Ratio (z) = -0.47354 0.89163
#
# Static dielectric constant tensor:
#      x y z
#    x 1.723720 0.000000 0.018940 
#    y 0.000000 1.784080 0.000000 
#    z 0.018940 0.000000 1.717180 
# 
# From -- ./inp_files/43074.got.cif
#   From: 2010.05.17/outbox.cif.g08.bks.cpg/sg5_22_cif.got.tgz:43074.got - 2010.06.03 18:56:24.
