data_PCOD9121551
_publ_section_title
;
Structure prediction by ZEFSAII (Michael W. Deem and Ramdas Pophale) SiO2 
 PCOD9121551
Probable space group: C 2
;
_chemical_formula_sum "Si O2"
_cell_formula_units_Z 32
_cell_length_a 11.427435
_cell_length_b 14.894418
_cell_length_c 14.928810
_cell_angle_alpha 90.000000
_cell_angle_beta 136.684663
_cell_angle_gamma 90.000000
_cell_volume 1743.130581
_symmetry_space_group_name_H-M "C 2"
_symmetry_group_IT_number 5
_symmetry_cell_setting 'monoclinic'
loop_
_space_group_symop_operation_xyz
x,y,z
-x,y,-z
1/2+x,1/2+y,z
1/2-x,1/2+y,-z
loop_
_atom_site_type_symbol
_atom_site_label
_atom_site_fract_x
_atom_site_fract_y
_atom_site_fract_z
Si Si1 0.916609 0.425780 0.046389
Si Si2 0.664301 0.258213 0.539276
Si Si3 0.569000 0.445006 0.786022
Si Si4 0.734758 0.443092 0.678857
Si Si5 0.340676 0.647028 0.355775
Si Si6 0.000392 0.139115 0.250977
Si Si7 0.644479 0.712573 0.009946
Si Si8 0.032243 0.748637 0.264029
O O1 0.060123 0.444829 0.198628
O O2 0.728000 0.464763 0.940750
O O3 0.892434 0.318593 0.026164
O O4 0.000000 0.458600 0.000000
O O5 0.500000 0.221758 0.500000
O O6 0.687869 0.361176 0.587275
O O7 0.615180 0.249428 0.408587
O O8 0.834230 0.202420 0.654775
O O9 0.650658 0.426310 0.731537
O O10 0.454626 0.533274 0.721730
O O11 0.483602 0.353491 0.769434
O O12 0.679181 0.543366 0.623690
O O13 0.500000 0.686598 0.500000
O O14 0.390450 0.651112 0.279751
O O15 0.163480 0.695982 0.275124
O O16 0.890500 0.164132 0.102977
O O17 0.839824 0.708619 0.153047
O O18 0.500000 0.681801 0.000000
#
# Coordination Sequence:
#
# PCOD9121551 Si02
#       8
#     4   4   4   4   4   4   4   4
#     4   8  15  31  56  88 113 145 199 255 299 350
#     4  12  21  36  65  94 117 159 208 259 312 360
#     4   9  20  37  59  89 120 159 205 260 307 361
#     4  10  19  34  63  90 116 154 213 262 304 352
#     4  11  24  40  57  94 129 162 208 255 305 374
#     4  11  23  39  66  88 125 164 208 259 311 365
#     4  10  20  39  63  92 121 157 208 264 306 361
#     4  11  23  38  62  87 130 164 201 254 313 370
#
# _framework density 18.357775
#
# number of rings (size 3 to 8) (size 9 to 14) (size 15 to 20)
#    0.000    1.750    3.750    1.875    3.500    0.500 
#    0.000    0.625   11.000    0.000    0.000    0.000 
#    0.000    0.000    0.000    0.000    0.000    0.000 
#
# Total GULP energy -89205.990030 kJ/mol
# GULP energy per Si atom -5575.374377 kJ/mol
# Density = 1.831599 g / cm^3
# Si number density = 18.357775 Si / 1000 Ang^3
#
#
#
# Elastic Constant Matrix: (Units=GPa)
#
#
# Indices 1 2 3 4 5 6 
#
# 1 81.7070 57.0735 35.0158 0.0000 10.0924 0.0000
# 2 57.0735 93.8062 36.5479 0.0000 15.8781 0.0000
# 3 35.0158 36.5479 108.3288 0.0000 7.3071 0.0000
# 4 0.0000 0.0000 0.0000 13.7925 0.0000 -7.1216
# 5 10.0924 15.8781 7.3071 0.0000 31.0664 0.0000
# 6 0.0000 0.0000 0.0000 -7.1216 0.0000 16.2829
#
#
#
# Elastic Compliance Matrix: (Units=1/GPa)
#
#
# Indices 1 2 3 4 5 6 
#
# 1 0.022102 -0.012242 -0.002999 0.000000 -0.000218 0.000000
# 2 -0.012242 0.020010 -0.002410 0.000000 -0.005683 0.000000
# 3 -0.002999 -0.002410 0.011040 0.000000 -0.000390 0.000000
# 4 0.000000 0.000000 0.000000 0.093653 0.000000 0.040961
# 5 -0.000218 -0.005683 -0.000390 0.000000 0.035256 0.000000
# 6 0.000000 0.000000 0.000000 0.040961 0.000000 0.079329
#
#
# Mechanical properties :
#
#
# Convention : Reuss Voigt Hill
#
# Bulk Modulus (GPa) = 56.02702 60.12405 58.07554
# Shear Modulus (GPa) = 16.52108 22.57535 19.54821
#
# Velocity S-wave (km/s) = 3.00317 3.51057 3.26674
# Velocity P-wave (km/s) = 6.52772 7.01816 6.77738
#
# Compressibility (1/GPa) = 0.01784853
#
# Stress axis : x y z
#
# Youngs Moduli (GPa) = 45.24396 49.97596 90.57785
#
# Poissons Ratio (x) = 0.61181 0.27168
# Poissons Ratio (y) = 0.55388 0.21833
# Poissons Ratio (z) = 0.13570 0.12046
#
# Static dielectric constant tensor:
#      x y z
#    x 1.617240 0.000000 -0.001570 
#    y 0.000000 1.638200 0.000000 
#    z -0.001570 0.000000 1.673510 
# 
# From -- ./inp_files/53198.got.cif
#   From: 2010.05.17/outbox.cif.g08.bks.cpg/sg5_27_cif.got.tgz:53198.got - 2010.06.03 18:56:24.
