data_PCOD9121461
_publ_section_title
;
Structure prediction by ZEFSAII (Michael W. Deem and Ramdas Pophale) SiO2 
 PCOD9121461
Probable space group: C 2
;
_chemical_formula_sum "Si O2"
_cell_formula_units_Z 30
_cell_length_a 17.583747
_cell_length_b 9.091480
_cell_length_c 16.977165
_cell_angle_alpha 90.000000
_cell_angle_beta 155.938711
_cell_angle_gamma 90.000000
_cell_volume 1106.538193
_symmetry_space_group_name_H-M "C 2"
_symmetry_group_IT_number 5
_symmetry_cell_setting 'monoclinic'
loop_
_space_group_symop_operation_xyz
x,y,z
-x,y,-z
1/2+x,1/2+y,z
1/2-x,1/2+y,-z
loop_
_atom_site_type_symbol
_atom_site_label
_atom_site_fract_x
_atom_site_fract_y
_atom_site_fract_z
Si Si1 0.144574 0.862410 0.736272
Si Si2 0.329247 0.678459 0.218134
Si Si3 0.234654 0.301538 0.388450
Si Si4 0.338417 0.402574 0.728845
Si Si5 0.152130 0.896015 0.928533
Si Si6 0.882749 0.121160 0.992384
Si Si7 0.752256 0.125627 0.441120
Si Si8 0.500000 0.902609 0.500000
O O1 0.923473 0.836148 0.517491
O O2 0.218067 0.024249 0.783126
O O3 0.189080 0.866808 0.873114
O O4 0.255460 0.717343 0.815486
O O5 0.208215 0.756968 0.035822
O O6 0.524159 0.636896 0.359614
O O7 0.371537 0.800792 0.323387
O O8 0.290986 0.199925 0.516049
O O9 0.171023 0.464033 0.355146
O O10 0.056636 0.223378 0.181707
O O11 0.511366 0.474958 0.936482
O O12 0.311133 0.229340 0.692467
O O13 0.147012 0.472701 0.578111
O O14 0.430573 0.433355 0.729845
O O15 0.236031 0.042668 0.049244
#
# Coordination Sequence:
#
# PCOD9121461 Si02
#       8
#     4   4   4   4   4   4   4   2
#     4  11  21  36  61 101 141 170 208 275 351 406
#     4  10  23  39  66  94 127 182 223 275 326 395
#     4  11  20  34  58  87 139 174 205 271 327 418
#     4   9  21  40  59  93 123 170 230 270 320 392
#     4  10  20  38  57 100 135 162 220 271 339 409
#     4  10  23  35  57  95 134 168 212 263 347 404
#     4  10  19  34  55  90 124 173 221 258 332 385
#     4  10  22  46  72  88 124 184 248 272 310 388
#
# _framework density 27.111581999999999
#
# number of rings (size 3 to 8) (size 9 to 14) (size 15 to 20)
#    0.800    1.067    1.333    4.000    1.867    4.800 
#    0.000    0.000    0.000   17.600    0.000    0.000 
#    0.000    0.000    0.000    0.000    0.000    0.000 
#
# Total GULP energy -83629.663298 kJ/mol
# GULP energy per Si atom -5575.310887 kJ/mol
# Density = 2.704987 g / cm^3
# Si number density = 27.111582 Si / 1000 Ang^3
#
#
#
# Elastic Constant Matrix: (Units=GPa)
#
#
# Indices 1 2 3 4 5 6 
#
# 1 73.8834 5.2394 17.7424 0.0000 -0.1581 0.0000
# 2 5.2394 152.7280 39.6227 0.0001 5.6492 0.0000
# 3 17.7424 39.6227 82.9631 0.0002 10.7401 0.0001
# 4 0.0000 0.0001 0.0002 55.9543 0.0001 5.3357
# 5 -0.1581 5.6492 10.7401 0.0001 29.6039 0.0000
# 6 0.0000 0.0000 0.0001 5.3357 0.0000 10.1605
#
#
#
# Elastic Compliance Matrix: (Units=1/GPa)
#
#
# Indices 1 2 3 4 5 6 
#
# 1 0.014327 0.000341 -0.003388 0.000000 0.001240 0.000000
# 2 0.000341 0.007482 -0.003633 0.000000 -0.000108 0.000000
# 3 -0.003388 -0.003633 0.015136 0.000000 -0.004816 0.000000
# 4 0.000000 0.000000 0.000000 0.018814 0.000000 -0.009880
# 5 0.001240 -0.000108 -0.004816 0.000000 0.035554 0.000000
# 6 0.000000 0.000000 0.000000 -0.009880 0.000000 0.103609
#
#
# Mechanical properties :
#
#
# Convention : Reuss Voigt Hill
#
# Bulk Modulus (GPa) = 42.39406 48.30930 45.35168
# Shear Modulus (GPa) = 23.13294 35.60840 29.37067
#
# Velocity S-wave (km/s) = 2.92421 3.62802 3.29496
# Velocity P-wave (km/s) = 5.20309 5.95041 5.58926
#
# Compressibility (1/GPa) = 0.02358821
#
# Stress axis : x y z
#
# Youngs Moduli (GPa) = 69.79935 133.64927 66.06596
#
# Poissons Ratio (x) = -0.04564 0.22380
# Poissons Ratio (y) = -0.02384 0.23999
# Poissons Ratio (z) = 0.23645 0.48548
#
# Static dielectric constant tensor:
#      x y z
#    x 2.338220 0.000000 0.015520 
#    y 0.000000 2.282510 0.000000 
#    z 0.015520 0.000000 2.132750 
# 
# From -- ./inp_files/69639.got.cif
#   From: 2010.05.17/outbox.cif.g08.bks.cpg/sg5_35_cif.got.tgz:69639.got - 2010.06.03 18:56:24.
