data_PCOD9121001
_publ_section_title
;
Structure prediction by ZEFSAII (Michael W. Deem and Ramdas Pophale) SiO2 
 PCOD9121001
Probable space group: C 2
;
_chemical_formula_sum "Si O2"
_cell_formula_units_Z 32
_cell_length_a 19.532539
_cell_length_b 22.980491
_cell_length_c 9.301499
_cell_angle_alpha 90.000000
_cell_angle_beta 152.159950
_cell_angle_gamma 90.000000
_cell_volume 1949.810211
_symmetry_space_group_name_H-M "C 2"
_symmetry_group_IT_number 5
_symmetry_cell_setting 'monoclinic'
loop_
_space_group_symop_operation_xyz
x,y,z
-x,y,-z
1/2+x,1/2+y,z
1/2-x,1/2+y,-z
loop_
_atom_site_type_symbol
_atom_site_label
_atom_site_fract_x
_atom_site_fract_y
_atom_site_fract_z
Si Si1 0.885429 0.469580 0.418914
Si Si2 0.136248 0.894577 0.852050
Si Si3 0.662799 0.672142 0.856882
Si Si4 0.109526 0.818301 0.069113
Si Si5 0.112043 0.599871 0.571218
Si Si6 0.866499 0.304001 0.138642
Si Si7 0.058367 0.706755 0.774012
Si Si8 0.438122 0.861762 0.727840
O O1 0.884411 0.534688 0.479516
O O2 0.916451 0.420796 0.595899
O O3 0.000000 0.465288 0.500000
O O4 0.733333 0.450860 0.063563
O O5 0.000000 0.906713 0.500000
O O6 0.083544 0.869687 0.906606
O O7 0.238264 0.844500 0.965890
O O8 0.500000 0.661563 0.500000
O O9 0.670783 0.736058 0.944791
O O10 0.730703 0.621745 0.080868
O O11 0.779459 0.680437 0.945280
O O12 0.282048 0.826892 0.432701
O O13 0.073989 0.760736 0.909067
O O14 0.000000 0.821015 0.000000
O O15 0.000000 0.596789 0.500000
O O16 0.045733 0.654879 0.362941
O O17 0.000000 0.307638 0.500000
O O18 0.934591 0.327064 0.118834
O O19 0.000000 0.721476 0.500000
O O20 0.500000 0.873414 0.000000
#
# Coordination Sequence:
#
# PCOD9121001 Si02
#       8
#     4   4   4   4   4   4   4   4
#     4  10  18  38  55  73 103 140 183 219 248 314
#     4  11  21  31  55  81 106 139 172 217 270 310
#     4   9  16  26  51  78 107 134 167 218 261 303
#     4  11  22  33  49  80 117 135 167 224 265 319
#     4   8  18  30  52  76 100 137 178 216 255 302
#     4  11  17  35  55  76 108 138 177 210 263 323
#     4   9  17  33  51  77 104 140 174 209 262 314
#     4  11  23  35  53  79 105 143 179 216 268 315
#
# _framework density 16.411853000000001
#
# number of rings (size 3 to 8) (size 9 to 14) (size 15 to 20)
#    0.000    2.250    5.000    1.125    3.500    0.500 
#    0.000    0.625    0.000    0.000    0.000   10.500 
#    0.000    0.000    0.000    0.000    0.000    0.000 
#
# Total GULP energy -89067.403637 kJ/mol
# GULP energy per Si atom -5566.712727 kJ/mol
# Density = 1.637450 g / cm^3
# Si number density = 16.411853 Si / 1000 Ang^3
#
#
#
# Elastic Constant Matrix: (Units=GPa)
#
#
# Indices 1 2 3 4 5 6 
#
# 1 81.3873 26.1580 36.5761 0.0000 1.9397 0.0000
# 2 26.1580 107.7156 43.5647 0.0000 3.6503 0.0000
# 3 36.5761 43.5647 109.7631 0.0000 1.7816 0.0000
# 4 0.0000 0.0000 0.0000 14.1499 0.0000 2.4294
# 5 1.9397 3.6503 1.7816 0.0000 20.6015 0.0000
# 6 0.0000 0.0000 0.0000 2.4294 0.0000 8.6929
#
#
#
# Elastic Compliance Matrix: (Units=1/GPa)
#
#
# Indices 1 2 3 4 5 6 
#
# 1 0.014781 -0.001880 -0.004168 0.000000 -0.000698 0.000000
# 2 -0.001880 0.011350 -0.003854 0.000000 -0.001501 0.000000
# 3 -0.004168 -0.003854 0.012028 0.000000 0.000035 0.000000
# 4 0.000000 0.000000 0.000000 0.074234 0.000000 -0.020746
# 5 -0.000698 -0.001501 0.000035 0.000000 0.048869 0.000000
# 6 0.000000 0.000000 0.000000 -0.020746 0.000000 0.120834
#
#
# Mechanical properties :
#
#
# Convention : Reuss Voigt Hill
#
# Bulk Modulus (GPa) = 54.47975 56.82928 55.65452
# Shear Modulus (GPa) = 16.23285 21.52669 18.87977
#
# Velocity S-wave (km/s) = 3.14840 3.62561 3.39540
# Velocity P-wave (km/s) = 6.81792 7.22695 7.02541
#
# Compressibility (1/GPa) = 0.01835544
#
# Stress axis : x y z
#
# Youngs Moduli (GPa) = 67.65483 88.10738 83.13677
#
# Poissons Ratio (x) = 0.16565 0.34650
# Poissons Ratio (y) = 0.12720 0.32039
# Poissons Ratio (z) = 0.28198 0.33955
#
# Static dielectric constant tensor:
#      x y z
#    x 1.562980 0.000000 0.013520 
#    y 0.000000 1.579590 0.000000 
#    z 0.013520 0.000000 1.576780 
# 
# From -- ./inp_files/28054.got.cif
#   From: 2010.05.17/outbox.cif.g08.bks.cpg/sg5_15_cif.got.tgz:28054.got - 2010.06.03 18:56:24.
