data_PCOD9121455
_publ_section_title
;
Structure prediction by ZEFSAII (Michael W. Deem and Ramdas Pophale) SiO2 
 PCOD9121455
Probable space group: C 2
;
_chemical_formula_sum "Si O2"
_cell_formula_units_Z 32
_cell_length_a 30.483024
_cell_length_b 10.248036
_cell_length_c 9.439301
_cell_angle_alpha 90.000000
_cell_angle_beta 28.488588
_cell_angle_gamma 90.000000
_cell_volume 1406.507568
_symmetry_space_group_name_H-M "C 2"
_symmetry_group_IT_number 5
_symmetry_cell_setting 'monoclinic'
loop_
_space_group_symop_operation_xyz
x,y,z
-x,y,-z
1/2+x,1/2+y,z
1/2-x,1/2+y,-z
loop_
_atom_site_type_symbol
_atom_site_label
_atom_site_fract_x
_atom_site_fract_y
_atom_site_fract_z
Si Si1 0.639520 0.510300 0.280953
Si Si2 0.956135 0.558935 0.849186
Si Si3 0.659583 0.451854 0.902283
Si Si4 0.152455 0.569946 0.283746
Si Si5 0.992984 0.852101 0.851170
Si Si6 0.793042 0.661022 0.152134
Si Si7 0.141677 0.489595 0.604017
Si Si8 0.097375 0.198401 0.642172
O O1 0.587124 0.399680 0.515220
O O2 0.603166 0.640952 0.465849
O O3 0.621438 0.499266 0.163715
O O4 0.749763 0.495644 0.986558
O O5 0.054286 0.511522 0.513277
O O6 0.970994 0.710501 0.849169
O O7 0.865828 0.558580 0.008288
O O8 0.931722 0.489109 0.063938
O O9 0.689624 0.300493 0.828632
O O10 0.759382 0.517589 0.604619
O O11 0.584001 0.450959 0.994615
O O12 0.133492 0.596632 0.503507
O O13 0.177836 0.676406 0.094854
O O14 0.000000 0.852405 0.000000
O O15 0.685583 0.626937 0.465135
O O16 0.128026 0.350020 0.565841
O O17 0.000000 0.180137 0.000000
#
# Coordination Sequence:
#
# PCOD9121455 Si02
#       8
#     4   4   4   4   4   4   4   4
#     4  10  21  35  56  82 114 156 199 245 301 363
#     4  11  21  36  60  89 119 156 205 258 309 361
#     4   9  20  38  59  86 120 155 198 252 309 364
#     4  10  19  34  55  82 113 152 198 248 302 354
#     4  11  22  37  60  90 120 155 201 255 311 367
#     4   9  20  36  58  87 118 155 201 255 308 359
#     4  10  21  37  60  87 118 158 205 256 308 365
#     4  10  20  37  59  85 120 165 208 249 304 367
#
# _framework density 22.751387999999999
#
# number of rings (size 3 to 8) (size 9 to 14) (size 15 to 20)
#    0.000    2.000    0.000    3.750    0.000    6.000 
#    0.000    0.000    0.000    7.500    0.000    0.000 
#    0.000    0.000    0.000    0.000    0.000    0.000 
#
# Total GULP energy -89147.583268 kJ/mol
# GULP energy per Si atom -5571.723954 kJ/mol
# Density = 2.269960 g / cm^3
# Si number density = 22.751388 Si / 1000 Ang^3
#
#
#
# Elastic Constant Matrix: (Units=GPa)
#
#
# Indices 1 2 3 4 5 6 
#
# 1 98.1447 5.4328 51.7927 0.0000 -28.1486 0.0000
# 2 5.4328 30.7141 5.8100 0.0000 3.1063 0.0000
# 3 51.7927 5.8100 168.5960 0.0000 -12.2718 0.0000
# 4 0.0000 0.0000 0.0000 31.0254 0.0000 2.3560
# 5 -28.1486 3.1063 -12.2718 0.0000 42.7534 0.0000
# 6 0.0000 0.0000 0.0000 2.3560 0.0000 31.3999
#
#
#
# Elastic Compliance Matrix: (Units=1/GPa)
#
#
# Indices 1 2 3 4 5 6 
#
# 1 0.014934 -0.002819 -0.003840 0.000000 0.008935 0.000000
# 2 -0.002819 0.033627 -0.000619 0.000000 -0.004477 0.000000
# 3 -0.003840 -0.000619 0.007100 0.000000 -0.000446 0.000000
# 4 0.000000 0.000000 0.000000 0.032416 0.000000 -0.002432
# 5 0.008935 -0.004477 -0.000446 0.000000 0.029470 0.000000
# 6 0.000000 0.000000 0.000000 -0.002432 0.000000 0.032030
#
#
# Mechanical properties :
#
#
# Convention : Reuss Voigt Hill
#
# Bulk Modulus (GPa) = 24.32774 47.05840 35.69307
# Shear Modulus (GPa) = 28.11597 36.66371 32.38984
#
# Velocity S-wave (km/s) = 3.51920 4.01870 3.77721
# Velocity P-wave (km/s) = 5.21815 6.50091 5.89453
#
# Compressibility (1/GPa) = 0.04110534
#
# Stress axis : x y z
#
# Youngs Moduli (GPa) = 66.95967 29.73822 140.84552
#
# Poissons Ratio (x) = 0.08383 0.54089
# Poissons Ratio (y) = 0.18875 0.08714
# Poissons Ratio (z) = 0.25715 0.01840
#
# Static dielectric constant tensor:
#      x y z
#    x 1.930170 0.000000 -0.048350 
#    y 0.000000 1.890880 0.000000 
#    z -0.048350 0.000000 1.872710 
# 
# From -- ./inp_files/32620.got.cif
#   From: 2010.05.17/outbox.cif.g08.bks.cpg/sg5_17_cif.got.tgz:32620.got - 2010.06.03 18:56:24.
