data_PCOD9121559
_publ_section_title
;
Structure prediction by ZEFSAII (Michael W. Deem and Ramdas Pophale) SiO2 
 PCOD9121559
Probable space group: C 2
;
_chemical_formula_sum "Si O2"
_cell_formula_units_Z 24
_cell_length_a 8.288557
_cell_length_b 25.418319
_cell_length_c 5.475923
_cell_angle_alpha 90.000000
_cell_angle_beta 91.256573
_cell_angle_gamma 90.000000
_cell_volume 1153.396513
_symmetry_space_group_name_H-M "C 2"
_symmetry_group_IT_number 5
_symmetry_cell_setting 'monoclinic'
loop_
_space_group_symop_operation_xyz
x,y,z
-x,y,-z
1/2+x,1/2+y,z
1/2-x,1/2+y,-z
loop_
_atom_site_type_symbol
_atom_site_label
_atom_site_fract_x
_atom_site_fract_y
_atom_site_fract_z
Si Si1 0.690996 0.105650 0.012252
Si Si2 0.258571 0.715032 0.829524
Si Si3 0.193670 0.541175 0.512662
Si Si4 0.000000 0.897162 0.000000
Si Si5 0.500000 0.256799 0.500000
Si Si6 0.755016 0.814065 0.824855
Si Si7 0.000000 0.277054 0.500000
Si Si8 0.500000 0.463636 0.500000
O O1 0.784595 0.159666 0.959407
O O2 0.720644 0.068617 0.777321
O O3 0.500000 0.117206 0.000000
O O4 0.721988 0.079178 0.277231
O O5 0.085299 0.718545 0.693730
O O6 0.383099 0.736280 0.633775
O O7 0.255607 0.761544 0.020497
O O8 0.333112 0.497174 0.497766
O O9 0.000000 0.525961 0.500000
O O10 0.159054 0.860182 0.025948
O O11 0.996114 0.930183 0.249375
O O12 0.374208 0.296872 0.612974
O O13 0.581688 0.816729 0.695747
#
# Coordination Sequence:
#
# PCOD9121559 Si02
#       8
#     4   4   4   2   2   4   2   2
#     4  10  22  39  72 103 139 192 234 276 368 432
#     4  11  22  38  62 100 144 191 231 282 344 441
#     4  10  24  48  71 102 143 180 238 315 357 431
#     4  12  26  46  82 100 132 194 250 292 384 424
#     4  10  19  34  66  88 140 184 228 279 334 400
#     4  11  22  43  63  99 139 184 231 298 337 443
#     4  10  26  39  60  94 158 184 233 288 358 402
#     4  12  27  51  76 108 134 188 251 321 370 422
#
# _framework density 20.808108000000001
#
# number of rings (size 3 to 8) (size 9 to 14) (size 15 to 20)
#    0.000    1.333    1.667    3.000   10.500    0.667 
#    4.500    0.000    0.000    0.000    0.000    0.000 
#    0.000    0.000    0.000    0.000    0.000    0.000 
#
# Total GULP energy -66942.889634 kJ/mol
# GULP energy per Si atom -5578.574136 kJ/mol
# Density = 2.076075 g / cm^3
# Si number density = 20.808108 Si / 1000 Ang^3
#
#
#
# Elastic Constant Matrix: (Units=GPa)
#
#
# Indices 1 2 3 4 5 6 
#
# 1 53.9863 39.6689 5.2721 0.0000 41.8217 0.0000
# 2 39.6689 87.4768 26.2629 0.0000 25.9342 0.0000
# 3 5.2721 26.2629 85.8573 0.0000 45.5349 0.0000
# 4 0.0000 0.0000 0.0000 48.3371 0.0000 -60.8229
# 5 41.8217 25.9342 45.5349 0.0000 13.4148 0.0000
# 6 0.0000 0.0000 0.0000 -60.8229 0.0000 1304.0843
#
#
#
# Elastic Compliance Matrix: (Units=1/GPa)
#
#
# Indices 1 2 3 4 5 6 
#
# 1 0.008087 -0.007114 -0.009692 0.000000 0.021442 0.000000
# 2 -0.007114 0.017026 -0.001154 0.000000 -0.006821 0.000000
# 3 -0.009692 -0.001154 0.005765 0.000000 0.012879 0.000000
# 4 0.000000 0.000000 0.000000 0.021978 0.000000 0.001025
# 5 0.021442 -0.006821 0.012879 0.000000 -0.022832 0.000000
# 6 0.000000 0.000000 0.000000 0.001025 0.000000 0.000815
#
#
# Mechanical properties :
#
#
# Convention : Reuss Voigt Hill
#
# Bulk Modulus (GPa) = -198.31029 41.08091 -78.61469
# Shear Modulus (GPa) = 76.83167 283.57500 180.20333
#
# Velocity S-wave (km/s) = 6.08310 11.68661 9.31614
# Velocity P-wave (km/s) = 6.79503 14.20873 8.82371
#
# Compressibility (1/GPa) = -0.00504260
#
# Stress axis : x y z
#
# Youngs Moduli (GPa) = 123.66053 58.73259 173.46690
#
# Poissons Ratio (x) = 0.41783 1.68130
# Poissons Ratio (y) = 0.87974 0.20014
# Poissons Ratio (z) = 1.19856 0.06776
#
# Static dielectric constant tensor:
#      x y z
#    x 1.660040 0.000000 0.577360 
#    y 0.000000 1.747630 0.000000 
#    z 0.577360 0.000000 -0.507810 
# 
# From -- ./inp_files/3432.got.cif
#   From: 2010.05.17/outbox.cif.g08.bks.cpg/sg5_2_cif.got.tgz:3432.got - 2010.06.03 18:56:24.
