data_PCOD9121301
_publ_section_title
;
Structure prediction by ZEFSAII (Michael W. Deem and Ramdas Pophale) SiO2 
 PCOD9121301
Probable space group: C 2
;
_chemical_formula_sum "Si O2"
_cell_formula_units_Z 32
_cell_length_a 21.820187
_cell_length_b 8.604098
_cell_length_c 9.399037
_cell_angle_alpha 90.000000
_cell_angle_beta 98.455321
_cell_angle_gamma 90.000000
_cell_volume 1745.423872
_symmetry_space_group_name_H-M "C 2"
_symmetry_group_IT_number 5
_symmetry_cell_setting 'monoclinic'
loop_
_space_group_symop_operation_xyz
x,y,z
-x,y,-z
1/2+x,1/2+y,z
1/2-x,1/2+y,-z
loop_
_atom_site_type_symbol
_atom_site_label
_atom_site_fract_x
_atom_site_fract_y
_atom_site_fract_z
Si Si1 0.688568 0.848860 0.524439
Si Si2 0.439535 0.669147 0.563781
Si Si3 0.283859 0.630380 0.235915
Si Si4 0.481433 0.615995 0.152341
Si Si5 0.867051 0.342278 0.071686
Si Si6 0.402761 0.421027 0.341882
Si Si7 0.167568 0.618367 0.742202
Si Si8 0.784076 0.342202 0.797174
O O1 0.620124 0.771544 0.493017
O O2 0.731550 0.730495 0.629698
O O3 0.710480 0.860376 0.370691
O O4 0.684311 0.004699 0.616149
O O5 0.500000 0.729355 0.500000
O O6 0.459296 0.663208 0.733631
O O7 0.427859 0.495775 0.496562
O O8 0.312717 0.748817 0.134771
O O9 0.338862 0.513508 0.296485
O O10 0.234127 0.514721 0.155675
O O11 0.431862 0.757708 0.127610
O O12 0.447831 0.480200 0.231551
O O13 0.500000 0.570999 0.000000
O O14 0.860648 0.512206 0.140569
O O15 0.848086 0.315527 0.901506
O O16 0.383937 0.242744 0.325794
O O17 0.230084 0.714493 0.805839
#
# Coordination Sequence:
#
# PCOD9121301 Si02
#       8
#     4   4   4   4   4   4   4   4
#     4  10  19  32  52  79 102 130 172 216 253 293
#     4   9  17  34  55  73  98 137 173 204 251 312
#     4   8  17  32  47  67 100 136 166 198 247 309
#     4  10  19  35  55  76 101 134 173 215 251 295
#     4  10  20  34  52  75 104 141 173 200 249 313
#     4   8  17  33  52  70  95 130 170 204 249 307
#     4  10  20  35  53  76 106 135 166 210 256 305
#     4  11  19  31  51  78 106 135 168 209 252 298
#
# _framework density 18.333656000000001
#
# number of rings (size 3 to 8) (size 9 to 14) (size 15 to 20)
#    0.000    2.500    0.000    4.500    0.000    0.000 
#    0.000    7.500    0.000    0.000    0.000    0.000 
#    0.000    0.000    0.000    0.000    0.000    0.000 
#
# Total GULP energy -89072.410823 kJ/mol
# GULP energy per Si atom -5567.025676 kJ/mol
# Density = 1.829193 g / cm^3
# Si number density = 18.333656 Si / 1000 Ang^3
#
#
#
# Elastic Constant Matrix: (Units=GPa)
#
#
# Indices 1 2 3 4 5 6 
#
# 1 48.9556 28.3753 13.6880 0.0000 10.4330 0.0000
# 2 28.3753 108.0237 27.9900 0.0000 4.6274 0.0000
# 3 13.6880 27.9900 100.5545 0.0000 8.9625 0.0000
# 4 0.0000 0.0000 0.0000 16.9869 0.0000 1.7246
# 5 10.4330 4.6274 8.9625 0.0000 29.6495 0.0000
# 6 0.0000 0.0000 0.0000 1.7246 0.0000 20.4282
#
#
#
# Elastic Compliance Matrix: (Units=1/GPa)
#
#
# Indices 1 2 3 4 5 6 
#
# 1 0.026008 -0.006207 -0.001113 0.000000 -0.007846 0.000000
# 2 -0.006207 0.011474 -0.002450 0.000000 0.001134 0.000000
# 3 -0.001113 -0.002450 0.011006 0.000000 -0.002553 0.000000
# 4 0.000000 0.000000 0.000000 0.059378 0.000000 -0.005013
# 5 -0.007846 0.001134 -0.002553 0.000000 0.037083 0.000000
# 6 0.000000 0.000000 0.000000 -0.005013 0.000000 0.049375
#
#
# Mechanical properties :
#
#
# Convention : Reuss Voigt Hill
#
# Bulk Modulus (GPa) = 34.54577 44.18227 39.36402
# Shear Modulus (GPa) = 22.37004 25.91162 24.14083
#
# Velocity S-wave (km/s) = 3.49687 3.76351 3.63264
# Velocity P-wave (km/s) = 5.93194 6.56024 6.25398
#
# Compressibility (1/GPa) = 0.02894710
#
# Stress axis : x y z
#
# Youngs Moduli (GPa) = 38.45007 87.15420 90.86046
#
# Poissons Ratio (x) = 0.54097 0.10114
# Poissons Ratio (y) = 0.23866 0.22261
# Poissons Ratio (z) = 0.04280 0.21353
#
# Static dielectric constant tensor:
#      x y z
#    x 1.642370 0.000000 0.011480 
#    y 0.000000 1.651420 0.000000 
#    z 0.011480 0.000000 1.679370 
# 
# From -- ./inp_files/30574.got.cif
#   From: 2010.05.17/outbox.cif.g08.bks.cpg/sg5_16_cif.got.tgz:30574.got - 2010.06.03 18:56:24.
