data_PCOD9121130
_publ_section_title
;
Structure prediction by ZEFSAII (Michael W. Deem and Ramdas Pophale) SiO2 
 PCOD9121130
Probable space group: C 2
;
_chemical_formula_sum "Si O2"
_cell_formula_units_Z 28
_cell_length_a 17.248307
_cell_length_b 9.341811
_cell_length_c 13.600837
_cell_angle_alpha 90.000000
_cell_angle_beta 141.124646
_cell_angle_gamma 90.000000
_cell_volume 1375.452696
_symmetry_space_group_name_H-M "C 2"
_symmetry_group_IT_number 5
_symmetry_cell_setting 'monoclinic'
loop_
_space_group_symop_operation_xyz
x,y,z
-x,y,-z
1/2+x,1/2+y,z
1/2-x,1/2+y,-z
loop_
_atom_site_type_symbol
_atom_site_label
_atom_site_fract_x
_atom_site_fract_y
_atom_site_fract_z
Si Si1 0.052276 0.676830 0.452129
Si Si2 0.707203 0.547349 0.367607
Si Si3 0.382813 0.954871 0.173341
Si Si4 0.630799 0.856020 0.325682
Si Si5 0.551043 0.294348 0.233519
Si Si6 0.275805 0.184283 0.930620
Si Si7 0.639721 0.058098 0.178397
O O1 0.187076 0.605484 0.601004
O O2 0.063244 0.774479 0.364144
O O3 0.000000 0.745039 0.500000
O O4 0.955631 0.551656 0.324697
O O5 0.648800 0.688708 0.357293
O O6 0.785590 0.444906 0.516755
O O7 0.595345 0.442943 0.230537
O O8 0.490593 0.907938 0.203683
O O9 0.323058 0.808754 0.152232
O O10 0.285183 0.058374 0.021488
O O11 0.670995 0.906615 0.257121
O O12 0.632104 0.172862 0.259321
O O13 0.409439 0.261063 0.069947
O O14 0.271839 0.110439 0.820330
O O15 0.500000 0.051189 0.000000
#
# Coordination Sequence:
#
# PCOD9121130 Si02
#       7
#     4   4   4   4   4   4   4
#     4  10  21  40  61  89 127 158 199 257 312 351
#     4  11  21  38  65  86 121 163 211 251 303 366
#     4  10  22  41  60  90 122 162 197 260 304 363
#     4  11  20  40  64  88 119 162 207 255 302 361
#     4  10  20  40  62  86 120 164 201 250 301 362
#     4  10  22  40  64  85 130 159 204 251 314 360
#     4  10  18  40  61  84 119 163 199 246 302 361
#
# _framework density 20.356935
#
# number of rings (size 3 to 8) (size 9 to 14) (size 15 to 20)
#    0.000    1.714    7.143    0.000    4.000    0.000 
#    5.143    2.143    0.000    0.000    0.000    0.000 
#    0.000    0.000    0.000    0.000    0.000    0.000 
#
# Total GULP energy -78042.212061 kJ/mol
# GULP energy per Si atom -5574.443719 kJ/mol
# Density = 2.031060 g / cm^3
# Si number density = 20.356935 Si / 1000 Ang^3
#
#
#
# Elastic Constant Matrix: (Units=GPa)
#
#
# Indices 1 2 3 4 5 6 
#
# 1 66.3312 4.0701 11.6891 0.0000 -7.3810 0.0000
# 2 4.0701 85.9148 4.0818 0.0000 10.3709 0.0000
# 3 11.6891 4.0818 14.7454 0.0000 -2.7727 0.0000
# 4 0.0000 0.0000 0.0000 15.0939 0.0000 10.1069
# 5 -7.3810 10.3709 -2.7727 0.0000 16.2710 0.0000
# 6 0.0000 0.0000 0.0000 10.1069 0.0000 31.4317
#
#
#
# Elastic Compliance Matrix: (Units=1/GPa)
#
#
# Indices 1 2 3 4 5 6 
#
# 1 0.018150 -0.001062 -0.012830 0.000000 0.006724 0.000000
# 2 -0.001062 0.013065 -0.004578 0.000000 -0.009589 0.000000
# 3 -0.012830 -0.004578 0.081316 0.000000 0.010955 0.000000
# 4 0.000000 0.000000 0.000000 0.084430 0.000000 -0.027149
# 5 0.006724 -0.009589 0.010955 0.000000 0.072488 0.000000
# 6 0.000000 0.000000 0.000000 -0.027149 0.000000 0.040545
#
#
# Mechanical properties :
#
#
# Convention : Reuss Voigt Hill
#
# Bulk Modulus (GPa) = 13.22905 22.96371 18.09638
# Shear Modulus (GPa) = 13.43616 22.36935 17.90275
#
# Velocity S-wave (km/s) = 2.57189 3.31850 2.96876
# Velocity P-wave (km/s) = 3.91563 5.09787 4.54535
#
# Compressibility (1/GPa) = 0.07559123
#
# Stress axis : x y z
#
# Youngs Moduli (GPa) = 55.09598 76.54178 12.29776
#
# Poissons Ratio (x) = 0.08128 0.15778
# Poissons Ratio (y) = 0.05851 0.05630
# Poissons Ratio (z) = 0.70687 0.35040
#
# Static dielectric constant tensor:
#      x y z
#    x 1.737890 0.000000 -0.007740 
#    y 0.000000 1.738930 0.000000 
#    z -0.007740 0.000000 1.777340 
# 
# From -- ./inp_files/55770.got.cif
#   From: 2010.05.17/outbox.cif.g08.bks.cpg/sg5_28_cif.got.tgz:55770.got - 2010.06.03 18:56:24.
