data_PCOD9121093
_publ_section_title
;
Structure prediction by ZEFSAII (Michael W. Deem and Ramdas Pophale) SiO2 
 PCOD9121093
Probable space group: C 2
;
_chemical_formula_sum "Si O2"
_cell_formula_units_Z 24
_cell_length_a 9.516119
_cell_length_b 18.469957
_cell_length_c 9.455824
_cell_angle_alpha 90.000000
_cell_angle_beta 46.050962
_cell_angle_gamma 90.000000
_cell_volume 1196.552940
_symmetry_space_group_name_H-M "C 2"
_symmetry_group_IT_number 5
_symmetry_cell_setting 'monoclinic'
loop_
_space_group_symop_operation_xyz
x,y,z
-x,y,-z
1/2+x,1/2+y,z
1/2-x,1/2+y,-z
loop_
_atom_site_type_symbol
_atom_site_label
_atom_site_fract_x
_atom_site_fract_y
_atom_site_fract_z
Si Si1 0.987034 0.545970 0.850183
Si Si2 0.579601 0.464015 0.102344
Si Si3 0.314925 0.438193 0.526356
Si Si4 0.076492 0.684735 0.607660
Si Si5 0.784241 0.804265 0.901598
Si Si6 0.875184 0.291777 0.310636
O O1 0.144703 0.481588 0.724424
O O2 0.048511 0.607970 0.699022
O O3 0.770111 0.514548 0.977840
O O4 0.000000 0.574729 0.000000
O O5 0.404651 0.482715 0.332771
O O6 0.639732 0.383396 0.110806
O O7 0.500000 0.463226 0.000000
O O8 0.500000 0.425244 0.500000
O O9 0.215496 0.362488 0.550596
O O10 0.289270 0.720122 0.441792
O O11 0.000000 0.681264 0.500000
O O12 0.948236 0.742906 0.784647
O O13 0.704619 0.802024 0.795211
O O14 0.605822 0.789046 0.131687
#
# Coordination Sequence:
#
# PCOD9121093 Si02
#       6
#     4   4   4   4   4   4
#     4  12  26  45  68  97 135 178 218 270 332 397
#     4  12  26  41  68 104 133 167 220 284 328 380
#     4  12  21  41  73  97 123 171 230 266 323 395
#     4  10  23  41  63  97 135 171 216 273 325 386
#     4  10  19  39  67  95 126 170 220 263 322 388
#     4  10  18  38  71  95 122 173 222 262 316 395
#
# _framework density 20.057615999999999
#
# number of rings (size 3 to 8) (size 9 to 14) (size 15 to 20)
#    0.000    1.000    6.667    0.500    2.333    2.000 
#    3.000    0.000    0.000    0.000    0.000    0.000 
#    0.000    0.000    0.000    0.000    0.000    0.000 
#
# Total GULP energy -67013.585550 kJ/mol
# GULP energy per Si atom -5584.465462 kJ/mol
# Density = 2.001196 g / cm^3
# Si number density = 20.057616 Si / 1000 Ang^3
#
#
#
# Elastic Constant Matrix: (Units=GPa)
#
#
# Indices 1 2 3 4 5 6 
#
# 1 45.5895 10.5854 35.5732 0.0000 1.7017 0.0000
# 2 10.5854 84.7284 28.0941 0.0000 -1.5634 0.0000
# 3 35.5732 28.0941 132.9326 0.0000 -13.0030 0.0000
# 4 0.0000 0.0000 0.0000 49.6895 0.0000 5.7375
# 5 1.7017 -1.5634 -13.0030 0.0000 26.4885 0.0000
# 6 0.0000 0.0000 0.0000 5.7375 0.0000 10.7226
#
#
#
# Elastic Compliance Matrix: (Units=1/GPa)
#
#
# Indices 1 2 3 4 5 6 
#
# 1 0.028650 -0.001028 -0.008021 0.000000 -0.005839 0.000000
# 2 -0.001028 0.012738 -0.002455 0.000000 -0.000387 0.000000
# 3 -0.008021 -0.002455 0.010740 0.000000 0.005642 0.000000
# 4 0.000000 0.000000 0.000000 0.021450 0.000000 -0.011478
# 5 -0.005839 -0.000387 0.005642 0.000000 0.040874 0.000000
# 6 0.000000 0.000000 0.000000 -0.011478 0.000000 0.099403
#
#
# Mechanical properties :
#
#
# Convention : Reuss Voigt Hill
#
# Bulk Modulus (GPa) = 34.33957 45.75065 40.04511
# Shear Modulus (GPa) = 20.27837 29.97996 25.12917
#
# Velocity S-wave (km/s) = 3.18308 3.87032 3.54340
# Velocity P-wave (km/s) = 5.53778 6.54459 6.06212
#
# Compressibility (1/GPa) = 0.02912093
#
# Stress axis : x y z
#
# Youngs Moduli (GPa) = 34.90407 78.50753 93.11220
#
# Poissons Ratio (x) = 0.08067 0.74683
# Poissons Ratio (y) = 0.03587 0.22858
# Poissons Ratio (z) = 0.27996 0.19273
#
# Static dielectric constant tensor:
#      x y z
#    x 1.694490 0.000000 0.004880 
#    y 0.000000 1.692850 0.000000 
#    z 0.004880 0.000000 1.734820 
# 
# From -- ./inp_files/16727.got.cif
#   From: 2010.05.17/outbox.cif.g08.bks.cpg/sg5_9_cif.got.tgz:16727.got - 2010.06.03 18:56:24.
