data_PCOD9121363
_publ_section_title
;
Structure prediction by ZEFSAII (Michael W. Deem and Ramdas Pophale) SiO2 
 PCOD9121363
Probable space group: C 2
;
_chemical_formula_sum "Si O2"
_cell_formula_units_Z 32
_cell_length_a 14.040012
_cell_length_b 14.871137
_cell_length_c 8.947601
_cell_angle_alpha 90.000000
_cell_angle_beta 54.650166
_cell_angle_gamma 90.000000
_cell_volume 1523.750798
_symmetry_space_group_name_H-M "C 2"
_symmetry_group_IT_number 5
_symmetry_cell_setting 'monoclinic'
loop_
_space_group_symop_operation_xyz
x,y,z
-x,y,-z
1/2+x,1/2+y,z
1/2-x,1/2+y,-z
loop_
_atom_site_type_symbol
_atom_site_label
_atom_site_fract_x
_atom_site_fract_y
_atom_site_fract_z
Si Si1 0.214004 0.214520 0.687747
Si Si2 0.269546 0.898568 0.844645
Si Si3 0.929457 0.480998 0.926198
Si Si4 0.886764 0.058018 0.032366
Si Si5 0.346382 0.265911 0.849424
Si Si6 0.715859 0.610916 0.161075
Si Si7 0.046998 0.631026 0.619018
Si Si8 0.627017 0.754583 0.456618
O O1 0.133335 0.148911 0.857637
O O2 0.282786 0.275185 0.746913
O O3 0.318351 0.156445 0.517060
O O4 0.140214 0.257690 0.622046
O O5 0.295382 0.833658 0.684959
O O6 0.382771 0.910903 0.846691
O O7 0.226522 0.996498 0.838253
O O8 0.169184 0.854677 0.039389
O O9 0.009876 0.556564 0.772907
O O10 0.813398 0.534013 0.088718
O O11 0.000000 0.441004 0.000000
O O12 0.887187 0.076250 0.854466
O O13 0.000000 0.013072 0.000000
O O14 0.473855 0.222883 0.716245
O O15 0.276407 0.189070 0.005527
O O16 0.673334 0.659456 0.348336
O O17 0.000000 0.598856 0.500000
O O18 0.500000 0.765376 0.500000
#
# Coordination Sequence:
#
# PCOD9121363 Si02
#       8
#     4   4   4   4   4   4   4   4
#     4  10  20  35  58  81 101 135 181 218 257 312
#     4  10  22  36  51  78 111 140 173 212 261 317
#     4  10  19  33  55  78 104 140 178 215 256 309
#     4  10  20  37  58  76 102 141 178 214 257 311
#     4   8  17  34  54  76 105 137 170 210 257 311
#     4   8  17  35  54  76 101 134 181 215 248 308
#     4   9  17  33  58  81 103 132 171 224 266 300
#     4  11  22  35  53  78 109 139 172 222 267 302
#
# _framework density 21.000810000000001
#
# number of rings (size 3 to 8) (size 9 to 14) (size 15 to 20)
#    0.000    2.500    0.000    3.750    0.000    3.500 
#    0.000    5.000    0.000    9.000    0.000    0.000 
#    0.000    0.000    0.000    0.000    0.000    0.000 
#
# Total GULP energy -89284.453052 kJ/mol
# GULP energy per Si atom -5580.278316 kJ/mol
# Density = 2.095301 g / cm^3
# Si number density = 21.000810 Si / 1000 Ang^3
#
#
#
# Elastic Constant Matrix: (Units=GPa)
#
#
# Indices 1 2 3 4 5 6 
#
# 1 88.7370 -6.9343 13.4780 0.0000 19.2133 0.0000
# 2 -6.9343 34.6739 5.8403 0.0000 14.5320 0.0000
# 3 13.4780 5.8403 50.0373 0.0000 10.3820 0.0000
# 4 0.0000 0.0000 0.0000 20.1463 0.0000 3.3575
# 5 19.2133 14.5320 10.3820 0.0000 32.2622 0.0000
# 6 0.0000 0.0000 0.0000 3.3575 0.0000 3.4292
#
#
#
# Elastic Compliance Matrix: (Units=1/GPa)
#
#
# Indices 1 2 3 4 5 6 
#
# 1 0.014858 0.008339 -0.002529 0.000000 -0.011791 0.000000
# 2 0.008339 0.040268 -0.002306 0.000000 -0.022362 0.000000
# 3 -0.002529 -0.002306 0.021868 0.000000 -0.004492 0.000000
# 4 0.000000 0.000000 0.000000 0.059315 0.000000 -0.058074
# 5 -0.011791 -0.022362 -0.004492 0.000000 0.049536 0.000000
# 6 0.000000 0.000000 0.000000 -0.058074 0.000000 0.348470
#
#
# Mechanical properties :
#
#
# Convention : Reuss Voigt Hill
#
# Bulk Modulus (GPa) = 11.90467 22.02403 16.96435
# Shear Modulus (GPa) = 9.00401 21.90516 15.45459
#
# Velocity S-wave (km/s) = 2.07286 3.23315 2.71570
# Velocity P-wave (km/s) = 3.37787 4.94446 4.23425
#
# Compressibility (1/GPa) = 0.08400068
#
# Stress axis : x y z
#
# Youngs Moduli (GPa) = 67.30403 24.83345 45.72992
#
# Poissons Ratio (x) = -0.20708 0.11565
# Poissons Ratio (y) = -0.56124 0.10547
# Poissons Ratio (z) = 0.17021 0.05728
#
# Static dielectric constant tensor:
#      x y z
#    x 1.774320 0.000000 0.001150 
#    y 0.000000 1.762970 0.000000 
#    z 0.001150 0.000000 1.757290 
# 
# From -- ./inp_files/24629.got.cif
#   From: 2010.05.17/outbox.cif.g08.bks.cpg/sg5_13_cif.got.tgz:24629.got - 2010.06.03 18:56:24.
