data_PCOD9121009
_publ_section_title
;
Structure prediction by ZEFSAII (Michael W. Deem and Ramdas Pophale) SiO2 
 PCOD9121009
Probable space group: C 2
;
_chemical_formula_sum "Si O2"
_cell_formula_units_Z 30
_cell_length_a 15.426049
_cell_length_b 9.907247
_cell_length_c 27.062574
_cell_angle_alpha 90.000000
_cell_angle_beta 157.980369
_cell_angle_gamma 90.000000
_cell_volume 1550.673367
_symmetry_space_group_name_H-M "C 2"
_symmetry_group_IT_number 5
_symmetry_cell_setting 'monoclinic'
loop_
_space_group_symop_operation_xyz
x,y,z
-x,y,-z
1/2+x,1/2+y,z
1/2-x,1/2+y,-z
loop_
_atom_site_type_symbol
_atom_site_label
_atom_site_fract_x
_atom_site_fract_y
_atom_site_fract_z
Si Si1 0.773172 0.721970 0.197664
Si Si2 0.101644 0.241504 0.781427
Si Si3 0.430665 0.318689 0.028618
Si Si4 0.300709 0.623853 0.951670
Si Si5 0.000000 0.169294 0.500000
Si Si6 0.336782 0.005147 0.604202
Si Si7 0.846489 0.698704 0.764690
Si Si8 0.960686 0.012356 0.324592
O O1 0.740913 0.699581 0.121924
O O2 0.850840 0.872304 0.249924
O O3 0.964622 0.607897 0.309225
O O4 0.528185 0.693283 0.094436
O O5 0.342360 0.267665 0.879842
O O6 0.943610 0.370879 0.685298
O O7 0.997109 0.108419 0.700659
O O8 0.201526 0.236062 0.890240
O O9 0.518431 0.309104 0.131187
O O10 0.374717 0.470088 0.983584
O O11 0.060079 0.622399 0.852623
O O12 0.174296 0.079257 0.558844
O O13 0.164893 0.245315 0.626638
O O14 0.183153 0.976095 0.474940
O O15 0.705516 0.598353 0.726378
#
# Coordination Sequence:
#
# PCOD9121009 Si02
#       8
#     4   4   4   4   2   4   4   4
#     4  11  21  38  62  89 116 161 204 249 298 361
#     4  10  18  38  59  84 117 157 200 251 297 358
#     4  10  19  35  60  84 113 162 204 241 305 361
#     4  11  21  38  60  85 122 159 201 252 301 359
#     4  10  20  38  60  90 118 160 204 248 302 370
#     4  11  19  39  64  84 121 162 205 242 304 371
#     4  10  22  37  58  89 124 159 198 254 309 359
#     4  10  24  35  60  94 122 156 205 256 300 352
#
# _framework density 19.346435
#
# number of rings (size 3 to 8) (size 9 to 14) (size 15 to 20)
#    0.000    1.600    4.000    1.600    1.867    4.267 
#    0.000    0.000    0.000    0.800    0.000    0.000 
#    0.000    0.000    0.000    0.000    0.000    0.000 
#
# Total GULP energy -83534.020740 kJ/mol
# GULP energy per Si atom -5568.934716 kJ/mol
# Density = 1.930240 g / cm^3
# Si number density = 19.346435 Si / 1000 Ang^3
#
#
#
# Elastic Constant Matrix: (Units=GPa)
#
#
# Indices 1 2 3 4 5 6 
#
# 1 28.1873 4.2386 36.8206 -0.0036 -16.4630 -0.0027
# 2 4.2386 55.5481 45.0934 -0.0044 -18.6587 -0.0020
# 3 36.8206 45.0934 151.3982 0.0007 -24.7871 -0.0038
# 4 -0.0036 -0.0044 0.0007 25.3078 -0.0026 -6.7456
# 5 -16.4630 -18.6587 -24.7871 -0.0026 32.4309 -0.0028
# 6 -0.0027 -0.0020 -0.0038 -6.7456 -0.0028 4.8954
#
#
#
# Elastic Compliance Matrix: (Units=1/GPa)
#
#
# Indices 1 2 3 4 5 6 
#
# 1 0.081617 0.023584 -0.020425 0.000058 0.039389 0.000142
# 2 0.023584 0.033385 -0.012087 0.000031 0.021942 0.000073
# 3 -0.020425 -0.012087 0.014101 -0.000014 -0.006545 -0.000028
# 4 0.000058 0.000031 -0.000014 0.062450 0.000049 0.086052
# 5 0.039389 0.021942 -0.006545 0.000049 0.058451 0.000127
# 6 0.000142 0.000073 -0.000028 0.086052 0.000127 0.322845
#
#
# Mechanical properties :
#
#
# Convention : Reuss Voigt Hill
#
# Bulk Modulus (GPa) = 8.98899 45.27096 27.12998
# Shear Modulus (GPa) = 7.96446 22.45888 15.21167
#
# Velocity S-wave (km/s) = 2.03118 3.41086 2.80711
# Velocity P-wave (km/s) = 3.18706 6.24203 4.95582
#
# Compressibility (1/GPa) = 0.11124726
#
# Stress axis : x y z
#
# Youngs Moduli (GPa) = 12.25230 29.95334 70.91636
#
# Poissons Ratio (x) = -0.70642 1.44848
# Poissons Ratio (y) = -0.28896 0.85717
# Poissons Ratio (z) = 0.25026 0.36205
#
# Static dielectric constant tensor:
#      x y z
#    x 1.754790 0.000000 -0.054780 
#    y 0.000000 1.650700 0.000000 
#    z -0.054780 0.000000 1.766720 
# 
# From -- ./inp_files/72131.got.cif
#   From: 2010.05.17/outbox.cif.g08.bks.cpg/sg5_37_cif.got.tgz:72131.got - 2010.06.03 18:56:24.
