data_PCOD9121931
_publ_section_title
;
Structure prediction by ZEFSAII (Michael W. Deem and Ramdas Pophale) SiO2 
 PCOD9121931
Probable space group: C 2
;
_chemical_formula_sum "Si O2"
_cell_formula_units_Z 26
_cell_length_a 10.155148
_cell_length_b 14.710055
_cell_length_c 8.911500
_cell_angle_alpha 90.000000
_cell_angle_beta 78.733045
_cell_angle_gamma 90.000000
_cell_volume 1305.568674
_symmetry_space_group_name_H-M "C 2"
_symmetry_group_IT_number 5
_symmetry_cell_setting 'monoclinic'
loop_
_space_group_symop_operation_xyz
x,y,z
-x,y,-z
1/2+x,1/2+y,z
1/2-x,1/2+y,-z
loop_
_atom_site_type_symbol
_atom_site_label
_atom_site_fract_x
_atom_site_fract_y
_atom_site_fract_z
Si Si1 0.768448 0.134820 0.795709
Si Si2 0.555979 0.270973 0.283174
Si Si3 0.069844 0.397145 0.625113
Si Si4 0.000000 0.669037 0.000000
Si Si5 0.769935 0.734696 0.488559
Si Si6 0.878414 0.319230 0.915875
Si Si7 0.715572 0.442795 0.184266
O O1 0.617222 0.115706 0.889633
O O2 0.778475 0.156763 0.615462
O O3 0.811996 0.227426 0.868521
O O4 0.842285 0.042898 0.827412
O O5 0.402591 0.270659 0.371787
O O6 0.659516 0.215066 0.366514
O O7 0.606036 0.373404 0.269911
O O8 0.561285 0.230480 0.116996
O O9 0.153789 0.308933 0.545235
O O10 0.174239 0.449788 0.706692
O O11 0.000000 0.445597 0.500000
O O12 0.949385 0.366750 0.759685
O O13 0.784665 0.389973 0.028610
O O14 0.000000 0.293786 0.000000
#
# Coordination Sequence:
#
# PCOD9121931 Si02
#       7
#     4   4   4   2   4   4   4
#     4  11  21  38  60  90 115 155 201 248 296 349
#     4   9  18  38  59  82 117 155 196 239 300 340
#     4  10  19  37  61  81 117 158 192 232 304 354
#     4  10  20  34  62  82 118 158 192 248 292 348
#     4   9  19  36  60  84 113 158 193 243 294 356
#     4  10  21  39  60  83 121 158 193 245 298 352
#     4  10  22  38  60  88 116 154 200 247 291 352
#
# _framework density 19.914694000000001
#
# number of rings (size 3 to 8) (size 9 to 14) (size 15 to 20)
#    0.000    2.154    3.077    0.000    3.231    0.000 
#    6.923    6.154    0.000    0.000    0.000    0.000 
#    0.000    0.000    0.000    0.000    0.000    0.000 
#
# Total GULP energy -72403.665505 kJ/mol
# GULP energy per Si atom -5569.512731 kJ/mol
# Density = 1.986937 g / cm^3
# Si number density = 19.914694 Si / 1000 Ang^3
#
#
#
# Elastic Constant Matrix: (Units=GPa)
#
#
# Indices 1 2 3 4 5 6 
#
# 1 25.1538 1.3756 13.5001 0.0000 4.0728 0.0000
# 2 1.3756 78.6782 27.3300 0.0000 11.2527 0.0000
# 3 13.5001 27.3300 112.0427 0.0000 20.9590 0.0000
# 4 0.0000 0.0000 0.0000 21.5618 0.0000 0.1627
# 5 4.0728 11.2527 20.9590 0.0000 26.0187 0.0000
# 6 0.0000 0.0000 0.0000 0.1627 0.0000 7.6263
#
#
#
# Elastic Compliance Matrix: (Units=1/GPa)
#
#
# Indices 1 2 3 4 5 6 
#
# 1 0.042844 0.001430 -0.004876 0.000000 -0.003398 0.000000
# 2 0.001430 0.014271 -0.002893 0.000000 -0.004066 0.000000
# 3 -0.004876 -0.002893 0.011588 0.000000 -0.007320 0.000000
# 4 0.000000 0.000000 0.000000 0.046386 0.000000 -0.000989
# 5 -0.003398 -0.004066 -0.007320 0.000000 0.046620 0.000000
# 6 0.000000 0.000000 0.000000 -0.000989 0.000000 0.131145
#
#
# Mechanical properties :
#
#
# Convention : Reuss Voigt Hill
#
# Bulk Modulus (GPa) = 17.84861 33.36513 25.60687
# Shear Modulus (GPa) = 15.42226 22.61930 19.02078
#
# Velocity S-wave (km/s) = 2.78585 3.37383 3.09384
# Velocity P-wave (km/s) = 4.39658 5.65397 5.06445
#
# Compressibility (1/GPa) = 0.05602677
#
# Stress axis : x y z
#
# Youngs Moduli (GPa) = 23.34040 70.07029 86.29927
#
# Poissons Ratio (x) = -0.10023 0.42077
# Poissons Ratio (y) = -0.03339 0.24966
# Poissons Ratio (z) = 0.11380 0.20271
#
# Static dielectric constant tensor:
#      x y z
#    x 1.732210 0.000000 0.021570 
#    y 0.000000 1.706160 0.000000 
#    z 0.021570 0.000000 1.758920 
# 
# From -- ./inp_files/20027.got.cif
#   From: 2010.05.17/outbox.cif.g08.bks.cpg/sg5_11_cif.got.tgz:20027.got - 2010.06.03 18:56:24.
