data_PCOD9121029
_publ_section_title
;
Structure prediction by ZEFSAII (Michael W. Deem and Ramdas Pophale) SiO2 
 PCOD9121029
Probable space group: C 2
;
_chemical_formula_sum "Si O2"
_cell_formula_units_Z 30
_cell_length_a 11.855954
_cell_length_b 9.070835
_cell_length_c 14.073435
_cell_angle_alpha 90.000000
_cell_angle_beta 49.532553
_cell_angle_gamma 90.000000
_cell_volume 1151.436576
_symmetry_space_group_name_H-M "C 2"
_symmetry_group_IT_number 5
_symmetry_cell_setting 'monoclinic'
loop_
_space_group_symop_operation_xyz
x,y,z
-x,y,-z
1/2+x,1/2+y,z
1/2-x,1/2+y,-z
loop_
_atom_site_type_symbol
_atom_site_label
_atom_site_fract_x
_atom_site_fract_y
_atom_site_fract_z
Si Si1 0.153526 0.409620 0.969437
Si Si2 0.319070 0.666320 0.775682
Si Si3 0.481695 0.976260 0.239268
Si Si4 0.000000 0.976476 0.000000
Si Si5 0.537855 0.297072 0.170209
Si Si6 0.715446 0.004697 0.255914
Si Si7 0.660039 0.464861 0.420494
Si Si8 0.127853 0.059408 0.646100
O O1 0.211709 0.570895 0.902277
O O2 0.296118 0.305933 0.878754
O O3 0.108504 0.406579 0.104260
O O4 0.000000 0.377895 0.000000
O O5 0.269833 0.826530 0.767191
O O6 0.345832 0.571021 0.666598
O O7 0.483319 0.663983 0.733574
O O8 0.553069 0.022430 0.300756
O O9 0.323821 0.895674 0.324695
O O10 0.468196 0.137278 0.197619
O O11 0.143318 0.061285 0.882234
O O12 0.952048 0.880461 0.935670
O O13 0.439145 0.397308 0.293166
O O14 0.743345 0.066326 0.345692
O O15 0.500000 0.384296 0.500000
O O16 0.673393 0.555329 0.511726
#
# Coordination Sequence:
#
# PCOD9121029 Si02
#       8
#     4   4   4   2   4   4   4   4
#     4  11  22  39  68 100 134 171 226 273 341 431
#     4  10  21  42  71  98 129 179 230 280 346 413
#     4  12  24  41  67 101 137 176 226 277 355 414
#     4  10  18  38  62  92 128 174 216 264 338 402
#     4  10  22  41  65  96 135 175 218 282 341 409
#     4  11  23  41  66 102 135 177 225 286 346 423
#     4  10  21  43  69  93 127 173 233 285 326 400
#     4   9  22  42  65  94 132 174 233 284 332 394
#
# _framework density 26.054409
#
# number of rings (size 3 to 8) (size 9 to 14) (size 15 to 20)
#    0.000    1.600    2.667    2.400    1.867    0.533 
#   15.600    0.000    8.800    0.000    0.000    0.000 
#    0.000    0.000    0.000    0.000    0.000    0.000 
#
# Total GULP energy -83829.376631 kJ/mol
# GULP energy per Si atom -5588.625109 kJ/mol
# Density = 2.599511 g / cm^3
# Si number density = 26.054409 Si / 1000 Ang^3
#
#
#
# Elastic Constant Matrix: (Units=GPa)
#
#
# Indices 1 2 3 4 5 6 
#
# 1 202.9623 17.9786 42.7938 0.0000 -7.9911 0.0000
# 2 17.9786 64.2769 15.1960 0.0000 -9.7682 0.0000
# 3 42.7938 15.1960 100.4909 0.0000 -2.6465 0.0000
# 4 0.0000 0.0000 0.0000 0.4889 0.0000 -7.9509
# 5 -7.9911 -9.7682 -2.6465 0.0000 53.0852 0.0000
# 6 0.0000 0.0000 0.0000 -7.9509 0.0000 44.0161
#
#
#
# Elastic Compliance Matrix: (Units=1/GPa)
#
#
# Indices 1 2 3 4 5 6 
#
# 1 0.005492 -0.000937 -0.002183 0.000000 0.000545 0.000000
# 2 -0.000937 0.016737 -0.002057 0.000000 0.002836 0.000000
# 3 -0.002183 -0.002057 0.011188 0.000000 -0.000149 0.000000
# 4 0.000000 0.000000 0.000000 -1.055544 0.000000 -0.190670
# 5 0.000545 0.002836 -0.000149 0.000000 0.019434 0.000000
# 6 0.000000 0.000000 0.000000 -0.190670 0.000000 -0.011723
#
#
# Mechanical properties :
#
#
# Convention : Reuss Voigt Hill
#
# Bulk Modulus (GPa) = 43.35982 57.74075 50.55029
# Shear Modulus (GPa) = -5.01819 38.96881 16.97531
#
# Velocity S-wave (km/s) = -1.38932 3.87159 2.55528
# Velocity P-wave (km/s) = 3.75560 6.49579 5.30565
#
# Compressibility (1/GPa) = 0.02306283
#
# Stress axis : x y z
#
# Youngs Moduli (GPa) = 182.09314 59.74719 89.38370
#
# Poissons Ratio (x) = 0.05599 0.19508
# Poissons Ratio (y) = 0.17066 0.18388
# Poissons Ratio (z) = 0.39743 0.12291
#
# Static dielectric constant tensor:
#      x y z
#    x 2.200580 0.000000 -0.003160 
#    y 0.000000 2.078910 0.000000 
#    z -0.003160 0.000000 2.001020 
# 
# From -- ./inp_files/52884.got.cif
#   From: 2010.05.17/outbox.cif.g08.bks.cpg/sg5_27_cif.got.tgz:52884.got - 2010.06.03 18:56:24.
