data_PCOD9121479
_publ_section_title
;
Structure prediction by ZEFSAII (Michael W. Deem and Ramdas Pophale) SiO2 
 PCOD9121479
Probable space group: C 2
;
_chemical_formula_sum "Si O2"
_cell_formula_units_Z 28
_cell_length_a 8.119919
_cell_length_b 33.503699
_cell_length_c 5.275693
_cell_angle_alpha 90.000000
_cell_angle_beta 121.033065
_cell_angle_gamma 90.000000
_cell_volume 1229.812420
_symmetry_space_group_name_H-M "C 2"
_symmetry_group_IT_number 5
_symmetry_cell_setting 'monoclinic'
loop_
_space_group_symop_operation_xyz
x,y,z
-x,y,-z
1/2+x,1/2+y,z
1/2-x,1/2+y,-z
loop_
_atom_site_type_symbol
_atom_site_label
_atom_site_fract_x
_atom_site_fract_y
_atom_site_fract_z
Si Si1 0.723850 0.463350 0.640967
Si Si2 0.868259 0.635234 0.645099
Si Si3 0.368161 0.047897 0.644290
Si Si4 0.733724 0.425651 0.145035
Si Si5 0.728762 0.758285 0.158415
Si Si6 0.128224 0.845093 0.851670
Si Si7 0.724139 0.719891 0.652156
O O1 0.500000 0.453379 0.500000
O O2 0.739526 0.508697 0.560302
O O3 0.806822 0.435069 0.484951
O O4 0.802788 0.456958 0.987217
O O5 0.769790 0.591601 0.554274
O O6 0.740903 0.674400 0.575230
O O7 0.000000 0.639062 0.500000
O O8 0.000000 0.634877 0.000000
O O9 0.500000 0.044936 0.500000
O O10 0.500000 0.047535 0.000000
O O11 0.500000 0.428738 0.000000
O O12 0.760628 0.382328 0.040322
O O13 0.765231 0.804076 0.121835
O O14 0.808693 0.747500 0.498005
O O15 0.500000 0.751798 0.000000
O O16 0.803438 0.729475 0.993604
O O17 0.000000 0.855203 0.500000
O O18 0.000000 0.838132 0.000000
O O19 0.500000 0.729939 0.500000
#
# Coordination Sequence:
#
# PCOD9121479 Si02
#       7
#     4   4   4   4   4   4   4
#     4  10  19  34  57  78 102 140 180 216 259 315
#     4  10  21  36  56  80 109 141 176 221 268 313
#     4  10  21  37  54  79 113 142 171 219 273 316
#     4   9  18  33  53  79 106 133 174 225 265 300
#     4  10  22  38  54  78 113 144 173 220 274 316
#     4  11  21  35  57  82 106 140 183 224 263 314
#     4  10  21  37  56  78 108 144 179 219 266 316
#
# _framework density 22.767702
#
# number of rings (size 3 to 8) (size 9 to 14) (size 15 to 20)
#    0.000    2.000    0.000    4.714    0.000    4.000 
#    0.000    2.143    0.000   10.286    0.000    0.000 
#    0.000    0.000    0.000    0.000    0.000    0.000 
#
# Total GULP energy -78208.695586 kJ/mol
# GULP energy per Si atom -5586.335399 kJ/mol
# Density = 2.271588 g / cm^3
# Si number density = 22.767702 Si / 1000 Ang^3
#
#
#
# Elastic Constant Matrix: (Units=GPa)
#
#
# Indices 1 2 3 4 5 6 
#
# 1 65.8243 28.8329 43.5578 0.0000 -36.1648 0.0000
# 2 28.8329 135.8030 24.6959 0.0000 -49.1420 0.0000
# 3 43.5578 24.6959 135.8248 0.0000 -44.3577 0.0000
# 4 0.0000 0.0000 0.0000 35.0229 0.0000 -10.0812
# 5 -36.1648 -49.1420 -44.3577 0.0000 41.6591 0.0000
# 6 0.0000 0.0000 0.0000 -10.0812 0.0000 37.0590
#
#
#
# Elastic Compliance Matrix: (Units=1/GPa)
#
#
# Indices 1 2 3 4 5 6 
#
# 1 0.031277 0.005537 -0.000056 0.000000 0.033623 0.000000
# 2 0.005537 0.015427 0.004496 0.000000 0.027792 0.000000
# 3 -0.000056 0.004496 0.012693 0.000000 0.018769 0.000000
# 4 0.000000 0.000000 0.000000 0.030978 0.000000 0.008427
# 5 0.033623 0.027792 0.018769 0.000000 0.105962 0.000000
# 6 0.000000 0.000000 0.000000 0.008427 0.000000 0.029276
#
#
# Mechanical properties :
#
#
# Convention : Reuss Voigt Hill
#
# Bulk Modulus (GPa) = 12.60247 59.06948 35.83597
# Shear Modulus (GPa) = 21.54131 38.77257 30.15694
#
# Velocity S-wave (km/s) = 3.07927 4.13118 3.64338
# Velocity P-wave (km/s) = 4.26495 6.98257 5.78559
#
# Compressibility (1/GPa) = 0.07934954
#
# Stress axis : x y z
#
# Youngs Moduli (GPa) = 31.97228 64.81982 78.78513
#
# Poissons Ratio (x) = -0.35889 0.00443
# Poissons Ratio (y) = -0.17702 -0.35419
# Poissons Ratio (z) = 0.00180 -0.29141
#
# Static dielectric constant tensor:
#      x y z
#    x 1.851770 0.000000 0.012280 
#    y 0.000000 1.851300 0.000000 
#    z 0.012280 0.000000 1.876360 
# 
# From -- ./inp_files/3769.got.cif
#   From: 2010.05.17/outbox.cif.g08.bks.cpg/sg5_2_cif.got.tgz:3769.got - 2010.06.03 18:56:24.
