data_PCOD9121617
_publ_section_title
;
Structure prediction by ZEFSAII (Michael W. Deem and Ramdas Pophale) SiO2 
 PCOD9121617
Probable space group: C 2
;
_chemical_formula_sum "Si O2"
_cell_formula_units_Z 26
_cell_length_a 8.593634
_cell_length_b 21.260816
_cell_length_c 10.223417
_cell_angle_alpha 90.000000
_cell_angle_beta 135.529523
_cell_angle_gamma 90.000000
_cell_volume 1308.539449
_symmetry_space_group_name_H-M "C 2"
_symmetry_group_IT_number 5
_symmetry_cell_setting 'monoclinic'
loop_
_space_group_symop_operation_xyz
x,y,z
-x,y,-z
1/2+x,1/2+y,z
1/2-x,1/2+y,-z
loop_
_atom_site_type_symbol
_atom_site_label
_atom_site_fract_x
_atom_site_fract_y
_atom_site_fract_z
Si Si1 0.243043 0.875000 0.107044
Si Si2 0.000000 0.995797 0.000000
Si Si3 0.097759 0.111223 0.229285
Si Si4 0.165943 0.822569 0.796554
Si Si5 0.195768 0.679752 0.899321
Si Si6 0.189628 0.308756 0.417676
Si Si7 0.218202 0.167714 0.548268
O O1 0.262612 0.869424 0.961783
O O2 0.450281 0.840143 0.297559
O O3 0.207891 0.948122 0.119808
O O4 0.000000 0.846014 0.000000
O O5 0.970152 0.042550 0.860366
O O6 0.233365 0.145489 0.194102
O O7 0.230052 0.115995 0.441773
O O8 0.871632 0.152317 0.106245
O O9 0.213809 0.754056 0.887835
O O10 0.259943 0.818441 0.706302
O O11 0.902634 0.836022 0.622313
O O12 0.938622 0.666588 0.767106
O O13 0.200469 0.235373 0.463989
O O14 0.000000 0.158490 0.500000
#
# Coordination Sequence:
#
# PCOD9121617 Si02
#       7
#     4   2   4   4   4   4   4
#     4  10  22  36  56  84 111 152 192 236 279 320
#     4   8  22  40  60  82 106 154 206 238 262 332
#     4  10  19  40  63  77 112 153 200 229 280 335
#     4  10  19  35  58  84 118 147 187 223 290 353
#     4   9  19  34  58  88 111 149 184 229 288 354
#     4  10  21  35  56  88 120 149 177 234 290 355
#     4  11  22  33  57  92 122 143 178 241 295 341
#
# _framework density 19.869482000000001
#
# number of rings (size 3 to 8) (size 9 to 14) (size 15 to 20)
#    0.462    1.846    1.538    1.846    6.462    0.615 
#    0.000    6.154   16.923    0.000    0.000    0.000 
#    0.000    0.000    0.000    0.000    0.000    0.000 
#
# Total GULP energy -72485.160045 kJ/mol
# GULP energy per Si atom -5575.781542 kJ/mol
# Density = 1.982426 g / cm^3
# Si number density = 19.869482 Si / 1000 Ang^3
#
#
#
# Elastic Constant Matrix: (Units=GPa)
#
#
# Indices 1 2 3 4 5 6 
#
# 1 37.0366 0.7817 -3.1552 0.0000 16.4358 0.0000
# 2 0.7817 66.5385 32.0435 0.0000 14.3237 0.0000
# 3 -3.1552 32.0435 72.5672 0.0000 22.8668 0.0000
# 4 0.0000 0.0000 0.0000 5.6294 0.0000 4.1290
# 5 16.4358 14.3237 22.8668 0.0000 40.5686 0.0000
# 6 0.0000 0.0000 0.0000 4.1290 0.0000 10.5334
#
#
#
# Elastic Compliance Matrix: (Units=1/GPa)
#
#
# Indices 1 2 3 4 5 6 
#
# 1 0.035980 0.000023 0.007478 0.000000 -0.018800 0.000000
# 2 0.000023 0.019285 -0.007741 0.000000 -0.002455 0.000000
# 3 0.007478 -0.007741 0.021422 0.000000 -0.012371 0.000000
# 4 0.000000 0.000000 0.000000 0.249323 0.000000 -0.097733
# 5 -0.018800 -0.002455 -0.012371 0.000000 0.040106 0.000000
# 6 0.000000 0.000000 0.000000 -0.097733 0.000000 0.133246
#
#
# Mechanical properties :
#
#
# Convention : Reuss Voigt Hill
#
# Bulk Modulus (GPa) = 13.12209 26.16473 19.64341
# Shear Modulus (GPa) = 9.51938 21.11109 15.31524
#
# Velocity S-wave (km/s) = 2.19120 3.26312 2.77933
# Velocity P-wave (km/s) = 3.60836 5.23394 4.49524
#
# Compressibility (1/GPa) = 0.07620734
#
# Stress axis : x y z
#
# Youngs Moduli (GPa) = 27.79335 51.85358 46.68086
#
# Poissons Ratio (x) = -0.00119 -0.34910
# Poissons Ratio (y) = -0.00064 0.36136
# Poissons Ratio (z) = -0.20785 0.40140
#
# Static dielectric constant tensor:
#      x y z
#    x 1.746260 0.000000 0.020690 
#    y 0.000000 1.673620 0.000000 
#    z 0.020690 0.000000 1.737110 
# 
# From -- ./inp_files/37501.got.cif
#   From: 2010.05.17/outbox.cif.g08.bks.cpg/sg5_19_cif.got.tgz:37501.got - 2010.06.03 18:56:24.
