data_PCOD9121977
_publ_section_title
;
Structure prediction by ZEFSAII (Michael W. Deem and Ramdas Pophale) SiO2 
 PCOD9121977
Probable space group: C 2
;
_chemical_formula_sum "Si O2"
_cell_formula_units_Z 32
_cell_length_a 14.338854
_cell_length_b 21.185157
_cell_length_c 8.312887
_cell_angle_alpha 90.000000
_cell_angle_beta 34.251822
_cell_angle_gamma 90.000000
_cell_volume 1421.268663
_symmetry_space_group_name_H-M "C 2"
_symmetry_group_IT_number 5
_symmetry_cell_setting 'monoclinic'
loop_
_space_group_symop_operation_xyz
x,y,z
-x,y,-z
1/2+x,1/2+y,z
1/2-x,1/2+y,-z
loop_
_atom_site_type_symbol
_atom_site_label
_atom_site_fract_x
_atom_site_fract_y
_atom_site_fract_z
Si Si1 0.347285 0.425950 0.920865
Si Si2 0.783220 0.911198 0.628416
Si Si3 0.323082 0.802325 0.817512
Si Si4 0.039191 0.065509 0.130820
Si Si5 0.830538 0.278175 0.191478
Si Si6 0.685164 0.047524 0.776654
Si Si7 0.489178 0.228734 0.703009
Si Si8 0.138664 0.591915 0.187434
O O1 0.311525 0.422650 0.779887
O O2 0.529952 0.397993 0.694588
O O3 0.377991 0.496842 0.942162
O O4 0.213370 0.375754 0.175136
O O5 0.680079 0.850196 0.731470
O O6 0.704409 0.976359 0.680489
O O7 0.500000 0.782217 0.500000
O O8 0.327919 0.788512 0.002583
O O9 0.160482 0.763661 0.995509
O O10 0.862725 0.076849 0.470385
O O11 0.191387 0.110212 0.964223
O O12 0.000000 0.066890 0.000000
O O13 0.675059 0.242344 0.489669
O O14 0.000000 0.246403 0.000000
O O15 0.500000 0.071987 0.000000
O O16 0.683269 0.050310 0.971352
O O17 0.500000 0.251787 0.500000
O O18 0.446010 0.155551 0.755512
O O19 0.000000 0.561339 0.500000
#
# Coordination Sequence:
#
# PCOD9121977 Si02
#       8
#     4   4   4   4   4   4   4   4
#     4   9  17  34  57  87 124 165 201 253 320 380
#     4   9  16  33  62  87 121 168 202 255 311 387
#     4  10  20  37  58  89 123 162 211 259 317 374
#     4  11  23  41  63  92 130 171 220 272 326 388
#     4  10  19  37  63  92 121 162 216 258 314 382
#     4  11  22  39  61  95 131 167 218 263 327 390
#     4   9  20  41  65  86 121 171 215 256 315 386
#     4  11  23  42  65  92 126 173 219 269 326 385
#
# _framework density 22.515094000000001
#
# number of rings (size 3 to 8) (size 9 to 14) (size 15 to 20)
#    0.000    2.000    2.500    1.500    0.000    1.500 
#    9.000   11.250    0.000    0.000    0.000    0.000 
#    0.000    0.000    0.000    0.000    0.000    0.000 
#
# Total GULP energy -89158.875741 kJ/mol
# GULP energy per Si atom -5572.429734 kJ/mol
# Density = 2.246385 g / cm^3
# Si number density = 22.515094 Si / 1000 Ang^3
#
#
#
# Elastic Constant Matrix: (Units=GPa)
#
#
# Indices 1 2 3 4 5 6 
#
# 1 70.2554 6.7386 35.1318 0.0000 -24.9909 0.0000
# 2 6.7386 45.6423 33.3293 0.0000 -12.0613 0.0000
# 3 35.1318 33.3293 171.4578 0.0000 -31.0798 0.0000
# 4 0.0000 0.0000 0.0000 18.7771 0.0000 2.7036
# 5 -24.9909 -12.0613 -31.0798 0.0000 41.9964 0.0000
# 6 0.0000 0.0000 0.0000 2.7036 0.0000 -1.2699
#
#
#
# Elastic Compliance Matrix: (Units=1/GPa)
#
#
# Indices 1 2 3 4 5 6 
#
# 1 0.018777 0.001561 -0.002361 0.000000 0.009875 0.000000
# 2 0.001561 0.026331 -0.004503 0.000000 0.005159 0.000000
# 3 -0.002361 -0.004503 0.007741 0.000000 0.003030 0.000000
# 4 0.000000 0.000000 0.000000 0.040761 0.000000 0.086782
# 5 0.009875 0.005159 0.003030 0.000000 0.033412 0.000000
# 6 0.000000 0.000000 0.000000 0.086782 0.000000 -0.602718
#
#
# Mechanical properties :
#
#
# Convention : Reuss Voigt Hill
#
# Bulk Modulus (GPa) = 23.67257 48.63944 36.15600
# Shear Modulus (GPa) = -11.08623 26.04444 7.47910
#
# Velocity S-wave (km/s) = -2.22140 3.40480 1.82456
# Velocity P-wave (km/s) = 1.98933 6.09154 4.53124
#
# Compressibility (1/GPa) = 0.04224299
#
# Stress axis : x y z
#
# Youngs Moduli (GPa) = 53.25568 37.97877 129.18604
#
# Poissons Ratio (x) = -0.05930 0.30500
# Poissons Ratio (y) = -0.08315 0.58175
# Poissons Ratio (z) = 0.12573 0.17102
#
# Static dielectric constant tensor:
#      x y z
#    x 1.900930 0.000000 -0.047220 
#    y 0.000000 1.901430 0.000000 
#    z -0.047220 0.000000 1.884020 
# 
# From -- ./inp_files/25607.got.cif
#   From: 2010.05.17/outbox.cif.g08.bks.cpg/sg5_13_cif.got.tgz:25607.got - 2010.06.03 18:56:24.
