data_PCOD9121054
_publ_section_title
;
Structure prediction by ZEFSAII (Michael W. Deem and Ramdas Pophale) SiO2 
 PCOD9121054
Probable space group: C 2
;
_chemical_formula_sum "Si O2"
_cell_formula_units_Z 28
_cell_length_a 11.590681
_cell_length_b 15.503354
_cell_length_c 8.821892
_cell_angle_alpha 90.000000
_cell_angle_beta 54.725133
_cell_angle_gamma 90.000000
_cell_volume 1294.179622
_symmetry_space_group_name_H-M "C 2"
_symmetry_group_IT_number 5
_symmetry_cell_setting 'monoclinic'
loop_
_space_group_symop_operation_xyz
x,y,z
-x,y,-z
1/2+x,1/2+y,z
1/2-x,1/2+y,-z
loop_
_atom_site_type_symbol
_atom_site_label
_atom_site_fract_x
_atom_site_fract_y
_atom_site_fract_z
Si Si1 0.865257 0.419370 0.787985
Si Si2 0.500000 0.710907 0.000000
Si Si3 0.736123 0.665461 0.490758
Si Si4 0.232839 0.347883 0.815864
Si Si5 0.236193 0.098319 0.840128
Si Si6 0.000000 0.270003 0.500000
Si Si7 0.107935 0.506503 0.773185
Si Si8 0.973774 0.717571 0.683342
O O1 0.757451 0.496252 0.828457
O O2 0.893776 0.337416 0.661614
O O3 0.011889 0.470510 0.708642
O O4 0.817301 0.378096 0.981976
O O5 0.616432 0.778292 0.847550
O O6 0.598483 0.643959 0.017402
O O7 0.723595 0.626460 0.671321
O O8 0.594899 0.709198 0.535797
O O9 0.802615 0.589697 0.337381
O O10 0.868956 0.732511 0.379320
O O11 0.219236 0.431093 0.724403
O O12 0.381761 0.301833 0.722842
O O13 0.365750 0.146523 0.830935
O O14 0.000000 0.516364 0.000000
O O15 0.000000 0.675293 0.500000
#
# Coordination Sequence:
#
# PCOD9121054 Si02
#       8
#     4   2   4   4   4   2   4   4
#     4  11  21  42  62  93 123 167 209 253 320 364
#     4  10  18  38  64  94 122 162 208 250 302 378
#     4  11  23  44  59  92 122 165 216 255 320 363
#     4  10  20  39  64  95 127 163 204 254 309 375
#     4  10  21  40  68  91 120 166 208 257 309 381
#     4  12  28  40  64  88 128 168 210 276 306 364
#     4  10  21  39  64  90 127 165 203 250 312 383
#     4   9  20  37  66  90 117 161 209 251 307 374
#
# _framework density 21.635327
#
# number of rings (size 3 to 8) (size 9 to 14) (size 15 to 20)
#    0.000    1.714    3.571    1.714    5.000    1.143 
#   11.571    0.000    0.000    0.000    0.000    0.000 
#    0.000    0.000    0.000    0.000    0.000    0.000 
#
# Total GULP energy -77946.448946 kJ/mol
# GULP energy per Si atom -5567.603496 kJ/mol
# Density = 2.158608 g / cm^3
# Si number density = 21.635327 Si / 1000 Ang^3
#
#
#
# Elastic Constant Matrix: (Units=GPa)
#
#
# Indices 1 2 3 4 5 6 
#
# 1 111.1389 51.5172 28.7134 0.0000 -13.6885 0.0000
# 2 51.5172 123.1240 42.7408 0.0000 -0.7774 0.0000
# 3 28.7134 42.7408 39.1409 0.0000 -5.1411 0.0000
# 4 0.0000 0.0000 0.0000 31.6086 0.0000 -4.3527
# 5 -13.6885 -0.7774 -5.1411 0.0000 27.1179 0.0000
# 6 0.0000 0.0000 0.0000 -4.3527 0.0000 39.7135
#
#
#
# Elastic Compliance Matrix: (Units=1/GPa)
#
#
# Indices 1 2 3 4 5 6 
#
# 1 0.012506 -0.003637 -0.004499 0.000000 0.005355 0.000000
# 2 -0.003637 0.014291 -0.013460 0.000000 -0.003978 0.000000
# 3 -0.004499 -0.013460 0.044301 0.000000 0.005742 0.000000
# 4 0.000000 0.000000 0.000000 0.032122 0.000000 0.003521
# 5 0.005355 -0.003978 0.005742 0.000000 0.040554 0.000000
# 6 0.000000 0.000000 0.000000 0.003521 0.000000 0.025566
#
#
# Mechanical properties :
#
#
# Convention : Reuss Voigt Hill
#
# Bulk Modulus (GPa) = 35.83470 57.70517 46.76993
# Shear Modulus (GPa) = 22.53950 29.71682 26.12816
#
# Velocity S-wave (km/s) = 3.23118 3.71014 3.47891
# Velocity P-wave (km/s) = 5.52447 6.71440 6.14829
#
# Compressibility (1/GPa) = 0.02790591
#
# Stress axis : x y z
#
# Youngs Moduli (GPa) = 79.96428 69.97474 22.57286
#
# Poissons Ratio (x) = 0.25449 0.10156
# Poissons Ratio (y) = 0.29082 0.30382
# Poissons Ratio (z) = 0.35977 0.94184
#
# Static dielectric constant tensor:
#      x y z
#    x 1.867470 0.000000 -0.040000 
#    y 0.000000 1.793180 0.000000 
#    z -0.040000 0.000000 1.932940 
# 
# From -- ./inp_files/20573.got.cif
#   From: 2010.05.17/outbox.cif.g08.bks.cpg/sg5_11_cif.got.tgz:20573.got - 2010.06.03 18:56:24.
