data_PCOD9121735
_publ_section_title
;
Structure prediction by ZEFSAII (Michael W. Deem and Ramdas Pophale) SiO2 
 PCOD9121735
Probable space group: C 2
;
_chemical_formula_sum "Si O2"
_cell_formula_units_Z 28
_cell_length_a 16.675982
_cell_length_b 17.960847
_cell_length_c 9.500207
_cell_angle_alpha 90.000000
_cell_angle_beta 152.855267
_cell_angle_gamma 90.000000
_cell_volume 1298.208533
_symmetry_space_group_name_H-M "C 2"
_symmetry_group_IT_number 5
_symmetry_cell_setting 'monoclinic'
loop_
_space_group_symop_operation_xyz
x,y,z
-x,y,-z
1/2+x,1/2+y,z
1/2-x,1/2+y,-z
loop_
_atom_site_type_symbol
_atom_site_label
_atom_site_fract_x
_atom_site_fract_y
_atom_site_fract_z
Si Si1 0.232860 0.964990 0.778558
Si Si2 0.255255 0.156562 0.675992
Si Si3 0.000000 0.090172 0.500000
Si Si4 0.030247 0.755442 0.786373
Si Si5 0.386004 0.797284 0.681702
Si Si6 0.000000 0.528314 0.000000
Si Si7 0.420855 0.406950 0.739822
Si Si8 0.742888 0.796935 0.113979
O O1 0.111944 0.955718 0.449198
O O2 0.213907 0.884788 0.819034
O O3 0.163302 0.031458 0.767819
O O4 0.427176 0.980567 0.018031
O O5 0.222796 0.222921 0.516813
O O6 0.079577 0.137248 0.493446
O O7 0.407063 0.187919 0.018068
O O8 0.333726 0.083740 0.723310
O O9 0.177539 0.758427 0.896325
O O10 0.035336 0.833578 0.879254
O O11 0.846903 0.761438 0.411500
O O12 0.262884 0.868520 0.503292
O O13 0.500000 0.793848 0.000000
O O14 0.534241 0.796422 0.794444
O O15 0.500000 0.445789 0.000000
#
# Coordination Sequence:
#
# PCOD9121735 Si02
#       8
#     4   4   2   4   4   2   4   4
#     4  10  19  38  59  83 114 155 200 229 288 356
#     4  11  22  37  59  85 117 158 196 236 291 357
#     4  10  22  38  56  80 114 170 200 222 276 366
#     4  10  19  36  57  89 118 145 187 242 311 341
#     4  12  21  35  59  97 119 143 193 253 311 343
#     4  10  22  36  58  80 112 164 194 224 278 360
#     4  11  20  36  62  91 119 145 188 258 305 346
#     4  10  21  34  63  91 111 149 190 255 300 346
#
# _framework density 21.568183999999999
#
# number of rings (size 3 to 8) (size 9 to 14) (size 15 to 20)
#    0.000    1.429    4.286    4.286    0.000    0.000 
#    0.000    2.857    6.286    0.000    0.000    0.000 
#    0.000    0.000    0.000    0.000    0.000    0.000 
#
# Total GULP energy -78029.876107 kJ/mol
# GULP energy per Si atom -5573.562579 kJ/mol
# Density = 2.151909 g / cm^3
# Si number density = 21.568184 Si / 1000 Ang^3
#
#
#
# Elastic Constant Matrix: (Units=GPa)
#
#
# Indices 1 2 3 4 5 6 
#
# 1 82.3751 4.2692 31.1845 0.0000 25.4082 0.0000
# 2 4.2692 63.3645 14.1292 0.0000 -1.3913 0.0000
# 3 31.1845 14.1292 52.3735 0.0000 10.5160 0.0000
# 4 0.0000 0.0000 0.0000 20.8950 0.0000 21.4864
# 5 25.4082 -1.3913 10.5160 0.0000 42.0725 0.0000
# 6 0.0000 0.0000 0.0000 21.4864 0.0000 32.3342
#
#
#
# Elastic Compliance Matrix: (Units=1/GPa)
#
#
# Indices 1 2 3 4 5 6 
#
# 1 0.018329 0.000657 -0.009342 0.000000 -0.008713 0.000000
# 2 0.000657 0.016942 -0.005259 0.000000 0.001478 0.000000
# 3 -0.009342 -0.005259 0.026296 0.000000 -0.001105 0.000000
# 4 0.000000 0.000000 0.000000 0.151124 0.000000 -0.100423
# 5 -0.008713 0.001478 -0.001105 0.000000 0.029355 0.000000
# 6 0.000000 0.000000 0.000000 -0.100423 0.000000 0.097659
#
#
# Mechanical properties :
#
#
# Convention : Reuss Voigt Hill
#
# Bulk Modulus (GPa) = 29.68983 33.03101 31.36042
# Shear Modulus (GPa) = 13.19887 28.96236 21.08062
#
# Velocity S-wave (km/s) = 2.47647 3.66844 3.12972
# Velocity P-wave (km/s) = 4.68750 5.76985 5.25661
#
# Compressibility (1/GPa) = 0.03368157
#
# Stress axis : x y z
#
# Youngs Moduli (GPa) = 54.55731 59.02331 38.02814
#
# Poissons Ratio (x) = -0.03876 0.35524
# Poissons Ratio (y) = -0.03583 0.19997
# Poissons Ratio (z) = 0.50965 0.31038
#
# Static dielectric constant tensor:
#      x y z
#    x 1.870730 0.000000 0.062320 
#    y 0.000000 1.781910 0.000000 
#    z 0.062320 0.000000 1.818860 
# 
# From -- ./inp_files/46643.got.cif
#   From: 2010.05.17/outbox.cif.g08.bks.cpg/sg5_24_cif.got.tgz:46643.got - 2010.06.03 18:56:24.
