data_PCOD9121492
_publ_section_title
;
Structure prediction by ZEFSAII (Michael W. Deem and Ramdas Pophale) SiO2 
 PCOD9121492
Probable space group: C 2
;
_chemical_formula_sum "Si O2"
_cell_formula_units_Z 28
_cell_length_a 29.079285
_cell_length_b 4.730437
_cell_length_c 7.332856
_cell_angle_alpha 90.000000
_cell_angle_beta 93.771748
_cell_angle_gamma 90.000000
_cell_volume 1006.506196
_symmetry_space_group_name_H-M "C 2"
_symmetry_group_IT_number 5
_symmetry_cell_setting 'monoclinic'
loop_
_space_group_symop_operation_xyz
x,y,z
-x,y,-z
1/2+x,1/2+y,z
1/2-x,1/2+y,-z
loop_
_atom_site_type_symbol
_atom_site_label
_atom_site_fract_x
_atom_site_fract_y
_atom_site_fract_z
Si Si1 0.310226 0.247680 0.363757
Si Si2 0.766694 0.429732 0.888232
Si Si3 0.638612 0.142474 0.985036
Si Si4 0.861842 0.213296 0.517646
Si Si5 0.500000 0.728841 0.000000
Si Si6 0.000000 0.640867 0.500000
Si Si7 0.068072 0.242382 0.750174
Si Si8 0.070521 0.621666 0.240260
O O1 0.257513 0.310628 0.298741
O O2 0.329381 0.442080 0.532415
O O3 0.334313 0.303015 0.169339
O O4 0.326836 0.935561 0.415438
O O5 0.743511 0.721331 0.945475
O O6 0.820992 0.481307 0.895571
O O7 0.603997 0.927827 0.875546
O O8 0.604950 0.299248 0.119424
O O9 0.899644 0.088847 0.384362
O O10 0.894687 0.400324 0.654002
O O11 0.533662 0.567326 0.870288
O O12 0.465211 0.932469 0.883071
O O13 0.966009 0.445945 0.371195
O O14 0.963119 0.783851 0.627358
#
# Coordination Sequence:
#
# PCOD9121492 Si02
#       8
#     4   4   4   4   2   2   4   4
#     4  10  20  37  58  83 115 156 198 244 300 360
#     4  10  19  34  57  86 116 151 197 249 303 356
#     4   9  18  32  55  85 116 153 203 251 293 358
#     4  10  20  36  58  82 117 157 194 239 304 366
#     4   8  14  28  56  82 112 146 194 248 290 348
#     4   8  14  26  54  82 116 154 190 242 306 364
#     4   8  14  27  50  77 106 142 185 232 287 345
#     4   9  17  33  57  90 122 160 205 253 309 367
#
# _framework density 27.819006999999999
#
# number of rings (size 3 to 8) (size 9 to 14) (size 15 to 20)
#    0.000    2.857    0.000    2.571    0.000    0.000 
#    0.000    8.571    0.000   90.857    0.000    2.000 
#    0.000    0.000    0.000    0.000    0.000    0.000 
#
# Total GULP energy -78229.939318 kJ/mol
# GULP energy per Si atom -5587.852808 kJ/mol
# Density = 2.775569 g / cm^3
# Si number density = 27.819007 Si / 1000 Ang^3
#
#
#
# Elastic Constant Matrix: (Units=GPa)
#
#
# Indices 1 2 3 4 5 6 
#
# 1 194.0444 30.8425 78.2909 0.0000 26.0675 0.0000
# 2 30.8425 68.5811 19.4767 0.0000 28.1626 0.0000
# 3 78.2909 19.4767 80.2667 0.0000 39.2755 0.0000
# 4 0.0000 0.0000 0.0000 26.8514 0.0000 35.7908
# 5 26.0675 28.1626 39.2755 0.0000 90.0294 0.0000
# 6 0.0000 0.0000 0.0000 35.7908 0.0000 33.0102
#
#
#
# Elastic Compliance Matrix: (Units=1/GPa)
#
#
# Indices 1 2 3 4 5 6 
#
# 1 0.008951 -0.002288 -0.009228 0.000000 0.002149 0.000000
# 2 -0.002288 0.017547 0.000426 0.000000 -0.005013 0.000000
# 3 -0.009228 0.000426 0.025572 0.000000 -0.008617 0.000000
# 4 0.000000 0.000000 0.000000 -0.083652 0.000000 0.090698
# 5 0.002149 -0.005013 -0.008617 0.000000 0.015813 0.000000
# 6 0.000000 0.000000 0.000000 0.090698 0.000000 -0.068045
#
#
# Mechanical properties :
#
#
# Convention : Reuss Voigt Hill
#
# Bulk Modulus (GPa) = 33.45281 66.67916 50.06598
# Shear Modulus (GPa) = -96.76690 44.26368 -26.25161
#
# Velocity S-wave (km/s) = -5.90423 3.99323 -3.07523
# Velocity P-wave (km/s) = 5.86760 6.72920 2.32953
#
# Compressibility (1/GPa) = 0.02989285
#
# Stress axis : x y z
#
# Youngs Moduli (GPa) = 111.71420 56.98825 39.10495
#
# Poissons Ratio (x) = 0.13037 0.36085
# Poissons Ratio (y) = 0.25557 -0.01667
# Poissons Ratio (z) = 1.03086 -0.02429
#
# Static dielectric constant tensor:
#      x y z
#    x 2.205670 0.000000 -0.106330 
#    y 0.000000 2.018810 0.000000 
#    z -0.106330 0.000000 2.349260 
# 
# From -- ./inp_files/32072.got.cif
#   From: 2010.05.17/outbox.cif.g08.bks.cpg/sg5_17_cif.got.tgz:32072.got - 2010.06.03 18:56:24.
