data_PCOD9121183
_publ_section_title
;
Structure prediction by ZEFSAII (Michael W. Deem and Ramdas Pophale) SiO2 
 PCOD9121183
Probable space group: C 2
;
_chemical_formula_sum "Si O2"
_cell_formula_units_Z 28
_cell_length_a 9.143181
_cell_length_b 12.089923
_cell_length_c 20.750258
_cell_angle_alpha 90.000000
_cell_angle_beta 30.064997
_cell_angle_gamma 90.000000
_cell_volume 1149.123135
_symmetry_space_group_name_H-M "C 2"
_symmetry_group_IT_number 5
_symmetry_cell_setting 'monoclinic'
loop_
_space_group_symop_operation_xyz
x,y,z
-x,y,-z
1/2+x,1/2+y,z
1/2-x,1/2+y,-z
loop_
_atom_site_type_symbol
_atom_site_label
_atom_site_fract_x
_atom_site_fract_y
_atom_site_fract_z
Si Si1 0.197407 0.143120 0.125790
Si Si2 0.438194 0.771719 0.332036
Si Si3 0.168272 0.172818 0.494895
Si Si4 0.144683 0.411354 0.862258
Si Si5 0.478392 0.349463 0.846277
Si Si6 0.307400 0.981707 0.299648
Si Si7 0.753932 0.573017 0.786044
O O1 0.948791 0.191688 0.266778
O O2 0.045733 0.136136 0.113341
O O3 0.297049 0.029718 0.124288
O O4 0.500000 0.208222 0.000000
O O5 0.287027 0.738254 0.455915
O O6 0.321979 0.887262 0.348706
O O7 0.784749 0.764476 0.219045
O O8 0.472133 0.130145 0.351856
O O9 0.000000 0.233825 0.500000
O O10 0.954722 0.068357 0.591975
O O11 0.363162 0.331195 0.817948
O O12 0.205862 0.425910 0.764568
O O13 0.814327 0.373028 0.001671
O O14 0.671887 0.460843 0.778657
O O15 0.622156 0.042182 0.191062
#
# Coordination Sequence:
#
# PCOD9121183 Si02
#       7
#     4   4   4   4   4   4   4
#     4  11  21  41  65  97 132 174 222 276 340 408
#     4  11  24  41  66  99 133 175 234 277 334 410
#     4  10  22  46  65  91 140 176 225 284 334 402
#     4  10  18  41  69  91 135 172 211 277 350 405
#     4   9  20  40  63  95 134 174 219 272 342 410
#     4  10  22  42  68  98 131 173 225 279 341 409
#     4   9  20  41  63  87 129 173 217 266 342 396
#
# _framework density 24.366406999999999
#
# number of rings (size 3 to 8) (size 9 to 14) (size 15 to 20)
#    0.000    2.000    4.286    0.000    2.000    2.286 
#   18.000    0.000    0.000    0.000    0.000    0.000 
#    0.000    0.000    0.000    0.000    0.000    0.000 
#
# Total GULP energy -78149.913617 kJ/mol
# GULP energy per Si atom -5582.136687 kJ/mol
# Density = 2.431095 g / cm^3
# Si number density = 24.366407 Si / 1000 Ang^3
#
#
#
# Elastic Constant Matrix: (Units=GPa)
#
#
# Indices 1 2 3 4 5 6 
#
# 1 130.0480 15.9722 30.3179 -0.0047 -5.1739 0.0046
# 2 15.9722 50.9435 5.3162 -0.0028 3.2732 -0.0001
# 3 30.3179 5.3162 62.7220 0.0001 -13.9795 0.0007
# 4 -0.0047 -0.0028 0.0001 26.7023 -0.0042 -1.3164
# 5 -5.1739 3.2732 -13.9795 -0.0042 51.9513 0.0011
# 6 0.0046 -0.0001 0.0007 -1.3164 0.0011 29.6617
#
#
#
# Elastic Compliance Matrix: (Units=1/GPa)
#
#
# Indices 1 2 3 4 5 6 
#
# 1 0.008942 -0.002367 -0.004138 0.000001 -0.000074 -0.000001
# 2 -0.002367 0.020592 -0.001003 0.000001 -0.001803 0.000001
# 3 -0.004138 -0.001003 0.019096 0.000000 0.004790 0.000000
# 4 0.000001 0.000001 0.000000 0.037532 0.000003 0.001666
# 5 -0.000074 -0.001803 0.004790 0.000003 0.020644 -0.000001
# 6 -0.000001 0.000001 0.000000 0.001666 -0.000001 0.033787
#
#
# Mechanical properties :
#
#
# Convention : Reuss Voigt Hill
#
# Bulk Modulus (GPa) = 29.74955 38.54734 34.14845
# Shear Modulus (GPa) = 29.97338 34.47021 32.22180
#
# Velocity S-wave (km/s) = 3.51110 3.76528 3.64041
# Velocity P-wave (km/s) = 5.35470 5.89553 5.63161
#
# Compressibility (1/GPa) = 0.03361395
#
# Stress axis : x y z
#
# Youngs Moduli (GPa) = 111.83252 48.56203 52.36661
#
# Poissons Ratio (x) = 0.11494 0.21670
# Poissons Ratio (y) = 0.26470 0.05253
# Poissons Ratio (z) = 0.46277 0.04871
#
# Static dielectric constant tensor:
#      x y z
#    x 1.984860 0.000000 -0.028990 
#    y 0.000000 2.072460 0.000000 
#    z -0.028990 0.000000 1.965500 
# 
# From -- ./inp_files/64704.got.cif
#   From: 2010.05.17/outbox.cif.g08.bks.cpg/sg5_33_cif.got.tgz:64704.got - 2010.06.03 18:56:24.
