data_PCOD9121542
_publ_section_title
;
Structure prediction by ZEFSAII (Michael W. Deem and Ramdas Pophale) SiO2 
 PCOD9121542
Probable space group: C 2
;
_chemical_formula_sum "Si O2"
_cell_formula_units_Z 30
_cell_length_a 17.715945
_cell_length_b 4.950501
_cell_length_c 14.474295
_cell_angle_alpha 90.000000
_cell_angle_beta 62.361991
_cell_angle_gamma 90.000000
_cell_volume 1124.588549
_symmetry_space_group_name_H-M "C 2"
_symmetry_group_IT_number 5
_symmetry_cell_setting 'monoclinic'
loop_
_space_group_symop_operation_xyz
x,y,z
-x,y,-z
1/2+x,1/2+y,z
1/2-x,1/2+y,-z
loop_
_atom_site_type_symbol
_atom_site_label
_atom_site_fract_x
_atom_site_fract_y
_atom_site_fract_z
Si Si1 0.627674 0.592440 0.064691
Si Si2 0.827360 0.290012 0.550556
Si Si3 0.062065 0.446842 0.348207
Si Si4 0.626077 0.198083 0.798730
Si Si5 0.501515 0.411055 0.275866
Si Si6 0.000000 0.015499 0.000000
Si Si7 0.770119 0.420494 0.842071
Si Si8 0.795754 0.288485 0.361254
O O1 0.575734 0.364763 0.154010
O O2 0.549250 0.697022 0.047050
O O3 0.677649 0.746046 0.114648
O O4 0.700693 0.562140 0.945708
O O5 0.909196 0.342059 0.567691
O O6 0.842873 0.308864 0.432582
O O7 0.781735 0.005160 0.593166
O O8 0.754672 0.510818 0.612345
O O9 0.026113 0.200831 0.305680
O O10 0.154224 0.558314 0.257412
O O11 0.004008 0.703533 0.359751
O O12 0.585598 0.349986 0.731141
O O13 0.715744 0.257605 0.798299
O O14 0.640950 0.890561 0.755543
O O15 0.563608 0.310769 0.912639
#
# Coordination Sequence:
#
# PCOD9121542 Si02
#       8
#     4   4   4   4   4   2   4   4
#     4   9  18  34  52  88 120 170 205 271 306 388
#     4  10  21  38  65  98 127 164 216 284 331 381
#     4  11  21  39  61  92 123 170 206 271 317 389
#     4  10  20  40  62  96 131 179 216 272 326 399
#     4  10  23  38  60  87 135 165 208 253 337 381
#     4   8  18  36  60  84 140 170 220 258 342 392
#     4  10  19  34  62  87 126 161 231 258 320 373
#     4  10  21  39  65  97 130 162 221 276 334 387
#
# _framework density 26.676424000000001
#
# number of rings (size 3 to 8) (size 9 to 14) (size 15 to 20)
#    0.000    2.133    1.333    1.600    1.867    1.067 
#    0.000    4.667    0.000   11.200    0.000    0.000 
#    0.000    0.000    0.000    0.000    0.000    0.000 
#
# Total GULP energy -83730.347010 kJ/mol
# GULP energy per Si atom -5582.023134 kJ/mol
# Density = 2.661571 g / cm^3
# Si number density = 26.676424 Si / 1000 Ang^3
#
#
#
# Elastic Constant Matrix: (Units=GPa)
#
#
# Indices 1 2 3 4 5 6 
#
# 1 186.4637 8.2720 40.9249 0.0002 26.0035 -0.0004
# 2 8.2720 54.0539 5.9860 0.0018 -4.2347 0.0024
# 3 40.9249 5.9860 95.4338 0.0000 23.9105 -0.0003
# 4 0.0002 0.0018 0.0000 22.2378 -0.0011 10.1585
# 5 26.0035 -4.2347 23.9105 -0.0011 56.6715 -0.0002
# 6 -0.0004 0.0024 -0.0003 10.1585 -0.0002 18.5779
#
#
#
# Elastic Compliance Matrix: (Units=1/GPa)
#
#
# Indices 1 2 3 4 5 6 
#
# 1 0.006136 -0.000866 -0.002075 0.000000 -0.002005 0.000000
# 2 -0.000866 0.018980 -0.001424 0.000000 0.002417 -0.000002
# 3 -0.002075 -0.001424 0.012575 0.000000 -0.004460 0.000000
# 4 0.000000 0.000000 0.000000 0.059941 0.000001 -0.032776
# 5 -0.002005 0.002417 -0.004460 0.000001 0.020628 -0.000001
# 6 0.000000 -0.000002 0.000000 -0.032776 -0.000001 0.071750
#
#
# Mechanical properties :
#
#
# Convention : Reuss Voigt Hill
#
# Bulk Modulus (GPa) = 34.53056 49.59078 42.06067
# Shear Modulus (GPa) = 23.99300 38.21534 31.10417
#
# Velocity S-wave (km/s) = 3.00227 3.78901 3.41835
# Velocity P-wave (km/s) = 4.99905 6.14591 5.60191
#
# Compressibility (1/GPa) = 0.02895985
#
# Stress axis : x y z
#
# Youngs Moduli (GPa) = 162.96221 52.68778 79.52298
#
# Poissons Ratio (x) = 0.04565 0.16499
# Poissons Ratio (y) = 0.14119 0.11328
# Poissons Ratio (z) = 0.33811 0.07505
#
# Static dielectric constant tensor:
#      x y z
#    x 2.102010 0.000000 -0.105130 
#    y 0.000000 2.107270 0.000000 
#    z -0.105130 0.000000 2.276950 
# 
# From -- ./inp_files/55437.got.cif
#   From: 2010.05.17/outbox.cif.g08.bks.cpg/sg5_28_cif.got.tgz:55437.got - 2010.06.03 18:56:24.
