data_PCOD9121220
_publ_section_title
;
Structure prediction by ZEFSAII (Michael W. Deem and Ramdas Pophale) SiO2 
 PCOD9121220
Probable space group: C 2
;
_chemical_formula_sum "Si O2"
_cell_formula_units_Z 20
_cell_length_a 12.603613
_cell_length_b 7.425900
_cell_length_c 9.336189
_cell_angle_alpha 90.000000
_cell_angle_beta 103.176878
_cell_angle_gamma 90.000000
_cell_volume 850.797128
_symmetry_space_group_name_H-M "C 2"
_symmetry_group_IT_number 5
_symmetry_cell_setting 'monoclinic'
loop_
_space_group_symop_operation_xyz
x,y,z
-x,y,-z
1/2+x,1/2+y,z
1/2-x,1/2+y,-z
loop_
_atom_site_type_symbol
_atom_site_label
_atom_site_fract_x
_atom_site_fract_y
_atom_site_fract_z
Si Si1 0.671990 0.432630 0.786337
Si Si2 0.723324 0.768405 0.640942
Si Si3 0.000000 0.612690 0.000000
Si Si4 0.544828 0.264400 0.312749
Si Si5 0.500000 0.936544 0.500000
Si Si6 0.716332 0.035738 0.904847
O O1 0.730380 0.561396 0.692114
O O2 0.547616 0.412795 0.696769
O O3 0.713953 0.229931 0.826534
O O4 0.688340 0.520606 0.948410
O O5 0.835500 0.808994 0.593534
O O6 0.609795 0.819901 0.533171
O O7 0.724306 0.887155 0.785691
O O8 0.952196 0.731254 0.856438
O O9 0.103730 0.513861 0.961329
O O10 0.505008 0.077324 0.370011
#
# Coordination Sequence:
#
# PCOD9121220 Si02
#       6
#     4   4   2   4   2   4
#     4  11  22  42  76 104 142 182 238 298 360 417
#     4  12  25  48  73 102 146 196 238 293 361 425
#     4  10  18  44  74 100 146 176 226 318 344 398
#     4  11  25  47  75 104 146 186 242 302 349 431
#     4  12  28  48  70 106 150 192 246 290 348 442
#     4  11  21  43  73 110 141 179 244 299 351 432
#
# _framework density 23.507369000000001
#
# number of rings (size 3 to 8) (size 9 to 14) (size 15 to 20)
#    0.000    0.800    8.000    1.200    0.000    4.000 
#    7.200    1.000    0.000    0.000    0.000    0.000 
#    0.000    0.000    0.000    0.000    0.000    0.000 
#
# Total GULP energy -55903.530815 kJ/mol
# GULP energy per Si atom -5590.353082 kJ/mol
# Density = 2.345386 g / cm^3
# Si number density = 23.507369 Si / 1000 Ang^3
#
#
#
# Elastic Constant Matrix: (Units=GPa)
#
#
# Indices 1 2 3 4 5 6 
#
# 1 137.9282 37.1564 11.1378 0.0000 29.8827 0.0000
# 2 37.1564 97.1511 26.5474 0.0000 4.6319 0.0000
# 3 11.1378 26.5474 67.9390 0.0000 14.4904 0.0000
# 4 0.0000 0.0000 0.0000 37.2742 0.0000 9.0161
# 5 29.8827 4.6319 14.4904 0.0000 43.5127 0.0000
# 6 0.0000 0.0000 0.0000 9.0161 0.0000 35.1323
#
#
#
# Elastic Compliance Matrix: (Units=1/GPa)
#
#
# Indices 1 2 3 4 5 6 
#
# 1 0.009575 -0.003698 0.001285 0.000000 -0.006610 0.000000
# 2 -0.003698 0.012955 -0.005063 0.000000 0.002847 0.000000
# 3 0.001285 -0.005063 0.017826 0.000000 -0.006280 0.000000
# 4 0.000000 0.000000 0.000000 0.028604 0.000000 -0.007341
# 5 -0.006610 0.002847 -0.006280 0.000000 0.029309 0.000000
# 6 0.000000 0.000000 0.000000 -0.007341 0.000000 0.030348
#
#
# Mechanical properties :
#
#
# Convention : Reuss Voigt Hill
#
# Bulk Modulus (GPa) = 39.36368 50.30017 44.83192
# Shear Modulus (GPa) = 32.88660 38.39561 35.64111
#
# Velocity S-wave (km/s) = 3.74437 4.04585 3.89802
# Velocity P-wave (km/s) = 5.95612 6.57794 6.27473
#
# Compressibility (1/GPa) = 0.02540413
#
# Stress axis : x y z
#
# Youngs Moduli (GPa) = 104.44312 77.18772 56.09673
#
# Poissons Ratio (x) = 0.28543 -0.07209
# Poissons Ratio (y) = 0.38622 0.28403
# Poissons Ratio (z) = -0.13422 0.39082
#
# Static dielectric constant tensor:
#      x y z
#    x 1.955660 0.000000 0.065290 
#    y 0.000000 1.844790 0.000000 
#    z 0.065290 0.000000 1.905170 
# 
# From -- ./inp_files/18335.got.cif
#   From: 2010.05.17/outbox.cif.g08.bks.cpg/sg5_10_cif.got.tgz:18335.got - 2010.06.03 18:56:24.
