data_PCOD9121985
_publ_section_title
;
Structure prediction by ZEFSAII (Michael W. Deem and Ramdas Pophale) SiO2 
 PCOD9121985
Probable space group: C 2
;
_chemical_formula_sum "Si O2"
_cell_formula_units_Z 30
_cell_length_a 6.143598
_cell_length_b 17.345894
_cell_length_c 16.730289
_cell_angle_alpha 90.000000
_cell_angle_beta 124.099082
_cell_angle_gamma 90.000000
_cell_volume 1476.350972
_symmetry_space_group_name_H-M "C 2"
_symmetry_group_IT_number 5
_symmetry_cell_setting 'monoclinic'
loop_
_space_group_symop_operation_xyz
x,y,z
-x,y,-z
1/2+x,1/2+y,z
1/2-x,1/2+y,-z
loop_
_atom_site_type_symbol
_atom_site_label
_atom_site_fract_x
_atom_site_fract_y
_atom_site_fract_z
Si Si1 0.642793 0.357600 0.610301
Si Si2 0.386891 0.750498 0.228991
Si Si3 0.499322 0.594075 0.178218
Si Si4 0.437680 0.974802 0.277853
Si Si5 0.000000 0.108591 0.000000
Si Si6 0.960252 0.327280 0.079162
Si Si7 0.049184 0.846163 0.259497
Si Si8 0.512354 0.994694 0.897260
O O1 0.500000 0.334714 0.500000
O O2 0.855504 0.294521 0.684497
O O3 0.446157 0.362692 0.645289
O O4 0.804637 0.437444 0.628130
O O5 0.428803 0.660691 0.225278
O O6 0.321038 0.786749 0.126669
O O7 0.169175 0.767170 0.250808
O O8 0.774115 0.553058 0.258207
O O9 0.520245 0.637091 0.096114
O O10 0.262224 0.530790 0.127917
O O11 0.522242 0.978605 0.203483
O O12 0.216685 0.910253 0.248159
O O13 0.265516 0.058739 0.049569
O O14 0.252009 0.344778 0.170315
O O15 0.861062 0.414725 0.044056
O O16 0.000000 0.288285 0.000000
#
# Coordination Sequence:
#
# PCOD9121985 Si02
#       8
#     4   4   4   4   2   4   4   4
#     4  10  21  41  70  97 117 152 206 258 319 384
#     4  10  24  39  58  89 123 165 198 256 316 363
#     4  11  22  39  59  87 128 167 210 255 309 359
#     4  10  19  37  64  89 117 156 201 255 305 363
#     4  10  24  34  60  84 124 172 218 252 302 358
#     4  11  21  34  58  85 120 160 209 253 294 361
#     4  10  19  40  59  90 119 154 204 252 309 364
#     4  11  20  37  58  88 119 162 217 252 297 358
#
# _framework density 20.320371000000002
#
# number of rings (size 3 to 8) (size 9 to 14) (size 15 to 20)
#    0.000    1.600    5.333    1.200    2.800    6.933 
#    2.400    0.000    5.867    0.000    0.000    0.000 
#    0.000    0.000    0.000    0.000    0.000    0.000 
#
# Total GULP energy -83501.551720 kJ/mol
# GULP energy per Si atom -5566.770115 kJ/mol
# Density = 2.027412 g / cm^3
# Si number density = 20.320371 Si / 1000 Ang^3
#
#
#
# Elastic Constant Matrix: (Units=GPa)
#
#
# Indices 1 2 3 4 5 6 
#
# 1 82.3248 18.4762 17.5310 0.0000 -18.2232 0.0000
# 2 18.4762 70.6137 9.0542 0.0000 -4.8181 0.0000
# 3 17.5310 9.0542 87.1068 0.0000 -13.4548 0.0000
# 4 0.0000 0.0000 0.0000 17.4763 0.0000 -7.4810
# 5 -18.2232 -4.8181 -13.4548 0.0000 19.1503 0.0000
# 6 0.0000 0.0000 0.0000 -7.4810 0.0000 28.4547
#
#
#
# Elastic Compliance Matrix: (Units=1/GPa)
#
#
# Indices 1 2 3 4 5 6 
#
# 1 0.016120 -0.003165 -0.000750 0.000000 0.014016 0.000000
# 2 -0.003165 0.015117 -0.000911 0.000000 0.000151 0.000000
# 3 -0.000750 -0.000911 0.012990 0.000000 0.008183 0.000000
# 4 0.000000 0.000000 0.000000 0.064477 0.000000 0.016951
# 5 0.014016 0.000151 0.008183 0.000000 0.071344 0.000000
# 6 0.000000 0.000000 0.000000 0.016951 0.000000 0.039600
#
#
# Mechanical properties :
#
#
# Convention : Reuss Voigt Hill
#
# Bulk Modulus (GPa) = 28.92375 36.68533 32.80454
# Shear Modulus (GPa) = 20.76201 26.01518 23.38859
#
# Velocity S-wave (km/s) = 3.19992 3.58194 3.39631
# Velocity P-wave (km/s) = 5.28370 5.93294 5.61770
#
# Compressibility (1/GPa) = 0.03457366
#
# Stress axis : x y z
#
# Youngs Moduli (GPa) = 62.03601 66.15127 76.98295
#
# Poissons Ratio (x) = 0.20938 0.05776
# Poissons Ratio (y) = 0.19636 0.07012
# Poissons Ratio (z) = 0.04654 0.06026
#
# Static dielectric constant tensor:
#      x y z
#    x 1.784800 0.000000 -0.020360 
#    y 0.000000 1.800890 0.000000 
#    z -0.020360 0.000000 1.723540 
# 
# From -- ./inp_files/49372.got.cif
#   From: 2010.05.17/outbox.cif.g08.bks.cpg/sg5_25_cif.got.tgz:49372.got - 2010.06.03 18:56:24.
