data_PCOD9121464
_publ_section_title
;
Structure prediction by ZEFSAII (Michael W. Deem and Ramdas Pophale) SiO2 
 PCOD9121464
Probable space group: C 2
;
_chemical_formula_sum "Si O2"
_cell_formula_units_Z 32
_cell_length_a 13.380524
_cell_length_b 23.169976
_cell_length_c 7.842433
_cell_angle_alpha 90.000000
_cell_angle_beta 35.953572
_cell_angle_gamma 90.000000
_cell_volume 1427.524008
_symmetry_space_group_name_H-M "C 2"
_symmetry_group_IT_number 5
_symmetry_cell_setting 'monoclinic'
loop_
_space_group_symop_operation_xyz
x,y,z
-x,y,-z
1/2+x,1/2+y,z
1/2-x,1/2+y,-z
loop_
_atom_site_type_symbol
_atom_site_label
_atom_site_fract_x
_atom_site_fract_y
_atom_site_fract_z
Si Si1 0.682554 0.417010 0.227089
Si Si2 0.685745 0.076185 0.175570
Si Si3 0.661820 0.676146 0.885790
Si Si4 0.184998 0.650661 0.659935
Si Si5 0.955687 0.379877 0.358740
Si Si6 0.179963 0.965133 0.841954
Si Si7 0.680874 0.541861 0.342318
Si Si8 0.437769 0.753977 0.393480
O O1 0.500000 0.385352 0.500000
O O2 0.675725 0.472515 0.364402
O O3 0.866706 0.387494 0.987313
O O4 0.680189 0.438196 0.032538
O O5 0.500000 0.084716 0.500000
O O6 0.792176 0.134625 0.023898
O O7 0.776961 0.031379 0.176192
O O8 0.677858 0.050873 0.998333
O O9 0.813826 0.668390 0.541271
O O10 0.500000 0.654407 0.000000
O O11 0.595387 0.735883 0.053309
O O12 0.272435 0.588165 0.577929
O O13 0.301861 0.702436 0.571577
O O14 0.000000 0.650834 0.000000
O O15 0.875153 0.317602 0.428242
O O16 0.000000 0.378331 0.500000
O O17 0.825183 0.433018 0.531407
O O18 0.000000 0.959462 0.000000
O O19 0.500000 0.555753 0.500000
O O20 0.500000 0.756653 0.500000
#
# Coordination Sequence:
#
# PCOD9121464 Si02
#       8
#     4   4   4   4   4   4   4   4
#     4   9  19  37  58  85 115 150 194 239 285 345
#     4  11  20  33  55  83 115 149 191 236 283 350
#     4  10  21  36  55  81 114 150 192 242 295 348
#     4  11  22  36  55  83 117 149 191 245 296 342
#     4   9  19  39  62  83 114 157 201 239 285 351
#     4  10  20  35  57  86 118 153 191 236 294 346
#     4  10  19  34  56  79 113 152 185 229 289 354
#     4  10  21  40  62  80 111 160 202 238 290 352
#
# _framework density 22.416435
#
# number of rings (size 3 to 8) (size 9 to 14) (size 15 to 20)
#    0.000    2.000    0.000    5.625    0.000    2.500 
#    0.000    8.750    0.000    0.000    0.000    0.000 
#    0.000    0.000    0.000    0.000    0.000    0.000 
#
# Total GULP energy -89237.599668 kJ/mol
# GULP energy per Si atom -5577.349979 kJ/mol
# Density = 2.236541 g / cm^3
# Si number density = 22.416435 Si / 1000 Ang^3
#
#
#
# Elastic Constant Matrix: (Units=GPa)
#
#
# Indices 1 2 3 4 5 6 
#
# 1 48.3079 17.7395 6.3642 0.0000 1.2203 0.0000
# 2 17.7395 71.9411 15.9113 0.0000 -0.9560 0.0000
# 3 6.3642 15.9113 118.4572 0.0000 1.9765 0.0000
# 4 0.0000 0.0000 0.0000 23.2801 0.0000 -0.2109
# 5 1.2203 -0.9560 1.9765 0.0000 27.1226 0.0000
# 6 0.0000 0.0000 0.0000 -0.2109 0.0000 -9.2026
#
#
#
# Elastic Compliance Matrix: (Units=1/GPa)
#
#
# Indices 1 2 3 4 5 6 
#
# 1 0.022827 -0.005542 -0.000462 0.000000 -0.001189 0.000000
# 2 -0.005542 0.015683 -0.001824 0.000000 0.000935 0.000000
# 3 -0.000462 -0.001824 0.008723 0.000000 -0.000679 0.000000
# 4 0.000000 0.000000 0.000000 0.042946 0.000000 -0.000984
# 5 -0.001189 0.000935 -0.000679 0.000000 0.037006 0.000000
# 6 0.000000 0.000000 0.000000 -0.000984 0.000000 -0.108643
#
#
# Mechanical properties :
#
#
# Convention : Reuss Voigt Hill
#
# Bulk Modulus (GPa) = 31.67057 35.41514 33.54285
# Shear Modulus (GPa) = 111.79658 21.48610 66.64134
#
# Velocity S-wave (km/s) = 7.06971 3.09932 5.45833
# Velocity P-wave (km/s) = 8.98889 5.35171 7.39733
#
# Compressibility (1/GPa) = 0.03157506
#
# Stress axis : x y z
#
# Youngs Moduli (GPa) = 43.80842 63.76402 114.63849
#
# Poissons Ratio (x) = 0.35340 0.05297
# Poissons Ratio (y) = 0.24280 0.20914
# Poissons Ratio (z) = 0.02024 0.11633
#
# Static dielectric constant tensor:
#      x y z
#    x 1.884750 0.000000 0.062680 
#    y 0.000000 1.843400 0.000000 
#    z 0.062680 0.000000 1.925760 
# 
# From -- ./inp_files/25595.got.cif
#   From: 2010.05.17/outbox.cif.g08.bks.cpg/sg5_13_cif.got.tgz:25595.got - 2010.06.03 18:56:24.
