data_PCOD9121253
_publ_section_title
;
Structure prediction by ZEFSAII (Michael W. Deem and Ramdas Pophale) SiO2 
 PCOD9121253
Probable space group: C 2
;
_chemical_formula_sum "Si O2"
_cell_formula_units_Z 28
_cell_length_a 5.215005
_cell_length_b 22.870545
_cell_length_c 13.542880
_cell_angle_alpha 90.000000
_cell_angle_beta 79.907202
_cell_angle_gamma 90.000000
_cell_volume 1590.263595
_symmetry_space_group_name_H-M "C 2"
_symmetry_group_IT_number 5
_symmetry_cell_setting 'monoclinic'
loop_
_space_group_symop_operation_xyz
x,y,z
-x,y,-z
1/2+x,1/2+y,z
1/2-x,1/2+y,-z
loop_
_atom_site_type_symbol
_atom_site_label
_atom_site_fract_x
_atom_site_fract_y
_atom_site_fract_z
Si Si1 0.213453 0.202680 0.568443
Si Si2 0.122135 0.282644 0.758971
Si Si3 0.572102 0.423497 0.885979
Si Si4 0.512076 0.577282 0.381288
Si Si5 0.875154 0.423157 0.239104
Si Si6 0.011849 0.517627 0.379649
Si Si7 0.062355 0.781676 0.885443
O O1 0.500000 0.195056 0.500000
O O2 0.106412 0.141814 0.621272
O O3 0.000000 0.218185 0.500000
O O4 0.204771 0.251293 0.653054
O O5 0.126800 0.353117 0.745432
O O6 0.837561 0.264856 0.818455
O O7 0.329897 0.266144 0.828236
O O8 0.864147 0.439591 0.837959
O O9 0.567322 0.352545 0.890782
O O10 0.368898 0.439104 0.813476
O O11 0.500000 0.445219 0.000000
O O12 0.500000 0.565682 0.500000
O O13 0.817297 0.565890 0.344273
O O14 0.312375 0.534057 0.340232
O O15 0.905586 0.457957 0.339333
O O16 0.000000 0.516660 0.500000
O O17 0.000000 0.760110 0.000000
#
# Coordination Sequence:
#
# PCOD9121253 Si02
#       7
#     4   4   4   4   4   4   4
#     4  11  21  35  53  73 101 133 167 206 243 288
#     4  10  20  32  49  77 105 131 163 197 249 308
#     4   9  17  30  48  70  98 130 164 201 237 282
#     4   9  18  33  51  69  90 124 173 211 232 265
#     4  10  19  31  48  75 104 128 158 195 247 305
#     4  10  19  32  50  72  98 127 160 201 240 282
#     4   9  17  31  50  72 100 131 166 207 243 284
#
# _framework density 17.607144000000002
#
# number of rings (size 3 to 8) (size 9 to 14) (size 15 to 20)
#    0.000    2.286    0.000    4.714    0.000    4.000 
#    0.000    2.143    0.000    0.000    0.000   20.000 
#    0.000    0.000    0.000    0.000    0.000    0.000 
#
# Total GULP energy -77961.559623 kJ/mol
# GULP energy per Si atom -5568.682830 kJ/mol
# Density = 1.756707 g / cm^3
# Si number density = 17.607144 Si / 1000 Ang^3
#
#
#
# Elastic Constant Matrix: (Units=GPa)
#
#
# Indices 1 2 3 4 5 6 
#
# 1 114.7376 35.6163 30.9142 0.0000 5.7726 0.0000
# 2 35.6163 50.3694 40.5202 0.0000 5.2617 0.0000
# 3 30.9142 40.5202 66.4399 0.0000 6.6725 0.0000
# 4 0.0000 0.0000 0.0000 -2.0802 0.0000 0.9579
# 5 5.7726 5.2617 6.6725 0.0000 24.7599 0.0000
# 6 0.0000 0.0000 0.0000 0.9579 0.0000 7.4733
#
#
#
# Elastic Compliance Matrix: (Units=1/GPa)
#
#
# Indices 1 2 3 4 5 6 
#
# 1 0.011204 -0.007279 -0.000685 0.000000 -0.000881 0.000000
# 2 -0.007279 0.043794 -0.023186 0.000000 -0.001361 0.000000
# 3 -0.000685 -0.023186 0.029806 0.000000 -0.002945 0.000000
# 4 0.000000 0.000000 0.000000 -0.453927 0.000000 0.058183
# 5 -0.000881 -0.001361 -0.002945 0.000000 0.041676 0.000000
# 6 0.000000 0.000000 0.000000 0.058183 0.000000 0.126352
#
#
# Mechanical properties :
#
#
# Convention : Reuss Voigt Hill
#
# Bulk Modulus (GPa) = 44.43526 49.51645 46.97586
# Shear Modulus (GPa) = -38.08285 14.33035 -11.87625
#
# Velocity S-wave (km/s) = -4.65577 2.85598 -2.59996
# Velocity P-wave (km/s) = 1.89992 6.24976 4.21009
#
# Compressibility (1/GPa) = 0.02250465
#
# Stress axis : x y z
#
# Youngs Moduli (GPa) = 89.25358 22.83398 33.54988
#
# Poissons Ratio (x) = 0.16621 0.02300
# Poissons Ratio (y) = 0.64967 0.77788
# Poissons Ratio (z) = 0.06118 0.52942
#
# Static dielectric constant tensor:
#      x y z
#    x 1.625430 0.000000 -0.013230 
#    y 0.000000 1.616940 0.000000 
#    z -0.013230 0.000000 1.600350 
# 
# From -- ./inp_files/34100.got.cif
#   From: 2010.05.17/outbox.cif.g08.bks.cpg/sg5_18_cif.got.tgz:34100.got - 2010.06.03 18:56:24.
