data_PCOD9121088
_publ_section_title
;
Structure prediction by ZEFSAII (Michael W. Deem and Ramdas Pophale) SiO2 
 PCOD9121088
Probable space group: C 2
;
_chemical_formula_sum "Si O2"
_cell_formula_units_Z 28
_cell_length_a 21.308701
_cell_length_b 8.691858
_cell_length_c 9.428788
_cell_angle_alpha 90.000000
_cell_angle_beta 42.861851
_cell_angle_gamma 90.000000
_cell_volume 1187.908933
_symmetry_space_group_name_H-M "C 2"
_symmetry_group_IT_number 5
_symmetry_cell_setting 'monoclinic'
loop_
_space_group_symop_operation_xyz
x,y,z
-x,y,-z
1/2+x,1/2+y,z
1/2-x,1/2+y,-z
loop_
_atom_site_type_symbol
_atom_site_label
_atom_site_fract_x
_atom_site_fract_y
_atom_site_fract_z
Si Si1 0.154750 0.382740 0.895400
Si Si2 0.335229 0.465864 0.767661
Si Si3 0.968003 0.526368 0.277750
Si Si4 0.000000 0.723443 0.500000
Si Si5 0.344165 0.532964 0.081462
Si Si6 0.208735 0.571379 0.561476
Si Si7 0.500000 0.511337 0.000000
Si Si8 0.623266 0.690685 0.556698
O O1 0.234963 0.419854 0.873926
O O2 0.122036 0.209898 0.970874
O O3 0.199166 0.416248 0.669994
O O4 0.064580 0.486899 0.046249
O O5 0.409500 0.329444 0.641036
O O6 0.375172 0.599186 0.596541
O O7 0.323965 0.501240 0.952446
O O8 0.893455 0.623531 0.312161
O O9 0.917891 0.361355 0.390633
O O10 0.995117 0.615312 0.372873
O O11 0.258962 0.539161 0.329642
O O12 0.425060 0.433010 0.020384
O O13 0.271579 0.673503 0.561183
O O14 0.435743 0.603864 0.221339
#
# Coordination Sequence:
#
# PCOD9121088 Si02
#       8
#     4   4   4   2   4   4   2   4
#     4  11  25  45  76 106 143 193 254 303 369 458
#     4  11  27  49  73 109 149 202 247 313 373 443
#     4  12  26  45  75 110 147 196 251 311 378 447
#     4  12  30  46  66 110 160 186 252 332 360 434
#     4  11  23  43  75 104 144 194 248 300 370 456
#     4  10  23  43  72 112 144 178 244 318 363 437
#     4  10  18  38  70 108 128 180 248 294 346 438
#     4  10  23  45  79 104 144 198 250 297 378 459
#
# _framework density 23.570831999999999
#
# number of rings (size 3 to 8) (size 9 to 14) (size 15 to 20)
#    0.000    1.143    1.429    3.857    6.000    1.143 
#    5.143    0.000    9.429    0.000    0.000    0.000 
#    0.000    0.000    0.000    0.000    0.000    0.000 
#
# Total GULP energy -78247.963811 kJ/mol
# GULP energy per Si atom -5589.140272 kJ/mol
# Density = 2.351718 g / cm^3
# Si number density = 23.570832 Si / 1000 Ang^3
#
#
#
# Elastic Constant Matrix: (Units=GPa)
#
#
# Indices 1 2 3 4 5 6 
#
# 1 175.4655 25.3026 86.9454 0.0000 1.3258 0.0000
# 2 25.3026 50.5845 27.9041 0.0000 7.6202 0.0000
# 3 86.9454 27.9041 101.8755 0.0000 17.3122 0.0000
# 4 0.0000 0.0000 0.0000 28.0102 0.0000 6.0309
# 5 1.3258 7.6202 17.3122 0.0000 57.4606 0.0000
# 6 0.0000 0.0000 0.0000 6.0309 0.0000 33.0257
#
#
#
# Elastic Compliance Matrix: (Units=1/GPa)
#
#
# Indices 1 2 3 4 5 6 
#
# 1 0.010222 -0.000525 -0.009013 0.000000 0.002549 0.000000
# 2 -0.000525 0.023397 -0.005729 0.000000 -0.001365 0.000000
# 3 -0.009013 -0.005729 0.019933 0.000000 -0.005038 0.000000
# 4 0.000000 0.000000 0.000000 0.037162 0.000000 -0.006786
# 5 0.002549 -0.001365 -0.005038 0.000000 0.019043 0.000000
# 6 0.000000 0.000000 0.000000 -0.006786 0.000000 0.031519
#
#
# Mechanical properties :
#
#
# Convention : Reuss Voigt Hill
#
# Bulk Modulus (GPa) = 43.44274 67.58107 55.51191
# Shear Modulus (GPa) = 27.85785 36.21755 32.03770
#
# Velocity S-wave (km/s) = 3.44157 3.92413 3.69075
# Velocity P-wave (km/s) = 5.85349 7.01893 6.46254
#
# Compressibility (1/GPa) = 0.02301880
#
# Stress axis : x y z
#
# Youngs Moduli (GPa) = 97.83155 42.74019 50.16742
#
# Poissons Ratio (x) = 0.02244 0.45216
# Poissons Ratio (y) = 0.05137 0.28739
# Poissons Ratio (z) = 0.88176 0.24484
#
# Static dielectric constant tensor:
#      x y z
#    x 1.927630 0.000000 -0.047760 
#    y 0.000000 1.950500 0.000000 
#    z -0.047760 0.000000 1.931870 
# 
# From -- ./inp_files/29127.got.cif
#   From: 2010.05.17/outbox.cif.g08.bks.cpg/sg5_15_cif.got.tgz:29127.got - 2010.06.03 18:56:24.
