data_PCOD9121570
_publ_section_title
;
Structure prediction by ZEFSAII (Michael W. Deem and Ramdas Pophale) SiO2 
 PCOD9121570
Probable space group: C 2
;
_chemical_formula_sum "Si O2"
_cell_formula_units_Z 32
_cell_length_a 14.257319
_cell_length_b 7.868890
_cell_length_c 14.733574
_cell_angle_alpha 90.000000
_cell_angle_beta 116.797950
_cell_angle_gamma 90.000000
_cell_volume 1475.425486
_symmetry_space_group_name_H-M "C 2"
_symmetry_group_IT_number 5
_symmetry_cell_setting 'monoclinic'
loop_
_space_group_symop_operation_xyz
x,y,z
-x,y,-z
1/2+x,1/2+y,z
1/2-x,1/2+y,-z
loop_
_atom_site_type_symbol
_atom_site_label
_atom_site_fract_x
_atom_site_fract_y
_atom_site_fract_z
Si Si1 0.989812 0.201990 0.602224
Si Si2 0.797880 0.282659 0.065220
Si Si3 0.740712 0.764156 0.445227
Si Si4 0.764051 0.684072 0.256821
Si Si5 0.373949 0.534467 0.946781
Si Si6 0.050135 0.510237 0.762991
Si Si7 0.826253 0.637001 0.654584
Si Si8 0.808108 0.062001 0.247439
O O1 0.868271 0.178578 0.571286
O O2 0.000000 0.235274 0.500000
O O3 0.023986 0.361796 0.679100
O O4 0.071190 0.054628 0.666361
O O5 0.685927 0.374824 0.032501
O O6 0.887374 0.421518 0.128012
O O7 0.804205 0.140081 0.146473
O O8 0.828905 0.193277 0.985617
O O9 0.778074 0.669940 0.370721
O O10 0.817955 0.758060 0.564226
O O11 0.713757 0.955763 0.403341
O O12 0.671177 0.570579 0.173835
O O13 0.868460 0.631844 0.250450
O O14 0.749307 0.883280 0.228885
O O15 0.500000 0.523268 0.000000
O O16 0.943485 0.605540 0.740386
O O17 0.749956 0.682658 0.704298
#
# Coordination Sequence:
#
# PCOD9121570 Si02
#       8
#     4   4   4   4   4   4   4   4
#     4  10  19  35  55  81 117 171 205 253 311 367
#     4  10  23  47  66  96 128 163 216 270 326 393
#     4  10  22  34  57  83 126 161 214 251 309 376
#     4  10  23  41  58  95 121 164 211 262 321 383
#     4  11  25  45  72  98 128 170 217 271 335 391
#     4   9  22  38  62  85 126 161 210 255 324 373
#     4  10  21  37  56  91 121 169 208 250 316 376
#     4  10  21  39  62  86 128 162 208 264 317 384
#
# _framework density 21.688658
#
# number of rings (size 3 to 8) (size 9 to 14) (size 15 to 20)
#    0.000    2.000    1.250    0.750   10.500    2.000 
#    6.750    0.625    0.000    0.000    0.000    0.000 
#    0.000    0.000    0.000    0.000    0.000    0.000 
#
# Total GULP energy -89359.308574 kJ/mol
# GULP energy per Si atom -5584.956786 kJ/mol
# Density = 2.163929 g / cm^3
# Si number density = 21.688658 Si / 1000 Ang^3
#
#
#
# Elastic Constant Matrix: (Units=GPa)
#
#
# Indices 1 2 3 4 5 6 
#
# 1 62.7166 9.1337 16.3523 0.0000 18.7938 0.0000
# 2 9.1337 27.9465 3.3539 0.0000 6.9362 0.0000
# 3 16.3523 3.3539 47.4948 0.0000 -3.8704 0.0000
# 4 0.0000 0.0000 0.0000 24.1472 0.0000 -0.1736
# 5 18.7938 6.9362 -3.8704 0.0000 37.1652 0.0000
# 6 0.0000 0.0000 0.0000 -0.1736 0.0000 19.1618
#
#
#
# Elastic Compliance Matrix: (Units=1/GPa)
#
#
# Indices 1 2 3 4 5 6 
#
# 1 0.021991 -0.003379 -0.008258 0.000000 -0.011350 0.000000
# 2 -0.003379 0.038543 -0.002022 0.000000 -0.005695 0.000000
# 3 -0.008258 -0.002022 0.024621 0.000000 0.007117 0.000000
# 4 0.000000 0.000000 0.000000 0.041415 0.000000 0.000375
# 5 -0.011350 -0.005695 0.007117 0.000000 0.034450 0.000000
# 6 0.000000 0.000000 0.000000 0.000375 0.000000 0.052191
#
#
# Mechanical properties :
#
#
# Convention : Reuss Voigt Hill
#
# Bulk Modulus (GPa) = 17.29016 21.75976 19.52496
# Shear Modulus (GPa) = 19.24487 23.38268 21.31378
#
# Velocity S-wave (km/s) = 2.98203 3.28702 3.13823
# Velocity P-wave (km/s) = 4.45488 4.94576 4.70672
#
# Compressibility (1/GPa) = 0.05783637
#
# Stress axis : x y z
#
# Youngs Moduli (GPa) = 45.47306 25.94478 40.61598
#
# Poissons Ratio (x) = 0.08768 0.33540
# Poissons Ratio (y) = 0.15367 0.08214
# Poissons Ratio (z) = 0.37550 0.05247
#
# Static dielectric constant tensor:
#      x y z
#    x 1.762130 0.000000 0.005790 
#    y 0.000000 1.839730 0.000000 
#    z 0.005790 0.000000 1.817810 
# 
# From -- ./inp_files/54168.got.cif
#   From: 2010.05.17/outbox.cif.g08.bks.cpg/sg5_28_cif.got.tgz:54168.got - 2010.06.03 18:56:24.
