data_PCOD9121689
_publ_section_title
;
Structure prediction by ZEFSAII (Michael W. Deem and Ramdas Pophale) SiO2 
 PCOD9121689
Probable space group: C 2
;
_chemical_formula_sum "Si O2"
_cell_formula_units_Z 22
_cell_length_a 12.430227
_cell_length_b 17.884173
_cell_length_c 8.519567
_cell_angle_alpha 90.000000
_cell_angle_beta 36.246355
_cell_angle_gamma 90.000000
_cell_volume 1119.805837
_symmetry_space_group_name_H-M "C 2"
_symmetry_group_IT_number 5
_symmetry_cell_setting 'monoclinic'
loop_
_space_group_symop_operation_xyz
x,y,z
-x,y,-z
1/2+x,1/2+y,z
1/2-x,1/2+y,-z
loop_
_atom_site_type_symbol
_atom_site_label
_atom_site_fract_x
_atom_site_fract_y
_atom_site_fract_z
Si Si1 0.000000 0.145620 0.000000
Si Si2 0.796131 0.881347 0.022191
Si Si3 0.757092 0.250314 0.436752
Si Si4 0.068818 0.409343 0.739787
Si Si5 0.000000 0.809613 0.500000
Si Si6 0.201263 0.520045 0.333622
Si Si7 0.500000 0.266079 0.000000
O O1 0.937935 0.201607 0.211277
O O2 0.825776 0.092704 0.186987
O O3 0.923585 0.863127 0.725074
O O4 0.595730 0.885075 0.182209
O O5 0.855458 0.817311 0.074810
O O6 0.806410 0.959159 0.102375
O O7 0.803992 0.336895 0.410445
O O8 0.654413 0.256411 0.391046
O O9 0.616805 0.222718 0.733117
O O10 0.166397 0.479861 0.542964
O O11 0.000000 0.422054 0.000000
O O12 0.000000 0.533989 0.500000
#
# Coordination Sequence:
#
# PCOD9121689 Si02
#       7
#     2   4   4   4   2   4   2
#     4  12  25  42  64  91 138 176 214 258 343 390
#     4  10  19  35  63  94 124 160 217 271 311 375
#     4  11  22  39  65  95 129 171 218 271 322 385
#     4  11  20  39  65  98 123 166 223 270 313 381
#     4  10  20  34  66  96 124 160 224 272 314 370
#     4  10  24  40  64  92 132 173 214 266 326 389
#     4  10  21  36  62  95 128 162 218 272 323 362
#
# _framework density 19.646262
#
# number of rings (size 3 to 8) (size 9 to 14) (size 15 to 20)
#    0.000    1.455    4.545    0.545    3.818    0.000 
#    1.636    0.000    0.000    8.727    0.000    0.000 
#    0.000    0.000    0.000    0.000    0.000    0.000 
#
# Total GULP energy -61320.845056 kJ/mol
# GULP energy per Si atom -5574.622278 kJ/mol
# Density = 1.960155 g / cm^3
# Si number density = 19.646262 Si / 1000 Ang^3
#
#
#
# Elastic Constant Matrix: (Units=GPa)
#
#
# Indices 1 2 3 4 5 6 
#
# 1 78.3659 13.1064 30.2371 0.0000 5.0132 0.0000
# 2 13.1064 53.6503 53.5221 0.0000 -2.2420 0.0000
# 3 30.2371 53.5221 141.7132 -0.0001 20.7143 0.0000
# 4 0.0000 0.0000 -0.0001 33.6414 0.0000 -24.8278
# 5 5.0132 -2.2420 20.7143 0.0000 38.8574 0.0000
# 6 0.0000 0.0000 0.0000 -24.8278 0.0000 1.0998
#
#
#
# Elastic Compliance Matrix: (Units=1/GPa)
#
#
# Indices 1 2 3 4 5 6 
#
# 1 0.013929 -0.000843 -0.002585 0.000000 -0.000468 0.000000
# 2 -0.000843 0.032722 -0.013524 0.000000 0.009206 0.000000
# 3 -0.002585 -0.013524 0.013861 0.000000 -0.007836 0.000000
# 4 0.000000 0.000000 0.000000 -0.001898 0.000000 -0.042849
# 5 -0.000468 0.009206 -0.007836 0.000000 0.030504 0.000000
# 6 0.000000 0.000000 0.000000 -0.042849 0.000000 -0.058060
#
#
# Mechanical properties :
#
#
# Convention : Reuss Voigt Hill
#
# Bulk Modulus (GPa) = 37.58417 51.94007 44.76212
# Shear Modulus (GPa) = 67.72167 26.51063 47.11615
#
# Velocity S-wave (km/s) = 5.87753 3.67740 4.90248
# Velocity P-wave (km/s) = 8.07666 6.67279 7.40805
#
# Compressibility (1/GPa) = 0.02660694
#
# Stress axis : x y z
#
# Youngs Moduli (GPa) = 71.79219 30.56079 72.14367
#
# Poissons Ratio (x) = 0.02577 0.18650
# Poissons Ratio (y) = 0.06054 0.97567
# Poissons Ratio (z) = 0.18559 0.41330
#
# Static dielectric constant tensor:
#      x y z
#    x 1.809540 0.000000 -0.056590 
#    y 0.000000 1.684800 0.000000 
#    z -0.056590 0.000000 1.766020 
# 
# From -- ./inp_files/21155.got.cif
#   From: 2010.05.17/outbox.cif.g08.bks.cpg/sg5_11_cif.got.tgz:21155.got - 2010.06.03 18:56:24.
