data_PCOD9121180
_publ_section_title
;
Structure prediction by ZEFSAII (Michael W. Deem and Ramdas Pophale) SiO2 
 PCOD9121180
Probable space group: C 2
;
_chemical_formula_sum "Si O2"
_cell_formula_units_Z 32
_cell_length_a 19.431769
_cell_length_b 11.118364
_cell_length_c 9.518478
_cell_angle_alpha 90.000000
_cell_angle_beta 129.115393
_cell_angle_gamma 90.000000
_cell_volume 1595.561628
_symmetry_space_group_name_H-M "C 2"
_symmetry_group_IT_number 5
_symmetry_cell_setting 'monoclinic'
loop_
_space_group_symop_operation_xyz
x,y,z
-x,y,-z
1/2+x,1/2+y,z
1/2-x,1/2+y,-z
loop_
_atom_site_type_symbol
_atom_site_label
_atom_site_fract_x
_atom_site_fract_y
_atom_site_fract_z
Si Si1 0.015291 0.479090 0.367682
Si Si2 0.324817 0.586435 0.534416
Si Si3 0.509322 0.749044 0.177310
Si Si4 0.246741 0.741354 0.203951
Si Si5 0.277480 0.007513 0.324658
Si Si6 0.145696 0.662386 0.803440
Si Si7 0.587909 0.638160 0.713673
Si Si8 0.395501 0.404277 0.397845
O O1 0.996356 0.381952 0.223662
O O2 0.119108 0.510582 0.492521
O O3 0.000000 0.417850 0.500000
O O4 0.947139 0.591298 0.289628
O O5 0.398442 0.690030 0.652525
O O6 0.252896 0.642021 0.334501
O O7 0.281597 0.562698 0.628564
O O8 0.368691 0.469137 0.511533
O O9 0.437984 0.664846 0.162027
O O10 0.500000 0.747942 0.000000
O O11 0.342609 0.733927 0.252385
O O12 0.240923 0.873584 0.257658
O O13 0.177348 0.709491 0.994425
O O14 0.285474 0.072627 0.184177
O O15 0.141845 0.774808 0.690327
O O16 0.500000 0.639907 0.500000
O O17 0.631701 0.508242 0.746999
O O18 0.500000 0.389933 0.500000
#
# Coordination Sequence:
#
# PCOD9121180 Si02
#       8
#     4   4   4   4   4   4   4   4
#     4  10  22  47  69  92 134 183 223 269 340 409
#     4  11  25  43  67  98 134 180 216 286 348 398
#     4  12  23  38  68 101 128 170 230 279 337 403
#     4  11  24  43  67 101 134 172 233 279 334 396
#     4  11  24  44  69  95 142 178 222 277 349 402
#     4  11  26  41  71 104 128 178 233 279 328 412
#     4  10  18  41  67  89 127 175 215 265 328 403
#     4  10  20  41  72  89 131 175 223 266 341 405
#
# _framework density 20.055634000000001
#
# number of rings (size 3 to 8) (size 9 to 14) (size 15 to 20)
#    0.000    1.250    5.000    3.000    7.000    1.000 
#    0.000    0.000    0.000    0.000    0.000    0.000 
#    0.000    0.000    0.000    0.000    0.000    0.000 
#
# Total GULP energy -89231.993442 kJ/mol
# GULP energy per Si atom -5576.999590 kJ/mol
# Density = 2.000999 g / cm^3
# Si number density = 20.055634 Si / 1000 Ang^3
#
#
#
# Elastic Constant Matrix: (Units=GPa)
#
#
# Indices 1 2 3 4 5 6 
#
# 1 85.3933 20.7589 18.3423 0.0000 -18.4479 0.0000
# 2 20.7589 93.1852 28.9540 0.0000 -4.4735 0.0000
# 3 18.3423 28.9540 83.2653 0.0000 -14.3894 0.0000
# 4 0.0000 0.0000 0.0000 15.6747 0.0000 -8.7669
# 5 -18.4479 -4.4735 -14.3894 0.0000 30.9794 0.0000
# 6 0.0000 0.0000 0.0000 -8.7669 0.0000 26.6106
#
#
#
# Elastic Compliance Matrix: (Units=1/GPa)
#
#
# Indices 1 2 3 4 5 6 
#
# 1 0.014170 -0.002500 -0.000931 0.000000 0.007644 0.000000
# 2 -0.002500 0.012474 -0.004059 0.000000 -0.001573 0.000000
# 3 -0.000931 -0.004059 0.014601 0.000000 0.005642 0.000000
# 4 0.000000 0.000000 0.000000 0.078208 0.000000 0.025766
# 5 0.007644 -0.001573 0.005642 0.000000 0.039225 0.000000
# 6 0.000000 0.000000 0.000000 0.025766 0.000000 0.046067
#
#
# Mechanical properties :
#
#
# Convention : Reuss Voigt Hill
#
# Bulk Modulus (GPa) = 38.07337 44.21715 41.14526
# Shear Modulus (GPa) = 21.88379 27.57220 24.72800
#
# Velocity S-wave (km/s) = 3.30685 3.71183 3.51518
# Velocity P-wave (km/s) = 5.79702 6.36124 6.08567
#
# Compressibility (1/GPa) = 0.02626507
#
# Stress axis : x y z
#
# Youngs Moduli (GPa) = 70.57273 80.16752 68.48799
#
# Poissons Ratio (x) = 0.20045 0.06375
# Poissons Ratio (y) = 0.17646 0.27796
# Poissons Ratio (z) = 0.06569 0.32537
#
# Static dielectric constant tensor:
#      x y z
#    x 1.700630 0.000000 0.026530 
#    y 0.000000 1.767940 0.000000 
#    z 0.026530 0.000000 1.745020 
# 
# From -- ./inp_files/29632.got.cif
#   From: 2010.05.17/outbox.cif.g08.bks.cpg/sg5_15_cif.got.tgz:29632.got - 2010.06.03 18:56:24.
