data_PCOD9121159
_publ_section_title
;
Structure prediction by ZEFSAII (Michael W. Deem and Ramdas Pophale) SiO2 
 PCOD9121159
Probable space group: C 2
;
_chemical_formula_sum "Si O2"
_cell_formula_units_Z 22
_cell_length_a 13.576653
_cell_length_b 8.772084
_cell_length_c 13.104140
_cell_angle_alpha 90.000000
_cell_angle_beta 36.971828
_cell_angle_gamma 90.000000
_cell_volume 938.606434
_symmetry_space_group_name_H-M "C 2"
_symmetry_group_IT_number 5
_symmetry_cell_setting 'monoclinic'
loop_
_space_group_symop_operation_xyz
x,y,z
-x,y,-z
1/2+x,1/2+y,z
1/2-x,1/2+y,-z
loop_
_atom_site_type_symbol
_atom_site_label
_atom_site_fract_x
_atom_site_fract_y
_atom_site_fract_z
Si Si1 0.921827 0.148150 0.664748
Si Si2 0.040097 0.453540 0.829539
Si Si3 0.000000 0.648374 0.500000
Si Si4 0.596961 0.286123 0.832887
Si Si5 0.175338 0.412677 0.501320
Si Si6 0.230772 0.857461 0.171409
O O1 0.766773 0.239912 0.748207
O O2 0.000000 0.069969 0.500000
O O3 0.053783 0.267197 0.594888
O O4 0.866603 0.009719 0.779721
O O5 0.999573 0.630568 0.887895
O O6 0.149561 0.461714 0.637898
O O7 0.157759 0.398459 0.822275
O O8 0.876458 0.347740 0.965522
O O9 0.117661 0.540738 0.469563
O O10 0.105483 0.736680 0.324866
O O11 0.647932 0.363689 0.685737
O O12 0.500000 0.377403 0.000000
#
# Coordination Sequence:
#
# PCOD9121159 Si02
#       6
#     4   4   2   4   4   4
#     4   9  16  37  63  81 112 165 202 229 295 364
#     4  10  22  41  63  90 116 160 212 242 296 361
#     4  12  24  40  58  96 130 152 192 264 314 336
#     4  10  18  40  67  82 116 166 205 240 292 370
#     4  11  24  39  61  95 125 154 202 257 301 355
#     4  10  21  41  65  84 122 166 202 245 299 367
#
# _framework density 23.439004000000001
#
# number of rings (size 3 to 8) (size 9 to 14) (size 15 to 20)
#    0.000    1.818    7.273    0.000    2.545    1.455 
#    3.273    0.000    0.000    0.000    0.000    0.000 
#    0.000    0.000    0.000    0.000    0.000    0.000 
#
# Total GULP energy -61315.668464 kJ/mol
# GULP energy per Si atom -5574.151679 kJ/mol
# Density = 2.338566 g / cm^3
# Si number density = 23.439004 Si / 1000 Ang^3
#
#
#
# Elastic Constant Matrix: (Units=GPa)
#
#
# Indices 1 2 3 4 5 6 
#
# 1 27.2664 4.2633 12.2083 0.0000 3.0133 0.0000
# 2 4.2633 64.7937 28.2819 0.0000 -8.0251 0.0000
# 3 12.2083 28.2819 181.5860 0.0000 15.4808 0.0000
# 4 0.0000 0.0000 0.0000 31.9476 0.0000 -1.0695
# 5 3.0133 -8.0251 15.4808 0.0000 36.6338 0.0000
# 6 0.0000 0.0000 0.0000 -1.0695 0.0000 9.8519
#
#
#
# Elastic Compliance Matrix: (Units=1/GPa)
#
#
# Indices 1 2 3 4 5 6 
#
# 1 0.038191 -0.001963 -0.002031 0.000000 -0.002713 0.000000
# 2 -0.001963 0.017551 -0.003053 0.000000 0.005297 0.000000
# 3 -0.002031 -0.003053 0.006392 0.000000 -0.003203 0.000000
# 4 0.000000 0.000000 0.000000 0.031415 0.000000 0.003410
# 5 -0.002713 0.005297 -0.003203 0.000000 0.030034 0.000000
# 6 0.000000 0.000000 0.000000 0.003410 0.000000 0.101874
#
#
# Mechanical properties :
#
#
# Convention : Reuss Voigt Hill
#
# Bulk Modulus (GPa) = 20.81522 40.35033 30.58278
# Shear Modulus (GPa) = 19.56449 30.94615 25.25532
#
# Velocity S-wave (km/s) = 2.89225 3.63751 3.28608
# Velocity P-wave (km/s) = 4.47810 5.90715 5.24155
#
# Compressibility (1/GPa) = 0.04804176
#
# Stress axis : x y z
#
# Youngs Moduli (GPa) = 26.18416 56.97535 156.44159
#
# Poissons Ratio (x) = 0.11182 0.31768
# Poissons Ratio (y) = 0.05139 0.47765
# Poissons Ratio (z) = 0.05317 0.17396
#
# Static dielectric constant tensor:
#      x y z
#    x 1.861400 0.000000 -0.012170 
#    y 0.000000 1.901910 0.000000 
#    z -0.012170 0.000000 2.010880 
# 
# From -- ./inp_files/26421.got.cif
#   From: 2010.05.17/outbox.cif.g08.bks.cpg/sg5_14_cif.got.tgz:26421.got - 2010.06.03 18:56:24.
