data_PCOD9121426
_publ_section_title
;
Structure prediction by ZEFSAII (Michael W. Deem and Ramdas Pophale) SiO2 
 PCOD9121426
Probable space group: C 2
;
_chemical_formula_sum "Si O2"
_cell_formula_units_Z 24
_cell_length_a 10.246242
_cell_length_b 17.916436
_cell_length_c 7.449276
_cell_angle_alpha 90.000000
_cell_angle_beta 136.796805
_cell_angle_gamma 90.000000
_cell_volume 936.180139
_symmetry_space_group_name_H-M "C 2"
_symmetry_group_IT_number 5
_symmetry_cell_setting 'monoclinic'
loop_
_space_group_symop_operation_xyz
x,y,z
-x,y,-z
1/2+x,1/2+y,z
1/2-x,1/2+y,-z
loop_
_atom_site_type_symbol
_atom_site_label
_atom_site_fract_x
_atom_site_fract_y
_atom_site_fract_z
Si Si1 0.707685 0.225310 0.499436
Si Si2 0.823214 0.874449 0.408517
Si Si3 0.229526 0.932762 0.267384
Si Si4 0.121871 0.310050 0.859482
Si Si5 0.778921 0.097382 0.841337
Si Si6 0.781062 0.159380 0.217664
O O1 0.587119 0.299533 0.410829
O O2 0.254294 0.102725 0.979101
O O3 0.670532 0.172077 0.292799
O O4 0.704159 0.170698 0.664814
O O5 0.000000 0.918621 0.500000
O O6 0.266507 0.917185 0.514861
O O7 0.690396 0.845746 0.114860
O O8 0.333521 0.874242 0.241540
O O9 0.288668 0.017094 0.288842
O O10 0.000000 0.926108 0.000000
O O11 0.914660 0.267803 0.674974
O O12 0.234187 0.239345 0.894065
O O13 0.000000 0.099909 0.000000
O O14 0.000000 0.145777 0.500000
#
# Coordination Sequence:
#
# PCOD9121426 Si02
#       6
#     4   4   4   4   4   4
#     4  11  22  39  71  96 117 167 226 267 306 385
#     4  12  23  38  62  91 128 172 207 258 325 385
#     4  11  25  39  56  94 140 164 205 272 334 372
#     4  11  21  38  62  94 120 169 219 265 309 386
#     4  11  20  37  59  95 130 158 214 273 314 369
#     4  10  19  33  64  95 117 159 218 267 303 366
#
# _framework density 25.636092999999999
#
# number of rings (size 3 to 8) (size 9 to 14) (size 15 to 20)
#    0.000    1.000    8.333    0.500    0.000    1.333 
#    0.000    0.000    3.667    0.000    0.000    0.000 
#    0.000    0.000    0.000    0.000    0.000    0.000 
#
# Total GULP energy -67086.066555 kJ/mol
# GULP energy per Si atom -5590.505546 kJ/mol
# Density = 2.557774 g / cm^3
# Si number density = 25.636093 Si / 1000 Ang^3
#
#
#
# Elastic Constant Matrix: (Units=GPa)
#
#
# Indices 1 2 3 4 5 6 
#
# 1 134.8063 26.1452 57.3052 0.0000 -16.8901 0.0000
# 2 26.1452 152.0721 37.1779 0.0000 -23.4883 0.0000
# 3 57.3052 37.1779 142.5973 0.0000 -36.8568 0.0000
# 4 0.0000 0.0000 0.0000 26.6446 0.0000 -14.3898
# 5 -16.8901 -23.4883 -36.8568 0.0000 67.4982 0.0000
# 6 0.0000 0.0000 0.0000 -14.3898 0.0000 12.9755
#
#
#
# Elastic Compliance Matrix: (Units=1/GPa)
#
#
# Indices 1 2 3 4 5 6 
#
# 1 0.009019 -0.000694 -0.003403 0.000000 0.000157 0.000000
# 2 -0.000694 0.007245 -0.001168 0.000000 0.001710 0.000000
# 3 -0.003403 -0.001168 0.009733 0.000000 0.004057 0.000000
# 4 0.000000 0.000000 0.000000 0.093576 0.000000 0.103775
# 5 0.000157 0.001710 0.004057 0.000000 0.017665 0.000000
# 6 0.000000 0.000000 0.000000 0.103775 0.000000 0.192154
#
#
# Mechanical properties :
#
#
# Convention : Reuss Voigt Hill
#
# Bulk Modulus (GPa) = 64.65463 74.52580 69.59021
# Shear Modulus (GPa) = 14.48949 42.01350 28.25150
#
# Velocity S-wave (km/s) = 2.37997 4.05265 3.32327
# Velocity P-wave (km/s) = 5.72951 7.14370 6.47533
#
# Compressibility (1/GPa) = 0.01546680
#
# Stress axis : x y z
#
# Youngs Moduli (GPa) = 110.87828 138.03004 102.74027
#
# Poissons Ratio (x) = 0.09585 0.34960
# Poissons Ratio (y) = 0.07700 0.11999
# Poissons Ratio (z) = 0.37729 0.16121
#
# Static dielectric constant tensor:
#      x y z
#    x 2.130170 0.000000 0.055400 
#    y 0.000000 1.937100 0.000000 
#    z 0.055400 0.000000 2.143780 
# 
# From -- ./inp_files/21062.got.cif
#   From: 2010.05.17/outbox.cif.g08.bks.cpg/sg5_11_cif.got.tgz:21062.got - 2010.06.03 18:56:24.
