data_PCOD9121129
_publ_section_title
;
Structure prediction by ZEFSAII (Michael W. Deem and Ramdas Pophale) SiO2 
 PCOD9121129
Probable space group: C 2
;
_chemical_formula_sum "Si O2"
_cell_formula_units_Z 22
_cell_length_a 24.254279
_cell_length_b 8.683704
_cell_length_c 9.888115
_cell_angle_alpha 90.000000
_cell_angle_beta 29.996799
_cell_angle_gamma 90.000000
_cell_volume 1041.201693
_symmetry_space_group_name_H-M "C 2"
_symmetry_group_IT_number 5
_symmetry_cell_setting 'monoclinic'
loop_
_space_group_symop_operation_xyz
x,y,z
-x,y,-z
1/2+x,1/2+y,z
1/2-x,1/2+y,-z
loop_
_atom_site_type_symbol
_atom_site_label
_atom_site_fract_x
_atom_site_fract_y
_atom_site_fract_z
Si Si1 0.758896 0.233410 0.828317
Si Si2 0.269161 0.751907 0.267775
Si Si3 0.510488 0.810305 0.689113
Si Si4 0.158701 0.557722 0.284547
Si Si5 0.225924 0.581425 0.620719
Si Si6 0.500000 0.946778 0.000000
O O1 0.757438 0.414571 0.866210
O O2 0.727089 0.199872 0.742000
O O3 0.890877 0.197553 0.564941
O O4 0.686603 0.135400 0.084232
O O5 0.179784 0.679363 0.358730
O O6 0.289551 0.645031 0.355471
O O7 0.236496 0.918467 0.396042
O O8 0.383915 0.767549 0.941623
O O9 0.457508 0.972023 0.448971
O O10 0.528719 0.842991 0.809740
O O11 0.103253 0.547776 0.826598
#
# Coordination Sequence:
#
# PCOD9121129 Si02
#       6
#     4   4   4   4   4   2
#     4  10  21  40  63  93 135 170 221 273 335 393
#     4  11  21  40  69  92 135 175 222 272 337 393
#     4   9  21  38  69  87 132 171 218 263 342 377
#     4  10  21  41  66  95 136 171 221 272 329 408
#     4  11  21  37  67  95 128 180 219 281 331 395
#     4  10  18  40  60  98 126 168 224 270 334 392
#
# _framework density 21.129432000000001
#
# number of rings (size 3 to 8) (size 9 to 14) (size 15 to 20)
#    1.091    0.727    1.818    4.364    0.000    0.727 
#    3.273    3.636   16.000    1.091    0.000    0.000 
#    0.000    0.000    0.000    0.000    0.000    0.000 
#
# Total GULP energy -61366.582618 kJ/mol
# GULP energy per Si atom -5578.780238 kJ/mol
# Density = 2.108134 g / cm^3
# Si number density = 21.129432 Si / 1000 Ang^3
#
#
#
# Elastic Constant Matrix: (Units=GPa)
#
#
# Indices 1 2 3 4 5 6 
#
# 1 67.4199 12.8563 15.2959 0.0000 11.8513 0.0000
# 2 12.8563 56.5987 25.4033 0.0000 -5.9049 0.0000
# 3 15.2959 25.4033 79.5103 0.0000 28.3921 0.0000
# 4 0.0000 0.0000 0.0000 48.1086 0.0000 10.1999
# 5 11.8513 -5.9049 28.3921 0.0000 20.6314 0.0000
# 6 0.0000 0.0000 0.0000 10.1999 0.0000 11.7420
#
#
#
# Elastic Compliance Matrix: (Units=1/GPa)
#
#
# Indices 1 2 3 4 5 6 
#
# 1 0.020075 -0.012655 0.010996 0.000000 -0.030285 0.000000
# 2 -0.012655 0.044867 -0.037519 0.000000 0.071742 0.000000
# 3 0.010996 -0.037519 0.056113 0.000000 -0.094275 0.000000
# 4 0.000000 0.000000 0.000000 0.025479 0.000000 -0.022132
# 5 -0.030285 0.071742 -0.094275 0.000000 0.216138 0.000000
# 6 0.000000 0.000000 0.000000 -0.022132 0.000000 0.104390
#
#
# Mechanical properties :
#
#
# Convention : Reuss Voigt Hill
#
# Bulk Modulus (GPa) = 23.41948 34.51554 28.96751
# Shear Modulus (GPa) = 8.93416 26.09464 17.51440
#
# Velocity S-wave (km/s) = 2.05851 3.51805 2.88220
# Velocity P-wave (km/s) = 4.09364 5.73350 4.98151
#
# Compressibility (1/GPa) = 0.04269949
#
# Stress axis : x y z
#
# Youngs Moduli (GPa) = 49.81440 22.28800 17.82111
#
# Poissons Ratio (x) = 0.28205 -0.19596
# Poissons Ratio (y) = 0.63039 0.66863
# Poissons Ratio (z) = -0.54775 0.83622
#
# Static dielectric constant tensor:
#      x y z
#    x 1.757700 0.000000 -0.001680 
#    y 0.000000 1.765520 0.000000 
#    z -0.001680 0.000000 1.810590 
# 
# From -- ./inp_files/28850.got.cif
#   From: 2010.05.17/outbox.cif.g08.bks.cpg/sg5_15_cif.got.tgz:28850.got - 2010.06.03 18:56:24.
