data_PCOD9121089
_publ_section_title
;
Structure prediction by ZEFSAII (Michael W. Deem and Ramdas Pophale) SiO2 
 PCOD9121089
Probable space group: C 2
;
_chemical_formula_sum "Si O2"
_cell_formula_units_Z 26
_cell_length_a 14.344626
_cell_length_b 8.680881
_cell_length_c 12.735148
_cell_angle_alpha 90.000000
_cell_angle_beta 135.089710
_cell_angle_gamma 90.000000
_cell_volume 1119.595064
_symmetry_space_group_name_H-M "C 2"
_symmetry_group_IT_number 5
_symmetry_cell_setting 'monoclinic'
loop_
_space_group_symop_operation_xyz
x,y,z
-x,y,-z
1/2+x,1/2+y,z
1/2-x,1/2+y,-z
loop_
_atom_site_type_symbol
_atom_site_label
_atom_site_fract_x
_atom_site_fract_y
_atom_site_fract_z
Si Si1 0.410523 0.378730 0.137605
Si Si2 0.399796 0.130961 0.723917
Si Si3 0.947248 0.475777 0.341280
Si Si4 0.822628 0.185696 0.151659
Si Si5 0.000000 0.419406 0.000000
Si Si6 0.727806 0.249793 0.774700
Si Si7 0.344727 0.524263 0.383729
O O1 0.551085 0.306652 0.220754
O O2 0.379791 0.559834 0.115895
O O3 0.376760 0.328278 0.229311
O O4 0.303008 0.278087 0.989851
O O5 0.458631 0.069514 0.661850
O O6 0.242603 0.109588 0.599893
O O7 0.465304 0.025041 0.870028
O O8 0.925524 0.314579 0.266914
O O9 0.810315 0.572232 0.247453
O O10 0.000000 0.454847 0.500000
O O11 0.785908 0.097614 0.229339
O O12 0.126070 0.308022 0.080823
O O13 0.689826 0.342315 0.638517
O O14 0.500000 0.548045 0.500000
#
# Coordination Sequence:
#
# PCOD9121089 Si02
#       7
#     4   4   4   4   2   4   4
#     4  10  19  37  63  95 123 165 221 276 343 389
#     4  10  21  39  69  97 133 175 216 276 337 410
#     4  11  23  42  62  94 139 182 226 273 327 401
#     4  11  22  38  64  90 130 172 220 288 338 396
#     4  10  18  38  70 108 138 172 220 276 350 400
#     4   9  19  36  64  92 128 171 217 271 323 397
#     4  10  21  41  64  93 132 176 217 264 336 418
#
# _framework density 23.22268
#
# number of rings (size 3 to 8) (size 9 to 14) (size 15 to 20)
#    0.000    1.846    0.000    6.462    0.000    0.000 
#    0.000   23.846    0.000    4.615    0.000    0.000 
#    0.000    0.000    0.000    0.000    0.000    0.000 
#
# Total GULP energy -72523.934523 kJ/mol
# GULP energy per Si atom -5578.764194 kJ/mol
# Density = 2.316982 g / cm^3
# Si number density = 23.222680 Si / 1000 Ang^3
#
#
#
# Elastic Constant Matrix: (Units=GPa)
#
#
# Indices 1 2 3 4 5 6 
#
# 1 93.8316 42.1545 41.0056 0.0000 29.7298 0.0000
# 2 42.1545 149.1497 47.6875 0.0000 18.4992 0.0000
# 3 41.0056 47.6875 81.5670 0.0000 18.8850 0.0000
# 4 0.0000 0.0000 0.0000 20.8060 0.0000 -3.9315
# 5 29.7298 18.4992 18.8850 0.0000 42.4670 0.0000
# 6 0.0000 0.0000 0.0000 -3.9315 0.0000 20.3980
#
#
#
# Elastic Compliance Matrix: (Units=1/GPa)
#
#
# Indices 1 2 3 4 5 6 
#
# 1 0.016453 -0.001953 -0.005195 0.000000 -0.008357 0.000000
# 2 -0.001953 0.008578 -0.003885 0.000000 -0.000642 0.000000
# 3 -0.005195 -0.003885 0.017735 0.000000 -0.002558 0.000000
# 4 0.000000 0.000000 0.000000 0.049880 0.000000 0.009614
# 5 -0.008357 -0.000642 -0.002558 0.000000 0.030816 0.000000
# 6 0.000000 0.000000 0.000000 0.009614 0.000000 0.050877
#
#
# Mechanical properties :
#
#
# Convention : Reuss Voigt Hill
#
# Bulk Modulus (GPa) = 48.30564 65.13817 56.72191
# Shear Modulus (GPa) = 24.59377 29.64756 27.12067
#
# Velocity S-wave (km/s) = 3.25782 3.57692 3.42109
# Velocity P-wave (km/s) = 5.91586 6.72082 6.33115
#
# Compressibility (1/GPa) = 0.02070152
#
# Stress axis : x y z
#
# Youngs Moduli (GPa) = 60.78030 116.57281 56.38633
#
# Poissons Ratio (x) = 0.22762 0.29290
# Poissons Ratio (y) = 0.11868 0.21906
# Poissons Ratio (z) = 0.31573 0.45288
#
# Static dielectric constant tensor:
#      x y z
#    x 1.961380 0.000000 -0.075150 
#    y 0.000000 1.992450 0.000000 
#    z -0.075150 0.000000 1.988000 
# 
# From -- ./inp_files/54332.got.cif
#   From: 2010.05.17/outbox.cif.g08.bks.cpg/sg5_28_cif.got.tgz:54332.got - 2010.06.03 18:56:24.
