data_PCOD9121719
_publ_section_title
;
Structure prediction by ZEFSAII (Michael W. Deem and Ramdas Pophale) SiO2 
 PCOD9121719
Probable space group: C 2
;
_chemical_formula_sum "Si O2"
_cell_formula_units_Z 28
_cell_length_a 17.062114
_cell_length_b 10.422983
_cell_length_c 16.270209
_cell_angle_alpha 90.000000
_cell_angle_beta 24.963849
_cell_angle_gamma 90.000000
_cell_volume 1221.175656
_symmetry_space_group_name_H-M "C 2"
_symmetry_group_IT_number 5
_symmetry_cell_setting 'monoclinic'
loop_
_space_group_symop_operation_xyz
x,y,z
-x,y,-z
1/2+x,1/2+y,z
1/2-x,1/2+y,-z
loop_
_atom_site_type_symbol
_atom_site_label
_atom_site_fract_x
_atom_site_fract_y
_atom_site_fract_z
Si Si1 0.804762 0.231160 0.733388
Si Si2 0.189947 0.789719 0.679556
Si Si3 0.468609 0.657713 0.734370
Si Si4 0.249748 0.507352 0.130227
Si Si5 0.514445 0.242414 0.579543
Si Si6 0.830427 0.838336 0.911972
Si Si7 0.643988 0.572856 0.719776
O O1 0.668912 0.212998 0.784976
O O2 0.766714 0.370701 0.809082
O O3 0.000000 0.235439 0.500000
O O4 0.838461 0.135408 0.778068
O O5 0.361693 0.739943 0.463868
O O6 0.235825 0.938187 0.656346
O O7 0.999653 0.789886 0.809388
O O8 0.582274 0.558755 0.682662
O O9 0.339856 0.739014 0.918850
O O10 0.099334 0.609181 0.301006
O O11 0.245164 0.464521 0.037832
O O12 0.451413 0.569775 0.952106
O O13 0.500000 0.289440 0.500000
O O14 0.420721 0.335413 0.735884
O O15 0.725444 0.195434 0.395174
#
# Coordination Sequence:
#
# PCOD9121719 Si02
#       7
#     4   4   4   4   4   4   4
#     4   9  18  34  59  88 118 145 186 250 296 348
#     4  10  20  36  58  85 118 149 197 245 300 352
#     4  10  19  36  54  85 122 150 190 235 304 360
#     4  10  21  37  59  86 118 149 193 243 303 357
#     4  12  23  37  58  91 121 148 198 252 297 353
#     4  10  21  36  55  85 117 160 187 237 304 363
#     4  11  21  34  58  86 115 155 192 238 305 358
#
# _framework density 22.928723999999999
#
# number of rings (size 3 to 8) (size 9 to 14) (size 15 to 20)
#    0.000    1.714    2.857    3.857    0.000    8.000 
#    0.000    0.000    0.000   10.286    0.000    2.000 
#    0.000    0.000    0.000    0.000    0.000    0.000 
#
# Total GULP energy -78049.023511 kJ/mol
# GULP energy per Si atom -5574.930251 kJ/mol
# Density = 2.287654 g / cm^3
# Si number density = 22.928724 Si / 1000 Ang^3
#
#
#
# Elastic Constant Matrix: (Units=GPa)
#
#
# Indices 1 2 3 4 5 6 
#
# 1 146.3888 13.8239 22.3637 0.0005 31.9870 0.0000
# 2 13.8239 31.2402 5.4802 -0.0016 0.6502 0.0002
# 3 22.3637 5.4802 96.9543 -0.0011 10.6462 0.0002
# 4 0.0005 -0.0016 -0.0011 29.2974 0.0002 -0.7069
# 5 31.9870 0.6502 10.6462 0.0002 32.3779 0.0000
# 6 0.0000 0.0002 0.0002 -0.7069 0.0000 26.1406
#
#
#
# Elastic Compliance Matrix: (Units=1/GPa)
#
#
# Indices 1 2 3 4 5 6 
#
# 1 0.009240 -0.003738 -0.000961 0.000000 -0.008738 0.000000
# 2 -0.003738 0.033843 -0.001433 0.000002 0.003485 0.000000
# 3 -0.000961 -0.001433 0.010903 0.000000 -0.002607 0.000000
# 4 0.000000 0.000002 0.000000 0.034155 0.000000 0.000924
# 5 -0.008738 0.003485 -0.002607 0.000000 0.040305 0.000000
# 6 0.000000 0.000000 0.000000 0.000924 0.000000 0.038280
#
#
# Mechanical properties :
#
#
# Convention : Reuss Voigt Hill
#
# Bulk Modulus (GPa) = 23.96834 39.76878 31.86856
# Shear Modulus (GPa) = 25.92048 33.09088 29.50568
#
# Velocity S-wave (km/s) = 3.36591 3.80308 3.59115
# Velocity P-wave (km/s) = 5.05786 6.05530 5.57892
#
# Compressibility (1/GPa) = 0.04172170
#
# Stress axis : x y z
#
# Youngs Moduli (GPa) = 108.22343 29.54803 91.71773
#
# Poissons Ratio (x) = 0.11046 0.08810
# Poissons Ratio (y) = 0.40459 0.13146
# Poissons Ratio (z) = 0.10396 0.04235
#
# Static dielectric constant tensor:
#      x y z
#    x 1.978400 0.000000 0.008540 
#    y 0.000000 1.908100 0.000000 
#    z 0.008540 0.000000 1.886050 
# 
# From -- ./inp_files/54740.got.cif
#   From: 2010.05.17/outbox.cif.g08.bks.cpg/sg5_28_cif.got.tgz:54740.got - 2010.06.03 18:56:24.
