data_PCOD9121770
_publ_section_title
;
Structure prediction by ZEFSAII (Michael W. Deem and Ramdas Pophale) SiO2 
 PCOD9121770
Probable space group: C 2
;
_chemical_formula_sum "Si O2"
_cell_formula_units_Z 24
_cell_length_a 14.874761
_cell_length_b 13.663683
_cell_length_c 11.221861
_cell_angle_alpha 90.000000
_cell_angle_beta 149.618466
_cell_angle_gamma 90.000000
_cell_volume 1153.515656
_symmetry_space_group_name_H-M "C 2"
_symmetry_group_IT_number 5
_symmetry_cell_setting 'monoclinic'
loop_
_space_group_symop_operation_xyz
x,y,z
-x,y,-z
1/2+x,1/2+y,z
1/2-x,1/2+y,-z
loop_
_atom_site_type_symbol
_atom_site_label
_atom_site_fract_x
_atom_site_fract_y
_atom_site_fract_z
Si Si1 0.332627 0.884820 0.634893
Si Si2 0.707570 0.281094 0.265793
Si Si3 0.240062 0.377688 0.171576
Si Si4 0.334647 0.083929 0.896242
Si Si5 0.500000 0.921509 0.500000
Si Si6 0.941955 0.569517 0.628633
Si Si7 0.500000 0.218110 0.500000
O O1 0.248373 0.806749 0.448935
O O2 0.260591 0.873447 0.685093
O O3 0.311680 0.994580 0.552408
O O4 0.544191 0.866206 0.892053
O O5 0.753302 0.171574 0.275743
O O6 0.831399 0.355628 0.336100
O O7 0.500000 0.293876 0.000000
O O8 0.283985 0.491904 0.201874
O O9 0.367712 0.290849 0.279100
O O10 0.500000 0.048302 0.000000
O O11 0.434123 0.117825 0.129821
O O12 0.542254 0.990279 0.660368
O O13 0.893975 0.650327 0.474319
#
# Coordination Sequence:
#
# PCOD9121770 Si02
#       7
#     4   4   4   4   2   4   2
#     4   9  19  41  63  77 126 164 198 242 312 368
#     4  10  22  36  66  93 114 161 213 247 302 374
#     4  10  20  38  60  88 119 166 194 252 307 360
#     4  10  19  36  60  86 119 165 197 247 310 363
#     4   9  20  41  62  84 124 167 192 257 314 356
#     4   9  19  39  61  81 128 162 191 249 319 359
#     4  11  24  33  64  98 116 155 212 253 302 364
#
# _framework density 20.805958
#
# number of rings (size 3 to 8) (size 9 to 14) (size 15 to 20)
#    0.000    2.333    3.333    0.000    4.667    4.667 
#    0.000    1.667   40.333    0.000    0.000    0.000 
#    0.000    0.000    0.000    0.000    0.000    0.000 
#
# Total GULP energy -66810.221571 kJ/mol
# GULP energy per Si atom -5567.518464 kJ/mol
# Density = 2.075860 g / cm^3
# Si number density = 20.805958 Si / 1000 Ang^3
#
#
#
# Elastic Constant Matrix: (Units=GPa)
#
#
# Indices 1 2 3 4 5 6 
#
# 1 43.7526 7.5107 14.4044 0.0000 -11.4193 0.0000
# 2 7.5107 111.4118 38.9744 0.0000 -4.3346 0.0000
# 3 14.4044 38.9744 86.5595 0.0000 -17.1552 0.0000
# 4 0.0000 0.0000 0.0000 37.4220 0.0000 -5.3807
# 5 -11.4193 -4.3346 -17.1552 0.0000 35.3585 0.0000
# 6 0.0000 0.0000 0.0000 -5.3807 0.0000 14.7592
#
#
#
# Elastic Compliance Matrix: (Units=1/GPa)
#
#
# Indices 1 2 3 4 5 6 
#
# 1 0.025628 -0.000530 -0.002654 0.000000 0.006924 0.000000
# 2 -0.000530 0.010706 -0.004985 0.000000 -0.001278 0.000000
# 3 -0.002654 -0.004985 0.015432 0.000000 0.006019 0.000000
# 4 0.000000 0.000000 0.000000 0.028200 0.000000 0.010281
# 5 0.006924 -0.001278 0.006019 0.000000 0.033282 0.000000
# 6 0.000000 0.000000 0.000000 0.010281 0.000000 0.071502
#
#
# Mechanical properties :
#
#
# Convention : Reuss Voigt Hill
#
# Bulk Modulus (GPa) = 28.22696 40.38923 34.30810
# Shear Modulus (GPa) = 23.48553 29.56357 26.52455
#
# Velocity S-wave (km/s) = 3.36339 3.77360 3.57438
# Velocity P-wave (km/s) = 5.35532 6.20010 5.79313
#
# Compressibility (1/GPa) = 0.03542712
#
# Stress axis : x y z
#
# Youngs Moduli (GPa) = 39.02040 93.40790 64.80030
#
# Poissons Ratio (x) = 0.04950 0.17197
# Poissons Ratio (y) = 0.02068 0.32306
# Poissons Ratio (z) = 0.10355 0.46568
#
# Static dielectric constant tensor:
#      x y z
#    x 1.808460 0.000000 -0.020550 
#    y 0.000000 1.816750 0.000000 
#    z -0.020550 0.000000 1.741460 
# 
# From -- ./inp_files/44749.got.cif
#   From: 2010.05.17/outbox.cif.g08.bks.cpg/sg5_23_cif.got.tgz:44749.got - 2010.06.03 18:56:24.
