data_PCOD9121992
_publ_section_title
;
Structure prediction by ZEFSAII (Michael W. Deem and Ramdas Pophale) SiO2 
 PCOD9121992
Probable space group: C 2
;
_chemical_formula_sum "Si O2"
_cell_formula_units_Z 20
_cell_length_a 13.624054
_cell_length_b 11.893697
_cell_length_c 12.021283
_cell_angle_alpha 90.000000
_cell_angle_beta 26.977440
_cell_angle_gamma 90.000000
_cell_volume 883.659680
_symmetry_space_group_name_H-M "C 2"
_symmetry_group_IT_number 5
_symmetry_cell_setting 'monoclinic'
loop_
_space_group_symop_operation_xyz
x,y,z
-x,y,-z
1/2+x,1/2+y,z
1/2-x,1/2+y,-z
loop_
_atom_site_type_symbol
_atom_site_label
_atom_site_fract_x
_atom_site_fract_y
_atom_site_fract_z
Si Si1 0.630681 0.050540 0.111589
Si Si2 0.737771 0.636343 0.249604
Si Si3 0.993382 0.976836 0.125786
Si Si4 0.838016 0.677419 0.562557
Si Si5 0.742450 0.924640 0.602613
O O1 0.465673 0.145041 0.321091
O O2 0.499500 0.945951 0.195255
O O3 0.767642 0.099689 0.873351
O O4 0.769744 0.009043 0.073741
O O5 0.500000 0.700192 0.500000
O O6 0.716360 0.529108 0.355249
O O7 0.000000 0.669870 0.000000
O O8 0.857273 0.089958 0.240455
O O9 0.884444 0.923781 0.345828
O O10 0.000000 0.915422 0.000000
O O11 0.767645 0.805965 0.635566
O O12 0.000000 0.658022 0.500000
#
# Coordination Sequence:
#
# PCOD9121992 Si02
#       5
#     4   4   4   4   4
#     4  10  22  40  62  95 137 170 216 277 342 393
#     4  10  19  37  64  94 125 173 218 274 332 395
#     4  11  22  40  63  90 135 176 209 270 341 398
#     4  11  23  40  64 102 127 167 229 280 326 399
#     4  10  23  39  65  95 130 171 226 276 332 397
#
# _framework density 22.633146
#
# number of rings (size 3 to 8) (size 9 to 14) (size 15 to 20)
#    0.000    1.600    4.000    0.600    0.000    4.000 
#    0.000    5.000    0.000    2.400    0.000    0.000 
#    0.000    0.000    0.000    0.000    0.000    0.000 
#
# Total GULP energy -55739.550805 kJ/mol
# GULP energy per Si atom -5573.955081 kJ/mol
# Density = 2.258163 g / cm^3
# Si number density = 22.633146 Si / 1000 Ang^3
#
#
#
# Elastic Constant Matrix: (Units=GPa)
#
#
# Indices 1 2 3 4 5 6 
#
# 1 109.6966 8.2173 10.0360 -0.0013 -7.3877 0.0050
# 2 8.2173 50.5697 12.4969 -0.0005 -8.1168 0.0075
# 3 10.0360 12.4969 118.6231 -0.0005 6.5928 0.0054
# 4 -0.0013 -0.0005 -0.0005 -34.7062 0.0015 -3.4442
# 5 -7.3877 -8.1168 6.5928 0.0015 59.4781 -0.0027
# 6 0.0050 0.0075 0.0054 -3.4442 -0.0027 14.9351
#
#
#
# Elastic Compliance Matrix: (Units=1/GPa)
#
#
# Indices 1 2 3 4 5 6 
#
# 1 0.009343 -0.001165 -0.000728 0.000000 0.001082 -0.000002
# 2 -0.001165 0.021005 -0.002280 0.000001 0.002974 -0.000009
# 3 -0.000728 -0.002280 0.008808 0.000000 -0.001378 -0.000002
# 4 0.000000 0.000001 0.000000 -0.028169 0.000000 -0.006496
# 5 0.001082 0.002974 -0.001378 0.000000 0.017506 0.000002
# 6 -0.000002 -0.000009 -0.000002 -0.006496 0.000002 0.065459
#
#
# Mechanical properties :
#
#
# Convention : Reuss Voigt Hill
#
# Bulk Modulus (GPa) = 32.45522 37.82107 35.13815
# Shear Modulus (GPa) = 44.41822 24.48400 34.45111
#
# Velocity S-wave (km/s) = 4.43485 3.29261 3.90571
# Velocity P-wave (km/s) = 6.37140 5.58585 5.99151
#
# Compressibility (1/GPa) = 0.03081168
#
# Stress axis : x y z
#
# Youngs Moduli (GPa) = 107.03466 47.60839 113.52829
#
# Poissons Ratio (x) = 0.05544 0.08264
# Poissons Ratio (y) = 0.12465 0.25880
# Poissons Ratio (z) = 0.07791 0.10853
#
# Static dielectric constant tensor:
#      x y z
#    x 1.840310 0.000000 -0.011930 
#    y 0.000000 1.824080 0.000000 
#    z -0.011930 0.000000 1.946450 
# 
# From -- ./inp_files/42618.got.cif
#   From: 2010.05.17/outbox.cif.g08.bks.cpg/sg5_22_cif.got.tgz:42618.got - 2010.06.03 18:56:24.
