data_PCOD9121888
_publ_section_title
;
Structure prediction by ZEFSAII (Michael W. Deem and Ramdas Pophale) SiO2 
 PCOD9121888
Probable space group: C 2
;
_chemical_formula_sum "Si O2"
_cell_formula_units_Z 32
_cell_length_a 16.361534
_cell_length_b 11.591690
_cell_length_c 16.599961
_cell_angle_alpha 90.000000
_cell_angle_beta 147.719070
_cell_angle_gamma 90.000000
_cell_volume 1681.422410
_symmetry_space_group_name_H-M "C 2"
_symmetry_group_IT_number 5
_symmetry_cell_setting 'monoclinic'
loop_
_space_group_symop_operation_xyz
x,y,z
-x,y,-z
1/2+x,1/2+y,z
1/2-x,1/2+y,-z
loop_
_atom_site_type_symbol
_atom_site_label
_atom_site_fract_x
_atom_site_fract_y
_atom_site_fract_z
Si Si1 0.868974 0.455660 0.458640
Si Si2 0.235644 0.675070 0.103145
Si Si3 0.732815 0.650746 0.445244
Si Si4 0.510239 0.839340 0.278666
Si Si5 0.825078 0.870788 0.836618
Si Si6 0.288530 0.025379 0.114029
Si Si7 0.939825 0.995243 0.214307
Si Si8 0.475678 0.224601 0.220975
O O1 0.824196 0.582396 0.452308
O O2 0.918734 0.380912 0.577088
O O3 0.724148 0.398203 0.294269
O O4 0.000000 0.455569 0.500000
O O5 0.372736 0.749043 0.176630
O O6 0.210043 0.739976 0.165650
O O7 0.308390 0.547940 0.163634
O O8 0.089828 0.696925 0.923344
O O9 0.643814 0.768047 0.346296
O O10 0.600117 0.560783 0.361425
O O11 0.854712 0.681004 0.616271
O O12 0.418763 0.952380 0.173180
O O13 0.737907 0.957340 0.825509
O O14 0.000000 0.892443 0.000000
O O15 0.359171 0.151082 0.179960
O O16 0.133359 0.025945 0.933980
O O17 0.961732 0.858763 0.230823
#
# Coordination Sequence:
#
# PCOD9121888 Si02
#       8
#     4   4   4   4   4   4   4   4
#     4  12  21  37  60  91 126 157 200 259 316 365
#     4   9  20  35  55  85 116 162 201 247 304 371
#     4  11  23  32  55  92 120 155 206 257 302 360
#     4  10  19  37  52  85 122 154 202 249 307 356
#     4  11  21  35  58  89 120 152 207 254 316 361
#     4  10  19  37  55  87 116 162 198 248 306 370
#     4  10  20  36  57  85 122 158 204 249 308 361
#     4  11  19  33  59  82 125 153 199 252 304 357
#
# _framework density 19.031506
#
# number of rings (size 3 to 8) (size 9 to 14) (size 15 to 20)
#    0.000    1.500    6.250    1.500    1.750    0.000 
#    0.000    0.000    0.000    0.750   32.500    0.000 
#    0.000    0.000    0.000    0.000    0.000    0.000 
#
# Total GULP energy -89133.465415 kJ/mol
# GULP energy per Si atom -5570.841588 kJ/mol
# Density = 1.898819 g / cm^3
# Si number density = 19.031506 Si / 1000 Ang^3
#
#
#
# Elastic Constant Matrix: (Units=GPa)
#
#
# Indices 1 2 3 4 5 6 
#
# 1 23.2465 26.5331 12.6192 0.0000 -3.5374 0.0000
# 2 26.5331 122.6824 44.3808 0.0000 9.3251 0.0000
# 3 12.6192 44.3808 143.7321 0.0000 7.7696 0.0000
# 4 0.0000 0.0000 0.0000 37.6105 0.0000 4.1022
# 5 -3.5374 9.3251 7.7696 0.0000 18.8822 0.0000
# 6 0.0000 0.0000 0.0000 4.1022 0.0000 22.1902
#
#
#
# Elastic Compliance Matrix: (Units=1/GPa)
#
#
# Indices 1 2 3 4 5 6 
#
# 1 0.063856 -0.014538 -0.002201 0.000000 0.020048 0.000000
# 2 -0.014538 0.012710 -0.002211 0.000000 -0.008091 0.000000
# 3 -0.002201 -0.002211 0.007974 0.000000 -0.002602 0.000000
# 4 0.000000 0.000000 0.000000 0.027135 0.000000 -0.005016
# 5 0.020048 -0.008091 -0.002602 0.000000 0.061782 0.000000
# 6 0.000000 0.000000 0.000000 -0.005016 0.000000 0.045992
#
#
# Mechanical properties :
#
#
# Convention : Reuss Voigt Hill
#
# Bulk Modulus (GPa) = 21.44065 50.74745 36.09405
# Shear Modulus (GPa) = 18.32191 29.47844 23.90017
#
# Velocity S-wave (km/s) = 3.10613 3.93991 3.54760
# Velocity P-wave (km/s) = 4.91471 6.88622 5.98224
#
# Compressibility (1/GPa) = 0.04664038
#
# Stress axis : x y z
#
# Youngs Moduli (GPa) = 15.66011 78.67744 125.40900
#
# Poissons Ratio (x) = 1.14383 0.27604
# Poissons Ratio (y) = 0.22767 0.27725
# Poissons Ratio (z) = 0.03447 0.17394
#
# Static dielectric constant tensor:
#      x y z
#    x 1.698560 0.000000 0.035590 
#    y 0.000000 1.720240 0.000000 
#    z 0.035590 0.000000 1.708520 
# 
# From -- ./inp_files/62386.got.cif
#   From: 2010.05.17/outbox.cif.g08.bks.cpg/sg5_32_cif.got.tgz:62386.got - 2010.06.03 18:56:24.
