data_PCOD9121668
_publ_section_title
;
Structure prediction by ZEFSAII (Michael W. Deem and Ramdas Pophale) SiO2 
 PCOD9121668
Probable space group: C 2
;
_chemical_formula_sum "Si O2"
_cell_formula_units_Z 26
_cell_length_a 18.511361
_cell_length_b 9.233516
_cell_length_c 9.616495
_cell_angle_alpha 90.000000
_cell_angle_beta 40.738671
_cell_angle_gamma 90.000000
_cell_volume 1072.694258
_symmetry_space_group_name_H-M "C 2"
_symmetry_group_IT_number 5
_symmetry_cell_setting 'monoclinic'
loop_
_space_group_symop_operation_xyz
x,y,z
-x,y,-z
1/2+x,1/2+y,z
1/2-x,1/2+y,-z
loop_
_atom_site_type_symbol
_atom_site_label
_atom_site_fract_x
_atom_site_fract_y
_atom_site_fract_z
Si Si1 0.221449 0.692610 0.249940
Si Si2 0.744436 0.391053 0.454218
Si Si3 0.794814 0.901344 0.178227
Si Si4 0.000000 0.861417 0.500000
Si Si5 0.991949 0.029677 0.239447
Si Si6 0.900541 0.610787 0.048664
Si Si7 0.457541 0.825261 0.897518
O O1 0.239948 0.733087 0.387386
O O2 0.223311 0.524328 0.206678
O O3 0.332899 0.773699 0.036385
O O4 0.107553 0.766753 0.375962
O O5 0.764253 0.382000 0.587752
O O6 0.621452 0.451401 0.624032
O O7 0.821834 0.503732 0.255699
O O8 0.831548 0.740090 0.080896
O O9 0.912244 0.989037 0.010107
O O10 0.967501 0.963520 0.675227
O O11 0.972808 0.200272 0.275305
O O12 0.960625 0.495144 0.860645
O O13 0.000000 0.671953 0.000000
O O14 0.500000 0.814107 0.000000
#
# Coordination Sequence:
#
# PCOD9121668 Si02
#       7
#     4   4   4   2   4   4   4
#     4   9  20  37  61  87 126 165 210 260 309 388
#     4  10  19  35  61  95 128 160 205 264 328 384
#     4  11  20  35  62  93 121 163 209 265 327 370
#     4  10  22  42  62  88 124 182 226 264 318 378
#     4  10  20  37  63  87 123 166 213 260 316 392
#     4  10  21  34  55  94 139 162 196 255 325 400
#     4   9  18  36  63  96 126 157 196 264 331 379
#
# _framework density 24.238033999999999
#
# number of rings (size 3 to 8) (size 9 to 14) (size 15 to 20)
#    0.000    2.154    0.000    4.154    0.000    4.308 
#    0.000    9.231    0.000   12.923    0.000    0.000 
#    0.000    0.000    0.000    0.000    0.000    0.000 
#
# Total GULP energy -72460.540906 kJ/mol
# GULP energy per Si atom -5573.887762 kJ/mol
# Density = 2.418287 g / cm^3
# Si number density = 24.238034 Si / 1000 Ang^3
#
#
#
# Elastic Constant Matrix: (Units=GPa)
#
#
# Indices 1 2 3 4 5 6 
#
# 1 55.8766 30.1867 12.1600 0.0000 -14.9126 0.0000
# 2 30.1867 199.1070 18.3092 0.0000 -4.4937 0.0000
# 3 12.1600 18.3092 66.3158 0.0000 -13.3205 0.0000
# 4 0.0000 0.0000 0.0000 34.0374 0.0000 -14.5329
# 5 -14.9126 -4.4937 -13.3205 0.0000 24.1181 0.0000
# 6 0.0000 0.0000 0.0000 -14.5329 0.0000 19.5408
#
#
#
# Elastic Compliance Matrix: (Units=1/GPa)
#
#
# Indices 1 2 3 4 5 6 
#
# 1 0.023356 -0.003173 -0.000703 0.000000 0.013462 0.000000
# 2 -0.003173 0.005585 -0.001288 0.000000 -0.001633 0.000000
# 3 -0.000703 -0.001288 0.017354 0.000000 0.008910 0.000000
# 4 0.000000 0.000000 0.000000 0.043050 0.000000 0.032017
# 5 0.013462 -0.001633 0.008910 0.000000 0.054403 0.000000
# 6 0.000000 0.000000 0.000000 0.032017 0.000000 0.074987
#
#
# Mechanical properties :
#
#
# Convention : Reuss Voigt Hill
#
# Bulk Modulus (GPa) = 27.80246 49.17900 38.49073
# Shear Modulus (GPa) = 20.74252 32.91551 26.82901
#
# Velocity S-wave (km/s) = 2.92855 3.68912 3.33062
# Velocity P-wave (km/s) = 4.78860 6.20324 5.54125
#
# Compressibility (1/GPa) = 0.03596804
#
# Stress axis : x y z
#
# Youngs Moduli (GPa) = 42.81489 179.04985 57.62511
#
# Poissons Ratio (x) = 0.56806 0.04049
# Poissons Ratio (y) = 0.13584 0.07423
# Poissons Ratio (z) = 0.03009 0.23064
#
# Static dielectric constant tensor:
#      x y z
#    x 1.964940 0.000000 0.023470 
#    y 0.000000 1.971490 0.000000 
#    z 0.023470 0.000000 2.048330 
# 
# From -- ./inp_files/46100.got.cif
#   From: 2010.05.17/outbox.cif.g08.bks.cpg/sg5_24_cif.got.tgz:46100.got - 2010.06.03 18:56:24.
