data_PCOD9121779
_publ_section_title
;
Structure prediction by ZEFSAII (Michael W. Deem and Ramdas Pophale) SiO2 
 PCOD9121779
Probable space group: C 2
;
_chemical_formula_sum "Si O2"
_cell_formula_units_Z 28
_cell_length_a 17.444400
_cell_length_b 14.287336
_cell_length_c 8.071549
_cell_angle_alpha 90.000000
_cell_angle_beta 131.921552
_cell_angle_gamma 90.000000
_cell_volume 1496.829409
_symmetry_space_group_name_H-M "C 2"
_symmetry_group_IT_number 5
_symmetry_cell_setting 'monoclinic'
loop_
_space_group_symop_operation_xyz
x,y,z
-x,y,-z
1/2+x,1/2+y,z
1/2-x,1/2+y,-z
loop_
_atom_site_type_symbol
_atom_site_label
_atom_site_fract_x
_atom_site_fract_y
_atom_site_fract_z
Si Si1 0.711514 0.083640 0.879808
Si Si2 0.055451 0.567361 0.919210
Si Si3 0.331218 0.731398 0.845405
Si Si4 0.728762 0.933962 0.330910
Si Si5 0.117646 0.439854 0.504190
Si Si6 0.551242 0.734473 0.336020
Si Si7 0.892010 0.047367 0.394532
O O1 0.626094 0.122330 0.887792
O O2 0.750332 0.154362 0.793292
O O3 0.662135 0.990607 0.728852
O O4 0.812749 0.057114 0.129393
O O5 0.969619 0.508923 0.695676
O O6 0.135471 0.493637 0.115452
O O7 0.000000 0.614226 0.000000
O O8 0.277525 0.832367 0.760277
O O9 0.380442 0.721221 0.732796
O O10 0.431631 0.731552 0.109254
O O11 0.705532 0.931361 0.491431
O O12 0.833721 0.986273 0.445675
O O13 0.074305 0.334930 0.451303
O O14 0.582882 0.649548 0.497943
O O15 0.000000 0.003522 0.500000
#
# Coordination Sequence:
#
# PCOD9121779 Si02
#       7
#     4   4   4   4   4   4   4
#     4  11  22  33  55  89 121 152 196 239 292 348
#     4   9  18  35  57  84 117 150 189 243 298 338
#     4  10  19  37  60  90 113 151 196 241 292 345
#     4   9  19  36  59  83 120 153 186 238 299 343
#     4  10  19  36  60  90 112 147 195 248 291 341
#     4  10  20  36  62  85 118 148 194 252 289 332
#     4  11  22  36  51  82 121 158 189 236 289 343
#
# _framework density 18.706208
#
# number of rings (size 3 to 8) (size 9 to 14) (size 15 to 20)
#    0.000    2.000    2.857    1.286    0.000    3.429 
#    0.000    1.429    0.000    0.000    0.000    2.000 
#    0.000    0.000    0.000    0.000    0.000    0.000 
#
# Total GULP energy -78081.719910 kJ/mol
# GULP energy per Si atom -5577.265708 kJ/mol
# Density = 1.866363 g / cm^3
# Si number density = 18.706208 Si / 1000 Ang^3
#
#
#
# Elastic Constant Matrix: (Units=GPa)
#
#
# Indices 1 2 3 4 5 6 
#
# 1 126.9735 44.6825 38.8893 0.0000 11.9083 0.0000
# 2 44.6825 49.6532 21.2623 0.0000 0.9600 0.0000
# 3 38.8893 21.2623 81.6902 0.0000 1.0933 0.0000
# 4 0.0000 0.0000 0.0000 16.8847 0.0000 -13.0874
# 5 11.9083 0.9600 1.0933 0.0000 26.8619 0.0000
# 6 0.0000 0.0000 0.0000 -13.0874 0.0000 -0.0859
#
#
#
# Elastic Compliance Matrix: (Units=1/GPa)
#
#
# Indices 1 2 3 4 5 6 
#
# 1 0.012988 -0.010094 -0.003486 0.000000 -0.005255 0.000000
# 2 -0.010094 0.030519 -0.003185 0.000000 0.003514 0.000000
# 3 -0.003486 -0.003185 0.014716 0.000000 0.001060 0.000000
# 4 0.000000 0.000000 0.000000 0.000497 0.000000 -0.075768
# 5 -0.005255 0.003514 0.001060 0.000000 0.039388 0.000000
# 6 0.000000 0.000000 0.000000 -0.075768 0.000000 -0.097752
#
#
# Mechanical properties :
#
#
# Convention : Reuss Voigt Hill
#
# Bulk Modulus (GPa) = 40.49647 51.99836 46.24742
# Shear Modulus (GPa) = 118.71710 18.96432 68.84071
#
# Velocity S-wave (km/s) = 7.97507 3.18747 6.07296
# Velocity P-wave (km/s) = 10.31979 6.43462 8.59949
#
# Compressibility (1/GPa) = 0.02469351
#
# Stress axis : x y z
#
# Youngs Moduli (GPa) = 76.99352 32.76643 67.95512
#
# Poissons Ratio (x) = 0.33073 0.23686
# Poissons Ratio (y) = 0.77715 0.21646
# Poissons Ratio (z) = 0.26837 0.10437
#
# Static dielectric constant tensor:
#      x y z
#    x 1.716190 0.000000 -0.027010 
#    y 0.000000 1.620370 0.000000 
#    z -0.027010 0.000000 1.630990 
# 
# From -- ./inp_files/24309.got.cif
#   From: 2010.05.17/outbox.cif.g08.bks.cpg/sg5_13_cif.got.tgz:24309.got - 2010.06.03 18:56:24.
