data_PCOD9121450
_publ_section_title
;
Structure prediction by ZEFSAII (Michael W. Deem and Ramdas Pophale) SiO2 
 PCOD9121450
Probable space group: C 2
;
_chemical_formula_sum "Si O2"
_cell_formula_units_Z 24
_cell_length_a 18.552631
_cell_length_b 7.416400
_cell_length_c 7.424269
_cell_angle_alpha 90.000000
_cell_angle_beta 122.786842
_cell_angle_gamma 90.000000
_cell_volume 858.793486
_symmetry_space_group_name_H-M "C 2"
_symmetry_group_IT_number 5
_symmetry_cell_setting 'monoclinic'
loop_
_space_group_symop_operation_xyz
x,y,z
-x,y,-z
1/2+x,1/2+y,z
1/2-x,1/2+y,-z
loop_
_atom_site_type_symbol
_atom_site_label
_atom_site_fract_x
_atom_site_fract_y
_atom_site_fract_z
Si Si1 0.247785 0.943910 0.482643
Si Si2 0.069978 0.913970 0.216394
Si Si3 0.374277 0.599432 0.396796
Si Si4 0.386238 0.798564 0.904041
Si Si5 0.926375 0.475883 0.286092
Si Si6 0.244052 0.086938 0.078307
O O1 0.340986 0.901242 0.682492
O O2 0.161381 0.816169 0.370795
O O3 0.203588 0.092127 0.559683
O O4 0.252731 0.986778 0.279633
O O5 0.052462 0.992470 0.392636
O O6 0.086325 0.098919 0.120413
O O7 0.000000 0.815421 0.000000
O O8 0.405668 0.795247 0.376542
O O9 0.327494 0.518027 0.158700
O O10 0.302840 0.769387 0.921514
O O11 0.451704 0.900296 0.122401
O O12 0.841277 0.595512 0.143137
O O13 0.000000 0.571754 0.500000
#
# Coordination Sequence:
#
# PCOD9121450 Si02
#       6
#     4   4   4   4   4   4
#     4   9  19  34  53  77 111 144 184 220 272 328
#     4   9  17  31  53  82 108 136 180 233 265 314
#     4   9  19  34  52  81 111 143 179 226 270 331
#     4  10  19  34  55  79 109 147 184 217 275 327
#     4  11  20  33  57  85 113 141 186 234 276 312
#     4  10  20  34  56  80 110 148 185 221 272 335
#
# _framework density 27.946185
#
# number of rings (size 3 to 8) (size 9 to 14) (size 15 to 20)
#    1.000    1.333    1.667    2.000    0.000    0.000 
#    0.000    0.000    0.000   15.000    0.000    0.000 
#    0.000    0.000    0.000    0.000    0.000    0.000 
#
# Total GULP energy -66851.638965 kJ/mol
# GULP energy per Si atom -5570.969914 kJ/mol
# Density = 2.788258 g / cm^3
# Si number density = 27.946185 Si / 1000 Ang^3
#
#
#
# Elastic Constant Matrix: (Units=GPa)
#
#
# Indices 1 2 3 4 5 6 
#
# 1 62.5970 13.0700 40.0759 0.0000 -4.8635 0.0000
# 2 13.0700 65.1209 16.1335 0.0000 5.0557 0.0000
# 3 40.0759 16.1335 265.8160 0.0000 -7.5945 0.0000
# 4 0.0000 0.0000 0.0000 17.7918 0.0000 4.5200
# 5 -4.8635 5.0557 -7.5945 0.0000 54.1542 0.0000
# 6 0.0000 0.0000 0.0000 4.5200 0.0000 30.2517
#
#
#
# Elastic Compliance Matrix: (Units=1/GPa)
#
#
# Indices 1 2 3 4 5 6 
#
# 1 0.018386 -0.003186 -0.002533 0.000000 0.001593 0.000000
# 2 -0.003186 0.016281 -0.000562 0.000000 -0.001885 0.000000
# 3 -0.002533 -0.000562 0.004190 0.000000 0.000413 0.000000
# 4 0.000000 0.000000 0.000000 0.058423 0.000000 -0.008729
# 5 0.001593 -0.001885 0.000413 0.000000 0.018843 0.000000
# 6 0.000000 0.000000 0.000000 -0.008729 0.000000 0.034360
#
#
# Mechanical properties :
#
#
# Convention : Reuss Voigt Hill
#
# Bulk Modulus (GPa) = 38.03026 59.12141 48.57583
# Shear Modulus (GPa) = 29.10191 42.05652 35.57922
#
# Velocity S-wave (km/s) = 3.23050 3.88353 3.57197
# Velocity P-wave (km/s) = 5.24908 6.42732 5.86785
#
# Compressibility (1/GPa) = 0.02629485
#
# Stress axis : x y z
#
# Youngs Moduli (GPa) = 54.38919 61.42114 238.67645
#
# Poissons Ratio (x) = 0.19571 0.60458
# Poissons Ratio (y) = 0.17330 0.13405
# Poissons Ratio (z) = 0.13777 0.03450
#
# Static dielectric constant tensor:
#      x y z
#    x 2.358950 0.000000 0.098010 
#    y 0.000000 2.325920 0.000000 
#    z 0.098010 0.000000 2.286830 
# 
# From -- ./inp_files/30825.got.cif
#   From: 2010.05.17/outbox.cif.g08.bks.cpg/sg5_16_cif.got.tgz:30825.got - 2010.06.03 18:56:24.
