data_PCOD9121972
_publ_section_title
;
Structure prediction by ZEFSAII (Michael W. Deem and Ramdas Pophale) SiO2 
 PCOD9121972
Probable space group: C 2
;
_chemical_formula_sum "Si O2"
_cell_formula_units_Z 20
_cell_length_a 7.404019
_cell_length_b 25.025630
_cell_length_c 7.863290
_cell_angle_alpha 90.000000
_cell_angle_beta 37.743728
_cell_angle_gamma 90.000000
_cell_volume 891.868886
_symmetry_space_group_name_H-M "C 2"
_symmetry_group_IT_number 5
_symmetry_cell_setting 'monoclinic'
loop_
_space_group_symop_operation_xyz
x,y,z
-x,y,-z
1/2+x,1/2+y,z
1/2-x,1/2+y,-z
loop_
_atom_site_type_symbol
_atom_site_label
_atom_site_fract_x
_atom_site_fract_y
_atom_site_fract_z
Si Si1 0.336986 0.676940 0.302232
Si Si2 0.840074 0.944239 0.300179
Si Si3 0.840507 0.060530 0.298613
Si Si4 0.810452 0.758260 0.287247
Si Si5 0.655311 0.343263 0.219040
O O1 0.434985 0.618407 0.298671
O O2 0.312890 0.719030 0.473042
O O3 0.000000 0.670895 0.500000
O O4 0.500000 0.690740 0.000000
O O5 0.500000 0.935681 0.500000
O O6 0.988502 0.898076 0.300061
O O7 0.884713 0.002871 0.351845
O O8 0.000000 0.943580 0.000000
O O9 0.500000 0.061300 0.500000
O O10 0.000000 0.057855 0.000000
O O11 0.500000 0.790582 0.500000
O O12 0.067442 0.800323 0.143348
O O13 0.000000 0.727051 0.000000
O O14 0.500000 0.319294 0.500000
O O15 0.000000 0.349926 0.000000
#
# Coordination Sequence:
#
# PCOD9121972 Si02
#       5
#     4   4   4   4   4
#     4  10  20  38  63  91 121 161 207 251 297 362
#     4  10  19  37  63  90 120 157 198 248 301 362
#     4   8  16  31  58  89 117 153 199 241 294 363
#     4  12  25  41  61  89 124 165 207 256 310 364
#     4  12  25  41  61  89 121 160 205 254 308 365
#
# _framework density 22.424821999999999
#
# number of rings (size 3 to 8) (size 9 to 14) (size 15 to 20)
#    0.000    1.600    0.000    5.400    0.000    1.600 
#    0.000    1.000    0.000    2.400    0.000    0.000 
#    0.000    0.000    0.000    0.000    0.000    0.000 
#
# Total GULP energy -55685.000161 kJ/mol
# GULP energy per Si atom -5568.500016 kJ/mol
# Density = 2.237378 g / cm^3
# Si number density = 22.424822 Si / 1000 Ang^3
#
#
#
# Elastic Constant Matrix: (Units=GPa)
#
#
# Indices 1 2 3 4 5 6 
#
# 1 45.3538 22.8892 34.5198 0.0000 -19.7892 0.0000
# 2 22.8892 122.5650 19.9585 0.0000 -5.2798 0.0000
# 3 34.5198 19.9585 187.2533 0.0000 -24.4287 0.0000
# 4 0.0000 0.0000 0.0000 9.5426 0.0000 -72.9264
# 5 -19.7892 -5.2798 -24.4287 0.0000 38.5410 0.0000
# 6 0.0000 0.0000 0.0000 -72.9264 0.0000 -293.8791
#
#
#
# Elastic Compliance Matrix: (Units=1/GPa)
#
#
# Indices 1 2 3 4 5 6 
#
# 1 0.033703 -0.005060 -0.003823 0.000000 0.014189 0.000000
# 2 -0.005060 0.009077 -0.000230 0.000000 -0.001501 0.000000
# 3 -0.003823 -0.000230 0.006333 0.000000 0.002020 0.000000
# 4 0.000000 0.000000 0.000000 0.036180 0.000000 -0.008978
# 5 0.014189 -0.001501 0.002020 0.000000 0.034307 0.000000
# 6 0.000000 0.000000 0.000000 -0.008978 0.000000 -0.001175
#
#
# Mechanical properties :
#
#
# Convention : Reuss Voigt Hill
#
# Bulk Modulus (GPa) = 32.37680 56.65636 44.51658
# Shear Modulus (GPa) = 34.02565 -30.63878 1.69343
#
# Velocity S-wave (km/s) = 3.89951 -3.70034 0.86994
# Velocity P-wave (km/s) = 5.89442 2.65766 4.57205
#
# Compressibility (1/GPa) = 0.03088631
#
# Stress axis : x y z
#
# Youngs Moduli (GPa) = 29.67055 110.17045 157.89993
#
# Poissons Ratio (x) = 0.55751 0.60361
# Poissons Ratio (y) = 0.15015 0.03638
# Poissons Ratio (z) = 0.11342 0.02538
#
# Static dielectric constant tensor:
#      x y z
#    x 3.528260 0.000000 0.578310 
#    y 0.000000 1.985310 0.000000 
#    z 0.578310 0.000000 1.983600 
# 
# From -- ./inp_files/17393.got.cif
#   From: 2010.05.17/outbox.cif.g08.bks.cpg/sg5_9_cif.got.tgz:17393.got - 2010.06.03 18:56:24.
