data_PCOD9121600
_publ_section_title
;
Structure prediction by ZEFSAII (Michael W. Deem and Ramdas Pophale) SiO2 
 PCOD9121600
Probable space group: C 2
;
_chemical_formula_sum "Si O2"
_cell_formula_units_Z 30
_cell_length_a 22.967927
_cell_length_b 9.851156
_cell_length_c 13.811903
_cell_angle_alpha 90.000000
_cell_angle_beta 29.501638
_cell_angle_gamma 90.000000
_cell_volume 1538.945653
_symmetry_space_group_name_H-M "C 2"
_symmetry_group_IT_number 5
_symmetry_cell_setting 'monoclinic'
loop_
_space_group_symop_operation_xyz
x,y,z
-x,y,-z
1/2+x,1/2+y,z
1/2-x,1/2+y,-z
loop_
_atom_site_type_symbol
_atom_site_label
_atom_site_fract_x
_atom_site_fract_y
_atom_site_fract_z
Si Si1 0.839717 0.030620 0.428993
Si Si2 0.816038 0.793884 0.618444
Si Si3 0.000000 0.081216 0.500000
Si Si4 0.579563 0.334147 0.253139
Si Si5 0.692777 0.729594 0.977049
Si Si6 0.897966 0.959418 0.981974
Si Si7 0.072265 0.261392 0.566156
Si Si8 0.270250 0.996725 0.611182
O O1 0.850517 0.175020 0.467561
O O2 0.748156 0.996737 0.477104
O O3 0.823459 0.919508 0.535935
O O4 0.969986 0.013887 0.194050
O O5 0.725235 0.820112 0.836596
O O6 0.777284 0.655808 0.624159
O O7 0.950204 0.772859 0.462419
O O8 0.922309 0.179555 0.543462
O O9 0.929887 0.980136 0.675735
O O10 0.694012 0.252010 0.119834
O O11 0.589429 0.351893 0.122820
O O12 0.681095 0.577293 0.953254
O O13 0.566456 0.760712 0.206007
O O14 0.837233 0.930091 0.171733
O O15 0.119401 0.413320 0.506744
#
# Coordination Sequence:
#
# PCOD9121600 Si02
#       8
#     4   4   2   4   4   4   4   4
#     4  10  19  43  63  79 114 166 201 229 299 365
#     4  10  20  38  59  85 112 154 205 233 292 357
#     4  12  20  42  60  80 124 162 192 238 290 380
#     4  11  19  37  61  82 114 164 197 229 293 368
#     4  10  19  35  57  85 114 151 195 237 285 355
#     4   9  21  35  56  86 113 153 199 234 299 348
#     4  11  24  38  60  94 118 155 197 242 304 342
#     4  11  23  37  58  90 121 145 197 267 285 331
#
# _framework density 19.493866000000001
#
# number of rings (size 3 to 8) (size 9 to 14) (size 15 to 20)
#    0.000    1.600    5.333    1.200    1.867    1.067 
#    2.400    4.667    0.000    0.000    0.000    0.000 
#    0.000    0.000    0.000    0.000    0.000    0.000 
#
# Total GULP energy -83550.682155 kJ/mol
# GULP energy per Si atom -5570.045477 kJ/mol
# Density = 1.944950 g / cm^3
# Si number density = 19.493866 Si / 1000 Ang^3
#
#
#
# Elastic Constant Matrix: (Units=GPa)
#
#
# Indices 1 2 3 4 5 6 
#
# 1 58.4982 -5.6285 -10.5146 0.0000 5.1245 0.0000
# 2 -5.6285 19.8031 -2.3087 0.0000 -0.8494 0.0000
# 3 -10.5146 -2.3087 46.9229 0.0000 12.6937 0.0000
# 4 0.0000 0.0000 0.0000 21.3917 0.0000 -5.5180
# 5 5.1245 -0.8494 12.6937 0.0000 22.0458 0.0000
# 6 0.0000 0.0000 0.0000 -5.5180 0.0000 23.4954
#
#
#
# Elastic Compliance Matrix: (Units=1/GPa)
#
#
# Indices 1 2 3 4 5 6 
#
# 1 0.019658 0.006041 0.006959 0.000000 -0.008344 0.000000
# 2 0.006041 0.052652 0.004472 0.000000 -0.001950 0.000000
# 3 0.006959 0.004472 0.027815 0.000000 -0.017461 0.000000
# 4 0.000000 0.000000 0.000000 0.049762 0.000000 0.011687
# 5 -0.008344 -0.001950 -0.017461 0.000000 0.057278 0.000000
# 6 0.000000 0.000000 0.000000 0.011687 0.000000 0.045306
#
#
# Mechanical properties :
#
#
# Convention : Reuss Voigt Hill
#
# Bulk Modulus (GPa) = 7.40375 9.81343 8.60859
# Shear Modulus (GPa) = 19.04407 22.96497 21.00452
#
# Velocity S-wave (km/s) = 3.12897 3.43601 3.28608
# Velocity P-wave (km/s) = 4.10612 4.55923 4.33860
#
# Compressibility (1/GPa) = 0.13506662
#
# Stress axis : x y z
#
# Youngs Moduli (GPa) = 50.87108 18.99279 35.95245
#
# Poissons Ratio (x) = -0.11473 -0.25020
# Poissons Ratio (y) = -0.30729 -0.16077
# Poissons Ratio (z) = -0.35402 -0.08493
#
# Static dielectric constant tensor:
#      x y z
#    x 1.724720 0.000000 0.026170 
#    y 0.000000 1.690700 0.000000 
#    z 0.026170 0.000000 1.703230 
# 
# From -- ./inp_files/57603.got.cif
#   From: 2010.05.17/outbox.cif.g08.bks.cpg/sg5_29_cif.got.tgz:57603.got - 2010.06.03 18:56:24.
