data_PCOD9121873
_publ_section_title
;
Structure prediction by ZEFSAII (Michael W. Deem and Ramdas Pophale) SiO2 
 PCOD9121873
Probable space group: C 2
;
_chemical_formula_sum "Si O2"
_cell_formula_units_Z 26
_cell_length_a 8.534068
_cell_length_b 13.480878
_cell_length_c 15.624336
_cell_angle_alpha 90.000000
_cell_angle_beta 142.591406
_cell_angle_gamma 90.000000
_cell_volume 1091.989715
_symmetry_space_group_name_H-M "C 2"
_symmetry_group_IT_number 5
_symmetry_cell_setting 'monoclinic'
loop_
_space_group_symop_operation_xyz
x,y,z
-x,y,-z
1/2+x,1/2+y,z
1/2-x,1/2+y,-z
loop_
_atom_site_type_symbol
_atom_site_label
_atom_site_fract_x
_atom_site_fract_y
_atom_site_fract_z
Si Si1 0.786028 0.847230 0.344111
Si Si2 0.000000 0.480343 0.500000
Si Si3 0.260208 0.299122 0.851414
Si Si4 0.908135 0.639454 0.314072
Si Si5 0.835372 0.106101 0.067157
Si Si6 0.830338 0.644083 0.746402
Si Si7 0.933872 0.978802 0.269601
O O1 0.509909 0.853516 0.268425
O O2 0.879717 0.737194 0.360206
O O3 0.000000 0.892263 0.500000
O O4 0.759498 0.900227 0.241631
O O5 0.963933 0.549919 0.401803
O O6 0.720566 0.432798 0.391383
O O7 0.216524 0.203942 0.895976
O O8 0.313802 0.252332 0.782279
O O9 0.500000 0.354170 0.000000
O O10 0.619044 0.621660 0.151563
O O11 0.120519 0.648243 0.332626
O O12 0.851644 0.015223 0.140770
O O13 0.592306 0.097667 0.900438
O O14 0.597968 0.577055 0.683428
#
# Coordination Sequence:
#
# PCOD9121873 Si02
#       7
#     4   2   4   4   4   4   4
#     4  11  23  40  58  88 132 166 199 255 315 367
#     4  10  22  42  56  82 118 172 208 254 286 374
#     4   8  17  38  62  86 118 158 202 258 302 363
#     4  10  20  37  63  90 120 160 208 251 302 364
#     4   8  17  38  63  86 119 152 204 253 298 362
#     4  10  19  36  66  93 112 157 213 251 306 370
#     4  10  22  39  60  83 123 164 198 253 316 356
#
# _framework density 23.809747999999999
#
# number of rings (size 3 to 8) (size 9 to 14) (size 15 to 20)
#    0.000    2.462    0.769    2.769    2.154    0.000 
#    2.769   10.769    0.000    0.000    0.000    0.000 
#    0.000    0.000    0.000    0.000    0.000    0.000 
#
# Total GULP energy -72627.625166 kJ/mol
# GULP energy per Si atom -5586.740397 kJ/mol
# Density = 2.375556 g / cm^3
# Si number density = 23.809748 Si / 1000 Ang^3
#
#
#
# Elastic Constant Matrix: (Units=GPa)
#
#
# Indices 1 2 3 4 5 6 
#
# 1 131.1629 -2.1809 28.3367 0.0003 1.6712 0.0001
# 2 -2.1809 19.6371 4.6084 0.0000 0.3277 0.0000
# 3 28.3367 4.6084 79.7697 0.0006 14.7218 0.0004
# 4 0.0003 0.0000 0.0006 8.6224 0.0004 -6.0567
# 5 1.6712 0.3277 14.7218 0.0004 30.9709 0.0002
# 6 0.0001 0.0000 0.0004 -6.0567 0.0002 19.7760
#
#
#
# Elastic Compliance Matrix: (Units=1/GPa)
#
#
# Indices 1 2 3 4 5 6 
#
# 1 0.008342 0.001673 -0.003260 0.000000 0.001082 0.000000
# 2 0.001673 0.051985 -0.003814 0.000000 0.001173 0.000000
# 3 -0.003260 -0.003814 0.015209 -0.000001 -0.007013 0.000000
# 4 0.000000 0.000000 -0.000001 0.147766 -0.000002 0.045256
# 5 0.001082 0.001173 -0.007013 -0.000002 0.035551 -0.000001
# 6 0.000000 0.000000 0.000000 0.045256 -0.000001 0.064427
#
#
# Mechanical properties :
#
#
# Convention : Reuss Voigt Hill
#
# Bulk Modulus (GPa) = 15.44748 32.45533 23.95141
# Shear Modulus (GPa) = 14.05837 25.19423 19.62630
#
# Velocity S-wave (km/s) = 2.43255 3.25645 2.87417
# Velocity P-wave (km/s) = 3.79364 5.27257 4.59302
#
# Compressibility (1/GPa) = 0.06473548
#
# Stress axis : x y z
#
# Youngs Moduli (GPa) = 119.86958 19.23621 65.75180
#
# Poissons Ratio (x) = -0.03219 0.21434
# Poissons Ratio (y) = -0.20060 0.25079
# Poissons Ratio (z) = 0.39075 0.07337
#
# Static dielectric constant tensor:
#      x y z
#    x 1.920150 0.000000 0.049880 
#    y 0.000000 1.926840 0.000000 
#    z 0.049880 0.000000 1.908250 
# 
# From -- ./inp_files/51065.got.cif
#   From: 2010.05.17/outbox.cif.g08.bks.cpg/sg5_26_cif.got.tgz:51065.got - 2010.06.03 18:56:24.
