data_PCOD9121365
_publ_section_title
;
Structure prediction by ZEFSAII (Michael W. Deem and Ramdas Pophale) SiO2 
 PCOD9121365
Probable space group: C 2
;
_chemical_formula_sum "Si O2"
_cell_formula_units_Z 28
_cell_length_a 10.469719
_cell_length_b 15.446973
_cell_length_c 11.969890
_cell_angle_alpha 90.000000
_cell_angle_beta 142.251285
_cell_angle_gamma 90.000000
_cell_volume 1185.117950
_symmetry_space_group_name_H-M "C 2"
_symmetry_group_IT_number 5
_symmetry_cell_setting 'monoclinic'
loop_
_space_group_symop_operation_xyz
x,y,z
-x,y,-z
1/2+x,1/2+y,z
1/2-x,1/2+y,-z
loop_
_atom_site_type_symbol
_atom_site_label
_atom_site_fract_x
_atom_site_fract_y
_atom_site_fract_z
Si Si1 0.826831 0.419350 0.479307
Si Si2 0.156421 0.730918 0.703634
Si Si3 0.837881 0.805071 0.040248
Si Si4 0.479128 0.666432 0.193673
Si Si5 0.761044 0.243598 0.361983
Si Si6 0.366241 0.093686 0.602496
Si Si7 0.419956 0.487467 0.069786
O O1 0.788636 0.318195 0.479712
O O2 0.882335 0.491175 0.609942
O O3 0.615918 0.459228 0.281798
O O4 0.000000 0.420487 0.500000
O O5 0.164659 0.781440 0.827508
O O6 0.379684 0.711772 0.804012
O O7 0.000000 0.768800 0.500000
O O8 0.052130 0.637693 0.661019
O O9 0.079365 0.793721 0.169151
O O10 0.773073 0.903901 0.976566
O O11 0.683200 0.737167 0.876924
O O12 0.652207 0.629335 0.397392
O O13 0.354008 0.582402 0.063554
O O14 0.651592 0.150354 0.299113
O O15 0.000000 0.228278 0.500000
O O16 0.500000 0.496418 0.000000
#
# Coordination Sequence:
#
# PCOD9121365 Si02
#       7
#     4   4   4   4   4   4   4
#     4   9  17  31  53  77  98 126 168 215 254 298
#     4   9  17  32  55  80 102 130 167 211 260 303
#     4  10  20  32  52  80 106 132 170 215 254 299
#     4  10  19  33  55  79 104 133 169 214 257 301
#     4   9  19  34  51  72 103 139 172 209 252 301
#     4   9  17  31  53  78 103 133 170 211 257 303
#     4  10  20  33  51  76 104 135 170 209 254 301
#
# _framework density 23.626339000000002
#
# number of rings (size 3 to 8) (size 9 to 14) (size 15 to 20)
#    0.000    2.571    0.000    3.429    0.000    4.571 
#    0.000    0.000    0.000   35.143    0.000    0.000 
#    0.000    0.000    0.000    0.000    0.000    0.000 
#
# Total GULP energy -78017.481432 kJ/mol
# GULP energy per Si atom -5572.677245 kJ/mol
# Density = 2.357256 g / cm^3
# Si number density = 23.626339 Si / 1000 Ang^3
#
#
#
# Elastic Constant Matrix: (Units=GPa)
#
#
# Indices 1 2 3 4 5 6 
#
# 1 53.1038 25.8595 12.5463 0.0000 26.3105 0.0000
# 2 25.8595 145.7300 25.9007 0.0000 19.5105 0.0000
# 3 12.5463 25.9007 84.9263 0.0000 13.1726 0.0000
# 4 0.0000 0.0000 0.0000 36.0704 0.0000 4.5944
# 5 26.3105 19.5105 13.1726 0.0000 41.9968 0.0000
# 6 0.0000 0.0000 0.0000 4.5944 0.0000 31.4293
#
#
#
# Elastic Compliance Matrix: (Units=1/GPa)
#
#
# Indices 1 2 3 4 5 6 
#
# 1 0.028416 -0.002713 -0.000846 0.000000 -0.016277 0.000000
# 2 -0.002713 0.007845 -0.001777 0.000000 -0.001388 0.000000
# 3 -0.000846 -0.001777 0.012857 0.000000 -0.002677 0.000000
# 4 0.000000 0.000000 0.000000 0.028250 0.000000 -0.004130
# 5 -0.016277 -0.001388 -0.002677 0.000000 0.035493 0.000000
# 6 0.000000 0.000000 0.000000 -0.004130 0.000000 0.032421
#
#
# Mechanical properties :
#
#
# Convention : Reuss Voigt Hill
#
# Bulk Modulus (GPa) = 26.00948 45.81923 35.91435
# Shear Modulus (GPa) = 29.62633 36.52953 33.07793
#
# Velocity S-wave (km/s) = 3.54496 3.93636 3.74578
# Velocity P-wave (km/s) = 5.27146 6.33208 5.82596
#
# Compressibility (1/GPa) = 0.03844753
#
# Stress axis : x y z
#
# Youngs Moduli (GPa) = 35.19089 127.47080 77.77881
#
# Poissons Ratio (x) = 0.34582 0.06580
# Poissons Ratio (y) = 0.09547 0.13817
# Poissons Ratio (z) = 0.02977 0.22645
#
# Static dielectric constant tensor:
#      x y z
#    x 1.963230 0.000000 -0.071380 
#    y 0.000000 1.952840 0.000000 
#    z -0.071380 0.000000 2.031490 
# 
# From -- ./inp_files/53060.got.cif
#   From: 2010.05.17/outbox.cif.g08.bks.cpg/sg5_27_cif.got.tgz:53060.got - 2010.06.03 18:56:24.
