data_PCOD9121406
_publ_section_title
;
Structure prediction by ZEFSAII (Michael W. Deem and Ramdas Pophale) SiO2 
 PCOD9121406
Probable space group: C 2
;
_chemical_formula_sum "Si O2"
_cell_formula_units_Z 26
_cell_length_a 29.165103
_cell_length_b 5.630828
_cell_length_c 6.999788
_cell_angle_alpha 90.000000
_cell_angle_beta 61.298479
_cell_angle_gamma 90.000000
_cell_volume 1008.291995
_symmetry_space_group_name_H-M "C 2"
_symmetry_group_IT_number 5
_symmetry_cell_setting 'monoclinic'
loop_
_space_group_symop_operation_xyz
x,y,z
-x,y,-z
1/2+x,1/2+y,z
1/2-x,1/2+y,-z
loop_
_atom_site_type_symbol
_atom_site_label
_atom_site_fract_x
_atom_site_fract_y
_atom_site_fract_z
Si Si1 0.304787 0.267430 0.287876
Si Si2 0.823207 0.782715 0.681129
Si Si3 0.197560 0.280777 0.271186
Si Si4 0.940780 0.886116 0.450555
Si Si5 0.640514 0.766665 0.775246
Si Si6 0.044532 0.131154 0.190608
Si Si7 0.000000 0.512071 0.500000
O O1 0.292326 0.266089 0.541894
O O2 0.251862 0.264835 0.274705
O O3 0.330572 0.527201 0.208549
O O4 0.339276 0.025306 0.190264
O O5 0.811491 0.534861 0.808842
O O6 0.883509 0.820495 0.499055
O O7 0.808750 0.026401 0.817319
O O8 0.152878 0.281326 0.525371
O O9 0.975616 0.652213 0.373564
O O10 0.936339 0.937385 0.690086
O O11 0.982939 0.073812 0.283430
O O12 0.581335 0.695885 0.944017
O O13 0.046287 0.360675 0.320838
#
# Coordination Sequence:
#
# PCOD9121406 Si02
#       7
#     4   4   4   4   4   4   2
#     4  10  20  36  58  86 108 148 186 226 281 336
#     4  10  19  33  59  82 110 142 189 223 278 331
#     4  10  20  36  58  86 108 148 186 226 281 336
#     4   9  20  35  56  81 108 149 188 230 270 336
#     4  10  19  33  59  82 110 142 189 223 278 331
#     4   9  20  35  56  81 108 149 188 230 270 336
#     4   8  18  36  56  72 108 140 198 212 276 320
#
# _framework density 25.786180000000002
#
# number of rings (size 3 to 8) (size 9 to 14) (size 15 to 20)
#    0.000    2.769    0.000    4.615    8.615    0.000 
#    0.000    3.077    0.000    5.538    0.000    0.000 
#    0.000    0.000    0.000    0.000    0.000    0.000 
#
# Total GULP energy -72464.419122 kJ/mol
# GULP energy per Si atom -5574.186086 kJ/mol
# Density = 2.572749 g / cm^3
# Si number density = 25.786180 Si / 1000 Ang^3
#
#
#
# Elastic Constant Matrix: (Units=GPa)
#
#
# Indices 1 2 3 4 5 6 
#
# 1 61.8164 41.4034 23.6022 0.0000 -12.0010 0.0000
# 2 41.4034 227.8592 8.1535 0.0000 -11.8153 0.0000
# 3 23.6022 8.1535 113.3856 0.0000 -9.9581 0.0000
# 4 0.0000 0.0000 0.0000 1.1091 0.0000 -16.3912
# 5 -12.0010 -11.8153 -9.9581 0.0000 34.5957 0.0000
# 6 0.0000 0.0000 0.0000 -16.3912 0.0000 14.4903
#
#
#
# Elastic Compliance Matrix: (Units=1/GPa)
#
#
# Indices 1 2 3 4 5 6 
#
# 1 0.020815 -0.003392 -0.003649 0.000000 0.005012 0.000000
# 2 -0.003392 0.005025 0.000402 0.000000 0.000655 0.000000
# 3 -0.003649 0.000402 0.009696 0.000000 0.001663 0.000000
# 4 0.000000 0.000000 0.000000 -0.057364 0.000000 -0.064890
# 5 0.005012 0.000655 0.001663 0.000000 0.031346 0.000000
# 6 0.000000 0.000000 0.000000 -0.064890 0.000000 -0.004391
#
#
# Mechanical properties :
#
#
# Convention : Reuss Voigt Hill
#
# Bulk Modulus (GPa) = 44.92564 61.04218 52.98391
# Shear Modulus (GPa) = 193.62655 32.03248 112.82951
#
# Velocity S-wave (km/s) = 8.67481 3.52836 6.62199
# Velocity P-wave (km/s) = 10.85341 6.35003 8.89155
#
# Compressibility (1/GPa) = 0.02225900
#
# Stress axis : x y z
#
# Youngs Moduli (GPa) = 48.04277 199.02264 103.13464
#
# Poissons Ratio (x) = 0.67503 0.37631
# Poissons Ratio (y) = 0.16295 -0.04149
# Poissons Ratio (z) = 0.17529 -0.08006
#
# Static dielectric constant tensor:
#      x y z
#    x 2.042570 0.000000 0.002010 
#    y 0.000000 2.176960 0.000000 
#    z 0.002010 0.000000 2.051800 
# 
# From -- ./inp_files/32102.got.cif
#   From: 2010.05.17/outbox.cif.g08.bks.cpg/sg5_17_cif.got.tgz:32102.got - 2010.06.03 18:56:24.
