data_PCOD9121999
_publ_section_title
;
Structure prediction by ZEFSAII (Michael W. Deem and Ramdas Pophale) SiO2 
 PCOD9121999
Probable space group: C 2
;
_chemical_formula_sum "Si O2"
_cell_formula_units_Z 24
_cell_length_a 12.429754
_cell_length_b 19.298663
_cell_length_c 7.211002
_cell_angle_alpha 90.000000
_cell_angle_beta 142.465417
_cell_angle_gamma 90.000000
_cell_volume 1053.838127
_symmetry_space_group_name_H-M "C 2"
_symmetry_group_IT_number 5
_symmetry_cell_setting 'monoclinic'
loop_
_space_group_symop_operation_xyz
x,y,z
-x,y,-z
1/2+x,1/2+y,z
1/2-x,1/2+y,-z
loop_
_atom_site_type_symbol
_atom_site_label
_atom_site_fract_x
_atom_site_fract_y
_atom_site_fract_z
Si Si1 0.842536 0.543820 0.548255
Si Si2 0.459821 0.457341 0.732328
Si Si3 0.232726 0.539991 0.002169
Si Si4 0.700934 0.695514 0.838914
Si Si5 0.290948 0.687842 0.710200
Si Si6 0.980967 0.795541 0.697950
O O1 0.727401 0.496529 0.528819
O O2 0.801882 0.624985 0.525510
O O3 0.801099 0.545542 0.268403
O O4 0.044468 0.520801 0.829204
O O5 0.607416 0.486257 0.794562
O O6 0.466002 0.374919 0.735186
O O7 0.500000 0.477714 0.000000
O O8 0.281590 0.612641 0.168232
O O9 0.500000 0.715078 0.500000
O O10 0.739548 0.692991 0.112270
O O11 0.854650 0.750593 0.993500
O O12 0.202485 0.756550 0.509641
O O13 0.500000 0.679001 0.000000
O O14 0.000000 0.797669 0.500000
#
# Coordination Sequence:
#
# PCOD9121999 Si02
#       6
#     4   4   4   4   4   4
#     4   9  16  34  62  89 113 153 205 239 289 358
#     4  10  21  37  59  90 121 156 200 247 294 353
#     4   9  17  34  61  86 117 155 194 247 296 347
#     4  10  20  37  62  91 116 152 201 248 299 348
#     4  10  19  37  65  86 114 159 202 242 294 360
#     4  10  22  41  59  85 125 160 192 243 307 357
#
# _framework density 22.773896000000001
#
# number of rings (size 3 to 8) (size 9 to 14) (size 15 to 20)
#    0.000    2.333    1.667    2.500    0.000    2.000 
#   12.000    0.000    0.000    0.000    0.000    0.000 
#    0.000    0.000    0.000    0.000    0.000    0.000 
#
# Total GULP energy -66806.891505 kJ/mol
# GULP energy per Si atom -5567.240959 kJ/mol
# Density = 2.272206 g / cm^3
# Si number density = 22.773896 Si / 1000 Ang^3
#
#
#
# Elastic Constant Matrix: (Units=GPa)
#
#
# Indices 1 2 3 4 5 6 
#
# 1 86.3305 61.2141 35.8574 0.0000 22.9588 0.0000
# 2 61.2141 155.6686 61.3941 0.0000 43.8901 0.0000
# 3 35.8574 61.3941 116.9913 0.0000 4.9342 0.0000
# 4 0.0000 0.0000 0.0000 29.2115 0.0000 7.0707
# 5 22.9588 43.8901 4.9342 0.0000 48.7181 0.0000
# 6 0.0000 0.0000 0.0000 7.0707 0.0000 62.0331
#
#
#
# Elastic Compliance Matrix: (Units=1/GPa)
#
#
# Indices 1 2 3 4 5 6 
#
# 1 0.016875 -0.004614 -0.002602 0.000000 -0.003533 0.000000
# 2 -0.004614 0.012588 -0.004826 0.000000 -0.008678 0.000000
# 3 -0.002602 -0.004826 0.011692 0.000000 0.004390 0.000000
# 4 0.000000 0.000000 0.000000 0.035204 0.000000 -0.004013
# 5 -0.003533 -0.008678 0.004390 0.000000 0.029564 0.000000
# 6 0.000000 0.000000 0.000000 -0.004013 0.000000 0.016578
#
#
# Mechanical properties :
#
#
# Convention : Reuss Voigt Hill
#
# Bulk Modulus (GPa) = 58.57362 75.10241 66.83801
# Shear Modulus (GPa) = 32.83529 41.36087 37.09808
#
# Velocity S-wave (km/s) = 3.80122 4.26626 4.04043
# Velocity P-wave (km/s) = 6.71127 7.57080 7.15395
#
# Compressibility (1/GPa) = 0.01707253
#
# Stress axis : x y z
#
# Youngs Moduli (GPa) = 59.25949 79.44094 85.52505
#
# Poissons Ratio (x) = 0.36651 0.22254
# Poissons Ratio (y) = 0.27340 0.41273
# Poissons Ratio (z) = 0.15419 0.38337
#
# Static dielectric constant tensor:
#      x y z
#    x 1.776330 0.000000 -0.034670 
#    y 0.000000 1.828580 0.000000 
#    z -0.034670 0.000000 1.959660 
# 
# From -- ./inp_files/16678.got.cif
#   From: 2010.05.17/outbox.cif.g08.bks.cpg/sg5_9_cif.got.tgz:16678.got - 2010.06.03 18:56:24.
