data_PCOD9121323
_publ_section_title
;
Structure prediction by ZEFSAII (Michael W. Deem and Ramdas Pophale) SiO2 
 PCOD9121323
Probable space group: C 2
;
_chemical_formula_sum "Si O2"
_cell_formula_units_Z 28
_cell_length_a 30.996095
_cell_length_b 8.152233
_cell_length_c 9.603850
_cell_angle_alpha 90.000000
_cell_angle_beta 33.721975
_cell_angle_gamma 90.000000
_cell_volume 1347.255043
_symmetry_space_group_name_H-M "C 2"
_symmetry_group_IT_number 5
_symmetry_cell_setting 'monoclinic'
loop_
_space_group_symop_operation_xyz
x,y,z
-x,y,-z
1/2+x,1/2+y,z
1/2-x,1/2+y,-z
loop_
_atom_site_type_symbol
_atom_site_label
_atom_site_fract_x
_atom_site_fract_y
_atom_site_fract_z
Si Si1 0.665353 0.318120 0.176227
Si Si2 0.426921 0.152969 0.115110
Si Si3 0.121920 0.393346 0.535704
Si Si4 0.771219 0.127657 0.093649
Si Si5 0.759188 0.814666 0.568587
Si Si6 0.976973 0.581681 0.403081
Si Si7 0.737471 0.679381 0.331419
O O1 0.733193 0.273749 0.105625
O O2 0.585417 0.231704 0.434894
O O3 0.664239 0.512539 0.149782
O O4 0.694371 0.227948 0.957443
O O5 0.348355 0.254694 0.340160
O O6 0.414214 0.982062 0.232244
O O7 0.500000 0.232127 0.000000
O O8 0.451488 0.124737 0.890264
O O9 0.199656 0.500020 0.298787
O O10 0.066013 0.428412 0.556197
O O11 0.155180 0.214189 0.476743
O O12 0.789487 0.198542 0.196316
O O13 0.736810 0.795237 0.468677
O O14 0.752105 0.998137 0.640651
O O15 0.000000 0.553007 0.500000
#
# Coordination Sequence:
#
# PCOD9121323 Si02
#       7
#     4   4   4   4   4   4   4
#     4  10  19  33  54  84 114 146 187 227 281 328
#     4   9  18  35  55  78 113 152 188 221 267 338
#     4   8  18  35  52  77 109 146 188 231 276 320
#     4   9  18  33  53  81 112 144 183 229 275 328
#     4  11  21  35  58  85 111 146 190 234 283 329
#     4  10  19  32  57  85 114 153 186 220 273 345
#     4  11  21  35  57  84 113 141 186 246 287 326
#
# _framework density 20.782997999999999
#
# number of rings (size 3 to 8) (size 9 to 14) (size 15 to 20)
#    0.000    2.286    0.000    5.143    0.000    0.000 
#    0.000    2.143    0.000    6.857    0.000   57.000 
#    0.000    0.000    0.000    0.000    0.000    0.000 
#
# Total GULP energy -78123.980732 kJ/mol
# GULP energy per Si atom -5580.284338 kJ/mol
# Density = 2.073569 g / cm^3
# Si number density = 20.782998 Si / 1000 Ang^3
#
#
#
# Elastic Constant Matrix: (Units=GPa)
#
#
# Indices 1 2 3 4 5 6 
#
# 1 76.7056 -0.7874 19.4741 0.0000 18.4853 0.0000
# 2 -0.7874 47.5089 20.3567 0.0000 0.9969 0.0000
# 3 19.4741 20.3567 75.6089 0.0000 22.3356 0.0000
# 4 0.0000 0.0000 0.0000 25.6822 0.0000 3.4100
# 5 18.4853 0.9969 22.3356 0.0000 37.4992 0.0000
# 6 0.0000 0.0000 0.0000 3.4100 0.0000 29.9383
#
#
#
# Elastic Compliance Matrix: (Units=1/GPa)
#
#
# Indices 1 2 3 4 5 6 
#
# 1 0.015137 0.001456 -0.002518 0.000000 -0.006001 0.000000
# 2 0.001456 0.024404 -0.007939 0.000000 0.003362 0.000000
# 3 -0.002518 -0.007939 0.018910 0.000000 -0.009811 0.000000
# 4 0.000000 0.000000 0.000000 0.039535 0.000000 -0.004503
# 5 -0.006001 0.003362 -0.009811 0.000000 0.035380 0.000000
# 6 0.000000 0.000000 0.000000 -0.004503 0.000000 0.033915
#
#
# Mechanical properties :
#
#
# Convention : Reuss Voigt Hill
#
# Bulk Modulus (GPa) = 24.72218 30.87890 27.80054
# Shear Modulus (GPa) = 25.15522 29.34261 27.24892
#
# Velocity S-wave (km/s) = 3.48282 3.76154 3.62486
# Velocity P-wave (km/s) = 5.30043 5.80996 5.56104
#
# Compressibility (1/GPa) = 0.04044950
#
# Stress axis : x y z
#
# Youngs Moduli (GPa) = 66.06233 40.97727 52.88172
#
# Poissons Ratio (x) = -0.05965 0.13316
# Poissons Ratio (y) = -0.09617 0.41980
# Poissons Ratio (z) = 0.16635 0.32530
#
# Static dielectric constant tensor:
#      x y z
#    x 1.788350 0.000000 0.007830 
#    y 0.000000 1.773510 0.000000 
#    z 0.007830 0.000000 1.778620 
# 
# From -- ./inp_files/32495.got.cif
#   From: 2010.05.17/outbox.cif.g08.bks.cpg/sg5_17_cif.got.tgz:32495.got - 2010.06.03 18:56:24.
