data_PCOD9121298
_publ_section_title
;
Structure prediction by ZEFSAII (Michael W. Deem and Ramdas Pophale) SiO2 
 PCOD9121298
Probable space group: C 2
;
_chemical_formula_sum "Si O2"
_cell_formula_units_Z 32
_cell_length_a 15.842077
_cell_length_b 21.342374
_cell_length_c 9.475654
_cell_angle_alpha 90.000000
_cell_angle_beta 29.754813
_cell_angle_gamma 90.000000
_cell_volume 1590.007118
_symmetry_space_group_name_H-M "C 2"
_symmetry_group_IT_number 5
_symmetry_cell_setting 'monoclinic'
loop_
_space_group_symop_operation_xyz
x,y,z
-x,y,-z
1/2+x,1/2+y,z
1/2-x,1/2+y,-z
loop_
_atom_site_type_symbol
_atom_site_label
_atom_site_fract_x
_atom_site_fract_y
_atom_site_fract_z
Si Si1 0.842830 0.914270 0.058568
Si Si2 0.186948 0.314879 0.777666
Si Si3 0.803445 0.955684 0.589754
Si Si4 0.300447 0.988096 0.961011
Si Si5 0.310912 0.236678 0.840059
Si Si6 0.187078 0.512655 0.490647
Si Si7 0.971902 0.775215 0.885298
Si Si8 0.295407 0.102649 0.772951
O O1 0.704864 0.929170 0.137569
O O2 0.881060 0.842775 0.038299
O O3 0.012849 0.940393 0.739062
O O4 0.790830 0.955417 0.268206
O O5 0.203340 0.389649 0.736874
O O6 0.215806 0.292990 0.897804
O O7 0.344016 0.286416 0.457328
O O8 0.000000 0.294825 0.000000
O O9 0.807352 0.977571 0.743785
O O10 0.717893 0.006300 0.610982
O O11 0.491676 0.000858 0.734495
O O12 0.238449 0.047478 0.960085
O O13 0.500000 0.239947 0.500000
O O14 0.349137 0.240620 0.951078
O O15 0.230285 0.170982 0.907708
O O16 0.238230 0.576433 0.335331
O O17 0.000000 0.746989 0.000000
O O18 0.500000 0.105756 0.500000
#
# Coordination Sequence:
#
# PCOD9121298 Si02
#       8
#     4   4   4   4   4   4   4   4
#     4  10  19  33  50  74 108 140 166 202 263 328
#     4  10  20  35  55  80 108 139 174 215 262 320
#     4  11  20  31  50  80 109 130 164 216 267 308
#     4  10  19  32  52  77 102 134 173 214 255 302
#     4   9  18  36  57  74 102 145 183 213 257 319
#     4  10  19  33  53  76 105 137 171 213 257 311
#     4  10  20  34  55  80 105 136 178 221 263 310
#     4   8  17  34  53  73 100 137 178 210 251 312
#
# _framework density 20.125698
#
# number of rings (size 3 to 8) (size 9 to 14) (size 15 to 20)
#    0.000    2.250    0.000    5.250    0.000    2.000 
#    0.000    9.375    0.000    3.000    0.000    0.000 
#    0.000    0.000    0.000    0.000    0.000    0.000 
#
# Total GULP energy -89233.316745 kJ/mol
# GULP energy per Si atom -5577.082297 kJ/mol
# Density = 2.007989 g / cm^3
# Si number density = 20.125698 Si / 1000 Ang^3
#
#
#
# Elastic Constant Matrix: (Units=GPa)
#
#
# Indices 1 2 3 4 5 6 
#
# 1 121.3314 27.2525 14.9599 -0.0071 24.6880 0.0001
# 2 27.2525 61.1352 9.2020 -0.0098 1.3305 -0.0007
# 3 14.9599 9.2020 39.6760 -0.0259 5.1173 -0.0037
# 4 -0.0071 -0.0098 -0.0259 6.5100 0.0052 -5.3077
# 5 24.6880 1.3305 5.1173 0.0052 31.5164 0.0017
# 6 0.0001 -0.0007 -0.0037 -5.3077 0.0017 16.6849
#
#
#
# Elastic Compliance Matrix: (Units=1/GPa)
#
#
# Indices 1 2 3 4 5 6 
#
# 1 0.011185 -0.004489 -0.002115 0.000005 -0.008229 0.000002
# 2 -0.004489 0.018750 -0.003072 0.000011 0.003223 0.000003
# 3 -0.002115 -0.003072 0.027050 0.000145 -0.002606 0.000052
# 4 0.000005 0.000011 0.000145 0.207404 -0.000066 0.065978
# 5 -0.008229 0.003223 -0.002606 -0.000066 0.038463 -0.000025
# 6 0.000002 0.000003 0.000052 0.065978 -0.000025 0.080923
#
#
# Mechanical properties :
#
#
# Convention : Reuss Voigt Hill
#
# Bulk Modulus (GPa) = 26.57138 36.10795 31.33966
# Shear Modulus (GPa) = 12.02872 22.32413 17.17643
#
# Velocity S-wave (km/s) = 2.44740 3.33413 2.92457
# Velocity P-wave (km/s) = 4.60627 5.72731 5.19711
#
# Compressibility (1/GPa) = 0.03763448
#
# Stress axis : x y z
#
# Youngs Moduli (GPa) = 89.40334 53.33226 36.96822
#
# Poissons Ratio (x) = 0.23939 0.07819
# Poissons Ratio (y) = 0.40130 0.11357
# Poissons Ratio (z) = 0.18909 0.16384
#
# Static dielectric constant tensor:
#      x y z
#    x 1.763840 0.000000 -0.009730 
#    y 0.000000 1.738850 0.000000 
#    z -0.009730 0.000000 1.725190 
# 
# From -- ./inp_files/25600.got.cif
#   From: 2010.05.17/outbox.cif.g08.bks.cpg/sg5_13_cif.got.tgz:25600.got - 2010.06.03 18:56:24.
