data_PCOD9121859
_publ_section_title
;
Structure prediction by ZEFSAII (Michael W. Deem and Ramdas Pophale) SiO2 
 PCOD9121859
Probable space group: C 2
;
_chemical_formula_sum "Si O2"
_cell_formula_units_Z 32
_cell_length_a 9.636413
_cell_length_b 13.434347
_cell_length_c 11.530488
_cell_angle_alpha 90.000000
_cell_angle_beta 71.016969
_cell_angle_gamma 90.000000
_cell_volume 1411.542592
_symmetry_space_group_name_H-M "C 2"
_symmetry_group_IT_number 5
_symmetry_cell_setting 'monoclinic'
loop_
_space_group_symop_operation_xyz
x,y,z
-x,y,-z
1/2+x,1/2+y,z
1/2-x,1/2+y,-z
loop_
_atom_site_type_symbol
_atom_site_label
_atom_site_fract_x
_atom_site_fract_y
_atom_site_fract_z
Si Si1 0.292778 0.812290 0.860203
Si Si2 0.642982 0.342442 0.534155
Si Si3 0.863275 0.601630 0.455754
Si Si4 0.231576 0.591664 0.773348
Si Si5 0.911792 0.327087 0.314425
Si Si6 0.056757 0.921200 0.806850
Si Si7 0.934532 0.093149 0.336092
Si Si8 0.785528 0.390043 0.106675
O O1 0.252082 0.699934 0.829334
O O2 0.420036 0.859101 0.744092
O O3 0.148951 0.877639 0.884648
O O4 0.343908 0.832432 0.977972
O O5 0.500000 0.376140 0.500000
O O6 0.640816 0.222166 0.531363
O O7 0.799893 0.372256 0.437074
O O8 0.622603 0.375573 0.670741
O O9 0.869321 0.586477 0.314456
O O10 0.705661 0.565139 0.548307
O O11 0.000000 0.567780 0.500000
O O12 0.396530 0.566453 0.680129
O O13 0.181355 0.507584 0.878894
O O14 0.928609 0.210793 0.334273
O O15 0.835174 0.339058 0.211494
O O16 0.889830 0.888759 0.853190
O O17 0.078302 0.039092 0.784669
#
# Coordination Sequence:
#
# PCOD9121859 Si02
#       8
#     4   4   4   4   4   4   4   4
#     4  11  24  43  63  95 129 168 223 275 315 374
#     4  10  19  36  64  95 126 166 203 261 328 398
#     4  10  20  36  62  99 133 163 207 268 333 384
#     4  10  22  42  65  92 127 174 220 265 318 391
#     4  10  22  41  63  91 128 167 214 267 327 377
#     4  11  22  40  64  95 126 167 217 267 321 388
#     4   9  22  37  62  92 127 171 210 257 324 400
#     4  11  24  42  68  88 127 181 223 258 321 390
#
# _framework density 22.670233
#
# number of rings (size 3 to 8) (size 9 to 14) (size 15 to 20)
#    0.000    1.750    2.500    1.125    1.750    2.500 
#    0.000    6.250    0.000    0.000    0.000    0.000 
#    0.000    0.000    0.000    0.000    0.000    0.000 
#
# Total GULP energy -89268.011079 kJ/mol
# GULP energy per Si atom -5579.250692 kJ/mol
# Density = 2.261863 g / cm^3
# Si number density = 22.670233 Si / 1000 Ang^3
#
#
#
# Elastic Constant Matrix: (Units=GPa)
#
#
# Indices 1 2 3 4 5 6 
#
# 1 89.5180 9.8291 37.8491 0.0000 7.8653 0.0000
# 2 9.8291 28.0106 18.1277 0.0000 -4.9254 0.0000
# 3 37.8491 18.1277 94.2088 0.0000 2.4037 0.0000
# 4 0.0000 0.0000 0.0000 17.0552 0.0000 0.6596
# 5 7.8653 -4.9254 2.4037 0.0000 41.2192 0.0000
# 6 0.0000 0.0000 0.0000 0.6596 0.0000 19.8000
#
#
#
# Elastic Compliance Matrix: (Units=1/GPa)
#
#
# Indices 1 2 3 4 5 6 
#
# 1 0.013764 -0.001993 -0.005081 0.000000 -0.002568 0.000000
# 2 -0.001993 0.042275 -0.007484 0.000000 0.005868 0.000000
# 3 -0.005081 -0.007484 0.014115 0.000000 -0.000748 0.000000
# 4 0.000000 0.000000 0.000000 0.058709 0.000000 -0.001956
# 5 -0.002568 0.005868 -0.000748 0.000000 0.025495 0.000000
# 6 0.000000 0.000000 0.000000 -0.001956 0.000000 0.050570
#
#
# Mechanical properties :
#
#
# Convention : Reuss Voigt Hill
#
# Bulk Modulus (GPa) = 24.36707 38.14991 31.25849
# Shear Modulus (GPa) = 20.18388 25.34365 22.76377
#
# Velocity S-wave (km/s) = 2.98707 3.34717 3.17223
# Velocity P-wave (km/s) = 4.76115 5.63939 5.21878
#
# Compressibility (1/GPa) = 0.04103900
#
# Stress axis : x y z
#
# Youngs Moduli (GPa) = 72.65564 23.65448 70.84692
#
# Poissons Ratio (x) = 0.04715 0.35994
# Poissons Ratio (y) = 0.14483 0.53019
# Poissons Ratio (z) = 0.36913 0.17702
#
# Static dielectric constant tensor:
#      x y z
#    x 1.844970 0.000000 -0.014600 
#    y 0.000000 1.901960 0.000000 
#    z -0.014600 0.000000 1.845250 
# 
# From -- ./inp_files/36372.got.cif
#   From: 2010.05.17/outbox.cif.g08.bks.cpg/sg5_19_cif.got.tgz:36372.got - 2010.06.03 18:56:24.
