data_PCOD9121282
_publ_section_title
;
Structure prediction by ZEFSAII (Michael W. Deem and Ramdas Pophale) SiO2 
 PCOD9121282
Probable space group: C 2
;
_chemical_formula_sum "Si O2"
_cell_formula_units_Z 22
_cell_length_a 27.555891
_cell_length_b 6.951171
_cell_length_c 5.452521
_cell_angle_alpha 90.000000
_cell_angle_beta 57.437519
_cell_angle_gamma 90.000000
_cell_volume 880.231469
_symmetry_space_group_name_H-M "C 2"
_symmetry_group_IT_number 5
_symmetry_cell_setting 'monoclinic'
loop_
_space_group_symop_operation_xyz
x,y,z
-x,y,-z
1/2+x,1/2+y,z
1/2-x,1/2+y,-z
loop_
_atom_site_type_symbol
_atom_site_label
_atom_site_fract_x
_atom_site_fract_y
_atom_site_fract_z
Si Si1 0.114014 0.365990 0.879192
Si Si2 0.000000 0.556087 0.000000
Si Si3 0.796388 0.748633 0.836965
Si Si4 0.835783 0.307689 0.756036
Si Si5 0.481730 0.422566 0.804701
Si Si6 0.151006 0.801842 0.807159
O O1 0.138578 0.252960 0.578147
O O2 0.147450 0.568991 0.810598
O O3 0.123667 0.271104 0.118367
O O4 0.050368 0.431674 0.976852
O O5 0.983928 0.716181 0.253607
O O6 0.826255 0.539214 0.761776
O O7 0.816474 0.850566 0.532561
O O8 0.727972 0.728971 0.027349
O O9 0.816338 0.851939 0.032196
O O10 0.500000 0.510658 0.500000
O O11 0.500000 0.532395 0.000000
O O12 0.414457 0.375227 0.001925
#
# Coordination Sequence:
#
# PCOD9121282 Si02
#       6
#     4   2   4   4   4   4
#     4   9  18  28  45  68  97 121 153 190 236 279
#     4   8  18  24  44  64 100 118 148 184 252 270
#     4  10  19  32  47  65  97 125 159 191 229 266
#     4  10  20  32  47  69  96 125 158 191 227 276
#     4   9  16  23  40  64  95 121 147 179 237 290
#     4   9  17  28  44  65  94 129 146 188 232 280
#
# _framework density 24.993423
#
# number of rings (size 3 to 8) (size 9 to 14) (size 15 to 20)
#    0.545    2.182    0.000    2.182    7.636    0.000 
#    0.000    0.000    0.000    0.000    0.000    0.000 
#   27.273    0.000    0.000    0.000    0.000    0.000 
#
# Total GULP energy -61481.230364 kJ/mol
# GULP energy per Si atom -5589.202760 kJ/mol
# Density = 2.493654 g / cm^3
# Si number density = 24.993423 Si / 1000 Ang^3
#
#
#
# Elastic Constant Matrix: (Units=GPa)
#
#
# Indices 1 2 3 4 5 6 
#
# 1 146.2022 12.3563 45.4684 0.0000 31.1916 0.0000
# 2 12.3563 81.1659 6.4732 0.0000 6.4484 0.0000
# 3 45.4684 6.4732 127.6608 0.0000 40.9693 0.0000
# 4 0.0000 0.0000 0.0000 -13.7419 0.0000 25.4259
# 5 31.1916 6.4484 40.9693 0.0000 42.4499 0.0000
# 6 0.0000 0.0000 0.0000 25.4259 0.0000 -154.3445
#
#
#
# Elastic Compliance Matrix: (Units=1/GPa)
#
#
# Indices 1 2 3 4 5 6 
#
# 1 0.008341 -0.000788 -0.001452 0.000000 -0.004608 0.000000
# 2 -0.000788 0.012545 0.000102 0.000000 -0.001425 0.000000
# 3 -0.001452 0.000102 0.011601 0.000000 -0.010145 0.000000
# 4 0.000000 0.000000 0.000000 -0.104676 0.000000 -0.017244
# 5 -0.004608 -0.001425 -0.010145 0.000000 0.036950 0.000000
# 6 0.000000 0.000000 0.000000 -0.017244 0.000000 -0.009320
#
#
# Mechanical properties :
#
#
# Convention : Reuss Voigt Hill
#
# Bulk Modulus (GPa) = 35.44697 53.73605 44.59151
# Shear Modulus (GPa) = -161.93204 -5.74521 -83.83863
#
# Velocity S-wave (km/s) = -8.05795 -1.51779 -5.79803
# Velocity P-wave (km/s) = 8.50651 4.29828 5.19064
#
# Compressibility (1/GPa) = 0.02821116
#
# Stress axis : x y z
#
# Youngs Moduli (GPa) = 119.88851 79.70991 86.19942
#
# Poissons Ratio (x) = 0.06280 0.12517
# Poissons Ratio (y) = 0.09446 -0.00878
# Poissons Ratio (z) = 0.17409 -0.00812
#
# Static dielectric constant tensor:
#      x y z
#    x 1.950990 0.000000 0.060480 
#    y 0.000000 2.042710 0.000000 
#    z 0.060480 0.000000 1.978170 
# 
# From -- ./inp_files/10054.got.cif
#   From: 2010.05.17/outbox.cif.g08.bks.cpg/sg5_6_cif.got.tgz:10054.got - 2010.06.03 18:56:24.
