data_PCOD9121629
_publ_section_title
;
Structure prediction by ZEFSAII (Michael W. Deem and Ramdas Pophale) SiO2 
 PCOD9121629
Probable space group: C 2
;
_chemical_formula_sum "Si O2"
_cell_formula_units_Z 28
_cell_length_a 7.535089
_cell_length_b 13.106662
_cell_length_c 14.641645
_cell_angle_alpha 90.000000
_cell_angle_beta 57.153374
_cell_angle_gamma 90.000000
_cell_volume 1214.827245
_symmetry_space_group_name_H-M "C 2"
_symmetry_group_IT_number 5
_symmetry_cell_setting 'monoclinic'
loop_
_space_group_symop_operation_xyz
x,y,z
-x,y,-z
1/2+x,1/2+y,z
1/2-x,1/2+y,-z
loop_
_atom_site_type_symbol
_atom_site_label
_atom_site_fract_x
_atom_site_fract_y
_atom_site_fract_z
Si Si1 0.266064 0.227060 0.290644
Si Si2 0.674271 0.809213 0.030296
Si Si3 0.841715 0.369848 0.261494
Si Si4 0.718127 0.108784 0.903846
Si Si5 0.884657 0.356139 0.445088
Si Si6 0.539840 0.425651 0.181376
Si Si7 0.503156 0.217224 0.597780
O O1 0.296676 0.160010 0.192124
O O2 0.359186 0.343080 0.252335
O O3 0.387562 0.175065 0.341771
O O4 0.025970 0.254484 0.384210
O O5 0.564227 0.854167 0.150676
O O6 0.763718 0.700121 0.030096
O O7 0.500000 0.798744 0.000000
O O8 0.852891 0.878246 0.937909
O O9 0.868137 0.416011 0.354669
O O10 0.693253 0.421704 0.227893
O O11 0.725256 0.261128 0.311690
O O12 0.938216 0.045321 0.844839
O O13 0.500000 0.052736 0.000000
O O14 0.653355 0.316371 0.536039
O O15 0.000000 0.405238 0.500000
O O16 0.500000 0.162484 0.500000
#
# Coordination Sequence:
#
# PCOD9121629 Si02
#       7
#     4   4   4   4   4   4   4
#     4  10  19  35  59  87 119 153 209 250 288 369
#     4  10  20  37  55  84 123 154 199 250 295 365
#     4   9  16  32  56  81 115 158 194 246 299 358
#     4  12  22  38  61  89 122 166 203 244 308 361
#     4   9  16  29  56  87 109 153 208 246 300 355
#     4  10  22  38  57  86 123 157 198 245 304 367
#     4   8  16  30  56  88 110 155 206 240 307 360
#
# _framework density 23.048546999999999
#
# number of rings (size 3 to 8) (size 9 to 14) (size 15 to 20)
#    0.000    2.286    2.857    1.286    0.000    0.000 
#    2.571    0.000    0.000   26.571    7.429    0.000 
#    0.000    0.000    0.000    0.000    0.000    0.000 
#
# Total GULP energy -78001.537760 kJ/mol
# GULP energy per Si atom -5571.538411 kJ/mol
# Density = 2.299609 g / cm^3
# Si number density = 23.048547 Si / 1000 Ang^3
#
#
#
# Elastic Constant Matrix: (Units=GPa)
#
#
# Indices 1 2 3 4 5 6 
#
# 1 63.4022 11.0488 20.4754 0.0000 18.7333 0.0001
# 2 11.0488 62.1466 17.7381 0.0000 11.9249 0.0000
# 3 20.4754 17.7381 137.9723 0.0000 14.8691 0.0000
# 4 0.0000 0.0000 0.0000 4.1986 0.0000 -0.6245
# 5 18.7333 11.9249 14.8691 0.0000 39.9447 0.0000
# 6 0.0001 0.0000 0.0000 -0.6245 0.0000 15.3260
#
#
#
# Elastic Compliance Matrix: (Units=1/GPa)
#
#
# Indices 1 2 3 4 5 6 
#
# 1 0.018887 -0.001353 -0.001790 0.000000 -0.007788 0.000000
# 2 -0.001353 0.017564 -0.001626 0.000000 -0.004004 0.000000
# 3 -0.001790 -0.001626 0.007896 0.000000 -0.001615 0.000000
# 4 0.000000 0.000000 0.000000 0.239626 0.000000 0.009765
# 5 -0.007788 -0.004004 -0.001615 0.000000 0.030483 0.000000
# 6 0.000000 0.000000 0.000000 0.009765 0.000000 0.065647
#
#
# Mechanical properties :
#
#
# Convention : Reuss Voigt Hill
#
# Bulk Modulus (GPa) = 28.72675 40.22731 34.47703
# Shear Modulus (GPa) = 12.46128 26.17778 19.31953
#
# Velocity S-wave (km/s) = 2.32772 3.37377 2.89833
# Velocity P-wave (km/s) = 4.44016 5.71556 5.11774
#
# Compressibility (1/GPa) = 0.03481075
#
# Stress axis : x y z
#
# Youngs Moduli (GPa) = 52.94648 56.93535 126.63895
#
# Poissons Ratio (x) = 0.07702 0.22665
# Poissons Ratio (y) = 0.07162 0.20589
# Poissons Ratio (z) = 0.09476 0.09257
#
# Static dielectric constant tensor:
#      x y z
#    x 1.920400 0.000000 0.013510 
#    y 0.000000 1.835240 0.000000 
#    z 0.013510 0.000000 1.914150 
# 
# From -- ./inp_files/50697.got.cif
#   From: 2010.05.17/outbox.cif.g08.bks.cpg/sg5_26_cif.got.tgz:50697.got - 2010.06.03 18:56:24.
