data_PCOD9121966
_publ_section_title
;
Structure prediction by ZEFSAII (Michael W. Deem and Ramdas Pophale) SiO2 
 PCOD9121966
Probable space group: C 2
;
_chemical_formula_sum "Si O2"
_cell_formula_units_Z 30
_cell_length_a 12.259424
_cell_length_b 15.305352
_cell_length_c 8.587239
_cell_angle_alpha 90.000000
_cell_angle_beta 87.992255
_cell_angle_gamma 90.000000
_cell_volume 1610.275714
_symmetry_space_group_name_H-M "C 2"
_symmetry_group_IT_number 5
_symmetry_cell_setting 'monoclinic'
loop_
_space_group_symop_operation_xyz
x,y,z
-x,y,-z
1/2+x,1/2+y,z
1/2-x,1/2+y,-z
loop_
_atom_site_type_symbol
_atom_site_label
_atom_site_fract_x
_atom_site_fract_y
_atom_site_fract_z
Si Si1 0.868872 0.960230 0.381133
Si Si2 0.390973 0.743773 0.608884
Si Si3 0.500000 0.152416 0.500000
Si Si4 0.899271 0.046296 0.699043
Si Si5 0.243177 0.415034 0.831847
Si Si6 0.833482 0.411398 0.817445
Si Si7 0.963958 0.487423 0.331856
Si Si8 0.323974 0.288512 0.572563
O O1 0.768591 0.954186 0.268448
O O2 0.874232 0.862461 0.453584
O O3 0.847426 0.019707 0.533793
O O4 0.981038 0.000229 0.307650
O O5 0.500000 0.751564 0.500000
O O6 0.400074 0.650678 0.697051
O O7 0.372238 0.822449 0.731057
O O8 0.286862 0.752018 0.499118
O O9 0.409490 0.211523 0.582953
O O10 0.445203 0.088252 0.376218
O O11 0.824995 0.997776 0.828863
O O12 0.140813 0.440890 0.729533
O O13 0.300991 0.336675 0.736346
O O14 0.201259 0.394243 0.004921
O O15 0.936313 0.475219 0.790869
O O16 0.000000 0.450486 0.500000
#
# Coordination Sequence:
#
# PCOD9121966 Si02
#       8
#     4   4   2   4   4   4   4   4
#     4   9  19  37  63  87 113 156 199 243 289 345
#     4  11  21  36  63  91 115 147 206 256 282 332
#     4  10  22  36  64  92 110 144 212 254 278 324
#     4  10  19  37  63  88 115 149 205 249 285 334
#     4  11  22  39  61  84 125 161 187 233 311 365
#     4  11  23  38  58  87 125 162 186 232 309 367
#     4  10  21  38  62  85 112 155 208 238 283 339
#     4  10  20  36  62  88 117 150 199 247 290 343
#
# _framework density 18.630348000000001
#
# number of rings (size 3 to 8) (size 9 to 14) (size 15 to 20)
#    0.400    1.333    1.333    6.400    1.867    0.533 
#    2.400    0.000    8.800    0.000    0.000    0.000 
#    0.000    0.000    0.000    0.000    0.000    0.000 
#
# Total GULP energy -83672.075620 kJ/mol
# GULP energy per Si atom -5578.138375 kJ/mol
# Density = 1.858794 g / cm^3
# Si number density = 18.630348 Si / 1000 Ang^3
#
#
#
# Elastic Constant Matrix: (Units=GPa)
#
#
# Indices 1 2 3 4 5 6 
#
# 1 89.8249 41.1083 36.8881 0.0000 -15.7579 0.0000
# 2 41.1083 109.5059 39.2403 0.0000 -15.8378 0.0000
# 3 36.8881 39.2403 84.2586 0.0000 -31.9102 0.0000
# 4 0.0000 0.0000 0.0000 11.9732 0.0000 -2.6817
# 5 -15.7579 -15.8378 -31.9102 0.0000 19.0501 0.0000
# 6 0.0000 0.0000 0.0000 -2.6817 0.0000 12.6399
#
#
#
# Elastic Compliance Matrix: (Units=1/GPa)
#
#
# Indices 1 2 3 4 5 6 
#
# 1 0.014912 -0.003876 -0.003480 0.000000 0.003284 0.000000
# 2 -0.003876 0.011985 -0.003625 0.000000 0.000686 0.000000
# 3 -0.003480 -0.003625 0.035141 0.000000 0.052972 0.000000
# 4 0.000000 0.000000 0.000000 0.087687 0.000000 0.018604
# 5 0.003284 0.000686 0.052972 0.000000 0.144511 0.000000
# 6 0.000000 0.000000 0.000000 0.018604 0.000000 0.083062
#
#
# Mechanical properties :
#
#
# Convention : Reuss Voigt Hill
#
# Bulk Modulus (GPa) = 24.95211 57.56256 41.25734
# Shear Modulus (GPa) = 12.11778 19.82281 15.97030
#
# Velocity S-wave (km/s) = 2.55312 3.26545 2.93101
# Velocity P-wave (km/s) = 4.70251 6.72174 5.80066
#
# Compressibility (1/GPa) = 0.04007676
#
# Stress axis : x y z
#
# Youngs Moduli (GPa) = 67.06182 83.43654 28.45676
#
# Poissons Ratio (x) = 0.32340 0.09902
# Poissons Ratio (y) = 0.25993 0.10315
# Poissons Ratio (z) = 0.23335 0.30245
#
# Static dielectric constant tensor:
#      x y z
#    x 1.670310 0.000000 -0.009470 
#    y 0.000000 1.665040 0.000000 
#    z -0.009470 0.000000 1.629610 
# 
# From -- ./inp_files/20594.got.cif
#   From: 2010.05.17/outbox.cif.g08.bks.cpg/sg5_11_cif.got.tgz:20594.got - 2010.06.03 18:56:24.
