data_PCOD9121657
_publ_section_title
;
Structure prediction by ZEFSAII (Michael W. Deem and Ramdas Pophale) SiO2 
 PCOD9121657
Probable space group: C 2
;
_chemical_formula_sum "Si O2"
_cell_formula_units_Z 24
_cell_length_a 27.260313
_cell_length_b 4.891082
_cell_length_c 8.569057
_cell_angle_alpha 90.000000
_cell_angle_beta 129.195293
_cell_angle_gamma 90.000000
_cell_volume 885.459096
_symmetry_space_group_name_H-M "C 2"
_symmetry_group_IT_number 5
_symmetry_cell_setting 'monoclinic'
loop_
_space_group_symop_operation_xyz
x,y,z
-x,y,-z
1/2+x,1/2+y,z
1/2-x,1/2+y,-z
loop_
_atom_site_type_symbol
_atom_site_label
_atom_site_fract_x
_atom_site_fract_y
_atom_site_fract_z
Si Si1 0.000000 0.707170 0.500000
Si Si2 0.222197 0.698998 0.368212
Si Si3 0.128341 0.478053 0.833988
Si Si4 0.417379 0.484985 0.091345
Si Si5 0.383929 0.093952 0.612893
Si Si6 0.677932 0.603706 0.669180
Si Si7 0.500000 0.288850 0.000000
O O1 0.062176 0.520359 0.603833
O O2 0.022109 0.910433 0.679764
O O3 0.262726 0.517389 0.574942
O O4 0.153294 0.654845 0.300115
O O5 0.251961 0.599560 0.264377
O O6 0.109467 0.281039 0.936864
O O7 0.174056 0.285198 0.820016
O O8 0.133436 0.773833 0.930158
O O9 0.447726 0.462105 0.984058
O O10 0.353483 0.304793 0.420700
O O11 0.457988 0.116627 0.794634
O O12 0.363541 0.791852 0.527565
#
# Coordination Sequence:
#
# PCOD9121657 Si02
#       7
#     2   4   4   4   4   4   2
#     4   8  20  34  54  70 108 134 184 230 250 306
#     4   8  16  33  53  80 106 136 183 234 265 305
#     4  10  20  33  53  76 102 133 185 230 261 307
#     4  10  23  34  51  74 110 140 181 218 263 328
#     4  10  22  34  54  83 115 145 181 221 275 333
#     4  10  19  35  61  82 105 142 189 235 270 304
#     4  12  26  38  54  82 120 156 170 214 290 340
#
# _framework density 27.104583000000002
#
# number of rings (size 3 to 8) (size 9 to 14) (size 15 to 20)
#    1.000    1.333    0.000    2.500    4.667    2.667 
#    0.000    0.000    0.000    2.000    0.000    0.000 
#    0.000    0.000    0.000    0.000    0.000    0.000 
#
# Total GULP energy -66927.806884 kJ/mol
# GULP energy per Si atom -5577.317240 kJ/mol
# Density = 2.704289 g / cm^3
# Si number density = 27.104583 Si / 1000 Ang^3
#
#
#
# Elastic Constant Matrix: (Units=GPa)
#
#
# Indices 1 2 3 4 5 6 
#
# 1 96.8153 16.0731 9.2568 0.0000 -13.0506 0.0000
# 2 16.0731 130.6808 2.2216 0.0000 1.2544 0.0000
# 3 9.2568 2.2216 40.1771 0.0000 -11.1289 0.0000
# 4 0.0000 0.0000 0.0000 20.9302 0.0000 -14.8759
# 5 -13.0506 1.2544 -11.1289 0.0000 41.6517 0.0000
# 6 0.0000 0.0000 0.0000 -14.8759 0.0000 29.9147
#
#
#
# Elastic Compliance Matrix: (Units=1/GPa)
#
#
# Indices 1 2 3 4 5 6 
#
# 1 0.011129 -0.001371 -0.001632 0.000000 0.003092 0.000000
# 2 -0.001371 0.007834 -0.000326 0.000000 -0.000752 0.000000
# 3 -0.001632 -0.000326 0.027155 0.000000 0.006754 0.000000
# 4 0.000000 0.000000 0.000000 0.073895 0.000000 0.036746
# 5 0.003092 -0.000752 0.006754 0.000000 0.026805 0.000000
# 6 0.000000 0.000000 0.000000 0.036746 0.000000 0.051701
#
#
# Mechanical properties :
#
#
# Convention : Reuss Voigt Hill
#
# Bulk Modulus (GPa) = 25.34160 35.86401 30.60281
# Shear Modulus (GPa) = 22.90124 34.50744 28.70434
#
# Velocity S-wave (km/s) = 2.90991 3.57195 3.25779
# Velocity P-wave (km/s) = 4.54532 5.50202 5.04639
#
# Compressibility (1/GPa) = 0.03946081
#
# Stress axis : x y z
#
# Youngs Moduli (GPa) = 89.85209 127.65523 36.82623
#
# Poissons Ratio (x) = 0.17499 0.06009
# Poissons Ratio (y) = 0.12317 0.01200
# Poissons Ratio (z) = 0.14662 0.04158
#
# Static dielectric constant tensor:
#      x y z
#    x 2.135950 0.000000 -0.064900 
#    y 0.000000 2.001230 0.000000 
#    z -0.064900 0.000000 2.223890 
# 
# From -- ./inp_files/32004.got.cif
#   From: 2010.05.17/outbox.cif.g08.bks.cpg/sg5_17_cif.got.tgz:32004.got - 2010.06.03 18:56:24.
