data_PCOD9121757
_publ_section_title
;
Structure prediction by ZEFSAII (Michael W. Deem and Ramdas Pophale) SiO2 
 PCOD9121757
Probable space group: C 2
;
_chemical_formula_sum "Si O2"
_cell_formula_units_Z 24
_cell_length_a 18.738114
_cell_length_b 16.366230
_cell_length_c 13.284314
_cell_angle_alpha 90.000000
_cell_angle_beta 17.476364
_cell_angle_gamma 90.000000
_cell_volume 1223.451728
_symmetry_space_group_name_H-M "C 2"
_symmetry_group_IT_number 5
_symmetry_cell_setting 'monoclinic'
loop_
_space_group_symop_operation_xyz
x,y,z
-x,y,-z
1/2+x,1/2+y,z
1/2-x,1/2+y,-z
loop_
_atom_site_type_symbol
_atom_site_label
_atom_site_fract_x
_atom_site_fract_y
_atom_site_fract_z
Si Si1 0.450211 0.071320 0.848578
Si Si2 0.055184 0.779308 0.540409
Si Si3 0.249374 0.460797 0.721767
Si Si4 0.269259 0.607764 0.252709
Si Si5 0.420002 0.601917 0.355461
Si Si6 0.616588 0.721446 0.246134
O O1 0.552267 0.060799 0.598186
O O2 0.677416 0.096145 0.614552
O O3 0.265326 0.145275 0.091739
O O4 0.313633 0.995981 0.083293
O O5 0.161604 0.868913 0.399993
O O6 0.220117 0.702626 0.349496
O O7 0.000000 0.758711 0.500000
O O8 0.812204 0.776274 0.929064
O O9 0.411357 0.524664 0.442167
O O10 0.000000 0.461785 0.000000
O O11 0.500000 0.576596 0.000000
O O12 0.351382 0.602239 0.026559
O O13 0.442733 0.681894 0.395958
O O14 0.500000 0.762237 0.500000
#
# Coordination Sequence:
#
# PCOD9121757 Si02
#       6
#     4   4   4   4   4   4
#     4   9  20  34  59  88 109 144 191 235 278 331
#     4  11  22  35  54  83 116 150 187 229 286 341
#     4  10  21  37  58  84 115 148 187 232 287 338
#     4   9  18  36  59  83 111 145 190 234 278 331
#     4  10  19  36  59  87 110 146 187 238 275 336
#     4  11  21  36  59  82 114 148 193 235 279 331
#
# _framework density 19.616630000000001
#
# number of rings (size 3 to 8) (size 9 to 14) (size 15 to 20)
#    0.000    2.000    3.333    0.500    2.333    0.000 
#    0.000    1.667    0.000    0.000    0.000    0.000 
#    0.000    0.000    0.000    0.000    0.000    0.000 
#
# Total GULP energy -66876.649269 kJ/mol
# GULP energy per Si atom -5573.054106 kJ/mol
# Density = 1.957198 g / cm^3
# Si number density = 19.616630 Si / 1000 Ang^3
#
#
#
# Elastic Constant Matrix: (Units=GPa)
#
#
# Indices 1 2 3 4 5 6 
#
# 1 66.4291 -0.5579 29.3324 -0.0191 12.6280 -0.0145
# 2 -0.5579 77.0094 38.4905 -0.0673 9.0564 0.0269
# 3 29.3324 38.4905 126.1017 -0.0157 38.3738 -0.0665
# 4 -0.0191 -0.0673 -0.0157 34.7639 -0.0094 -2.6851
# 5 12.6280 9.0564 38.3738 -0.0094 35.8528 0.0671
# 6 -0.0145 0.0269 -0.0665 -2.6851 0.0671 10.1063
#
#
#
# Elastic Compliance Matrix: (Units=1/GPa)
#
#
# Indices 1 2 3 4 5 6 
#
# 1 0.017312 0.002426 -0.004042 0.000013 -0.002384 0.000011
# 2 0.002426 0.015732 -0.005779 0.000023 0.001358 -0.000079
# 3 -0.004042 -0.005779 0.014470 0.000004 -0.012604 0.000190
# 4 0.000013 0.000023 0.000004 0.029368 -0.000022 0.007803
# 5 -0.002384 0.001358 -0.012604 -0.000022 0.041880 -0.000374
# 6 0.000011 -0.000079 0.000190 0.007803 -0.000374 0.101025
#
#
# Mechanical properties :
#
#
# Convention : Reuss Voigt Hill
#
# Bulk Modulus (GPa) = 30.55896 44.89669 37.72783
# Shear Modulus (GPa) = 20.36773 29.62960 24.99866
#
# Velocity S-wave (km/s) = 3.22574 3.89064 3.57369
# Velocity P-wave (km/s) = 5.43008 6.56655 6.02517
#
# Compressibility (1/GPa) = 0.03272362
#
# Stress axis : x y z
#
# Youngs Moduli (GPa) = 57.76339 63.56446 69.10798
#
# Poissons Ratio (x) = -0.15421 0.27932
# Poissons Ratio (y) = -0.14013 0.39941
# Poissons Ratio (z) = 0.23347 0.36737
#
# Static dielectric constant tensor:
#      x y z
#    x 1.755860 0.000060 0.006240 
#    y 0.000060 1.679420 -0.000050 
#    z 0.006240 -0.000050 1.754510 
# 
# From -- ./inp_files/15766.got.cif
#   From: 2010.05.17/outbox.cif.g08.bks.cpg/sg5_8_cif.got.tgz:15766.got - 2010.06.03 18:56:24.
