data_PCOD9121548
_publ_section_title
;
Structure prediction by ZEFSAII (Michael W. Deem and Ramdas Pophale) SiO2 
 PCOD9121548
Probable space group: C 2
;
_chemical_formula_sum "Si O2"
_cell_formula_units_Z 30
_cell_length_a 12.975613
_cell_length_b 7.086035
_cell_length_c 15.349725
_cell_angle_alpha 90.000000
_cell_angle_beta 116.334666
_cell_angle_gamma 90.000000
_cell_volume 1264.868951
_symmetry_space_group_name_H-M "C 2"
_symmetry_group_IT_number 5
_symmetry_cell_setting 'monoclinic'
loop_
_space_group_symop_operation_xyz
x,y,z
-x,y,-z
1/2+x,1/2+y,z
1/2-x,1/2+y,-z
loop_
_atom_site_type_symbol
_atom_site_label
_atom_site_fract_x
_atom_site_fract_y
_atom_site_fract_z
Si Si1 0.451568 0.634210 0.663659
Si Si2 0.344180 0.636417 0.142447
Si Si3 0.500000 0.502354 0.500000
Si Si4 0.828809 0.736143 0.225965
Si Si5 0.125411 0.176812 0.048321
Si Si6 0.745086 0.392532 0.615012
Si Si7 0.077058 0.707236 0.295119
Si Si8 0.905616 0.606051 0.896680
O O1 0.542279 0.715381 0.767757
O O2 0.517303 0.613704 0.596436
O O3 0.338227 0.754990 0.608835
O O4 0.412265 0.429741 0.684289
O O5 0.351984 0.410645 0.167284
O O6 0.220968 0.687536 0.135200
O O7 0.341881 0.685862 0.040453
O O8 0.618152 0.391816 0.527668
O O9 0.734512 0.605323 0.144304
O O10 0.775326 0.825069 0.293183
O O11 0.954715 0.654253 0.294147
O O12 0.104974 0.382033 0.085483
O O13 0.000000 0.082639 0.000000
O O14 0.809036 0.593975 0.635022
O O15 0.059459 0.652097 0.187778
O O16 0.000000 0.675194 0.000000
#
# Coordination Sequence:
#
# PCOD9121548 Si02
#       8
#     4   4   2   4   4   4   4   4
#     4  11  27  47  76 109 142 201 242 307 380 437
#     4  10  19  40  61  96 151 181 241 306 345 421
#     4  12  26  54  76 110 156 174 254 324 360 452
#     4  10  21  43  64 105 143 189 250 300 352 439
#     4  10  19  34  62  95 142 195 241 288 352 423
#     4  12  25  51  77 106 150 185 242 313 374 445
#     4  11  22  48  74 102 152 192 242 307 371 431
#     4  10  20  36  64 100 139 197 245 284 360 428
#
# _framework density 23.717873999999998
#
# number of rings (size 3 to 8) (size 9 to 14) (size 15 to 20)
#    0.000    1.333    5.333    1.600    3.733    0.000 
#    4.800   12.000    0.000    0.000    0.000    0.000 
#    0.000    0.000    0.000    0.000    0.000    0.000 
#
# Total GULP energy -83821.566825 kJ/mol
# GULP energy per Si atom -5588.104455 kJ/mol
# Density = 2.366389 g / cm^3
# Si number density = 23.717874 Si / 1000 Ang^3
#
#
#
# Elastic Constant Matrix: (Units=GPa)
#
#
# Indices 1 2 3 4 5 6 
#
# 1 130.2754 8.7712 3.2834 0.0000 31.3871 0.0000
# 2 8.7712 79.1237 -3.2610 0.0000 5.6360 0.0000
# 3 3.2834 -3.2610 76.5154 0.0000 16.4258 0.0000
# 4 0.0000 0.0000 0.0000 11.1357 0.0000 3.0362
# 5 31.3871 5.6360 16.4258 0.0000 68.1694 0.0000
# 6 0.0000 0.0000 0.0000 3.0362 0.0000 -83.9192
#
#
#
# Elastic Compliance Matrix: (Units=1/GPa)
#
#
# Indices 1 2 3 4 5 6 
#
# 1 0.008686 -0.000654 0.000471 0.000000 -0.004059 0.000000
# 2 -0.000654 0.012810 0.000777 0.000000 -0.000945 0.000000
# 3 0.000471 0.000777 0.013859 0.000000 -0.003620 0.000000
# 4 0.000000 0.000000 0.000000 0.088924 0.000000 0.003217
# 5 -0.004059 -0.000945 -0.003620 0.000000 0.017489 0.000000
# 6 0.000000 0.000000 0.000000 0.003217 0.000000 -0.011800
#
#
# Mechanical properties :
#
#
# Convention : Reuss Voigt Hill
#
# Bulk Modulus (GPa) = 27.36572 33.72244 30.54408
# Shear Modulus (GPa) = 35.47035 17.55192 26.51113
#
# Velocity S-wave (km/s) = 3.87138 2.72330 3.34693
# Velocity P-wave (km/s) = 5.61663 4.91299 5.27655
#
# Compressibility (1/GPa) = 0.03654207
#
# Stress axis : x y z
#
# Youngs Moduli (GPa) = 115.12678 78.06211 72.15326
#
# Poissons Ratio (x) = 0.05108 -0.03396
# Poissons Ratio (y) = 0.07534 -0.05606
# Poissons Ratio (z) = -0.05418 -0.06065
#
# Static dielectric constant tensor:
#      x y z
#    x 1.924020 0.000000 0.059630 
#    y 0.000000 1.959260 0.000000 
#    z 0.059630 0.000000 1.949360 
# 
# From -- ./inp_files/52490.got.cif
#   From: 2010.05.17/outbox.cif.g08.bks.cpg/sg5_27_cif.got.tgz:52490.got - 2010.06.03 18:56:24.
