data_PCOD9121185
_publ_section_title
;
Structure prediction by ZEFSAII (Michael W. Deem and Ramdas Pophale) SiO2 
 PCOD9121185
Probable space group: C 2
;
_chemical_formula_sum "Si O2"
_cell_formula_units_Z 30
_cell_length_a 5.308530
_cell_length_b 24.836528
_cell_length_c 12.084198
_cell_angle_alpha 90.000000
_cell_angle_beta 81.548977
_cell_angle_gamma 90.000000
_cell_volume 1575.946863
_symmetry_space_group_name_H-M "C 2"
_symmetry_group_IT_number 5
_symmetry_cell_setting 'monoclinic'
loop_
_space_group_symop_operation_xyz
x,y,z
-x,y,-z
1/2+x,1/2+y,z
1/2-x,1/2+y,-z
loop_
_atom_site_type_symbol
_atom_site_label
_atom_site_fract_x
_atom_site_fract_y
_atom_site_fract_z
Si Si1 0.439434 0.345440 0.885226
Si Si2 0.284974 0.990428 0.928025
Si Si3 0.826787 0.614278 0.876825
Si Si4 0.657084 0.424729 0.718608
Si Si5 0.527196 0.782084 0.166175
Si Si6 0.666795 0.658633 0.129545
Si Si7 0.070811 0.337937 0.611707
Si Si8 0.500000 0.419764 0.500000
O O1 0.429311 0.391472 0.792988
O O2 0.184618 0.310066 0.898562
O O3 0.691647 0.308791 0.853250
O O4 0.500000 0.371593 0.000000
O O5 0.369383 0.051571 0.895327
O O6 0.268951 0.959614 0.811773
O O7 0.500000 0.968372 0.000000
O O8 0.000000 0.993120 0.000000
O O9 0.574603 0.622810 0.821153
O O10 0.078035 0.644760 0.819843
O O11 0.748750 0.641224 0.999823
O O12 0.588301 0.451369 0.604802
O O13 0.853429 0.378485 0.669023
O O14 0.575897 0.719876 0.139203
O O15 0.401356 0.794403 0.294099
O O16 0.294390 0.378600 0.564092
O O17 0.000000 0.310912 0.500000
#
# Coordination Sequence:
#
# PCOD9121185 Si02
#       8
#     4   4   4   4   4   4   4   2
#     4  11  23  35  49  86 125 155 185 233 293 367
#     4  12  23  39  61  90 127 165 200 246 313 371
#     4  10  19  36  53  82 117 159 194 242 284 351
#     4  10  23  36  61  84 120 160 205 247 302 360
#     4  11  22  35  56  85 115 159 193 234 300 352
#     4  10  19  33  54  78 113 153 198 232 283 349
#     4   9  20  38  58  83 114 151 200 255 290 357
#     4  10  18  42  60  80 118 154 210 256 294 348
#
# _framework density 19.036175
#
# number of rings (size 3 to 8) (size 9 to 14) (size 15 to 20)
#    0.000    1.600    4.000    1.600    7.467    2.133 
#    0.000    0.000    0.000    0.000    1.733    0.000 
#    0.000    0.000    0.000    0.000    0.000    0.000 
#
# Total GULP energy -83538.955519 kJ/mol
# GULP energy per Si atom -5569.263701 kJ/mol
# Density = 1.899285 g / cm^3
# Si number density = 19.036175 Si / 1000 Ang^3
#
#
#
# Elastic Constant Matrix: (Units=GPa)
#
#
# Indices 1 2 3 4 5 6 
#
# 1 121.6756 13.0378 26.6580 0.0000 4.2039 0.0000
# 2 13.0378 74.1058 38.1375 0.0000 8.4548 0.0000
# 3 26.6580 38.1375 125.9849 0.0000 21.2085 0.0000
# 4 0.0000 0.0000 0.0000 -8.3765 0.0000 -40.8665
# 5 4.2039 8.4548 21.2085 0.0000 30.1294 0.0000
# 6 0.0000 0.0000 0.0000 -40.8665 0.0000 -65.9324
#
#
#
# Elastic Compliance Matrix: (Units=1/GPa)
#
#
# Indices 1 2 3 4 5 6 
#
# 1 0.008648 -0.000691 -0.001645 0.000000 0.000145 0.000000
# 2 -0.000691 0.016080 -0.004513 0.000000 -0.001239 0.000000
# 3 -0.001645 -0.004513 0.010663 0.000000 -0.006010 0.000000
# 4 0.000000 0.000000 0.000000 0.058985 0.000000 -0.036560
# 5 0.000145 -0.001239 -0.006010 0.000000 0.037748 0.000000
# 6 0.000000 0.000000 0.000000 -0.036560 0.000000 0.007494
#
#
# Mechanical properties :
#
#
# Convention : Reuss Voigt Hill
#
# Bulk Modulus (GPa) = 46.09831 53.04808 49.57320
# Shear Modulus (GPa) = 31.14348 7.42631 19.28489
#
# Velocity S-wave (km/s) = 4.04916 1.97728 3.18632
# Velocity P-wave (km/s) = 6.79188 5.75676 6.29563
#
# Compressibility (1/GPa) = 0.02169277
#
# Stress axis : x y z
#
# Youngs Moduli (GPa) = 115.63284 62.19061 93.77916
#
# Poissons Ratio (x) = 0.04300 0.15427
# Poissons Ratio (y) = 0.07996 0.42319
# Poissons Ratio (z) = 0.19022 0.28064
#
# Static dielectric constant tensor:
#      x y z
#    x 2.298210 0.000000 0.697240 
#    y 0.000000 1.658430 0.000000 
#    z 0.697240 0.000000 2.591540 
# 
# From -- ./inp_files/34205.got.cif
#   From: 2010.05.17/outbox.cif.g08.bks.cpg/sg5_18_cif.got.tgz:34205.got - 2010.06.03 18:56:24.
