data_PCOD9121051
_publ_section_title
;
Structure prediction by ZEFSAII (Michael W. Deem and Ramdas Pophale) SiO2 
 PCOD9121051
Probable space group: C 2
;
_chemical_formula_sum "Si O2"
_cell_formula_units_Z 16
_cell_length_a 9.279789
_cell_length_b 11.849804
_cell_length_c 9.593312
_cell_angle_alpha 90.000000
_cell_angle_beta 135.349375
_cell_angle_gamma 90.000000
_cell_volume 741.375806
_symmetry_space_group_name_H-M "C 2"
_symmetry_group_IT_number 5
_symmetry_cell_setting 'monoclinic'
loop_
_space_group_symop_operation_xyz
x,y,z
-x,y,-z
1/2+x,1/2+y,z
1/2-x,1/2+y,-z
loop_
_atom_site_type_symbol
_atom_site_label
_atom_site_fract_x
_atom_site_fract_y
_atom_site_fract_z
Si Si1 0.241616 0.752260 0.209084
Si Si2 0.500000 0.587001 0.000000
Si Si3 0.000000 0.054291 0.500000
Si Si4 0.318127 0.808947 0.966323
Si Si5 0.887146 0.922249 0.669124
O O1 0.356018 0.635085 0.308496
O O2 0.250305 0.824610 0.357309
O O3 0.343239 0.817258 0.149274
O O4 0.000000 0.740786 0.000000
O O5 0.672039 0.675363 0.064674
O O6 0.577656 0.510210 0.179868
O O7 0.151343 0.986063 0.501079
O O8 0.103710 0.863352 0.784289
O O9 0.500000 0.860073 0.000000
#
# Coordination Sequence:
#
# PCOD9121051 Si02
#       5
#     4   2   2   4   4
#     4  10  22  43  66  93 129 170 213 257 316 390
#     4  10  18  38  64  92 126 172 204 268 312 376
#     4  12  24  40  66 100 128 164 212 272 312 366
#     4   9  19  37  65  94 122 165 218 247 311 391
#     4  11  22  40  64  93 133 164 212 266 315 371
#
# _framework density 21.581498
#
# number of rings (size 3 to 8) (size 9 to 14) (size 15 to 20)
#    0.750    1.000    6.250    0.000    0.000    5.000 
#    0.000    7.500    0.000    0.000    0.000    0.000 
#    0.000    0.000    0.000    0.000    0.000    0.000 
#
# Total GULP energy -44611.563967 kJ/mol
# GULP energy per Si atom -5576.445496 kJ/mol
# Density = 2.153238 g / cm^3
# Si number density = 21.581498 Si / 1000 Ang^3
#
#
#
# Elastic Constant Matrix: (Units=GPa)
#
#
# Indices 1 2 3 4 5 6 
#
# 1 131.5009 11.6530 18.3361 0.0000 -24.0753 0.0002
# 2 11.6530 47.6249 -2.6593 0.0000 0.3976 0.0000
# 3 18.3361 -2.6593 51.0255 0.0000 -14.8702 0.0002
# 4 0.0000 0.0000 0.0000 12.3949 0.0000 2.0357
# 5 -24.0753 0.3976 -14.8702 0.0000 31.8678 0.0002
# 6 0.0002 0.0000 0.0002 2.0357 0.0002 14.9731
#
#
#
# Elastic Compliance Matrix: (Units=1/GPa)
#
#
# Indices 1 2 3 4 5 6 
#
# 1 0.009178 -0.002388 -0.001612 0.000000 0.006211 0.000000
# 2 -0.002388 0.021682 0.001601 0.000000 -0.001327 0.000000
# 3 -0.001612 0.001601 0.023032 0.000000 0.009509 0.000000
# 4 0.000000 0.000000 0.000000 0.082521 0.000000 -0.011220
# 5 0.006211 -0.001327 0.009509 0.000000 0.040526 -0.000001
# 6 0.000000 0.000000 0.000000 -0.011220 -0.000001 0.068312
#
#
# Mechanical properties :
#
#
# Convention : Reuss Voigt Hill
#
# Bulk Modulus (GPa) = 20.36881 31.64566 26.00724
# Shear Modulus (GPa) = 18.76778 25.36859 22.06819
#
# Velocity S-wave (km/s) = 2.95214 3.43224 3.20120
# Velocity P-wave (km/s) = 4.59116 5.51382 5.07351
#
# Compressibility (1/GPa) = 0.04909467
#
# Stress axis : x y z
#
# Youngs Moduli (GPa) = 108.95528 46.12096 43.41755
#
# Poissons Ratio (x) = 0.11012 0.07001
# Poissons Ratio (y) = 0.26014 -0.06952
# Poissons Ratio (z) = 0.17569 -0.07385
#
# Static dielectric constant tensor:
#      x y z
#    x 1.791500 0.000000 0.003750 
#    y 0.000000 1.791330 0.000000 
#    z 0.003750 0.000000 1.818950 
# 
# From -- ./inp_files/13863.got.cif
#   From: 2010.05.17/outbox.cif.g08.bks.cpg/sg5_7_cif.got.tgz:13863.got - 2010.06.03 18:56:24.
