data_PCOD9121121
_publ_section_title
;
Structure prediction by ZEFSAII (Michael W. Deem and Ramdas Pophale) SiO2 
 PCOD9121121
Probable space group: C 2
;
_chemical_formula_sum "Si O2"
_cell_formula_units_Z 28
_cell_length_a 12.657962
_cell_length_b 14.524097
_cell_length_c 6.743737
_cell_angle_alpha 90.000000
_cell_angle_beta 63.340156
_cell_angle_gamma 90.000000
_cell_volume 1107.996898
_symmetry_space_group_name_H-M "C 2"
_symmetry_group_IT_number 5
_symmetry_cell_setting 'monoclinic'
loop_
_space_group_symop_operation_xyz
x,y,z
-x,y,-z
1/2+x,1/2+y,z
1/2-x,1/2+y,-z
loop_
_atom_site_type_symbol
_atom_site_label
_atom_site_fract_x
_atom_site_fract_y
_atom_site_fract_z
Si Si1 0.279236 0.628450 0.435793
Si Si2 0.111894 0.464573 0.632809
Si Si3 0.694889 0.314696 0.630608
Si Si4 0.603879 0.455137 0.024535
Si Si5 0.500000 0.370626 0.500000
Si Si6 0.347700 0.942210 0.940779
Si Si7 0.885738 0.237905 0.972800
Si Si8 0.000000 0.131907 0.500000
O O1 0.177814 0.553667 0.494256
O O2 0.230921 0.709788 0.617920
O O3 0.391302 0.587619 0.465154
O O4 0.318558 0.676663 0.195050
O O5 0.186659 0.374952 0.503806
O O6 0.028621 0.456557 0.274273
O O7 0.133598 0.471564 0.850229
O O8 0.606260 0.317470 0.517371
O O9 0.625631 0.367329 0.862784
O O10 0.558634 0.429407 0.277531
O O11 0.500000 0.510408 0.000000
O O12 0.734041 0.493338 0.949845
O O13 0.320762 0.832224 0.967006
O O14 0.935082 0.188304 0.733852
O O15 0.000000 0.272530 0.000000
#
# Coordination Sequence:
#
# PCOD9121121 Si02
#       8
#     4   4   4   4   2   4   4   2
#     4  11  23  42  67 106 146 188 244 302 366 427
#     4  11  23  41  72 106 142 190 237 300 362 428
#     4  11  22  43  69 104 141 191 242 289 366 440
#     4  10  22  39  71 101 129 190 245 289 357 435
#     4  10  20  43  66  93 140 190 234 297 348 431
#     4  11  20  44  71 104 147 185 235 305 362 430
#     4  10  18  39  73 102 142 193 244 299 358 424
#     4  10  22  39  70 105 138 194 250 299 350 435
#
# _framework density 25.270828999999999
#
# number of rings (size 3 to 8) (size 9 to 14) (size 15 to 20)
#    0.000    1.429    4.286    1.714    0.000    1.143 
#   10.286    5.000    0.000    0.000    0.000    0.000 
#    0.000    0.000    0.000    0.000    0.000    0.000 
#
# Total GULP energy -78361.086606 kJ/mol
# GULP energy per Si atom -5597.220472 kJ/mol
# Density = 2.521331 g / cm^3
# Si number density = 25.270829 Si / 1000 Ang^3
#
#
#
# Elastic Constant Matrix: (Units=GPa)
#
#
# Indices 1 2 3 4 5 6 
#
# 1 209.5982 30.9597 30.2287 0.0000 -9.0843 0.0000
# 2 30.9597 87.6961 17.9100 0.0000 -14.6091 0.0000
# 3 30.2287 17.9100 177.8682 0.0000 -10.6388 0.0000
# 4 0.0000 0.0000 0.0000 39.7202 0.0000 -8.7971
# 5 -9.0843 -14.6091 -10.6388 0.0000 40.8652 0.0000
# 6 0.0000 0.0000 0.0000 -8.7971 0.0000 35.7305
#
#
#
# Elastic Compliance Matrix: (Units=1/GPa)
#
#
# Indices 1 2 3 4 5 6 
#
# 1 0.005124 -0.001604 -0.000686 0.000000 0.000387 0.000000
# 2 -0.001604 0.012797 -0.000776 0.000000 0.004016 0.000000
# 3 -0.000686 -0.000776 0.005883 0.000000 0.001102 0.000000
# 4 0.000000 0.000000 0.000000 0.026628 0.000000 0.006556
# 5 0.000387 0.004016 0.001102 0.000000 0.026279 0.000000
# 6 0.000000 0.000000 0.000000 0.006556 0.000000 0.029601
#
#
# Mechanical properties :
#
#
# Convention : Reuss Voigt Hill
#
# Bulk Modulus (GPa) = 56.58928 70.37329 63.48128
# Shear Modulus (GPa) = 42.25305 49.66744 45.96024
#
# Velocity S-wave (km/s) = 4.09346 4.43810 4.26926
# Velocity P-wave (km/s) = 6.69205 7.36005 7.03399
#
# Compressibility (1/GPa) = 0.01767119
#
# Stress axis : x y z
#
# Youngs Moduli (GPa) = 195.17069 78.14424 169.98876
#
# Poissons Ratio (x) = 0.12537 0.11663
# Poissons Ratio (y) = 0.31311 0.13186
# Poissons Ratio (z) = 0.13391 0.06061
#
# Static dielectric constant tensor:
#      x y z
#    x 2.030660 0.000000 0.015880 
#    y 0.000000 1.956820 0.000000 
#    z 0.015880 0.000000 2.017730 
# 
# From -- ./inp_files/7195.got.cif
#   From: 2010.05.17/outbox.cif.g08.bks.cpg/sg5_4_cif.got.tgz:7195.got - 2010.06.03 18:56:24.
