data_PCOD9121622
_publ_section_title
;
Structure prediction by ZEFSAII (Michael W. Deem and Ramdas Pophale) SiO2 
 PCOD9121622
Probable space group: C 2
;
_chemical_formula_sum "Si O2"
_cell_formula_units_Z 32
_cell_length_a 16.281545
_cell_length_b 11.884518
_cell_length_c 16.150899
_cell_angle_alpha 90.000000
_cell_angle_beta 154.653308
_cell_angle_gamma 90.000000
_cell_volume 1337.868784
_symmetry_space_group_name_H-M "C 2"
_symmetry_group_IT_number 5
_symmetry_cell_setting 'monoclinic'
loop_
_space_group_symop_operation_xyz
x,y,z
-x,y,-z
1/2+x,1/2+y,z
1/2-x,1/2+y,-z
loop_
_atom_site_type_symbol
_atom_site_label
_atom_site_fract_x
_atom_site_fract_y
_atom_site_fract_z
Si Si1 0.768494 0.459190 0.285769
Si Si2 0.279381 0.197010 0.790405
Si Si3 0.297921 0.093206 0.640098
Si Si4 0.217106 0.870918 0.803627
Si Si5 0.272043 0.118060 0.137424
Si Si6 0.258051 0.359374 0.360599
Si Si7 0.771302 0.597943 0.950448
Si Si8 0.259445 0.114684 0.425099
O O1 0.720493 0.328969 0.229512
O O2 0.705780 0.534441 0.149932
O O3 0.701135 0.513844 0.311032
O O4 0.000000 0.465699 0.500000
O O5 0.201912 0.131345 0.638858
O O6 0.191175 0.171049 0.800294
O O7 0.500000 0.157221 0.000000
O O8 0.192498 0.120084 0.458958
O O9 0.327380 0.958865 0.663147
O O10 0.511262 0.144485 0.837420
O O11 0.275034 0.747394 0.885797
O O12 0.292479 0.887154 0.779628
O O13 0.986446 0.869238 0.583116
O O14 0.269410 0.972306 0.911283
O O15 0.506295 0.108898 0.354006
O O16 0.196817 0.093716 0.976566
O O17 0.208302 0.232197 0.335750
#
# Coordination Sequence:
#
# PCOD9121622 Si02
#       8
#     4   4   4   4   4   4   4   4
#     4  10  20  37  58  78 104 139 181 222 259 308
#     4  10  22  37  52  76 112 145 171 210 267 322
#     4  10  21  37  55  77 109 145 175 210 265 321
#     4  10  19  35  59  81 103 135 180 226 262 303
#     4   9  19  36  57  79 105 140 177 218 267 311
#     4  10  19  35  59  81 103 135 180 226 262 303
#     4  10  21  37  55  77 109 145 175 210 265 321
#     4   9  19  36  57  79 105 140 177 218 267 311
#
# _framework density 23.918638999999999
#
# number of rings (size 3 to 8) (size 9 to 14) (size 15 to 20)
#    0.000    2.250    2.500    0.000    3.500    1.000 
#    0.000    2.500    0.000    0.000    0.000    0.000 
#    0.000    0.000    0.000    0.000    0.000    0.000 
#
# Total GULP energy -89424.060062 kJ/mol
# GULP energy per Si atom -5589.003754 kJ/mol
# Density = 2.386420 g / cm^3
# Si number density = 23.918639 Si / 1000 Ang^3
#
#
#
# Elastic Constant Matrix: (Units=GPa)
#
#
# Indices 1 2 3 4 5 6 
#
# 1 99.6887 30.7729 49.2151 -0.0004 -40.8734 -0.0001
# 2 30.7729 151.6760 29.3519 -0.0013 -43.3847 -0.0005
# 3 49.2151 29.3519 141.3446 -0.0007 -24.9634 -0.0002
# 4 -0.0004 -0.0013 -0.0007 36.7102 -0.0028 -9.7423
# 5 -40.8734 -43.3847 -24.9634 -0.0028 52.8112 -0.0014
# 6 -0.0001 -0.0005 -0.0002 -9.7423 -0.0014 26.2900
#
#
#
# Elastic Compliance Matrix: (Units=1/GPa)
#
#
# Indices 1 2 3 4 5 6 
#
# 1 0.016406 0.000689 -0.003833 0.000001 0.011452 0.000001
# 2 0.000689 0.008692 -0.000752 0.000001 0.007318 0.000001
# 3 -0.003833 -0.000752 0.008655 0.000000 0.000507 0.000000
# 4 0.000001 0.000001 0.000000 0.030211 0.000004 0.011195
# 5 0.011452 0.007318 0.000507 0.000004 0.034050 0.000003
# 6 0.000001 0.000001 0.000000 0.011195 0.000003 0.042186
#
#
# Mechanical properties :
#
#
# Convention : Reuss Voigt Hill
#
# Bulk Modulus (GPa) = 38.52048 67.93215 53.22632
# Shear Modulus (GPa) = 31.91882 42.05356 36.98619
#
# Velocity S-wave (km/s) = 3.65701 4.19763 3.93661
# Velocity P-wave (km/s) = 5.82850 7.20808 6.55469
#
# Compressibility (1/GPa) = 0.02596022
#
# Stress axis : x y z
#
# Youngs Moduli (GPa) = 60.95242 115.04737 115.53676
#
# Poissons Ratio (x) = -0.07924 0.44286
# Poissons Ratio (y) = -0.04198 0.08693
# Poissons Ratio (z) = 0.23363 0.08656
#
# Static dielectric constant tensor:
#      x y z
#    x 1.857220 0.000000 -0.011490 
#    y 0.000000 1.823350 0.000000 
#    z -0.011490 0.000000 1.911920 
# 
# From -- ./inp_files/32599.got.cif
#   From: 2010.05.17/outbox.cif.g08.bks.cpg/sg5_17_cif.got.tgz:32599.got - 2010.06.03 18:56:24.
