data_PCOD9121967
_publ_section_title
;
Structure prediction by ZEFSAII (Michael W. Deem and Ramdas Pophale) SiO2 
 PCOD9121967
Probable space group: C 2
;
_chemical_formula_sum "Si O2"
_cell_formula_units_Z 28
_cell_length_a 18.317207
_cell_length_b 9.509334
_cell_length_c 20.601237
_cell_angle_alpha 90.000000
_cell_angle_beta 23.154472
_cell_angle_gamma 90.000000
_cell_volume 1411.005753
_symmetry_space_group_name_H-M "C 2"
_symmetry_group_IT_number 5
_symmetry_cell_setting 'monoclinic'
loop_
_space_group_symop_operation_xyz
x,y,z
-x,y,-z
1/2+x,1/2+y,z
1/2-x,1/2+y,-z
loop_
_atom_site_type_symbol
_atom_site_label
_atom_site_fract_x
_atom_site_fract_y
_atom_site_fract_z
Si Si1 0.296692 0.006470 0.869527
Si Si2 0.214733 0.495859 0.336837
Si Si3 0.006793 0.777244 0.924279
Si Si4 0.614683 0.030173 0.050088
Si Si5 0.824849 0.407688 0.486789
Si Si6 0.473418 0.621684 0.304053
Si Si7 0.993458 0.222894 0.136415
O O1 0.487747 0.998538 0.675080
O O2 0.347300 0.006436 0.904568
O O3 0.172744 0.143637 0.961145
O O4 0.165851 0.875358 0.957147
O O5 0.324325 0.385804 0.203285
O O6 0.240889 0.425238 0.386063
O O7 0.315393 0.645682 0.252340
O O8 0.000000 0.506466 0.500000
O O9 0.017441 0.659858 0.860074
O O10 0.000000 0.703948 0.000000
O O11 0.815710 0.071119 0.854825
O O12 0.522116 0.886330 0.102689
O O13 0.661757 0.486497 0.580745
O O14 0.885731 0.251052 0.416311
O O15 0.482669 0.682826 0.222303
#
# Coordination Sequence:
#
# PCOD9121967 Si02
#       7
#     4   4   4   4   4   4   4
#     4  10  19  37  63  88 122 168 209 256 302 378
#     4  10  23  40  61  85 121 166 207 253 312 386
#     4  11  23  41  65  91 125 167 216 260 311 377
#     4  11  20  39  61  90 125 161 212 262 305 370
#     4  11  21  35  57  94 123 157 203 259 320 364
#     4  10  22  33  57  92 127 154 201 256 317 363
#     4   9  20  37  59  87 116 162 203 253 305 369
#
# _framework density 19.844002
#
# number of rings (size 3 to 8) (size 9 to 14) (size 15 to 20)
#    0.000    1.714    2.857    2.571    4.000    0.000 
#    0.000    5.000    0.000    0.000    0.000    0.000 
#    0.000    0.000    0.000    0.000    0.000    0.000 
#
# Total GULP energy -78063.668604 kJ/mol
# GULP energy per Si atom -5575.976329 kJ/mol
# Density = 1.979884 g / cm^3
# Si number density = 19.844002 Si / 1000 Ang^3
#
#
#
# Elastic Constant Matrix: (Units=GPa)
#
#
# Indices 1 2 3 4 5 6 
#
# 1 47.8823 26.9442 -1.3780 0.0000 -7.4725 -0.0003
# 2 26.9442 123.5380 35.6383 -0.0019 -15.8352 0.0006
# 3 -1.3780 35.6383 65.6474 -0.0023 -20.1884 0.0004
# 4 0.0000 -0.0019 -0.0023 29.7492 0.0002 9.4878
# 5 -7.4725 -15.8352 -20.1884 0.0002 34.2211 0.0003
# 6 -0.0003 0.0006 0.0004 9.4878 0.0003 -2.5539
#
#
#
# Elastic Compliance Matrix: (Units=1/GPa)
#
#
# Indices 1 2 3 4 5 6 
#
# 1 0.025690 -0.006542 0.005968 0.000000 0.006103 -0.000001
# 2 -0.006542 0.011343 -0.006255 0.000000 0.000130 0.000001
# 3 0.005968 -0.006255 0.022313 0.000000 0.011572 0.000003
# 4 0.000000 0.000000 0.000000 0.015385 -0.000001 0.057157
# 5 0.006103 0.000130 0.011572 -0.000001 0.037441 0.000004
# 6 -0.000001 0.000001 0.000003 0.057157 0.000004 -0.179217
#
#
# Mechanical properties :
#
#
# Convention : Reuss Voigt Hill
#
# Bulk Modulus (GPa) = 21.88849 39.94188 30.91518
# Shear Modulus (GPa) = -131.03938 24.00749 -53.51595
#
# Velocity S-wave (km/s) = -8.13499 3.48201 -5.19874
# Velocity P-wave (km/s) = 8.78540 6.02806 4.51917
#
# Compressibility (1/GPa) = 0.04568612
#
# Stress axis : x y z
#
# Youngs Moduli (GPa) = 38.92523 88.16211 44.81781
#
# Poissons Ratio (x) = 0.57680 -0.26747
# Poissons Ratio (y) = 0.25467 0.28034
# Poissons Ratio (z) = -0.23230 0.55146
#
# Static dielectric constant tensor:
#      x y z
#    x 1.755590 0.000000 0.030240 
#    y 0.000000 1.690050 0.000000 
#    z 0.030240 0.000000 1.719180 
# 
# From -- ./inp_files/26694.got.cif
#   From: 2010.05.17/outbox.cif.g08.bks.cpg/sg5_14_cif.got.tgz:26694.got - 2010.06.03 18:56:24.
