data_PCOD9121739
_publ_section_title
;
Structure prediction by ZEFSAII (Michael W. Deem and Ramdas Pophale) SiO2 
 PCOD9121739
Probable space group: C 2
;
_chemical_formula_sum "Si O2"
_cell_formula_units_Z 28
_cell_length_a 5.709898
_cell_length_b 14.382182
_cell_length_c 14.182641
_cell_angle_alpha 90.000000
_cell_angle_beta 74.720886
_cell_angle_gamma 90.000000
_cell_volume 1123.522061
_symmetry_space_group_name_H-M "C 2"
_symmetry_group_IT_number 5
_symmetry_cell_setting 'monoclinic'
loop_
_space_group_symop_operation_xyz
x,y,z
-x,y,-z
1/2+x,1/2+y,z
1/2-x,1/2+y,-z
loop_
_atom_site_type_symbol
_atom_site_label
_atom_site_fract_x
_atom_site_fract_y
_atom_site_fract_z
Si Si1 0.155339 0.577500 0.799633
Si Si2 0.274833 0.368870 0.202601
Si Si3 0.771922 0.354731 0.220154
Si Si4 0.274588 0.292052 0.566206
Si Si5 0.603594 0.572914 0.885181
Si Si6 0.034174 0.113437 0.390453
Si Si7 0.700785 0.951539 0.414367
O O1 0.180063 0.464838 0.800400
O O2 0.388058 0.607717 0.838044
O O3 0.208683 0.608113 0.686631
O O4 0.882291 0.608963 0.851538
O O5 0.537451 0.321486 0.187059
O O6 0.347584 0.463678 0.141990
O O7 0.169014 0.396907 0.318627
O O8 0.046400 0.317413 0.178975
O O9 0.686454 0.337267 0.336492
O O10 0.500000 0.234990 0.500000
O O11 0.063159 0.217495 0.600830
O O12 0.746430 0.372382 0.511083
O O13 0.500000 0.584646 0.000000
O O14 0.000000 0.080759 0.500000
O O15 0.875455 0.033124 0.358993
O O16 0.500000 0.003380 0.500000
#
# Coordination Sequence:
#
# PCOD9121739 Si02
#       7
#     4   4   4   4   4   4   4
#     4  10  21  40  61  92 131 172 208 276 341 378
#     4  10  20  34  62  85 122 166 207 264 328 373
#     4  10  19  36  58  82 117 169 206 251 323 373
#     4  12  23  37  57  87 129 182 230 259 313 384
#     4  10  20  37  65  99 125 162 224 281 336 399
#     4  12  26  37  56  96 135 179 230 267 315 408
#     4  12  21  37  60  82 131 179 215 265 323 378
#
# _framework density 24.921628999999999
#
# number of rings (size 3 to 8) (size 9 to 14) (size 15 to 20)
#    0.000    1.143    5.714    2.571    2.000    1.143 
#    0.000    0.000    0.000    0.000    0.000   16.000 
#    0.000    0.000    0.000    0.000    0.000    0.143 
#
# Total GULP energy -78052.475913 kJ/mol
# GULP energy per Si atom -5575.176851 kJ/mol
# Density = 2.486491 g / cm^3
# Si number density = 24.921629 Si / 1000 Ang^3
#
#
#
# Elastic Constant Matrix: (Units=GPa)
#
#
# Indices 1 2 3 4 5 6 
#
# 1 214.5408 20.5062 47.9113 0.0000 -35.2959 0.0000
# 2 20.5062 108.0067 12.0086 0.0000 -8.3956 0.0000
# 3 47.9113 12.0086 90.3203 0.0000 -32.1214 0.0000
# 4 0.0000 0.0000 0.0000 -2.6965 0.0000 -7.2501
# 5 -35.2959 -8.3956 -32.1214 0.0000 41.7597 0.0000
# 6 0.0000 0.0000 0.0000 -7.2501 0.0000 -3.5240
#
#
#
# Elastic Compliance Matrix: (Units=1/GPa)
#
#
# Indices 1 2 3 4 5 6 
#
# 1 0.005654 -0.000623 -0.001737 0.000000 0.003318 0.000000
# 2 -0.000623 0.009516 -0.000608 0.000000 0.000919 0.000000
# 3 -0.001737 -0.000608 0.015842 0.000000 0.010596 0.000000
# 4 0.000000 0.000000 0.000000 0.081836 0.000000 -0.168365
# 5 0.003318 0.000919 0.010596 0.000000 0.035086 0.000000
# 6 0.000000 0.000000 0.000000 -0.168365 0.000000 0.062619
#
#
# Mechanical properties :
#
#
# Convention : Reuss Voigt Hill
#
# Bulk Modulus (GPa) = 39.87565 63.74667 51.81116
# Shear Modulus (GPa) = 22.23743 29.27063 25.75403
#
# Velocity S-wave (km/s) = 2.99037 3.43083 3.21814
# Velocity P-wave (km/s) = 5.28756 6.42872 5.88586
#
# Compressibility (1/GPa) = 0.02507796
#
# Stress axis : x y z
#
# Youngs Moduli (GPa) = 176.85544 105.08684 63.12366
#
# Poissons Ratio (x) = 0.06542 0.10962
# Poissons Ratio (y) = 0.11010 0.03838
# Poissons Ratio (z) = 0.30712 0.06390
#
# Static dielectric constant tensor:
#      x y z
#    x 2.447140 0.000000 0.021780 
#    y 0.000000 1.958800 0.000000 
#    z 0.021780 0.000000 1.918840 
# 
# From -- ./inp_files/49174.got.cif
#   From: 2010.05.17/outbox.cif.g08.bks.cpg/sg5_25_cif.got.tgz:49174.got - 2010.06.03 18:56:24.
