data_PCOD9121439
_publ_section_title
;
Structure prediction by ZEFSAII (Michael W. Deem and Ramdas Pophale) SiO2 
 PCOD9121439
Probable space group: C 2
;
_chemical_formula_sum "Si O2"
_cell_formula_units_Z 24
_cell_length_a 19.960116
_cell_length_b 4.883788
_cell_length_c 19.637688
_cell_angle_alpha 90.000000
_cell_angle_beta 141.244866
_cell_angle_gamma 90.000000
_cell_volume 1198.339682
_symmetry_space_group_name_H-M "C 2"
_symmetry_group_IT_number 5
_symmetry_cell_setting 'monoclinic'
loop_
_space_group_symop_operation_xyz
x,y,z
-x,y,-z
1/2+x,1/2+y,z
1/2-x,1/2+y,-z
loop_
_atom_site_type_symbol
_atom_site_label
_atom_site_fract_x
_atom_site_fract_y
_atom_site_fract_z
Si Si1 0.546993 0.501500 0.113533
Si Si2 0.257368 0.390597 0.096889
Si Si3 0.745041 0.368317 0.747537
Si Si4 0.100630 0.360915 0.627734
Si Si5 0.034198 0.495369 0.869927
Si Si6 0.899403 0.368457 0.213476
O O1 0.657011 0.676588 0.198939
O O2 0.474766 0.703672 0.100375
O O3 0.537021 0.212753 0.145018
O O4 0.500000 0.467311 0.000000
O O5 0.228119 0.439760 0.152853
O O6 0.360239 0.570779 0.159032
O O7 0.298011 0.077647 0.130817
O O8 0.161699 0.529138 0.979422
O O9 0.698684 0.657900 0.684819
O O10 0.643675 0.169356 0.659246
O O11 0.069993 0.328730 0.683407
O O12 0.000000 0.315264 0.500000
O O13 0.015319 0.475435 0.774123
#
# Coordination Sequence:
#
# PCOD9121439 Si02
#       6
#     4   4   4   4   4   4
#     4  12  24  36  55  83 125 167 195 222 276 362
#     4  10  19  34  54  80 117 154 191 238 283 348
#     4  10  21  37  57  87 117 149 198 240 287 347
#     4  10  21  39  65  87 111 147 196 261 305 334
#     4  12  22  34  55  81 123 163 191 230 285 353
#     4  10  21  35  55  85 115 149 196 244 296 340
#
# _framework density 20.027711
#
# number of rings (size 3 to 8) (size 9 to 14) (size 15 to 20)
#    0.000    1.333    1.667    5.000    4.667    0.000 
#    0.000    0.000    0.000    4.000    0.000    0.000 
#    0.000    0.000    0.000    0.000    0.000    0.000 
#
# Total GULP energy -66819.440536 kJ/mol
# GULP energy per Si atom -5568.286711 kJ/mol
# Density = 1.998213 g / cm^3
# Si number density = 20.027711 Si / 1000 Ang^3
#
#
#
# Elastic Constant Matrix: (Units=GPa)
#
#
# Indices 1 2 3 4 5 6 
#
# 1 78.0773 9.2319 42.1470 0.0001 -18.7068 0.0003
# 2 9.2319 102.2598 18.0352 -0.0002 -9.5872 0.0000
# 3 42.1470 18.0352 98.5158 0.0000 -8.9365 0.0000
# 4 0.0001 -0.0002 0.0000 20.2481 -0.0001 6.0501
# 5 -18.7068 -9.5872 -8.9365 -0.0001 12.3808 0.0000
# 6 0.0003 0.0000 0.0000 6.0501 0.0000 30.6262
#
#
#
# Elastic Compliance Matrix: (Units=1/GPa)
#
#
# Indices 1 2 3 4 5 6 
#
# 1 0.024945 0.002324 -0.008042 0.000000 0.033686 0.000000
# 2 0.002324 0.010912 -0.002041 0.000000 0.010489 0.000000
# 3 -0.008042 -0.002041 0.013610 0.000000 -0.003907 0.000000
# 4 0.000000 0.000000 0.000000 0.052485 0.000000 -0.010368
# 5 0.033686 0.010489 -0.003907 0.000000 0.136971 0.000000
# 6 0.000000 0.000000 0.000000 -0.010368 0.000000 0.034700
#
#
# Mechanical properties :
#
#
# Convention : Reuss Voigt Hill
#
# Bulk Modulus (GPa) = 29.45353 46.40902 37.93127
# Shear Modulus (GPa) = 16.64131 26.61361 21.62746
#
# Velocity S-wave (km/s) = 2.88569 3.64928 3.28971
# Velocity P-wave (km/s) = 5.08343 6.40149 5.78015
#
# Compressibility (1/GPa) = 0.03395179
#
# Stress axis : x y z
#
# Youngs Moduli (GPa) = 40.08813 91.63810 73.47390
#
# Poissons Ratio (x) = -0.21301 0.59086
# Poissons Ratio (y) = -0.09318 0.14994
# Poissons Ratio (z) = 0.32238 0.18701
#
# Static dielectric constant tensor:
#      x y z
#    x 1.795160 0.000000 0.022760 
#    y 0.000000 1.727870 0.000000 
#    z 0.022760 0.000000 1.725760 
# 
# From -- ./inp_files/62606.got.cif
#   From: 2010.05.17/outbox.cif.g08.bks.cpg/sg5_32_cif.got.tgz:62606.got - 2010.06.03 18:56:24.
