data_PCOD9121463
_publ_section_title
;
Structure prediction by ZEFSAII (Michael W. Deem and Ramdas Pophale) SiO2 
 PCOD9121463
Probable space group: C 2
;
_chemical_formula_sum "Si O2"
_cell_formula_units_Z 28
_cell_length_a 8.432533
_cell_length_b 34.946183
_cell_length_c 5.091320
_cell_angle_alpha 90.000000
_cell_angle_beta 113.388542
_cell_angle_gamma 90.000000
_cell_volume 1377.058359
_symmetry_space_group_name_H-M "C 2"
_symmetry_group_IT_number 5
_symmetry_cell_setting 'monoclinic'
loop_
_space_group_symop_operation_xyz
x,y,z
-x,y,-z
1/2+x,1/2+y,z
1/2-x,1/2+y,-z
loop_
_atom_site_type_symbol
_atom_site_label
_atom_site_fract_x
_atom_site_fract_y
_atom_site_fract_z
Si Si1 0.115668 0.816630 0.327089
Si Si2 0.711032 0.391436 0.143554
Si Si3 0.291794 0.437566 0.366624
Si Si4 0.123913 0.518616 0.327075
Si Si5 0.379565 0.753571 0.677761
Si Si6 0.876928 0.601019 0.665082
Si Si7 0.881527 0.167132 0.675498
O O1 0.239470 0.848916 0.276568
O O2 0.224170 0.782302 0.520689
O O3 0.000000 0.832207 0.500000
O O4 0.000000 0.804196 0.000000
O O5 0.773464 0.420167 0.405546
O O6 0.500000 0.392204 0.000000
O O7 0.769077 0.409231 0.906327
O O8 0.500000 0.436560 0.500000
O O9 0.235086 0.481454 0.331817
O O10 0.220590 0.559832 0.392338
O O11 0.000000 0.512666 0.500000
O O12 0.000000 0.523523 0.000000
O O13 0.500000 0.753545 0.500000
O O14 0.315639 0.710148 0.693476
O O15 0.500000 0.765577 0.000000
O O16 0.758742 0.636541 0.507820
O O17 0.000000 0.595527 0.500000
O O18 0.000000 0.607833 0.000000
O O19 0.000000 0.171524 0.500000
O O20 0.000000 0.154573 0.000000
#
# Coordination Sequence:
#
# PCOD9121463 Si02
#       7
#     4   4   4   4   4   4   4
#     4  11  21  36  60  86 111 148 197 240 278 336
#     4   9  18  33  53  78 106 136 179 235 280 316
#     4  10  19  34  56  77 102 141 184 225 275 334
#     4  10  21  37  54  79 114 146 179 231 289 335
#     4  10  22  39  57  83 122 156 183 233 295 339
#     4  10  21  37  58  83 115 151 189 236 286 335
#     4  10  21  38  59  84 117 154 191 234 284 337
#
# _framework density 20.333199
#
# number of rings (size 3 to 8) (size 9 to 14) (size 15 to 20)
#    0.000    2.000    0.000    4.714    0.000    1.714 
#    0.000    5.000    0.000    0.000    0.000    0.000 
#    0.000    0.000    0.000    0.000    0.000    0.000 
#
# Total GULP energy -78013.926088 kJ/mol
# GULP energy per Si atom -5572.423292 kJ/mol
# Density = 2.028692 g / cm^3
# Si number density = 20.333199 Si / 1000 Ang^3
#
#
#
# Elastic Constant Matrix: (Units=GPa)
#
#
# Indices 1 2 3 4 5 6 
#
# 1 24.8850 15.8470 19.3121 0.0000 -7.5538 0.0000
# 2 15.8470 146.8388 55.4978 0.0000 28.0963 0.0000
# 3 19.3121 55.4978 147.9279 0.0000 -16.0377 0.0000
# 4 0.0000 0.0000 0.0000 39.3571 0.0000 15.6996
# 5 -7.5538 28.0963 -16.0377 0.0000 26.3843 0.0000
# 6 0.0000 0.0000 0.0000 15.6996 0.0000 68.5759
#
#
#
# Elastic Compliance Matrix: (Units=1/GPa)
#
#
# Indices 1 2 3 4 5 6 
#
# 1 0.056053 -0.011495 0.000066 0.000000 0.028329 0.000000
# 2 -0.011495 0.015047 -0.006679 0.000000 -0.023375 0.000000
# 3 0.000066 -0.006679 0.010738 0.000000 0.013658 0.000000
# 4 0.000000 0.000000 0.000000 0.027962 0.000000 -0.006402
# 5 0.028329 -0.023375 0.013658 0.000000 0.079205 0.000000
# 6 0.000000 0.000000 0.000000 -0.006402 0.000000 0.016048
#
#
# Mechanical properties :
#
#
# Convention : Reuss Voigt Hill
#
# Bulk Modulus (GPa) = 21.91873 55.66281 38.79077
# Shear Modulus (GPa) = 19.49499 42.12978 30.81239
#
# Velocity S-wave (km/s) = 3.09977 4.55683 3.89700
# Velocity P-wave (km/s) = 4.85949 7.42435 6.27438
#
# Compressibility (1/GPa) = 0.04562308
#
# Stress axis : x y z
#
# Youngs Moduli (GPa) = 17.84032 66.45624 93.12817
#
# Poissons Ratio (x) = 0.76389 -0.00614
# Poissons Ratio (y) = 0.20507 0.62199
# Poissons Ratio (z) = -0.00118 0.44385
#
# Static dielectric constant tensor:
#      x y z
#    x 1.716190 0.000000 0.002420 
#    y 0.000000 1.842080 0.000000 
#    z 0.002420 0.000000 1.699070 
# 
# From -- ./inp_files/3994.got.cif
#   From: 2010.05.17/outbox.cif.g08.bks.cpg/sg5_2_cif.got.tgz:3994.got - 2010.06.03 18:56:24.
