data_PCOD9121500
_publ_section_title
;
Structure prediction by ZEFSAII (Michael W. Deem and Ramdas Pophale) SiO2 
 PCOD9121500
Probable space group: C 2
;
_chemical_formula_sum "Si O2"
_cell_formula_units_Z 32
_cell_length_a 8.656368
_cell_length_b 11.115364
_cell_length_c 20.870671
_cell_angle_alpha 90.000000
_cell_angle_beta 128.521680
_cell_angle_gamma 90.000000
_cell_volume 1571.120214
_symmetry_space_group_name_H-M "C 2"
_symmetry_group_IT_number 5
_symmetry_cell_setting 'monoclinic'
loop_
_space_group_symop_operation_xyz
x,y,z
-x,y,-z
1/2+x,1/2+y,z
1/2-x,1/2+y,-z
loop_
_atom_site_type_symbol
_atom_site_label
_atom_site_fract_x
_atom_site_fract_y
_atom_site_fract_z
Si Si1 0.757163 0.699100 0.616778
Si Si2 0.047845 0.490046 0.654822
Si Si3 0.834835 0.181442 0.671926
Si Si4 0.797863 0.658633 0.763653
Si Si5 0.225385 0.919678 0.034955
Si Si6 0.399696 0.179285 0.043972
Si Si7 0.343954 0.769667 0.538852
Si Si8 0.476559 0.904084 0.772583
O O1 0.834964 0.734407 0.707515
O O2 0.525035 0.678593 0.570752
O O3 0.773896 0.781653 0.557742
O O4 0.870841 0.581346 0.624253
O O5 0.223150 0.566853 0.670300
O O6 0.089682 0.429433 0.734454
O O7 0.960591 0.391257 0.584868
O O8 0.749830 0.224505 0.580847
O O9 0.068636 0.160817 0.723017
O O10 0.832217 0.292702 0.720870
O O11 0.936696 0.693366 0.858321
O O12 0.855934 0.522792 0.759725
O O13 0.366781 0.885430 0.130862
O O14 0.292884 0.050658 0.026972
O O15 0.228443 0.802469 0.989568
O O16 0.000000 0.933019 0.000000
O O17 0.500000 0.173592 0.000000
#
# Coordination Sequence:
#
# PCOD9121500 Si02
#       8
#     4   4   4   4   4   4   4   4
#     4   9  19  38  56  75 109 145 178 224 276 325
#     4  10  21  36  58  85 110 144 189 232 275 330
#     4  10  19  34  58  83 109 144 186 231 278 330
#     4   9  19  38  59  81 113 150 186 232 286 337
#     4  10  21  37  59  85 118 156 192 238 292 346
#     4  10  21  38  60  87 119 152 193 241 291 347
#     4   9  20  36  54  78 111 144 179 226 278 335
#     4   9  20  38  55  81 116 148 187 231 280 340
#
# _framework density 20.367635
#
# number of rings (size 3 to 8) (size 9 to 14) (size 15 to 20)
#    0.000    2.500    0.000    1.500    0.000    6.000 
#    0.000   13.750    0.000    0.000    0.000    0.000 
#    0.000    0.000    0.000    0.000    0.000    0.000 
#
# Total GULP energy -89160.027404 kJ/mol
# GULP energy per Si atom -5572.501713 kJ/mol
# Density = 2.032128 g / cm^3
# Si number density = 20.367635 Si / 1000 Ang^3
#
#
#
# Elastic Constant Matrix: (Units=GPa)
#
#
# Indices 1 2 3 4 5 6 
#
# 1 50.9144 45.1010 36.2315 0.0000 -1.3041 0.0000
# 2 45.1010 111.0270 64.9198 0.0000 -5.9561 0.0000
# 3 36.2315 64.9198 144.6245 0.0000 -27.5189 0.0000
# 4 0.0000 0.0000 0.0000 24.4231 0.0000 -4.3692
# 5 -1.3041 -5.9561 -27.5189 0.0000 17.6468 0.0000
# 6 0.0000 0.0000 0.0000 -4.3692 0.0000 31.9354
#
#
#
# Elastic Compliance Matrix: (Units=1/GPa)
#
#
# Indices 1 2 3 4 5 6 
#
# 1 0.032523 -0.010742 -0.005060 0.000000 -0.009113 0.000000
# 2 -0.010742 0.016272 -0.005289 0.000000 -0.003549 0.000000
# 3 -0.005060 -0.005289 0.014426 0.000000 0.020337 0.000000
# 4 0.000000 0.000000 0.000000 0.041972 0.000000 0.005742
# 5 -0.009113 -0.003549 0.020337 0.000000 0.086510 0.000000
# 6 0.000000 0.000000 0.000000 0.005742 0.000000 0.032099
#
#
# Mechanical properties :
#
#
# Convention : Reuss Voigt Hill
#
# Bulk Modulus (GPa) = 47.52670 66.56341 57.04505
# Shear Modulus (GPa) = 18.31526 25.48864 21.90195
#
# Velocity S-wave (km/s) = 3.00198 3.54139 3.28278
# Velocity P-wave (km/s) = 5.94986 7.03377 6.51440
#
# Compressibility (1/GPa) = 0.02104081
#
# Stress axis : x y z
#
# Youngs Moduli (GPa) = 30.74710 61.45422 69.32067
#
# Poissons Ratio (x) = 0.66013 0.35076
# Poissons Ratio (y) = 0.33028 0.36661
# Poissons Ratio (z) = 0.15558 0.32501
#
# Static dielectric constant tensor:
#      x y z
#    x 1.738710 0.000000 -0.018640 
#    y 0.000000 1.762560 0.000000 
#    z -0.018640 0.000000 1.761910 
# 
# From -- ./inp_files/64569.got.cif
#   From: 2010.05.17/outbox.cif.g08.bks.cpg/sg5_33_cif.got.tgz:64569.got - 2010.06.03 18:56:24.
