data_PCOD9121048
_publ_section_title
;
Structure prediction by ZEFSAII (Michael W. Deem and Ramdas Pophale) SiO2 
 PCOD9121048
Probable space group: C 2
;
_chemical_formula_sum "Si O2"
_cell_formula_units_Z 18
_cell_length_a 13.384465
_cell_length_b 11.131716
_cell_length_c 5.309635
_cell_angle_alpha 90.000000
_cell_angle_beta 104.019631
_cell_angle_gamma 90.000000
_cell_volume 767.528999
_symmetry_space_group_name_H-M "C 2"
_symmetry_group_IT_number 5
_symmetry_cell_setting 'monoclinic'
loop_
_space_group_symop_operation_xyz
x,y,z
-x,y,-z
1/2+x,1/2+y,z
1/2-x,1/2+y,-z
loop_
_atom_site_type_symbol
_atom_site_label
_atom_site_fract_x
_atom_site_fract_y
_atom_site_fract_z
Si Si1 0.677849 0.831200 0.546336
Si Si2 0.179049 0.564584 0.798854
Si Si3 0.500000 0.098841 0.000000
Si Si4 0.901494 0.781081 0.543539
Si Si5 0.883850 0.184245 0.988327
O O1 0.802777 0.833838 0.620332
O O2 0.640566 0.768732 0.268648
O O3 0.653891 0.971220 0.563702
O O4 0.633969 0.756968 0.760388
O O5 0.097336 0.526261 0.958503
O O6 0.148728 0.700386 0.707747
O O7 0.298543 0.577307 0.942097
O O8 0.452505 0.185319 0.760509
O O9 0.000000 0.855238 0.500000
O O10 0.000000 0.142250 0.000000
#
# Coordination Sequence:
#
# PCOD9121048 Si02
#       5
#     4   4   2   4   4
#     4  11  24  42  66  97 128 174 219 262 329 388
#     4  10  23  40  64  96 129 167 221 267 325 382
#     4  10  18  38  64  88 122 162 212 276 308 370
#     4   9  20  39  61  91 127 163 211 272 313 379
#     4  11  25  44  64  97 138 172 213 270 328 392
#
# _framework density 23.451882999999999
#
# number of rings (size 3 to 8) (size 9 to 14) (size 15 to 20)
#    0.000    1.778    2.222    0.667    4.667    3.556 
#    2.000    4.444    0.000    0.000    0.000    0.000 
#    0.000    0.000    0.000    0.000    0.000    0.000 
#
# Total GULP energy -50170.870965 kJ/mol
# GULP energy per Si atom -5574.541218 kJ/mol
# Density = 2.339851 g / cm^3
# Si number density = 23.451883 Si / 1000 Ang^3
#
#
#
# Elastic Constant Matrix: (Units=GPa)
#
#
# Indices 1 2 3 4 5 6 
#
# 1 207.5745 10.9647 34.6302 0.0000 -19.8874 0.0000
# 2 10.9647 29.4621 5.1587 0.0000 -11.4494 0.0000
# 3 34.6302 5.1587 91.4910 0.0000 -15.1271 0.0000
# 4 0.0000 0.0000 0.0000 22.2021 0.0000 3.9029
# 5 -19.8874 -11.4494 -15.1271 0.0000 35.4533 0.0000
# 6 0.0000 0.0000 0.0000 3.9029 0.0000 -17.0345
#
#
#
# Elastic Compliance Matrix: (Units=1/GPa)
#
#
# Indices 1 2 3 4 5 6 
#
# 1 0.005330 -0.000922 -0.001636 0.000000 0.001994 0.000000
# 2 -0.000922 0.038974 0.000158 0.000000 0.012136 0.000000
# 3 -0.001636 0.000158 0.012262 0.000000 0.004365 0.000000
# 4 0.000000 0.000000 0.000000 0.043297 0.000000 0.009920
# 5 0.001994 0.012136 0.004365 0.000000 0.035107 0.000000
# 6 0.000000 0.000000 0.000000 0.009920 0.000000 -0.056432
#
#
# Mechanical properties :
#
#
# Convention : Reuss Voigt Hill
#
# Bulk Modulus (GPa) = 19.31761 47.78166 33.54963
# Shear Modulus (GPa) = 49.70496 26.64245 38.17371
#
# Velocity S-wave (km/s) = 4.60874 3.37419 4.03891
# Velocity P-wave (km/s) = 6.04778 5.96647 6.00726
#
# Compressibility (1/GPa) = 0.05176624
#
# Stress axis : x y z
#
# Youngs Moduli (GPa) = 187.60906 25.65824 81.55234
#
# Poissons Ratio (x) = 0.02367 0.13341
# Poissons Ratio (y) = 0.17304 -0.01290
# Poissons Ratio (z) = 0.30690 -0.00406
#
# Static dielectric constant tensor:
#      x y z
#    x 2.042750 0.000000 -0.045040 
#    y 0.000000 1.855790 0.000000 
#    z -0.045040 0.000000 1.919610 
# 
# From -- ./inp_files/4416.got.cif
#   From: 2010.05.17/outbox.cif.g08.bks.cpg/sg5_3_cif.got.tgz:4416.got - 2010.06.03 18:56:24.
