data_PCOD9121148
_publ_section_title
;
Structure prediction by ZEFSAII (Michael W. Deem and Ramdas Pophale) SiO2 
 PCOD9121148
Probable space group: C 2
;
_chemical_formula_sum "Si O2"
_cell_formula_units_Z 24
_cell_length_a 10.025815
_cell_length_b 15.287201
_cell_length_c 9.604096
_cell_angle_alpha 90.000000
_cell_angle_beta 121.462029
_cell_angle_gamma 90.000000
_cell_volume 1255.585188
_symmetry_space_group_name_H-M "C 2"
_symmetry_group_IT_number 5
_symmetry_cell_setting 'monoclinic'
loop_
_space_group_symop_operation_xyz
x,y,z
-x,y,-z
1/2+x,1/2+y,z
1/2-x,1/2+y,-z
loop_
_atom_site_type_symbol
_atom_site_label
_atom_site_fract_x
_atom_site_fract_y
_atom_site_fract_z
Si Si1 0.829847 0.087370 0.970510
Si Si2 0.676023 0.058254 0.602437
Si Si3 0.376456 0.431125 0.215086
Si Si4 0.221908 0.914431 0.534326
Si Si5 0.584643 0.240862 0.897584
Si Si6 0.856815 0.726964 0.526040
O O1 0.739353 0.043576 0.789934
O O2 0.726370 0.170823 0.962825
O O3 0.000000 0.111634 0.000000
O O4 0.848616 0.013679 0.099699
O O5 0.500000 0.092012 0.500000
O O6 0.751315 0.146739 0.581874
O O7 0.672937 0.977568 0.498403
O O8 0.551540 0.435165 0.373971
O O9 0.271947 0.432039 0.297749
O O10 0.364588 0.338053 0.127673
O O11 0.248240 0.812890 0.520964
O O12 0.448899 0.208822 0.717917
O O13 0.500000 0.246746 0.000000
O O14 0.000000 0.757203 0.500000
#
# Coordination Sequence:
#
# PCOD9121148 Si02
#       6
#     4   4   4   4   4   4
#     4  12  23  39  62  97 129 155 204 267 312 355
#     4  11  22  39  63  89 126 165 206 252 310 372
#     4  10  21  39  64  88 120 166 207 247 310 373
#     4  10  19  38  65  88 117 164 213 246 295 377
#     4  11  23  40  65  90 123 169 212 248 305 381
#     4  10  18  40  65  81 114 174 210 238 306 381
#
# _framework density 19.114591999999998
#
# number of rings (size 3 to 8) (size 9 to 14) (size 15 to 20)
#    0.000    1.333    8.333    0.500    4.667    0.000 
#    0.000    4.167    3.667    0.000    0.000    0.000 
#    0.000    0.000    0.000    0.000    0.000    0.000 
#
# Total GULP energy -66825.510757 kJ/mol
# GULP energy per Si atom -5568.792563 kJ/mol
# Density = 1.907109 g / cm^3
# Si number density = 19.114592 Si / 1000 Ang^3
#
#
#
# Elastic Constant Matrix: (Units=GPa)
#
#
# Indices 1 2 3 4 5 6 
#
# 1 40.0072 24.3814 29.9141 0.0000 -14.2607 0.0000
# 2 24.3814 135.1819 49.5110 0.0000 -16.1488 0.0000
# 3 29.9141 49.5110 136.4624 0.0000 -24.3701 0.0000
# 4 0.0000 0.0000 0.0000 35.4711 0.0000 -1.9222
# 5 -14.2607 -16.1488 -24.3701 0.0000 21.1811 0.0000
# 6 0.0000 0.0000 0.0000 -1.9222 0.0000 11.4124
#
#
#
# Elastic Compliance Matrix: (Units=1/GPa)
#
#
# Indices 1 2 3 4 5 6 
#
# 1 0.035835 -0.003034 -0.003598 0.000000 0.017673 0.000000
# 2 -0.003034 0.009025 -0.002197 0.000000 0.002311 0.000000
# 3 -0.003598 -0.002197 0.010298 0.000000 0.007751 0.000000
# 4 0.000000 0.000000 0.000000 0.028452 0.000000 0.004792
# 5 0.017673 0.002311 0.007751 0.000000 0.069790 0.000000
# 6 0.000000 0.000000 0.000000 0.004792 0.000000 0.088431
#
#
# Mechanical properties :
#
#
# Convention : Reuss Voigt Hill
#
# Bulk Modulus (GPa) = 26.66687 57.69607 42.18147
# Shear Modulus (GPa) = 18.38303 27.46925 22.92614
#
# Velocity S-wave (km/s) = 3.10454 3.79500 3.46700
# Velocity P-wave (km/s) = 5.17998 7.03225 6.17595
#
# Compressibility (1/GPa) = 0.03749971
#
# Stress axis : x y z
#
# Youngs Moduli (GPa) = 27.90589 110.79998 97.10549
#
# Poissons Ratio (x) = 0.33616 0.34943
# Poissons Ratio (y) = 0.08467 0.21332
# Poissons Ratio (z) = 0.10042 0.24340
#
# Static dielectric constant tensor:
#      x y z
#    x 1.740240 0.000000 -0.038640 
#    y 0.000000 1.719480 0.000000 
#    z -0.038640 0.000000 1.685310 
# 
# From -- ./inp_files/20163.got.cif
#   From: 2010.05.17/outbox.cif.g08.bks.cpg/sg5_11_cif.got.tgz:20163.got - 2010.06.03 18:56:24.
