data_PCOD9121797
_publ_section_title
;
Structure prediction by ZEFSAII (Michael W. Deem and Ramdas Pophale) SiO2 
 PCOD9121797
Probable space group: C 2
;
_chemical_formula_sum "Si O2"
_cell_formula_units_Z 30
_cell_length_a 6.977221
_cell_length_b 17.517300
_cell_length_c 10.822996
_cell_angle_alpha 90.000000
_cell_angle_beta 105.273775
_cell_angle_gamma 90.000000
_cell_volume 1276.084878
_symmetry_space_group_name_H-M "C 2"
_symmetry_group_IT_number 5
_symmetry_cell_setting 'monoclinic'
loop_
_space_group_symop_operation_xyz
x,y,z
-x,y,-z
1/2+x,1/2+y,z
1/2-x,1/2+y,-z
loop_
_atom_site_type_symbol
_atom_site_label
_atom_site_fract_x
_atom_site_fract_y
_atom_site_fract_z
Si Si1 0.765794 0.214170 0.214247
Si Si2 0.200664 0.507261 0.792753
Si Si3 0.052575 0.905824 0.650211
Si Si4 0.281653 0.642798 0.952061
Si Si5 0.500000 0.398876 0.000000
Si Si6 0.488361 0.567383 0.349305
Si Si7 0.602346 0.867480 0.651655
Si Si8 0.154919 0.782273 0.818418
O O1 0.886806 0.292153 0.261751
O O2 0.548864 0.234378 0.231179
O O3 0.878414 0.143869 0.294609
O O4 0.725910 0.184504 0.068988
O O5 0.142215 0.576529 0.874460
O O6 0.346196 0.452429 0.899533
O O7 0.311005 0.552642 0.697577
O O8 0.044199 0.447585 0.707437
O O9 0.836571 0.885689 0.668422
O O10 0.000000 0.909376 0.500000
O O11 0.192148 0.836332 0.708873
O O12 0.122115 0.988514 0.705722
O O13 0.309880 0.715701 0.867498
O O14 0.500000 0.606560 0.000000
O O15 0.615967 0.342148 0.924538
O O16 0.500000 0.568176 0.500000
O O17 0.500000 0.856683 0.500000
#
# Coordination Sequence:
#
# PCOD9121797 Si02
#       8
#     4   4   4   4   2   4   4   4
#     4  11  20  39  62  89 117 162 200 250 305 359
#     4  11  21  39  63  90 117 168 200 249 304 366
#     4   9  20  40  61  87 118 161 200 246 302 360
#     4  12  23  37  61  90 125 150 205 259 297 360
#     4  12  16  40  68  80 112 162 214 226 312 376
#     4  10  19  36  61  85 117 157 201 234 299 363
#     4  10  21  39  65  91 122 165 210 246 300 374
#     4  11  22  39  63  87 118 158 202 246 306 363
#
# _framework density 23.509405999999998
#
# number of rings (size 3 to 8) (size 9 to 14) (size 15 to 20)
#    0.000    1.333    7.333    0.400    0.000    1.067 
#   12.000    0.000    0.000    0.000    0.000    0.000 
#    0.000    0.000    0.000    0.000    0.000    0.000 
#
# Total GULP energy -83648.270294 kJ/mol
# GULP energy per Si atom -5576.551353 kJ/mol
# Density = 2.345590 g / cm^3
# Si number density = 23.509406 Si / 1000 Ang^3
#
#
#
# Elastic Constant Matrix: (Units=GPa)
#
#
# Indices 1 2 3 4 5 6 
#
# 1 55.8446 26.9198 -0.6019 0.0000 4.2234 0.0000
# 2 26.9198 221.0314 78.4112 0.0000 -3.3677 0.0000
# 3 -0.6019 78.4112 106.8365 0.0000 -5.1539 0.0000
# 4 0.0000 0.0000 0.0000 39.5622 0.0000 19.1054
# 5 4.2234 -3.3677 -5.1539 0.0000 16.2370 0.0000
# 6 0.0000 0.0000 0.0000 19.1054 0.0000 21.3896
#
#
#
# Elastic Compliance Matrix: (Units=1/GPa)
#
#
# Indices 1 2 3 4 5 6 
#
# 1 0.019921 -0.003321 0.002302 0.000000 -0.005140 0.000000
# 2 -0.003321 0.006671 -0.004881 0.000000 0.000698 0.000000
# 3 0.002302 -0.004881 0.013078 0.000000 0.002540 0.000000
# 4 0.000000 0.000000 0.000000 0.044450 0.000000 -0.039703
# 5 -0.005140 0.000698 0.002540 0.000000 0.063876 0.000000
# 6 0.000000 0.000000 0.000000 -0.039703 0.000000 0.082215
#
#
# Mechanical properties :
#
#
# Convention : Reuss Voigt Hill
#
# Bulk Modulus (GPa) = 35.88163 65.90784 50.89473
# Shear Modulus (GPa) = 19.89641 34.03666 26.96654
#
# Velocity S-wave (km/s) = 2.91231 3.80911 3.39049
# Velocity P-wave (km/s) = 5.15796 6.88776 6.08465
#
# Compressibility (1/GPa) = 0.02786942
#
# Stress axis : x y z
#
# Youngs Moduli (GPa) = 50.19751 149.90403 76.46423
#
# Poissons Ratio (x) = 0.49785 -0.17600
# Poissons Ratio (y) = 0.16671 0.37323
# Poissons Ratio (z) = -0.11554 0.73169
#
# Static dielectric constant tensor:
#      x y z
#    x 1.963960 0.000000 -0.026730 
#    y 0.000000 1.889490 0.000000 
#    z -0.026730 0.000000 2.040380 
# 
# From -- ./inp_files/36882.got.cif
#   From: 2010.05.17/outbox.cif.g08.bks.cpg/sg5_19_cif.got.tgz:36882.got - 2010.06.03 18:56:24.
