data_PCOD9121917
_publ_section_title
;
Structure prediction by ZEFSAII (Michael W. Deem and Ramdas Pophale) SiO2 
 PCOD9121917
Probable space group: C 2
;
_chemical_formula_sum "Si O2"
_cell_formula_units_Z 32
_cell_length_a 23.449966
_cell_length_b 9.952910
_cell_length_c 15.983363
_cell_angle_alpha 90.000000
_cell_angle_beta 21.320389
_cell_angle_gamma 90.000000
_cell_volume 1356.324894
_symmetry_space_group_name_H-M "C 2"
_symmetry_group_IT_number 5
_symmetry_cell_setting 'monoclinic'
loop_
_space_group_symop_operation_xyz
x,y,z
-x,y,-z
1/2+x,1/2+y,z
1/2-x,1/2+y,-z
loop_
_atom_site_type_symbol
_atom_site_label
_atom_site_fract_x
_atom_site_fract_y
_atom_site_fract_z
Si Si1 0.288492 0.268990 0.587518
Si Si2 0.328100 0.053054 0.212081
Si Si3 0.993395 0.588892 0.631090
Si Si4 0.694606 0.713836 0.994393
Si Si5 0.555777 0.428007 0.132197
Si Si6 0.775940 0.071862 0.469455
Si Si7 0.377919 0.809076 0.721653
Si Si8 0.922938 0.491778 0.911070
O O1 0.182731 0.390994 0.761807
O O2 0.335823 0.153260 0.588484
O O3 0.454163 0.340973 0.337019
O O4 0.222288 0.196462 0.595600
O O5 0.220056 0.106817 0.436028
O O6 0.500000 0.105777 0.000000
O O7 0.318821 0.064557 0.124599
O O8 0.975913 0.443638 0.614044
O O9 0.923663 0.562385 0.819812
O O10 0.880403 0.689213 0.735984
O O11 0.617417 0.571984 0.078408
O O12 0.659419 0.744782 0.138886
O O13 0.632759 0.839427 0.026167
O O14 0.418533 0.470096 0.255124
O O15 0.716124 0.349030 0.896880
O O16 0.605553 0.003052 0.689406
O O17 0.500000 0.726217 0.500000
#
# Coordination Sequence:
#
# PCOD9121917 Si02
#       8
#     4   4   4   4   4   4   4   4
#     4  10  19  37  59  88 120 153 196 248 299 363
#     4   9  19  35  57  91 113 148 200 246 291 354
#     4   9  19  37  61  80 117 165 195 240 310 351
#     4  10  20  37  61  83 119 166 200 245 307 356
#     4  10  21  35  61  87 118 160 201 237 310 366
#     4   9  20  36  59  87 118 158 191 249 310 354
#     4  10  21  40  58  85 121 156 205 252 299 355
#     4   9  19  37  61  86 117 158 203 252 296 353
#
# _framework density 23.593167000000001
#
# number of rings (size 3 to 8) (size 9 to 14) (size 15 to 20)
#    0.000    2.500    1.250    0.000    5.250    2.000 
#    4.500    1.250    0.000    0.000   26.000    0.000 
#    0.000    0.000    0.000    0.000    0.000    0.000 
#
# Total GULP energy -89233.495618 kJ/mol
# GULP energy per Si atom -5577.093476 kJ/mol
# Density = 2.353947 g / cm^3
# Si number density = 23.593167 Si / 1000 Ang^3
#
#
#
# Elastic Constant Matrix: (Units=GPa)
#
#
# Indices 1 2 3 4 5 6 
#
# 1 93.5574 23.3730 35.1217 0.0000 11.0719 0.0000
# 2 23.3730 87.5988 -0.7942 0.0000 -7.2446 0.0000
# 3 35.1217 -0.7942 85.2676 0.0000 -8.2534 0.0000
# 4 0.0000 0.0000 0.0000 3.4493 0.0000 -23.3638
# 5 11.0719 -7.2446 -8.2534 0.0000 34.0553 0.0000
# 6 0.0000 0.0000 0.0000 -23.3638 0.0000 12.0052
#
#
#
# Elastic Compliance Matrix: (Units=1/GPa)
#
#
# Indices 1 2 3 4 5 6 
#
# 1 0.015531 -0.004857 -0.007200 0.000000 -0.007828 0.000000
# 2 -0.004857 0.013149 0.002608 0.000000 0.005008 0.000000
# 3 -0.007200 0.002608 0.015358 0.000000 0.006618 0.000000
# 4 0.000000 0.000000 0.000000 -0.023798 0.000000 -0.046315
# 5 -0.007828 0.005008 0.006618 0.000000 0.034578 0.000000
# 6 0.000000 0.000000 0.000000 -0.046315 0.000000 -0.006838
#
#
# Mechanical properties :
#
#
# Convention : Reuss Voigt Hill
#
# Bulk Modulus (GPa) = 39.77623 42.42499 41.10061
# Shear Modulus (GPa) = 66.43647 23.81684 45.12665
#
# Velocity S-wave (km/s) = 5.31228 3.18068 4.37819
# Velocity P-wave (km/s) = 7.38396 5.61337 6.55869
#
# Compressibility (1/GPa) = 0.02514065
#
# Stress axis : x y z
#
# Youngs Moduli (GPa) = 64.38620 76.04930 65.11088
#
# Poissons Ratio (x) = 0.36935 0.46881
# Poissons Ratio (y) = 0.31270 -0.16979
# Poissons Ratio (z) = 0.46360 -0.19831
#
# Static dielectric constant tensor:
#      x y z
#    x 1.959100 0.000000 0.013930 
#    y 0.000000 1.892320 0.000000 
#    z 0.013930 0.000000 1.912140 
# 
# From -- ./inp_files/63621.got.cif
#   From: 2010.05.17/outbox.cif.g08.bks.cpg/sg5_32_cif.got.tgz:63621.got - 2010.06.03 18:56:24.
