data_PCOD9121516
_publ_section_title
;
Structure prediction by ZEFSAII (Michael W. Deem and Ramdas Pophale) SiO2 
 PCOD9121516
Probable space group: C 2
;
_chemical_formula_sum "Si O2"
_cell_formula_units_Z 28
_cell_length_a 19.770847
_cell_length_b 8.269228
_cell_length_c 15.201962
_cell_angle_alpha 90.000000
_cell_angle_beta 146.462183
_cell_angle_gamma 90.000000
_cell_volume 1373.131559
_symmetry_space_group_name_H-M "C 2"
_symmetry_group_IT_number 5
_symmetry_cell_setting 'monoclinic'
loop_
_space_group_symop_operation_xyz
x,y,z
-x,y,-z
1/2+x,1/2+y,z
1/2-x,1/2+y,-z
loop_
_atom_site_type_symbol
_atom_site_label
_atom_site_fract_x
_atom_site_fract_y
_atom_site_fract_z
Si Si1 0.506804 0.608360 0.365417
Si Si2 0.600816 0.876982 0.338682
Si Si3 0.016842 0.920657 0.823960
Si Si4 0.227657 0.109408 0.381371
Si Si5 0.357664 0.482840 0.878777
Si Si6 0.701409 0.651870 0.718028
Si Si7 0.550472 0.077103 0.956338
O O1 0.527861 0.753470 0.320319
O O2 0.472113 0.454887 0.267518
O O3 0.634041 0.590426 0.557227
O O4 0.403816 0.660535 0.322888
O O5 0.710815 0.777212 0.412703
O O6 0.652343 0.019719 0.454997
O O7 0.519803 0.939296 0.171085
O O8 0.030383 0.738737 0.875421
O O9 0.120918 0.013320 0.994732
O O10 0.886065 0.996423 0.709614
O O11 0.206969 0.112724 0.254262
O O12 0.273735 0.321097 0.777878
O O13 0.500000 0.463106 0.000000
O O14 0.807331 0.542479 0.874044
O O15 0.500000 0.100025 0.000000
#
# Coordination Sequence:
#
# PCOD9121516 Si02
#       7
#     4   4   4   4   4   4   4
#     4  10  22  37  64  92 117 169 209 240 309 368
#     4  11  23  36  61  94 122 160 209 254 306 369
#     4   9  19  34  59  81 117 161 202 237 305 360
#     4  10  19  34  59  87 126 151 200 253 302 365
#     4   9  17  34  62  87 120 168 198 248 313 355
#     4  10  20  39  61  87 128 163 206 251 297 374
#     4  11  24  38  60  90 125 162 204 256 315 357
#
# _framework density 20.391345999999999
#
# number of rings (size 3 to 8) (size 9 to 14) (size 15 to 20)
#    0.000    2.000    1.429    4.286    4.000    5.143 
#    0.000    0.000    0.000    5.143    0.000    0.000 
#    0.000    0.000    0.000    0.000    0.000    0.000 
#
# Total GULP energy -78040.744544 kJ/mol
# GULP energy per Si atom -5574.338896 kJ/mol
# Density = 2.034493 g / cm^3
# Si number density = 20.391346 Si / 1000 Ang^3
#
#
#
# Elastic Constant Matrix: (Units=GPa)
#
#
# Indices 1 2 3 4 5 6 
#
# 1 64.6195 24.0504 39.8721 0.0000 -20.0035 0.0000
# 2 24.0504 47.9351 40.6022 0.0000 -16.2535 0.0000
# 3 39.8721 40.6022 142.6248 0.0000 -22.9538 0.0000
# 4 0.0000 0.0000 0.0000 34.6024 0.0000 -7.9090
# 5 -20.0035 -16.2535 -22.9538 0.0000 35.8924 0.0000
# 6 0.0000 0.0000 0.0000 -7.9090 0.0000 13.6814
#
#
#
# Elastic Compliance Matrix: (Units=1/GPa)
#
#
# Indices 1 2 3 4 5 6 
#
# 1 0.021964 -0.005647 -0.003315 0.000000 0.007563 0.000000
# 2 -0.005647 0.031354 -0.006207 0.000000 0.007081 0.000000
# 3 -0.003315 -0.006207 0.009983 0.000000 0.001726 0.000000
# 4 0.000000 0.000000 0.000000 0.033300 0.000000 0.019250
# 5 0.007563 0.007081 0.001726 0.000000 0.036387 0.000000
# 6 0.000000 0.000000 0.000000 0.019250 0.000000 0.084220
#
#
# Mechanical properties :
#
#
# Convention : Reuss Voigt Hill
#
# Bulk Modulus (GPa) = 30.33890 51.58095 40.95992
# Shear Modulus (GPa) = 19.33982 26.87889 23.10936
#
# Velocity S-wave (km/s) = 3.08300 3.63458 3.37009
# Velocity P-wave (km/s) = 5.25203 6.55469 5.93918
#
# Compressibility (1/GPa) = 0.03296099
#
# Stress axis : x y z
#
# Youngs Moduli (GPa) = 45.52905 31.89409 100.16957
#
# Poissons Ratio (x) = 0.18011 0.33210
# Poissons Ratio (y) = 0.25711 0.62179
# Poissons Ratio (z) = 0.15094 0.19798
#
# Static dielectric constant tensor:
#      x y z
#    x 1.759040 0.000000 -0.020140 
#    y 0.000000 1.773380 0.000000 
#    z -0.020140 0.000000 1.758780 
# 
# From -- ./inp_files/56844.got.cif
#   From: 2010.05.17/outbox.cif.g08.bks.cpg/sg5_29_cif.got.tgz:56844.got - 2010.06.03 18:56:24.
