data_PCOD9121858
_publ_section_title
;
Structure prediction by ZEFSAII (Michael W. Deem and Ramdas Pophale) SiO2 
 PCOD9121858
Probable space group: C 2
;
_chemical_formula_sum "Si O2"
_cell_formula_units_Z 28
_cell_length_a 26.916095
_cell_length_b 6.804855
_cell_length_c 7.591295
_cell_angle_alpha 90.000000
_cell_angle_beta 119.369218
_cell_angle_gamma 90.000000
_cell_volume 1211.721843
_symmetry_space_group_name_H-M "C 2"
_symmetry_group_IT_number 5
_symmetry_cell_setting 'monoclinic'
loop_
_space_group_symop_operation_xyz
x,y,z
-x,y,-z
1/2+x,1/2+y,z
1/2-x,1/2+y,-z
loop_
_atom_site_type_symbol
_atom_site_label
_atom_site_fract_x
_atom_site_fract_y
_atom_site_fract_z
Si Si1 0.029362 0.764980 0.870814
Si Si2 0.350541 0.722582 0.913727
Si Si3 0.183639 0.941497 0.855463
Si Si4 0.141098 0.853620 0.258778
Si Si5 0.920756 0.768588 0.491421
Si Si6 0.950993 0.398506 0.296216
Si Si7 0.218395 0.615061 0.182912
O O1 0.024460 0.533870 0.818712
O O2 0.984182 0.842907 0.649397
O O3 0.095821 0.807939 0.019816
O O4 0.000000 0.823960 0.000000
O O5 0.311734 0.597362 0.979399
O O6 0.408293 0.756865 0.123522
O O7 0.357101 0.590560 0.750471
O O8 0.323442 0.935053 0.847199
O O9 0.118745 0.917007 0.683015
O O10 0.221008 0.017993 0.756413
O O11 0.203113 0.735966 0.977502
O O12 0.113780 0.755097 0.383338
O O13 0.202573 0.765217 0.312736
O O14 0.924325 0.566992 0.382338
O O15 0.000000 0.305134 0.500000
#
# Coordination Sequence:
#
# PCOD9121858 Si02
#       7
#     4   4   4   4   4   4   4
#     4   9  18  37  65  87 126 167 194 253 325 372
#     4  11  21  38  62  88 118 161 210 253 311 378
#     4  11  22  39  64  87 122 160 217 258 309 371
#     4  10  22  40  61  88 128 165 204 256 324 376
#     4  10  21  40  61  92 125 166 205 261 313 369
#     4  10  19  36  64  94 122 162 211 263 311 372
#     4  11  21  40  61  86 118 166 206 261 310 372
#
# _framework density 23.107614000000002
#
# number of rings (size 3 to 8) (size 9 to 14) (size 15 to 20)
#    0.000    1.714    4.286    0.857    0.000    1.143 
#    5.143    2.143    0.000    0.000    0.000    0.000 
#    0.000    0.000    0.000    0.000    0.000    0.000 
#
# Total GULP energy -77985.769181 kJ/mol
# GULP energy per Si atom -5570.412084 kJ/mol
# Density = 2.305502 g / cm^3
# Si number density = 23.107614 Si / 1000 Ang^3
#
#
#
# Elastic Constant Matrix: (Units=GPa)
#
#
# Indices 1 2 3 4 5 6 
#
# 1 55.7876 -1.0551 6.3250 0.0000 -15.9186 0.0000
# 2 -1.0551 83.0411 9.2455 0.0000 4.4638 0.0000
# 3 6.3250 9.2455 55.4841 0.0000 -22.4101 0.0000
# 4 0.0000 0.0000 0.0000 14.5545 0.0000 8.7774
# 5 -15.9186 4.4638 -22.4101 0.0000 32.4524 0.0000
# 6 0.0000 0.0000 0.0000 8.7774 0.0000 23.7907
#
#
#
# Elastic Compliance Matrix: (Units=1/GPa)
#
#
# Indices 1 2 3 4 5 6 
#
# 1 0.021119 -0.000691 0.002677 0.000000 0.012303 0.000000
# 2 -0.000691 0.012741 -0.004006 0.000000 -0.004858 0.000000
# 3 0.002677 -0.004006 0.026541 0.000000 0.020192 0.000000
# 4 0.000000 0.000000 0.000000 0.088369 0.000000 -0.032603
# 5 0.012303 -0.004858 0.020192 0.000000 0.051461 0.000000
# 6 0.000000 0.000000 0.000000 -0.032603 0.000000 0.054062
#
#
# Mechanical properties :
#
#
# Convention : Reuss Voigt Hill
#
# Bulk Modulus (GPa) = 17.74314 24.81597 21.27955
# Shear Modulus (GPa) = 18.04268 26.14602 22.09435
#
# Velocity S-wave (km/s) = 2.79733 3.36741 3.09552
# Velocity P-wave (km/s) = 4.25777 5.08743 4.69097
#
# Compressibility (1/GPa) = 0.05635980
#
# Stress axis : x y z
#
# Youngs Moduli (GPa) = 47.35048 78.48897 37.67710
#
# Poissons Ratio (x) = 0.05424 -0.10085
# Poissons Ratio (y) = 0.03272 0.15095
# Poissons Ratio (z) = -0.12675 0.31446
#
# Static dielectric constant tensor:
#      x y z
#    x 1.931160 0.000000 0.012160 
#    y 0.000000 1.889400 0.000000 
#    z 0.012160 0.000000 1.908140 
# 
# From -- ./inp_files/32056.got.cif
#   From: 2010.05.17/outbox.cif.g08.bks.cpg/sg5_17_cif.got.tgz:32056.got - 2010.06.03 18:56:24.
