data_PCOD9121097
_publ_section_title
;
Structure prediction by ZEFSAII (Michael W. Deem and Ramdas Pophale) SiO2 
 PCOD9121097
Probable space group: C 2
;
_chemical_formula_sum "Si O2"
_cell_formula_units_Z 28
_cell_length_a 23.054925
_cell_length_b 9.835856
_cell_length_c 13.122420
_cell_angle_alpha 90.000000
_cell_angle_beta 26.535667
_cell_angle_gamma 90.000000
_cell_volume 1329.410379
_symmetry_space_group_name_H-M "C 2"
_symmetry_group_IT_number 5
_symmetry_cell_setting 'monoclinic'
loop_
_space_group_symop_operation_xyz
x,y,z
-x,y,-z
1/2+x,1/2+y,z
1/2-x,1/2+y,-z
loop_
_atom_site_type_symbol
_atom_site_label
_atom_site_fract_x
_atom_site_fract_y
_atom_site_fract_z
Si Si1 0.623719 0.069500 0.382650
Si Si2 0.324327 0.431217 0.837905
Si Si3 0.074899 0.842857 0.542169
Si Si4 0.791782 0.534111 0.267809
Si Si5 0.458401 0.913601 0.167763
Si Si6 0.152092 0.193585 0.112211
Si Si7 0.630176 0.786287 0.487272
O O1 0.500000 0.074940 0.500000
O O2 0.591256 0.180608 0.521830
O O3 0.754326 0.125548 0.121093
O O4 0.641137 0.918993 0.399514
O O5 0.426172 0.389347 0.766559
O O6 0.374713 0.379072 0.650926
O O7 0.195360 0.347753 0.062174
O O8 0.317932 0.592504 0.842606
O O9 0.169517 0.931356 0.463377
O O10 0.865087 0.525002 0.261518
O O11 0.747677 0.681325 0.303226
O O12 0.902947 0.475389 0.017580
O O13 0.391668 0.837206 0.363023
O O14 0.500000 0.828356 0.000000
O O15 0.999804 0.200767 0.333505
#
# Coordination Sequence:
#
# PCOD9121097 Si02
#       7
#     4   4   4   4   4   4   4
#     4  11  23  39  57  93 134 167 207 250 307 376
#     4  10  20  34  58  83 130 168 207 247 301 366
#     4  10  18  39  58  85 126 171 204 245 313 372
#     4   9  21  41  67  92 119 159 219 258 315 380
#     4   8  22  45  64  91 121 156 211 271 324 371
#     4  11  22  38  58  94 129 170 213 245 309 380
#     4  12  23  42  68  92 125 167 209 266 317 368
#
# _framework density 21.061969999999999
#
# number of rings (size 3 to 8) (size 9 to 14) (size 15 to 20)
#    0.857    0.857    4.286    2.571    0.000    3.429 
#    2.571    2.857    0.000    3.429    0.000    0.000 
#    0.000    0.000    0.000    0.000    0.000    0.000 
#
# Total GULP energy -78017.649022 kJ/mol
# GULP energy per Si atom -5572.689216 kJ/mol
# Density = 2.101403 g / cm^3
# Si number density = 21.061970 Si / 1000 Ang^3
#
#
#
# Elastic Constant Matrix: (Units=GPa)
#
#
# Indices 1 2 3 4 5 6 
#
# 1 41.7609 22.5297 11.2704 0.0000 -4.1020 0.0000
# 2 22.5297 92.6267 -3.9471 0.0000 -1.2667 0.0000
# 3 11.2704 -3.9471 43.6810 0.0000 -8.1268 0.0000
# 4 0.0000 0.0000 0.0000 28.4035 0.0000 0.9713
# 5 -4.1020 -1.2667 -8.1268 0.0000 22.2625 0.0000
# 6 0.0000 0.0000 0.0000 0.9713 0.0000 15.4749
#
#
#
# Elastic Compliance Matrix: (Units=1/GPa)
#
#
# Indices 1 2 3 4 5 6 
#
# 1 0.030548 -0.007748 -0.008172 0.000000 0.002205 0.000000
# 2 -0.007748 0.012826 0.003249 0.000000 0.000488 0.000000
# 3 -0.008172 0.003249 0.026875 0.000000 0.008490 0.000000
# 4 0.000000 0.000000 0.000000 0.035283 0.000000 -0.002215
# 5 0.002205 0.000488 0.008490 0.000000 0.048452 0.000000
# 6 0.000000 0.000000 0.000000 -0.002215 0.000000 0.064760
#
#
# Mechanical properties :
#
#
# Convention : Reuss Voigt Hill
#
# Bulk Modulus (GPa) = 22.26867 26.41940 24.34403
# Shear Modulus (GPa) = 19.30103 23.10923 21.20513
#
# Velocity S-wave (km/s) = 3.03048 3.31600 3.17645
# Velocity P-wave (km/s) = 4.77922 5.21843 5.00365
#
# Compressibility (1/GPa) = 0.04490614
#
# Stress axis : x y z
#
# Youngs Moduli (GPa) = 32.73547 77.96803 37.20959
#
# Poissons Ratio (x) = 0.60412 0.30407
# Poissons Ratio (y) = 0.25364 -0.12089
# Poissons Ratio (z) = 0.26751 -0.25331
#
# Static dielectric constant tensor:
#      x y z
#    x 1.783650 0.000000 0.015130 
#    y 0.000000 1.803620 0.000000 
#    z 0.015130 0.000000 1.813370 
# 
# From -- ./inp_files/56899.got.cif
#   From: 2010.05.17/outbox.cif.g08.bks.cpg/sg5_29_cif.got.tgz:56899.got - 2010.06.03 18:56:24.
