data_PCOD9121060
_publ_section_title
;
Structure prediction by ZEFSAII (Michael W. Deem and Ramdas Pophale) SiO2 
 PCOD9121060
Probable space group: C 2
;
_chemical_formula_sum "Si O2"
_cell_formula_units_Z 22
_cell_length_a 11.650745
_cell_length_b 7.467175
_cell_length_c 14.023964
_cell_angle_alpha 90.000000
_cell_angle_beta 47.652838
_cell_angle_gamma 90.000000
_cell_volume 901.717345
_symmetry_space_group_name_H-M "C 2"
_symmetry_group_IT_number 5
_symmetry_cell_setting 'monoclinic'
loop_
_space_group_symop_operation_xyz
x,y,z
-x,y,-z
1/2+x,1/2+y,z
1/2-x,1/2+y,-z
loop_
_atom_site_type_symbol
_atom_site_label
_atom_site_fract_x
_atom_site_fract_y
_atom_site_fract_z
Si Si1 0.629465 0.320130 0.874812
Si Si2 0.443408 0.357260 0.298436
Si Si3 0.234955 0.490017 0.571963
Si Si4 0.222217 0.753312 0.270269
Si Si5 0.500000 0.653481 0.000000
Si Si6 0.064363 0.360684 0.364470
O O1 0.562003 0.386614 0.810974
O O2 0.635706 0.499624 0.938148
O O3 0.799554 0.248052 0.761311
O O4 0.500000 0.202367 0.000000
O O5 0.359073 0.494182 0.416862
O O6 0.612015 0.317511 0.245919
O O7 0.331425 0.184449 0.369215
O O8 0.296952 0.378918 0.626970
O O9 0.079523 0.393260 0.622148
O O10 0.149474 0.555283 0.336376
O O11 0.403629 0.760438 0.133887
O O12 0.000000 0.289099 0.500000
#
# Coordination Sequence:
#
# PCOD9121060 Si02
#       6
#     4   4   4   4   2   4
#     4   9  20  39  63  89 126 172 211 257 326 387
#     4  11  23  41  64  97 136 164 219 274 325 393
#     4  11  23  39  67  95 129 168 214 275 327 380
#     4  10  21  40  62  96 128 169 217 268 329 387
#     4   8  20  40  66  84 126 178 216 250 336 384
#     4  10  18  38  65  88 124 171 212 261 322 383
#
# _framework density 24.39789
#
# number of rings (size 3 to 8) (size 9 to 14) (size 15 to 20)
#    0.545    1.455    1.818    2.727    2.545    1.455 
#    8.182    0.000    0.000    0.000    0.000    0.000 
#    0.000    0.000    0.000    0.000    0.000    0.000 
#
# Total GULP energy -61306.698745 kJ/mol
# GULP energy per Si atom -5573.336250 kJ/mol
# Density = 2.434236 g / cm^3
# Si number density = 24.397890 Si / 1000 Ang^3
#
#
#
# Elastic Constant Matrix: (Units=GPa)
#
#
# Indices 1 2 3 4 5 6 
#
# 1 100.6435 5.5883 31.7987 0.0000 -1.1026 0.0000
# 2 5.5883 78.8570 19.1116 0.0000 6.9300 0.0000
# 3 31.7987 19.1116 210.9719 0.0000 -6.8084 0.0000
# 4 0.0000 0.0000 0.0000 23.2766 0.0000 -4.2858
# 5 -1.1026 6.9300 -6.8084 0.0000 31.1259 0.0000
# 6 0.0000 0.0000 0.0000 -4.2858 0.0000 21.2525
#
#
#
# Elastic Compliance Matrix: (Units=1/GPa)
#
#
# Indices 1 2 3 4 5 6 
#
# 1 0.010444 -0.000378 -0.001536 0.000000 0.000118 0.000000
# 2 -0.000378 0.013297 -0.001252 0.000000 -0.003248 0.000000
# 3 -0.001536 -0.001252 0.005128 0.000000 0.001346 0.000000
# 4 0.000000 0.000000 0.000000 0.044618 0.000000 0.008998
# 5 0.000118 -0.003248 0.001346 0.000000 0.033149 0.000000
# 6 0.000000 0.000000 0.000000 0.008998 0.000000 0.048868
#
#
# Mechanical properties :
#
#
# Convention : Reuss Voigt Hill
#
# Bulk Modulus (GPa) = 44.37391 55.94105 50.15748
# Shear Modulus (GPa) = 29.52474 37.39593 33.46033
#
# Velocity S-wave (km/s) = 3.48247 3.91929 3.70732
# Velocity P-wave (km/s) = 5.86492 6.59238 6.23926
#
# Compressibility (1/GPa) = 0.02253576
#
# Stress axis : x y z
#
# Youngs Moduli (GPa) = 95.75168 75.20536 194.99329
#
# Poissons Ratio (x) = 0.02844 0.29952
# Poissons Ratio (y) = 0.03621 0.24420
# Poissons Ratio (z) = 0.14708 0.09418
#
# Static dielectric constant tensor:
#      x y z
#    x 1.928010 0.000000 -0.014200 
#    y 0.000000 2.013900 0.000000 
#    z -0.014200 0.000000 2.113270 
# 
# From -- ./inp_files/52580.got.cif
#   From: 2010.05.17/outbox.cif.g08.bks.cpg/sg5_27_cif.got.tgz:52580.got - 2010.06.03 18:56:24.
