data_PCOD9121419
_publ_section_title
;
Structure prediction by ZEFSAII (Michael W. Deem and Ramdas Pophale) SiO2 
 PCOD9121419
Probable space group: C 2
;
_chemical_formula_sum "Si O2"
_cell_formula_units_Z 30
_cell_length_a 9.230228
_cell_length_b 16.447778
_cell_length_c 12.490835
_cell_angle_alpha 90.000000
_cell_angle_beta 131.915092
_cell_angle_gamma 90.000000
_cell_volume 1411.117649
_symmetry_space_group_name_H-M "C 2"
_symmetry_group_IT_number 5
_symmetry_cell_setting 'monoclinic'
loop_
_space_group_symop_operation_xyz
x,y,z
-x,y,-z
1/2+x,1/2+y,z
1/2-x,1/2+y,-z
loop_
_atom_site_type_symbol
_atom_site_label
_atom_site_fract_x
_atom_site_fract_y
_atom_site_fract_z
Si Si1 0.171233 0.760910 0.843256
Si Si2 0.964916 0.059359 0.355985
Si Si3 0.684776 0.519202 0.272566
Si Si4 0.389735 0.397887 0.045983
Si Si5 0.185204 0.890506 0.668647
Si Si6 0.097225 0.651161 0.165753
Si Si7 0.038752 0.491129 0.770082
Si Si8 0.000000 0.129439 0.000000
O O1 0.233549 0.832074 0.953568
O O2 0.185377 0.807626 0.737152
O O3 0.315880 0.686629 0.926374
O O4 0.967446 0.726257 0.790249
O O5 0.825636 0.134350 0.259029
O O6 0.000000 0.063182 0.500000
O O7 0.156947 0.053250 0.377955
O O8 0.854874 0.972895 0.281709
O O9 0.566085 0.434829 0.202412
O O10 0.892300 0.510159 0.317158
O O11 0.558451 0.577361 0.132059
O O12 0.500000 0.359574 0.000000
O O13 0.238081 0.463443 0.926545
O O14 0.380572 0.918836 0.702971
O O15 0.000000 0.884627 0.500000
O O16 0.033715 0.571066 0.203150
O O17 0.000000 0.654465 0.000000
#
# Coordination Sequence:
#
# PCOD9121419 Si02
#       8
#     4   4   4   4   4   4   4   2
#     4  12  22  37  60  95 135 169 204 275 336 394
#     4  10  22  42  68  91 126 178 225 267 322 402
#     4  11  19  40  65  97 134 162 216 280 321 406
#     4  10  19  33  60  92 128 158 206 267 335 384
#     4  10  23  42  62  88 128 175 230 265 314 397
#     4  11  22  38  64  97 131 169 217 271 337 391
#     4  10  20  38  66  95 120 174 219 270 331 388
#     4  12  22  36  62 106 130 164 212 264 348 390
#
# _framework density 21.259744999999999
#
# number of rings (size 3 to 8) (size 9 to 14) (size 15 to 20)
#    0.000    1.333    4.667    2.800    1.867    0.000 
#    2.400    6.000    0.000    0.000    0.000    0.000 
#    0.000    0.000    0.000    0.000    0.000    0.000 
#
# Total GULP energy -83597.597987 kJ/mol
# GULP energy per Si atom -5573.173199 kJ/mol
# Density = 2.121136 g / cm^3
# Si number density = 21.259745 Si / 1000 Ang^3
#
#
#
# Elastic Constant Matrix: (Units=GPa)
#
#
# Indices 1 2 3 4 5 6 
#
# 1 149.7483 26.3578 47.4796 0.0000 -18.3454 0.0000
# 2 26.3578 72.5117 16.7858 0.0000 -6.2837 0.0000
# 3 47.4796 16.7858 56.8670 0.0000 -11.9173 0.0000
# 4 0.0000 0.0000 0.0000 6.4641 0.0000 -6.2999
# 5 -18.3454 -6.2837 -11.9173 0.0000 34.3903 0.0000
# 6 0.0000 0.0000 0.0000 -6.2999 0.0000 23.3380
#
#
#
# Elastic Compliance Matrix: (Units=1/GPa)
#
#
# Indices 1 2 3 4 5 6 
#
# 1 0.009444 -0.001629 -0.006912 0.000000 0.002345 0.000000
# 2 -0.001629 0.015136 -0.002922 0.000000 0.000884 0.000000
# 3 -0.006912 -0.002922 0.025161 0.000000 0.004498 0.000000
# 4 0.000000 0.000000 0.000000 0.209932 0.000000 0.056669
# 5 0.002345 0.000884 0.004498 0.000000 0.032049 0.000000
# 6 0.000000 0.000000 0.000000 0.056669 0.000000 0.058146
#
#
# Mechanical properties :
#
#
# Convention : Reuss Voigt Hill
#
# Bulk Modulus (GPa) = 37.29510 51.15262 44.22386
# Shear Modulus (GPa) = 13.09816 25.40539 19.25177
#
# Velocity S-wave (km/s) = 2.48483 3.46063 3.01250
# Velocity P-wave (km/s) = 5.08067 6.33095 5.73995
#
# Compressibility (1/GPa) = 0.02681317
#
# Stress axis : x y z
#
# Youngs Moduli (GPa) = 105.89251 66.06674 39.74355
#
# Poissons Ratio (x) = 0.10765 0.27472
# Poissons Ratio (y) = 0.17254 0.11614
# Poissons Ratio (z) = 0.73196 0.19306
#
# Static dielectric constant tensor:
#      x y z
#    x 1.901040 0.000000 -0.016080 
#    y 0.000000 1.781100 0.000000 
#    z -0.016080 0.000000 1.783800 
# 
# From -- ./inp_files/37009.got.cif
#   From: 2010.05.17/outbox.cif.g08.bks.cpg/sg5_19_cif.got.tgz:37009.got - 2010.06.03 18:56:24.
