data_PCOD9121792
_publ_section_title
;
Structure prediction by ZEFSAII (Michael W. Deem and Ramdas Pophale) SiO2 
 PCOD9121792
Probable space group: C 2
;
_chemical_formula_sum "Si O2"
_cell_formula_units_Z 22
_cell_length_a 5.573909
_cell_length_b 24.253215
_cell_length_c 7.057342
_cell_angle_alpha 90.000000
_cell_angle_beta 105.175712
_cell_angle_gamma 90.000000
_cell_volume 920.778284
_symmetry_space_group_name_H-M "C 2"
_symmetry_group_IT_number 5
_symmetry_cell_setting 'monoclinic'
loop_
_space_group_symop_operation_xyz
x,y,z
-x,y,-z
1/2+x,1/2+y,z
1/2-x,1/2+y,-z
loop_
_atom_site_type_symbol
_atom_site_label
_atom_site_fract_x
_atom_site_fract_y
_atom_site_fract_z
Si Si1 0.328893 0.437370 0.240853
Si Si2 0.000000 0.133963 0.500000
Si Si3 0.817835 0.479893 0.203075
Si Si4 0.792765 0.819151 0.124141
Si Si5 0.531108 0.092826 0.279388
Si Si6 0.275750 0.696091 0.802286
O O1 0.595062 0.467261 0.301472
O O2 0.347895 0.371856 0.265804
O O3 0.094730 0.459716 0.308789
O O4 0.252398 0.448551 0.005000
O O5 0.171831 0.095729 0.669507
O O6 0.140635 0.174406 0.385702
O O7 0.863775 0.544031 0.164437
O O8 0.815193 0.758754 0.219552
O O9 0.500000 0.824142 0.000000
O O10 0.000000 0.821516 0.000000
O O11 0.500000 0.086520 0.500000
O O12 0.432809 0.151468 0.190161
O O13 0.500000 0.693160 0.000000
#
# Coordination Sequence:
#
# PCOD9121792 Si02
#       6
#     4   2   4   4   4   4
#     4  10  19  36  60  99 126 164 214 288 326 395
#     4  10  24  48  60 100 146 172 234 284 350 396
#     4  10  20  34  62  87 127 165 214 264 341 388
#     4  11  20  39  63  99 137 171 225 287 337 405
#     4  10  24  42  62  92 135 183 220 289 341 406
#     4  10  25  39  72 100 131 182 229 280 347 409
#
# _framework density 23.892828999999999
#
# number of rings (size 3 to 8) (size 9 to 14) (size 15 to 20)
#    0.000    1.818    3.636    0.000   12.727    1.455 
#    0.000    0.000    2.000    0.000    0.000    0.000 
#    0.000    0.000    0.000    0.000    0.000    0.000 
#
# Total GULP energy -61421.097239 kJ/mol
# GULP energy per Si atom -5583.736113 kJ/mol
# Density = 2.383845 g / cm^3
# Si number density = 23.892829 Si / 1000 Ang^3
#
#
#
# Elastic Constant Matrix: (Units=GPa)
#
#
# Indices 1 2 3 4 5 6 
#
# 1 199.5666 54.9080 17.6750 0.0000 9.2890 0.0000
# 2 54.9080 184.2336 2.6812 0.0000 27.4751 0.0000
# 3 17.6750 2.6812 76.4544 0.0000 13.4542 0.0000
# 4 0.0000 0.0000 0.0000 -25.0230 0.0000 -6.9869
# 5 9.2890 27.4751 13.4542 0.0000 35.7696 0.0000
# 6 0.0000 0.0000 0.0000 -6.9869 0.0000 30.7584
#
#
#
# Elastic Compliance Matrix: (Units=1/GPa)
#
#
# Indices 1 2 3 4 5 6 
#
# 1 0.005575 -0.001693 -0.001289 0.000000 0.000338 0.000000
# 2 -0.001693 0.006675 0.001052 0.000000 -0.005083 0.000000
# 3 -0.001289 0.001052 0.014376 0.000000 -0.005880 0.000000
# 4 0.000000 0.000000 0.000000 -0.037580 0.000000 -0.008536
# 5 0.000338 -0.005083 -0.005880 0.000000 0.033985 0.000000
# 6 0.000000 0.000000 0.000000 -0.008536 0.000000 0.030572
#
#
# Mechanical properties :
#
#
# Convention : Reuss Voigt Hill
#
# Bulk Modulus (GPa) = 43.92584 67.86478 55.89531
# Shear Modulus (GPa) = 76.86046 33.96704 55.41375
#
# Velocity S-wave (km/s) = 5.67791 3.77456 4.82110
# Velocity P-wave (km/s) = 7.83641 6.88926 7.37805
#
# Compressibility (1/GPa) = 0.02276564
#
# Stress axis : x y z
#
# Youngs Moduli (GPa) = 179.36718 149.80617 69.56238
#
# Poissons Ratio (x) = 0.25365 0.08966
# Poissons Ratio (y) = 0.30370 -0.07317
# Poissons Ratio (z) = 0.23119 -0.15758
#
# Static dielectric constant tensor:
#      x y z
#    x 2.008510 0.000000 0.028960 
#    y 0.000000 1.877550 0.000000 
#    z 0.028960 0.000000 1.951060 
# 
# From -- ./inp_files/12892.got.cif
#   From: 2010.05.17/outbox.cif.g08.bks.cpg/sg5_7_cif.got.tgz:12892.got - 2010.06.03 18:56:24.
