data_PCOD9121995
_publ_section_title
;
Structure prediction by ZEFSAII (Michael W. Deem and Ramdas Pophale) SiO2 
 PCOD9121995
Probable space group: C 2
;
_chemical_formula_sum "Si O2"
_cell_formula_units_Z 32
_cell_length_a 11.718623
_cell_length_b 15.568892
_cell_length_c 17.784423
_cell_angle_alpha 90.000000
_cell_angle_beta 27.948223
_cell_angle_gamma 90.000000
_cell_volume 1520.703125
_symmetry_space_group_name_H-M "C 2"
_symmetry_group_IT_number 5
_symmetry_cell_setting 'monoclinic'
loop_
_space_group_symop_operation_xyz
x,y,z
-x,y,-z
1/2+x,1/2+y,z
1/2-x,1/2+y,-z
loop_
_atom_site_type_symbol
_atom_site_label
_atom_site_fract_x
_atom_site_fract_y
_atom_site_fract_z
Si Si1 0.211485 0.816030 0.430592
Si Si2 0.762878 0.636937 0.356435
Si Si3 0.791074 0.498701 0.675898
Si Si4 0.798049 0.487890 0.453525
Si Si5 0.061510 0.180259 0.810231
Si Si6 0.926292 0.598293 0.962170
Si Si7 0.873742 0.750517 0.758961
Si Si8 0.103683 0.936997 0.186608
O O1 0.372909 0.755124 0.285632
O O2 0.000000 0.852148 0.500000
O O3 0.072966 0.764785 0.576552
O O4 0.340764 0.895970 0.391524
O O5 0.500000 0.682290 0.500000
O O6 0.724156 0.558994 0.436861
O O7 0.852742 0.599977 0.224472
O O8 0.978340 0.694081 0.267025
O O9 0.713472 0.595140 0.699733
O O10 0.559314 0.438773 0.795107
O O11 0.000000 0.463422 0.500000
O O12 0.937202 0.510439 0.667333
O O13 0.582905 0.475582 0.641076
O O14 0.148224 0.209752 0.842985
O O15 0.787895 0.150779 0.954447
O O16 0.818344 0.503791 0.044008
O O17 0.000000 0.636413 0.000000
O O18 0.820564 0.843409 0.827743
#
# Coordination Sequence:
#
# PCOD9121995 Si02
#       8
#     4   4   4   4   4   4   4   4
#     4   9  19  33  62  99 132 171 222 271 329 395
#     4  12  26  41  68  99 137 174 230 282 339 395
#     4   9  16  31  61  93 128 176 218 263 328 396
#     4  10  19  37  64  98 133 175 228 276 324 397
#     4  10  20  39  67  93 136 175 224 272 335 405
#     4  11  26  46  65  96 134 184 222 275 352 403
#     4  10  21  40  67 107 131 176 227 282 330 396
#     4   9  21  41  67  97 138 177 225 271 340 405
#
# _framework density 21.042898000000001
#
# number of rings (size 3 to 8) (size 9 to 14) (size 15 to 20)
#    0.000    2.000    1.250    2.250    5.250    5.000 
#    4.500    0.000    0.000    0.000    0.000    0.000 
#    0.000    0.000    0.000    0.000    0.000    0.000 
#
# Total GULP energy -89243.914022 kJ/mol
# GULP energy per Si atom -5577.744626 kJ/mol
# Density = 2.099500 g / cm^3
# Si number density = 21.042898 Si / 1000 Ang^3
#
#
#
# Elastic Constant Matrix: (Units=GPa)
#
#
# Indices 1 2 3 4 5 6 
#
# 1 121.1819 33.9907 48.9418 0.0040 -8.4055 -0.0073
# 2 33.9907 74.6142 34.1119 -0.0238 2.0808 0.0013
# 3 48.9418 34.1119 75.8314 -0.0234 -3.4789 -0.0175
# 4 0.0040 -0.0238 -0.0234 6.2745 0.0006 3.4987
# 5 -8.4055 2.0808 -3.4789 0.0006 32.6322 0.0140
# 6 -0.0073 0.0013 -0.0175 3.4987 0.0140 38.4286
#
#
#
# Elastic Compliance Matrix: (Units=1/GPa)
#
#
# Indices 1 2 3 4 5 6 
#
# 1 0.011669 -0.002511 -0.006287 -0.000042 0.002496 0.000002
# 2 -0.002511 0.017530 -0.006377 0.000049 -0.002444 -0.000008
# 3 -0.006287 -0.006377 0.020156 0.000053 0.000936 0.000003
# 4 -0.000042 0.000049 0.000053 0.167900 -0.000005 -0.015286
# 5 0.002496 -0.002444 0.000936 -0.000005 0.031543 -0.000010
# 6 0.000002 -0.000008 0.000003 -0.015286 -0.000010 0.027414
#
#
# Mechanical properties :
#
#
# Convention : Reuss Voigt Hill
#
# Bulk Modulus (GPa) = 52.61855 56.19070 54.40463
# Shear Modulus (GPa) = 15.97968 25.77259 20.87614
#
# Velocity S-wave (km/s) = 2.75869 3.50346 3.15314
# Velocity P-wave (km/s) = 5.93353 6.56708 6.25833
#
# Compressibility (1/GPa) = 0.01900470
#
# Stress axis : x y z
#
# Youngs Moduli (GPa) = 85.70023 57.04556 49.61208
#
# Poissons Ratio (x) = 0.14324 0.31191
# Poissons Ratio (y) = 0.21520 0.31638
# Poissons Ratio (z) = 0.53879 0.36379
#
# Static dielectric constant tensor:
#      x y z
#    x 1.840240 0.000000 0.003480 
#    y 0.000000 1.724120 0.000010 
#    z 0.003480 0.000010 1.767880 
# 
# From -- ./inp_files/60686.got.cif
#   From: 2010.05.17/outbox.cif.g08.bks.cpg/sg5_31_cif.got.tgz:60686.got - 2010.06.03 18:56:24.
