data_PCOD9121984
_publ_section_title
;
Structure prediction by ZEFSAII (Michael W. Deem and Ramdas Pophale) SiO2 
 PCOD9121984
Probable space group: C 2
;
_chemical_formula_sum "Si O2"
_cell_formula_units_Z 28
_cell_length_a 18.610769
_cell_length_b 8.246262
_cell_length_c 23.539890
_cell_angle_alpha 90.000000
_cell_angle_beta 158.859612
_cell_angle_gamma 90.000000
_cell_volume 1302.917942
_symmetry_space_group_name_H-M "C 2"
_symmetry_group_IT_number 5
_symmetry_cell_setting 'monoclinic'
loop_
_space_group_symop_operation_xyz
x,y,z
-x,y,-z
1/2+x,1/2+y,z
1/2-x,1/2+y,-z
loop_
_atom_site_type_symbol
_atom_site_label
_atom_site_fract_x
_atom_site_fract_y
_atom_site_fract_z
Si Si1 0.373906 0.612800 0.961600
Si Si2 0.325114 0.220417 0.824398
Si Si3 0.274788 0.245357 0.471974
Si Si4 0.022726 0.265802 0.850270
Si Si5 0.477357 0.916433 0.331120
Si Si6 0.339252 0.448377 0.228729
Si Si7 0.636218 0.120616 0.973629
O O1 0.276624 0.783017 0.870709
O O2 0.196637 0.483108 0.839372
O O3 0.500000 0.562445 0.000000
O O4 0.497673 0.654012 0.108839
O O5 0.238833 0.040446 0.773055
O O6 0.448885 0.225448 0.857743
O O7 0.145999 0.342537 0.706903
O O8 0.500000 0.234814 0.000000
O O9 0.117126 0.281626 0.405913
O O10 0.436093 0.389509 0.597374
O O11 0.154767 0.250116 0.324981
O O12 0.389382 0.074514 0.559120
O O13 0.049271 0.452419 0.886444
O O14 0.227820 0.208487 0.971878
O O15 0.279455 0.565688 0.132021
#
# Coordination Sequence:
#
# PCOD9121984 Si02
#       7
#     4   4   4   4   4   4   4
#     4  10  21  39  62  89 117 158 208 255 305 357
#     4  10  19  37  64  89 114 156 209 253 296 358
#     4  11  22  38  61  94 129 166 204 242 304 368
#     4  11  22  38  63  91 124 160 203 258 300 356
#     4  11  22  37  63  89 123 166 203 248 302 368
#     4   9  19  37  62  87 123 162 199 248 302 363
#     4  10  21  38  62  91 120 158 209 256 299 352
#
# _framework density 21.490227000000001
#
# number of rings (size 3 to 8) (size 9 to 14) (size 15 to 20)
#    0.000    1.714    0.000    6.857    0.000    1.143 
#    0.000    7.857    0.000   12.000    0.000    0.000 
#    0.000    0.000    0.000    0.000    0.000    0.000 
#
# Total GULP energy -78202.699655 kJ/mol
# GULP energy per Si atom -5585.907118 kJ/mol
# Density = 2.144131 g / cm^3
# Si number density = 21.490227 Si / 1000 Ang^3
#
#
#
# Elastic Constant Matrix: (Units=GPa)
#
#
# Indices 1 2 3 4 5 6 
#
# 1 108.6850 34.6019 58.7976 0.0007 16.1499 0.0001
# 2 34.6019 106.3091 47.5037 0.0001 20.4412 -0.0001
# 3 58.7976 47.5037 118.6967 0.0005 12.1518 -0.0002
# 4 0.0007 0.0001 0.0005 36.5877 0.0002 15.2103
# 5 16.1499 20.4412 12.1518 0.0002 31.8437 -0.0001
# 6 0.0001 -0.0001 -0.0002 15.2103 -0.0001 31.2016
#
#
#
# Elastic Compliance Matrix: (Units=1/GPa)
#
#
# Indices 1 2 3 4 5 6 
#
# 1 0.013199 -0.000983 -0.005748 0.000000 -0.003869 0.000000
# 2 -0.000983 0.012673 -0.003958 0.000000 -0.006126 0.000000
# 3 -0.005748 -0.003958 0.012798 0.000000 0.000572 0.000000
# 4 0.000000 0.000000 0.000000 0.034278 0.000000 -0.016710
# 5 -0.003869 -0.006126 0.000572 0.000000 0.037080 0.000000
# 6 0.000000 0.000000 0.000000 -0.016710 0.000000 0.040196
#
#
# Mechanical properties :
#
#
# Convention : Reuss Voigt Hill
#
# Bulk Modulus (GPa) = 57.83498 68.38856 63.11177
# Shear Modulus (GPa) = 28.19041 32.77914 30.48477
#
# Velocity S-wave (km/s) = 3.62578 3.90975 3.77044
# Velocity P-wave (km/s) = 6.67076 7.23006 6.95603
#
# Compressibility (1/GPa) = 0.01729057
#
# Stress axis : x y z
#
# Youngs Moduli (GPa) = 75.76470 78.90828 78.13920
#
# Poissons Ratio (x) = 0.07760 0.44918
# Poissons Ratio (y) = 0.07450 0.30924
# Poissons Ratio (z) = 0.43553 0.31228
#
# Static dielectric constant tensor:
#      x y z
#    x 1.807980 0.000000 0.036230 
#    y 0.000000 1.840460 0.000000 
#    z 0.036230 0.000000 1.765120 
# 
# From -- ./inp_files/69226.got.cif
#   From: 2010.05.17/outbox.cif.g08.bks.cpg/sg5_35_cif.got.tgz:69226.got - 2010.06.03 18:56:24.
