data_PCOD9121296
_publ_section_title
;
Structure prediction by ZEFSAII (Michael W. Deem and Ramdas Pophale) SiO2 
 PCOD9121296
Probable space group: C 2
;
_chemical_formula_sum "Si O2"
_cell_formula_units_Z 24
_cell_length_a 24.720348
_cell_length_b 9.275322
_cell_length_c 18.760568
_cell_angle_alpha 90.000000
_cell_angle_beta 19.420871
_cell_angle_gamma 90.000000
_cell_volume 1430.300667
_symmetry_space_group_name_H-M "C 2"
_symmetry_group_IT_number 5
_symmetry_cell_setting 'monoclinic'
loop_
_space_group_symop_operation_xyz
x,y,z
-x,y,-z
1/2+x,1/2+y,z
1/2-x,1/2+y,-z
loop_
_atom_site_type_symbol
_atom_site_label
_atom_site_fract_x
_atom_site_fract_y
_atom_site_fract_z
Si Si1 0.645441 0.731920 0.871725
Si Si2 0.332476 0.075121 0.170806
Si Si3 0.004236 0.754009 0.409444
Si Si4 0.007961 0.062576 0.334384
Si Si5 0.816141 0.066996 0.030262
Si Si6 0.670691 0.762167 0.249056
O O1 0.823663 0.694954 0.618734
O O2 0.628214 0.653114 0.968578
O O3 0.648521 0.906463 0.874341
O O4 0.500000 0.692393 0.000000
O O5 0.275304 0.164747 0.173281
O O6 0.182019 0.088551 0.412742
O O7 0.500000 0.121426 0.000000
O O8 0.000000 0.786817 0.500000
O O9 0.146282 0.641735 0.218790
O O10 0.037578 0.900507 0.326001
O O11 0.115223 0.169638 0.249658
O O12 0.057995 0.076390 0.190596
O O13 0.771652 0.903194 0.104027
O O14 0.500000 0.803152 0.500000
#
# Coordination Sequence:
#
# PCOD9121296 Si02
#       6
#     4   4   4   4   4   4
#     4   9  18  34  55  71  95 136 171 194 236 303
#     4   9  19  37  55  69  95 138 172 192 236 306
#     4   9  17  33  54  72  96 133 168 194 238 303
#     4  10  19  33  52  75 100 128 164 207 245 285
#     4  11  20  31  50  80 103 122 161 214 249 277
#     4  10  19  32  52  75 101 131 162 199 246 294
#
# _framework density 16.779689000000001
#
# number of rings (size 3 to 8) (size 9 to 14) (size 15 to 20)
#    0.000    2.333    0.000    6.000    0.000    0.667 
#    0.000    6.667    0.000    0.000    0.000    0.000 
#    0.000    0.000    0.000    0.000    0.000    0.000 
#
# Total GULP energy -66926.000922 kJ/mol
# GULP energy per Si atom -5577.166743 kJ/mol
# Density = 1.674150 g / cm^3
# Si number density = 16.779689 Si / 1000 Ang^3
#
#
#
# Elastic Constant Matrix: (Units=GPa)
#
#
# Indices 1 2 3 4 5 6 
#
# 1 104.1260 57.0632 87.7902 0.0000 -5.1221 0.0000
# 2 57.0632 66.1229 62.8657 0.0000 7.6688 0.0000
# 3 87.7902 62.8657 100.8142 0.0000 -3.0230 0.0000
# 4 0.0000 0.0000 0.0000 22.2576 0.0000 -2.6465
# 5 -5.1221 7.6688 -3.0230 0.0000 38.8784 0.0000
# 6 0.0000 0.0000 0.0000 -2.6465 0.0000 1.2142
#
#
#
# Elastic Compliance Matrix: (Units=1/GPa)
#
#
# Indices 1 2 3 4 5 6 
#
# 1 0.036809 -0.004393 -0.029211 0.000000 0.003445 0.000000
# 2 -0.004393 0.041228 -0.022196 0.000000 -0.010437 0.000003
# 3 -0.029211 -0.022196 0.049328 0.000000 0.004365 -0.000002
# 4 0.000000 0.000000 0.000000 0.060645 0.000000 0.132185
# 5 0.003445 -0.010437 0.004365 0.000000 0.028573 -0.000001
# 6 0.000000 0.000003 -0.000002 0.132185 -0.000001 1.111712
#
#
# Mechanical properties :
#
#
# Convention : Reuss Voigt Hill
#
# Bulk Modulus (GPa) = 63.43273 76.27791 69.85532
# Shear Modulus (GPa) = 3.45985 16.69297 10.07641
#
# Velocity S-wave (km/s) = 1.43750 3.15752 2.45319
# Velocity P-wave (km/s) = 6.37499 7.67140 7.05305
#
# Compressibility (1/GPa) = 0.01576473
#
# Stress axis : x y z
#
# Youngs Moduli (GPa) = 27.16748 24.25537 20.27240
#
# Poissons Ratio (x) = 0.10656 0.59217
# Poissons Ratio (y) = 0.11935 0.44997
# Poissons Ratio (z) = 0.79358 0.53838
#
# Static dielectric constant tensor:
#      x y z
#    x 1.546770 0.000000 -0.012630 
#    y 0.000000 1.560410 0.000000 
#    z -0.012630 0.000000 1.564220 
# 
# From -- ./inp_files/22844.got.cif
#   From: 2010.05.17/outbox.cif.g08.bks.cpg/sg5_12_cif.got.tgz:22844.got - 2010.06.03 18:56:24.
