data_PCOD9121488
_publ_section_title
;
Structure prediction by ZEFSAII (Michael W. Deem and Ramdas Pophale) SiO2 
 PCOD9121488
Probable space group: C 2
;
_chemical_formula_sum "Si O2"
_cell_formula_units_Z 20
_cell_length_a 13.681994
_cell_length_b 17.684756
_cell_length_c 11.455324
_cell_angle_alpha 90.000000
_cell_angle_beta 21.205674
_cell_angle_gamma 90.000000
_cell_volume 1002.592937
_symmetry_space_group_name_H-M "C 2"
_symmetry_group_IT_number 5
_symmetry_cell_setting 'monoclinic'
loop_
_space_group_symop_operation_xyz
x,y,z
-x,y,-z
1/2+x,1/2+y,z
1/2-x,1/2+y,-z
loop_
_atom_site_type_symbol
_atom_site_label
_atom_site_fract_x
_atom_site_fract_y
_atom_site_fract_z
Si Si1 0.014240 0.310140 0.627367
Si Si2 0.362764 0.224745 0.769210
Si Si3 0.648310 0.621998 0.684727
Si Si4 0.284758 0.655944 0.636908
Si Si5 0.282144 0.960245 0.641249
O O1 0.000000 0.317639 0.500000
O O2 0.230260 0.242185 0.394861
O O3 0.092716 0.394324 0.578563
O O4 0.773303 0.277844 0.978754
O O5 0.500000 0.260786 0.500000
O O6 0.591683 0.173000 0.574120
O O7 0.124609 0.169229 0.985655
O O8 0.624203 0.608040 0.573524
O O9 0.697367 0.540344 0.683944
O O10 0.500000 0.655260 0.500000
O O11 0.000000 0.630948 0.000000
O O12 0.500000 0.976051 0.500000
O O13 0.000000 0.925438 0.000000
#
# Coordination Sequence:
#
# PCOD9121488 Si02
#       5
#     4   4   4   4   4
#     4   9  20  37  59  86 116 153 197 242 289 343
#     4  11  22  37  60  89 120 156 196 240 292 352
#     4  11  21  36  59  87 121 154 192 243 298 349
#     4  10  19  34  57  84 112 149 198 243 285 343
#     4  11  22  36  58  88 119 150 191 244 296 347
#
# _framework density 19.948274000000001
#
# number of rings (size 3 to 8) (size 9 to 14) (size 15 to 20)
#    0.000    1.600    0.000    7.800    0.000    4.800 
#    0.000    0.000    0.000   16.800    0.000    5.600 
#    0.000    0.000    0.000    0.000    0.000    0.000 
#
# Total GULP energy -55688.821063 kJ/mol
# GULP energy per Si atom -5568.882106 kJ/mol
# Density = 1.990287 g / cm^3
# Si number density = 19.948274 Si / 1000 Ang^3
#
#
#
# Elastic Constant Matrix: (Units=GPa)
#
#
# Indices 1 2 3 4 5 6 
#
# 1 102.8832 45.5965 48.3302 -0.0352 -3.0576 -0.3600
# 2 45.5965 106.4355 41.2395 -0.1631 5.3794 -0.5204
# 3 48.3302 41.2395 128.5521 -0.3246 10.6804 -0.6230
# 4 -0.0352 -0.1631 -0.3246 17.4218 0.0681 -7.7231
# 5 -3.0576 5.3794 10.6804 0.0681 49.0671 0.2233
# 6 -0.3600 -0.5204 -0.6230 -7.7231 0.2233 -2.7707
#
#
#
# Elastic Compliance Matrix: (Units=1/GPa)
#
#
# Indices 1 2 3 4 5 6 
#
# 1 0.013557 -0.004422 -0.003858 -0.000020 0.002168 0.000167
# 2 -0.004422 0.012178 -0.002154 -0.000231 -0.001138 -0.000677
# 3 -0.003858 -0.002154 0.010098 -0.000230 -0.002198 -0.000900
# 4 -0.000020 -0.000231 -0.000230 0.025696 0.000364 -0.071499
# 5 0.002168 -0.001138 -0.002198 0.000364 0.021113 0.001114
# 6 0.000167 -0.000677 -0.000900 -0.071499 0.001114 -0.161226
#
#
# Mechanical properties :
#
#
# Convention : Reuss Voigt Hill
#
# Bulk Modulus (GPa) = 66.81612 67.57813 67.19713
# Shear Modulus (GPa) = -94.82231 26.25728 -34.28251
#
# Velocity S-wave (km/s) = -6.90198 3.63198 -4.15006
# Velocity P-wave (km/s) = 5.47257 7.17904 3.28554
#
# Compressibility (1/GPa) = 0.01496645
#
# Stress axis : x y z
#
# Youngs Moduli (GPa) = 73.76493 82.11593 99.03175
#
# Poissons Ratio (x) = 0.36309 0.38203
# Poissons Ratio (y) = 0.32617 0.21327
# Poissons Ratio (z) = 0.28456 0.17684
#
# Static dielectric constant tensor:
#      x y z
#    x 1.768650 -0.000080 0.038580 
#    y -0.000080 1.727550 0.000050 
#    z 0.038580 0.000050 1.742010 
# 
# From -- ./inp_files/43278.got.cif
#   From: 2010.05.17/outbox.cif.g08.bks.cpg/sg5_22_cif.got.tgz:43278.got - 2010.06.03 18:56:24.
