data_PCOD9121386
_publ_section_title
;
Structure prediction by ZEFSAII (Michael W. Deem and Ramdas Pophale) SiO2 
 PCOD9121386
Probable space group: C 2
;
_chemical_formula_sum "Si O2"
_cell_formula_units_Z 24
_cell_length_a 19.459733
_cell_length_b 11.645501
_cell_length_c 12.724935
_cell_angle_alpha 90.000000
_cell_angle_beta 19.195777
_cell_angle_gamma 90.000000
_cell_volume 948.153225
_symmetry_space_group_name_H-M "C 2"
_symmetry_group_IT_number 5
_symmetry_cell_setting 'monoclinic'
loop_
_space_group_symop_operation_xyz
x,y,z
-x,y,-z
1/2+x,1/2+y,z
1/2-x,1/2+y,-z
loop_
_atom_site_type_symbol
_atom_site_label
_atom_site_fract_x
_atom_site_fract_y
_atom_site_fract_z
Si Si1 0.295462 0.277930 0.403891
Si Si2 0.000000 0.565692 0.000000
Si Si3 0.982605 0.285740 0.697010
Si Si4 0.590965 0.353756 0.145154
Si Si5 0.109513 0.039297 0.449612
Si Si6 0.500000 0.677148 0.000000
Si Si7 0.173967 0.678939 0.318932
O O1 0.505092 0.325011 0.154042
O O2 0.133298 0.258885 0.731676
O O3 0.171812 0.342400 0.489641
O O4 0.352096 0.151015 0.279770
O O5 0.152495 0.506151 0.864464
O O6 0.081773 0.175098 0.496579
O O7 0.830262 0.343628 0.833367
O O8 0.823976 0.242721 0.018513
O O9 0.523344 0.482243 0.267168
O O10 0.458352 0.269376 0.416798
O O11 0.000000 0.999606 0.500000
O O12 0.670734 0.614148 0.825691
O O13 0.000000 0.615614 0.500000
#
# Coordination Sequence:
#
# PCOD9121386 Si02
#       7
#     4   2   4   4   4   2   4
#     4   9  18  34  55  79 110 152 193 235 289 344
#     4  10  22  37  56  85 124 156 188 241 304 357
#     4   9  18  33  51  76 111 147 183 232 292 342
#     4  10  19  33  56  80 108 146 195 245 284 338
#     4  11  22  34  55  87 118 150 195 246 295 351
#     4   8  14  25  48  75  94 132 190 225 260 327
#     4   8  14  26  46  69  93 128 172 221 270 314
#
# _framework density 25.312363000000001
#
# number of rings (size 3 to 8) (size 9 to 14) (size 15 to 20)
#    0.000    2.667    0.000    2.500    0.000    5.333 
#    0.000    0.000    0.000   28.000    0.000    4.667 
#    0.000    0.000    0.000    0.000    0.000    0.000 
#
# Total GULP energy -66917.293522 kJ/mol
# GULP energy per Si atom -5576.441127 kJ/mol
# Density = 2.525475 g / cm^3
# Si number density = 25.312363 Si / 1000 Ang^3
#
#
#
# Elastic Constant Matrix: (Units=GPa)
#
#
# Indices 1 2 3 4 5 6 
#
# 1 185.2892 21.1873 102.2601 0.0003 -97.8613 0.0000
# 2 21.1873 37.8315 11.4413 -0.0032 -16.0579 0.0003
# 3 102.2601 11.4413 116.4545 -0.0062 -32.4681 0.0005
# 4 0.0003 -0.0032 -0.0062 99.0038 0.0018 19.1152
# 5 -97.8613 -16.0579 -32.4681 0.0018 99.1597 0.0001
# 6 0.0000 0.0003 0.0005 19.1152 0.0001 6.2000
#
#
#
# Elastic Compliance Matrix: (Units=1/GPa)
#
#
# Indices 1 2 3 4 5 6 
#
# 1 0.023768 -0.000843 -0.015721 -0.000004 0.018172 0.000013
# 2 -0.000843 0.028708 -0.001118 0.000003 0.003451 -0.000009
# 3 -0.015721 -0.001118 0.019947 0.000004 -0.009165 -0.000014
# 4 -0.000004 0.000003 0.000004 0.024956 -0.000003 -0.076943
# 5 0.018172 0.003451 -0.009165 -0.000003 0.025577 0.000008
# 6 0.000013 -0.000009 -0.000014 -0.076943 0.000008 0.398511
#
#
# Mechanical properties :
#
#
# Convention : Reuss Voigt Hill
#
# Bulk Modulus (GPa) = 26.98511 67.70585 47.34548
# Shear Modulus (GPa) = 8.78451 54.51848 31.65150
#
# Velocity S-wave (km/s) = 1.86493 4.64597 3.53999
# Velocity P-wave (km/s) = 3.91424 7.45562 5.95431
#
# Compressibility (1/GPa) = 0.03705747
#
# Stress axis : x y z
#
# Youngs Moduli (GPa) = 42.07412 34.83348 50.13386
#
# Poissons Ratio (x) = 0.02936 0.78817
# Poissons Ratio (y) = 0.03547 0.05606
# Poissons Ratio (z) = 0.66146 0.03895
#
# Static dielectric constant tensor:
#      x y z
#    x 2.061800 0.000000 -0.042450 
#    y 0.000000 1.904310 0.000000 
#    z -0.042450 0.000000 1.999850 
# 
# From -- ./inp_files/19377.got.cif
#   From: 2010.05.17/outbox.cif.g08.bks.cpg/sg5_10_cif.got.tgz:19377.got - 2010.06.03 18:56:24.
