data_PCOD9121327
_publ_section_title
;
Structure prediction by ZEFSAII (Michael W. Deem and Ramdas Pophale) SiO2 
 PCOD9121327
Probable space group: C 2
;
_chemical_formula_sum "Si O2"
_cell_formula_units_Z 30
_cell_length_a 8.738141
_cell_length_b 16.746779
_cell_length_c 14.827787
_cell_angle_alpha 90.000000
_cell_angle_beta 44.293818
_cell_angle_gamma 90.000000
_cell_volume 1515.278248
_symmetry_space_group_name_H-M "C 2"
_symmetry_group_IT_number 5
_symmetry_cell_setting 'monoclinic'
loop_
_space_group_symop_operation_xyz
x,y,z
-x,y,-z
1/2+x,1/2+y,z
1/2-x,1/2+y,-z
loop_
_atom_site_type_symbol
_atom_site_label
_atom_site_fract_x
_atom_site_fract_y
_atom_site_fract_z
Si Si1 0.757032 0.554670 0.867182
Si Si2 0.162649 0.169848 0.157324
Si Si3 0.000000 0.154048 0.500000
Si Si4 0.797562 0.497837 0.042424
Si Si5 0.249538 0.599006 0.424892
Si Si6 0.298982 0.455925 0.280438
Si Si7 0.265960 0.730266 0.074949
Si Si8 0.706333 0.276595 0.734243
O O1 0.808241 0.508139 0.754824
O O2 0.785840 0.649192 0.847343
O O3 0.500000 0.546032 0.000000
O O4 0.863438 0.519335 0.912085
O O5 0.267440 0.081174 0.110841
O O6 0.264155 0.235856 0.180328
O O7 0.914721 0.151878 0.293207
O O8 0.197498 0.200197 0.042187
O O9 0.856808 0.109642 0.480735
O O10 0.826855 0.212441 0.621132
O O11 0.559757 0.457827 0.147897
O O12 0.000000 0.452266 0.000000
O O13 0.270140 0.506768 0.383602
O O14 0.000000 0.621706 0.500000
O O15 0.209198 0.366420 0.314127
O O16 0.051550 0.781648 0.175500
O O17 0.500000 0.765573 0.000000
#
# Coordination Sequence:
#
# PCOD9121327 Si02
#       8
#     4   4   2   4   4   4   4   4
#     4   8  16  31  53  85 117 157 202 235 295 375
#     4   9  19  36  58  93 116 162 208 250 311 368
#     4  10  26  44  68  90 118 170 220 254 316 372
#     4   9  16  31  55  85 124 159 200 250 298 371
#     4  10  22  42  71  88 120 164 223 262 300 379
#     4  10  22  37  58  88 120 161 205 253 321 368
#     4  10  19  32  60  90 124 159 203 251 308 364
#     4  11  23  39  59  89 128 159 200 264 317 379
#
# _framework density 19.798342999999999
#
# number of rings (size 3 to 8) (size 9 to 14) (size 15 to 20)
#    0.000    2.400    0.000    4.400    4.667    3.733 
#    0.000    0.000    1.467    0.000    0.000    0.000 
#    0.000    0.000    0.000    0.000    0.000    0.000 
#
# Total GULP energy -83538.331070 kJ/mol
# GULP energy per Si atom -5569.222071 kJ/mol
# Density = 1.975328 g / cm^3
# Si number density = 19.798343 Si / 1000 Ang^3
#
#
#
# Elastic Constant Matrix: (Units=GPa)
#
#
# Indices 1 2 3 4 5 6 
#
# 1 114.9327 48.1755 40.8757 0.0000 2.7048 -0.0002
# 2 48.1755 122.3208 26.6326 0.0001 22.6583 -0.0001
# 3 40.8757 26.6326 55.1465 0.0001 2.0799 0.0001
# 4 0.0000 0.0001 0.0001 -7.9871 0.0000 -10.3159
# 5 2.7048 22.6583 2.0799 0.0000 39.4660 0.0000
# 6 -0.0002 -0.0001 0.0001 -10.3159 0.0000 7.1913
#
#
#
# Elastic Compliance Matrix: (Units=1/GPa)
#
#
# Indices 1 2 3 4 5 6 
#
# 1 0.013041 -0.003716 -0.007934 0.000000 0.001658 0.000000
# 2 -0.003716 0.011309 -0.002477 0.000000 -0.006108 0.000000
# 3 -0.007934 -0.002477 0.025187 0.000000 0.000639 0.000000
# 4 0.000000 0.000000 0.000000 -0.043888 0.000000 -0.062957
# 5 0.001658 -0.006108 0.000639 0.000000 0.028698 0.000000
# 6 0.000000 0.000000 0.000000 -0.062957 0.000000 0.048745
#
#
# Mechanical properties :
#
#
# Convention : Reuss Voigt Hill
#
# Bulk Modulus (GPa) = 46.98647 58.19639 52.59143
# Shear Modulus (GPa) = 42.21529 19.51512 30.86521
#
# Velocity S-wave (km/s) = 4.62265 3.14298 3.95267
# Velocity P-wave (km/s) = 7.23021 6.52913 6.88859
#
# Compressibility (1/GPa) = 0.02128272
#
# Stress axis : x y z
#
# Youngs Moduli (GPa) = 76.68102 88.42214 39.70319
#
# Poissons Ratio (x) = 0.32855 0.31502
# Poissons Ratio (y) = 0.28492 0.09836
# Poissons Ratio (z) = 0.60841 0.21905
#
# Static dielectric constant tensor:
#      x y z
#    x 1.783080 0.000000 -0.005150 
#    y 0.000000 1.690230 0.000000 
#    z -0.005150 0.000000 1.723700 
# 
# From -- ./inp_files/51270.got.cif
#   From: 2010.05.17/outbox.cif.g08.bks.cpg/sg5_26_cif.got.tgz:51270.got - 2010.06.03 18:56:24.
