data_PCOD9121052
_publ_section_title
;
Structure prediction by ZEFSAII (Michael W. Deem and Ramdas Pophale) SiO2 
 PCOD9121052
Probable space group: C 2
;
_chemical_formula_sum "Si O2"
_cell_formula_units_Z 30
_cell_length_a 12.675990
_cell_length_b 10.619759
_cell_length_c 11.350152
_cell_angle_alpha 90.000000
_cell_angle_beta 60.560544
_cell_angle_gamma 90.000000
_cell_volume 1330.620851
_symmetry_space_group_name_H-M "C 2"
_symmetry_group_IT_number 5
_symmetry_cell_setting 'monoclinic'
loop_
_space_group_symop_operation_xyz
x,y,z
-x,y,-z
1/2+x,1/2+y,z
1/2-x,1/2+y,-z
loop_
_atom_site_type_symbol
_atom_site_label
_atom_site_fract_x
_atom_site_fract_y
_atom_site_fract_z
Si Si1 0.500195 0.732510 0.792501
Si Si2 0.758455 0.844788 0.119474
Si Si3 0.172716 0.426999 0.623631
Si Si4 0.331211 0.085222 0.151889
Si Si5 0.000000 0.390837 0.000000
Si Si6 0.143228 0.506052 0.388879
Si Si7 0.898178 0.976431 0.834762
Si Si8 0.116055 0.785030 0.354267
O O1 0.360325 0.781074 0.877339
O O2 0.573906 0.814594 0.656467
O O3 0.557987 0.796036 0.876095
O O4 0.501961 0.582051 0.793345
O O5 0.844370 0.730725 0.116064
O O6 0.700144 0.909715 0.265509
O O7 0.833045 0.936191 0.991828
O O8 0.129512 0.535165 0.740607
O O9 0.204547 0.490380 0.482768
O O10 0.284972 0.362846 0.626804
O O11 0.191814 0.052034 0.204401
O O12 0.398223 0.992803 0.022983
O O13 0.159932 0.642218 0.320910
O O14 0.000000 0.491940 0.500000
O O15 0.919382 0.849463 0.749665
O O16 0.000000 0.782256 0.500000
#
# Coordination Sequence:
#
# PCOD9121052 Si02
#       8
#     4   4   4   4   2   4   4   4
#     4  10  21  38  67  95 132 170 220 269 332 408
#     4  11  22  39  65 101 133 171 221 280 327 407
#     4  10  22  44  67  96 127 176 229 272 327 406
#     4   9  21  37  62  94 128 173 215 267 334 386
#     4  10  18  38  64  92 130 170 210 264 334 398
#     4  11  24  42  66  95 131 182 225 270 334 399
#     4  10  22  41  65 100 129 172 217 278 340 387
#     4  10  25  46  67  94 135 177 217 281 345 393
#
# _framework density 22.545867000000001
#
# number of rings (size 3 to 8) (size 9 to 14) (size 15 to 20)
#    0.000    1.867    2.667    0.000    5.600    1.067 
#    7.200    2.000    0.000    0.000    0.000    0.000 
#    0.000    0.000    0.000    0.000    0.000    0.000 
#
# Total GULP energy -83576.823666 kJ/mol
# GULP energy per Si atom -5571.788244 kJ/mol
# Density = 2.249455 g / cm^3
# Si number density = 22.545867 Si / 1000 Ang^3
#
#
#
# Elastic Constant Matrix: (Units=GPa)
#
#
# Indices 1 2 3 4 5 6 
#
# 1 35.2449 34.0294 7.6294 0.0000 -3.5549 0.0000
# 2 34.0294 165.4648 56.8700 0.0000 14.2220 0.0000
# 3 7.6294 56.8700 92.7647 0.0000 16.7341 0.0000
# 4 0.0000 0.0000 0.0000 29.5178 0.0000 -5.7123
# 5 -3.5549 14.2220 16.7341 0.0000 20.8321 0.0000
# 6 0.0000 0.0000 0.0000 -5.7123 0.0000 22.7190
#
#
#
# Elastic Compliance Matrix: (Units=1/GPa)
#
#
# Indices 1 2 3 4 5 6 
#
# 1 0.038307 -0.008992 0.000088 0.000000 0.012605 0.000000
# 2 -0.008992 0.009820 -0.004437 0.000000 -0.004674 0.000000
# 3 0.000088 -0.004437 0.015137 0.000000 -0.009115 0.000000
# 4 0.000000 0.000000 0.000000 0.035611 0.000000 0.008954
# 5 0.012605 -0.004674 -0.009115 0.000000 0.060667 0.000000
# 6 0.000000 0.000000 0.000000 0.008954 0.000000 0.046267
#
#
# Mechanical properties :
#
#
# Convention : Reuss Voigt Hill
#
# Bulk Modulus (GPa) = 27.33593 54.50354 40.91974
# Shear Modulus (GPa) = 20.43445 27.61016 24.02231
#
# Velocity S-wave (km/s) = 3.01383 3.50326 3.26772
# Velocity P-wave (km/s) = 4.92563 6.37109 5.69441
#
# Compressibility (1/GPa) = 0.03658189
#
# Stress axis : x y z
#
# Youngs Moduli (GPa) = 26.10488 101.83623 66.06156
#
# Poissons Ratio (x) = 0.91570 -0.00582
# Poissons Ratio (y) = 0.23473 0.29314
# Poissons Ratio (z) = -0.00230 0.45188
#
# Static dielectric constant tensor:
#      x y z
#    x 2.024100 0.000000 0.003830 
#    y 0.000000 1.867240 0.000000 
#    z 0.003830 0.000000 1.886990 
# 
# From -- ./inp_files/41918.got.cif
#   From: 2010.05.17/outbox.cif.g08.bks.cpg/sg5_21_cif.got.tgz:41918.got - 2010.06.03 18:56:24.
