data_PCOD9121825
_publ_section_title
;
Structure prediction by ZEFSAII (Michael W. Deem and Ramdas Pophale) SiO2 
 PCOD9121825
Probable space group: C 2
;
_chemical_formula_sum "Si O2"
_cell_formula_units_Z 26
_cell_length_a 17.183746
_cell_length_b 7.202745
_cell_length_c 10.144767
_cell_angle_alpha 90.000000
_cell_angle_beta 83.452446
_cell_angle_gamma 90.000000
_cell_volume 1247.429534
_symmetry_space_group_name_H-M "C 2"
_symmetry_group_IT_number 5
_symmetry_cell_setting 'monoclinic'
loop_
_space_group_symop_operation_xyz
x,y,z
-x,y,-z
1/2+x,1/2+y,z
1/2-x,1/2+y,-z
loop_
_atom_site_type_symbol
_atom_site_label
_atom_site_fract_x
_atom_site_fract_y
_atom_site_fract_z
Si Si1 0.342593 0.368760 0.423704
Si Si2 0.500000 0.383702 0.500000
Si Si3 0.729035 0.158950 0.311904
Si Si4 0.139209 0.983317 0.018221
Si Si5 0.410277 0.185078 0.163541
Si Si6 0.189902 0.369217 0.943145
Si Si7 0.927307 0.699617 0.767629
O O1 0.422392 0.476686 0.453113
O O2 0.302296 0.281930 0.560191
O O3 0.282163 0.498629 0.360320
O O4 0.370248 0.211659 0.314133
O O5 0.465071 0.258031 0.622433
O O6 0.778962 0.281273 0.200390
O O7 0.651525 0.087817 0.248800
O O8 0.231117 0.924729 0.994910
O O9 0.102697 0.885509 0.153003
O O10 0.094989 0.887604 0.904341
O O11 0.140621 0.204549 0.019013
O O12 0.499931 0.122289 0.163820
O O13 0.361320 0.047711 0.081318
#
# Coordination Sequence:
#
# PCOD9121825 Si02
#       7
#     4   2   4   4   4   4   4
#     4  10  19  36  62  89 123 158 204 245 306 355
#     4   8  18  38  60  86 114 166 188 248 306 356
#     4  10  20  37  61  92 119 164 202 247 299 370
#     4  11  21  39  62  90 120 163 204 256 302 370
#     4  11  21  39  63  87 125 162 196 263 299 363
#     4  11  22  38  64  90 123 160 211 249 309 358
#     4   9  21  38  63  85 124 161 202 243 315 357
#
# _framework density 20.842863000000001
#
# number of rings (size 3 to 8) (size 9 to 14) (size 15 to 20)
#    0.000    1.846    3.077    1.385    0.000    0.000 
#    0.000    4.615    3.385    0.000    0.000    0.000 
#    0.000    0.000    0.000    0.000    0.000    0.000 
#
# Total GULP energy -72553.111501 kJ/mol
# GULP energy per Si atom -5581.008577 kJ/mol
# Density = 2.079542 g / cm^3
# Si number density = 20.842863 Si / 1000 Ang^3
#
#
#
# Elastic Constant Matrix: (Units=GPa)
#
#
# Indices 1 2 3 4 5 6 
#
# 1 155.8973 31.0986 19.0426 0.0000 30.5215 0.0000
# 2 31.0986 47.2718 -1.6516 0.0000 7.5216 0.0000
# 3 19.0426 -1.6516 74.2614 0.0000 -7.0536 0.0000
# 4 0.0000 0.0000 0.0000 24.6425 0.0000 9.4043
# 5 30.5215 7.5216 -7.0536 0.0000 48.3881 0.0000
# 6 0.0000 0.0000 0.0000 9.4043 0.0000 23.4617
#
#
#
# Elastic Compliance Matrix: (Units=1/GPa)
#
#
# Indices 1 2 3 4 5 6 
#
# 1 0.008784 -0.005056 -0.002856 0.000000 -0.005171 0.000000
# 2 -0.005056 0.024603 0.001808 0.000000 -0.000372 0.000000
# 3 -0.002856 0.001808 0.014585 0.000000 0.003647 0.000000
# 4 0.000000 0.000000 0.000000 0.047909 0.000000 -0.019204
# 5 -0.005171 -0.000372 0.003647 0.000000 0.024517 0.000000
# 6 0.000000 0.000000 0.000000 -0.019204 0.000000 0.050320
#
#
# Mechanical properties :
#
#
# Convention : Reuss Voigt Hill
#
# Bulk Modulus (GPa) = 27.96067 41.60105 34.78086
# Shear Modulus (GPa) = 25.66110 34.56120 30.11115
#
# Velocity S-wave (km/s) = 3.51261 4.07649 3.80501
# Velocity P-wave (km/s) = 5.46766 6.49305 6.00230
#
# Compressibility (1/GPa) = 0.03576452
#
# Stress axis : x y z
#
# Youngs Moduli (GPa) = 113.83877 40.64595 68.56398
#
# Poissons Ratio (x) = 0.20550 0.19583
# Poissons Ratio (y) = 0.57556 -0.12399
# Poissons Ratio (z) = 0.32514 -0.07350
#
# Static dielectric constant tensor:
#      x y z
#    x 1.784490 0.000000 0.017270 
#    y 0.000000 1.710450 0.000000 
#    z 0.017270 0.000000 1.782700 
# 
# From -- ./inp_files/26742.got.cif
#   From: 2010.05.17/outbox.cif.g08.bks.cpg/sg5_14_cif.got.tgz:26742.got - 2010.06.03 18:56:24.
