data_PCOD9121474
_publ_section_title
;
Structure prediction by ZEFSAII (Michael W. Deem and Ramdas Pophale) SiO2 
 PCOD9121474
Probable space group: C 2
;
_chemical_formula_sum "Si O2"
_cell_formula_units_Z 26
_cell_length_a 12.956174
_cell_length_b 10.936715
_cell_length_c 8.245644
_cell_angle_alpha 90.000000
_cell_angle_beta 66.446633
_cell_angle_gamma 90.000000
_cell_volume 1071.050434
_symmetry_space_group_name_H-M "C 2"
_symmetry_group_IT_number 5
_symmetry_cell_setting 'monoclinic'
loop_
_space_group_symop_operation_xyz
x,y,z
-x,y,-z
1/2+x,1/2+y,z
1/2-x,1/2+y,-z
loop_
_atom_site_type_symbol
_atom_site_label
_atom_site_fract_x
_atom_site_fract_y
_atom_site_fract_z
Si Si1 0.120869 0.303020 0.834800
Si Si2 0.939851 0.084897 0.324261
Si Si3 0.774565 0.868761 0.000876
Si Si4 0.882742 0.567714 0.331993
Si Si5 0.322757 0.580561 0.713337
Si Si6 0.902051 0.496614 0.662866
Si Si7 0.000000 0.900756 0.000000
O O1 0.127098 0.199836 0.698029
O O2 0.212861 0.278817 0.916356
O O3 0.132321 0.433812 0.740306
O O4 0.000000 0.300769 0.000000
O O5 0.875909 0.022928 0.514936
O O6 0.955213 0.988566 0.170971
O O7 0.062461 0.141233 0.294612
O O8 0.796066 0.987278 0.873767
O O9 0.686905 0.914340 0.190808
O O10 0.894101 0.829993 0.994926
O O11 0.792347 0.642077 0.280327
O O12 0.850708 0.570094 0.543091
O O13 0.019573 0.577359 0.263558
O O14 0.000000 0.424061 0.500000
#
# Coordination Sequence:
#
# PCOD9121474 Si02
#       7
#     4   4   4   4   4   4   2
#     4  11  18  33  53  85 118 150 189 249 279 337
#     4  10  20  33  51  83 119 150 193 226 307 324
#     4  10  19  34  56  86 119 148 203 227 288 339
#     4   8  17  30  52  80 112 143 190 229 286 323
#     4   9  19  32  50  78 117 152 179 242 275 350
#     4   8  16  28  50  85 109 140 186 246 268 327
#     4  10  20  34  58  86 114 158 182 248 276 360
#
# _framework density 24.275233
#
# number of rings (size 3 to 8) (size 9 to 14) (size 15 to 20)
#    0.923    1.538    2.308    0.923    0.000    2.462 
#    0.000    0.000    0.000    0.000   14.000   15.077 
#    4.615    0.000    0.000    0.000    0.000    0.000 
#
# Total GULP energy -72395.092513 kJ/mol
# GULP energy per Si atom -5568.853270 kJ/mol
# Density = 2.421998 g / cm^3
# Si number density = 24.275233 Si / 1000 Ang^3
#
#
#
# Elastic Constant Matrix: (Units=GPa)
#
#
# Indices 1 2 3 4 5 6 
#
# 1 232.7850 16.2553 9.3068 0.0000 12.9439 0.0000
# 2 16.2553 29.9393 31.7060 0.0000 -5.0857 0.0000
# 3 9.3068 31.7060 120.7723 0.0000 -9.0246 0.0000
# 4 0.0000 0.0000 0.0000 14.4165 0.0000 5.2340
# 5 12.9439 -5.0857 -9.0246 0.0000 27.7021 0.0000
# 6 0.0000 0.0000 0.0000 5.2340 0.0000 6.0063
#
#
#
# Elastic Compliance Matrix: (Units=1/GPa)
#
#
# Indices 1 2 3 4 5 6 
#
# 1 0.004665 -0.003318 0.000311 0.000000 -0.002687 0.000000
# 2 -0.003318 0.049215 -0.012170 0.000000 0.006621 0.000000
# 3 0.000311 -0.012170 0.011554 0.000000 0.001385 0.000000
# 4 0.000000 0.000000 0.000000 0.101466 0.000000 -0.088419
# 5 -0.002687 0.006621 0.001385 0.000000 0.039021 0.000000
# 6 0.000000 0.000000 0.000000 -0.088419 0.000000 0.243540
#
#
# Mechanical properties :
#
#
# Convention : Reuss Voigt Hill
#
# Bulk Modulus (GPa) = 28.50651 55.33700 41.92175
# Shear Modulus (GPa) = 10.17275 31.37355 20.77315
#
# Velocity S-wave (km/s) = 2.04931 3.59891 2.92847
# Velocity P-wave (km/s) = 4.16751 6.33362 5.36110
#
# Compressibility (1/GPa) = 0.03507971
#
# Stress axis : x y z
#
# Youngs Moduli (GPa) = 214.38391 20.31887 86.54648
#
# Poissons Ratio (x) = 0.06742 -0.02691
# Poissons Ratio (y) = 0.71139 1.05326
# Poissons Ratio (z) = -0.06665 0.24728
#
# Static dielectric constant tensor:
#      x y z
#    x 2.072500 0.000000 0.001930 
#    y 0.000000 1.933070 0.000000 
#    z 0.001930 0.000000 1.906610 
# 
# From -- ./inp_files/20268.got.cif
#   From: 2010.05.17/outbox.cif.g08.bks.cpg/sg5_11_cif.got.tgz:20268.got - 2010.06.03 18:56:24.
