data_PCOD9121780
_publ_section_title
;
Structure prediction by ZEFSAII (Michael W. Deem and Ramdas Pophale) SiO2 
 PCOD9121780
Probable space group: C 2
;
_chemical_formula_sum "Si O2"
_cell_formula_units_Z 32
_cell_length_a 19.204463
_cell_length_b 11.337882
_cell_length_c 8.870202
_cell_angle_alpha 90.000000
_cell_angle_beta 116.608203
_cell_angle_gamma 90.000000
_cell_volume 1726.827306
_symmetry_space_group_name_H-M "C 2"
_symmetry_group_IT_number 5
_symmetry_cell_setting 'monoclinic'
loop_
_space_group_symop_operation_xyz
x,y,z
-x,y,-z
1/2+x,1/2+y,z
1/2-x,1/2+y,-z
loop_
_atom_site_type_symbol
_atom_site_label
_atom_site_fract_x
_atom_site_fract_y
_atom_site_fract_z
Si Si1 0.186779 0.492960 0.468222
Si Si2 0.576879 0.734013 0.166214
Si Si3 0.690474 0.990668 0.962779
Si Si4 0.582719 0.605731 0.503651
Si Si5 0.917400 0.519482 0.867764
Si Si6 0.297152 0.399057 0.319555
Si Si7 0.093455 0.349977 0.627016
Si Si8 0.744574 0.655555 0.233363
O O1 0.122995 0.571255 0.319169
O O2 0.231749 0.420986 0.384043
O O3 0.140835 0.413238 0.540819
O O4 0.248305 0.568335 0.618906
O O5 0.576947 0.667956 0.330677
O O6 0.656355 0.703210 0.153379
O O7 0.573206 0.878375 0.164511
O O8 0.500000 0.696070 0.000000
O O9 0.628656 0.908569 0.811699
O O10 0.728786 0.083974 0.887140
O O11 0.760043 0.926366 0.119547
O O12 0.640006 0.042357 0.049657
O O13 0.500000 0.577972 0.500000
O O14 0.635499 0.489974 0.570377
O O15 0.614438 0.712447 0.638560
O O16 0.000000 0.564577 0.000000
O O17 0.307024 0.259288 0.323564
O O18 0.000000 0.361455 0.500000
#
# Coordination Sequence:
#
# PCOD9121780 Si02
#       8
#     4   4   4   4   4   4   4   4
#     4  10  19  37  59  87 115 158 194 247 307 364
#     4  11  22  37  63  89 122 154 194 263 312 348
#     4  10  23  34  58  93 117 158 198 249 305 356
#     4  11  24  38  62  91 123 161 201 250 308 361
#     4  10  19  36  60  90 118 146 195 256 309 348
#     4  11  23  39  59  83 128 159 199 243 300 378
#     4  10  20  35  60  93 119 146 202 261 299 345
#     4  11  22  40  59  90 122 158 201 243 310 364
#
# _framework density 18.531095000000001
#
# number of rings (size 3 to 8) (size 9 to 14) (size 15 to 20)
#    0.000    1.500    5.000    0.750    8.750    0.000 
#    0.000    3.750    0.000    0.750    0.000    0.000 
#    0.000    0.000    0.000    0.000    0.000    0.000 
#
# Total GULP energy -89096.887573 kJ/mol
# GULP energy per Si atom -5568.555473 kJ/mol
# Density = 1.848892 g / cm^3
# Si number density = 18.531095 Si / 1000 Ang^3
#
#
#
# Elastic Constant Matrix: (Units=GPa)
#
#
# Indices 1 2 3 4 5 6 
#
# 1 68.0292 16.0843 23.7273 0.0000 0.1344 0.0000
# 2 16.0843 48.5753 21.3554 0.0000 -8.6256 0.0000
# 3 23.7273 21.3554 79.1465 0.0000 -5.8776 0.0000
# 4 0.0000 0.0000 0.0000 11.9824 0.0000 15.3125
# 5 0.1344 -8.6256 -5.8776 0.0000 22.0955 0.0000
# 6 0.0000 0.0000 0.0000 15.3125 0.0000 19.9107
#
#
#
# Elastic Compliance Matrix: (Units=1/GPa)
#
#
# Indices 1 2 3 4 5 6 
#
# 1 0.017202 -0.004371 -0.004195 0.000000 -0.002927 0.000000
# 2 -0.004371 0.025787 -0.004997 0.000000 0.008764 0.000000
# 3 -0.004195 -0.004997 0.015402 0.000000 0.002172 0.000000
# 4 0.000000 0.000000 0.000000 4.850957 0.000000 -3.730683
# 5 -0.002927 0.008764 0.002172 0.000000 0.049275 0.000000
# 6 0.000000 0.000000 0.000000 -3.730683 0.000000 2.919349
#
#
# Mechanical properties :
#
#
# Convention : Reuss Voigt Hill
#
# Bulk Modulus (GPa) = 31.98451 35.34279 33.66365
# Shear Modulus (GPa) = 0.63167 19.76998 10.20082
#
# Velocity S-wave (km/s) = 0.58447 3.26982 2.34876
# Velocity P-wave (km/s) = 4.21341 5.77660 5.05579
#
# Compressibility (1/GPa) = 0.03126514
#
# Stress axis : x y z
#
# Youngs Moduli (GPa) = 58.13285 38.77924 64.92733
#
# Poissons Ratio (x) = 0.16952 0.27236
# Poissons Ratio (y) = 0.25413 0.32441
# Poissons Ratio (z) = 0.24386 0.19376
#
# Static dielectric constant tensor:
#      x y z
#    x 1.651410 0.000000 0.024490 
#    y 0.000000 1.648210 0.000000 
#    z 0.024490 0.000000 1.702320 
# 
# From -- ./inp_files/29490.got.cif
#   From: 2010.05.17/outbox.cif.g08.bks.cpg/sg5_15_cif.got.tgz:29490.got - 2010.06.03 18:56:24.
