data_PCOD9121620
_publ_section_title
;
Structure prediction by ZEFSAII (Michael W. Deem and Ramdas Pophale) SiO2 
 PCOD9121620
Probable space group: C 2
;
_chemical_formula_sum "Si O2"
_cell_formula_units_Z 30
_cell_length_a 12.486059
_cell_length_b 18.108931
_cell_length_c 15.486587
_cell_angle_alpha 90.000000
_cell_angle_beta 27.307274
_cell_angle_gamma 90.000000
_cell_volume 1606.429596
_symmetry_space_group_name_H-M "C 2"
_symmetry_group_IT_number 5
_symmetry_cell_setting 'monoclinic'
loop_
_space_group_symop_operation_xyz
x,y,z
-x,y,-z
1/2+x,1/2+y,z
1/2-x,1/2+y,-z
loop_
_atom_site_type_symbol
_atom_site_label
_atom_site_fract_x
_atom_site_fract_y
_atom_site_fract_z
Si Si1 0.000000 0.652241 0.000000
Si Si2 0.912924 0.389771 0.832997
Si Si3 0.593429 0.327572 0.528629
Si Si4 0.075483 0.765369 0.083192
Si Si5 0.139699 0.351399 0.320236
Si Si6 0.248742 0.433686 0.872196
Si Si7 0.290295 0.717983 0.516615
Si Si8 0.560148 0.568993 0.361071
O O1 0.133349 0.704734 0.970568
O O2 0.816139 0.605093 0.183599
O O3 0.846231 0.396547 0.779304
O O4 0.191120 0.384855 0.633813
O O5 0.805890 0.310473 0.938399
O O6 0.809455 0.439058 0.984087
O O7 0.500000 0.316417 0.500000
O O8 0.400460 0.362917 0.731447
O O9 0.699873 0.252588 0.492198
O O10 0.889623 0.823534 0.174838
O O11 0.931257 0.726926 0.261620
O O12 0.000000 0.388281 0.500000
O O13 0.984570 0.277672 0.410575
O O14 0.404393 0.502781 0.730513
O O15 0.000000 0.432941 0.000000
O O16 0.391719 0.635768 0.451664
O O17 0.500000 0.542312 0.500000
#
# Coordination Sequence:
#
# PCOD9121620 Si02
#       8
#     2   4   4   4   4   4   4   4
#     4  12  18  32  58  86 118 148 188 240 320 360
#     4  11  21  35  57  84 124 162 201 248 300 364
#     4  11  22  39  60  86 123 160 211 258 293 348
#     4  11  17  32  58  92 121 147 196 260 308 365
#     4   9  17  30  55  89 123 146 188 260 317 352
#     4  12  25  39  57  85 128 173 206 239 306 373
#     4  10  19  35  58  90 120 159 201 253 309 353
#     4  12  23  37  57  88 125 160 194 249 315 368
#
# _framework density 18.674956000000002
#
# number of rings (size 3 to 8) (size 9 to 14) (size 15 to 20)
#    0.000    1.067    7.333    1.600    0.000    0.000 
#    0.000    0.000    0.000    0.000   10.400    0.000 
#    0.000    0.000    0.000    0.000    0.000    0.000 
#
# Total GULP energy -83633.747992 kJ/mol
# GULP energy per Si atom -5575.583199 kJ/mol
# Density = 1.863245 g / cm^3
# Si number density = 18.674956 Si / 1000 Ang^3
#
#
#
# Elastic Constant Matrix: (Units=GPa)
#
#
# Indices 1 2 3 4 5 6 
#
# 1 87.1565 26.5350 38.2644 0.0035 25.0743 0.0002
# 2 26.5350 53.8460 19.2924 -0.0168 10.3837 0.0119
# 3 38.2644 19.2924 124.9928 -0.0019 26.8397 0.0092
# 4 0.0035 -0.0168 -0.0019 22.7507 0.0013 8.5159
# 5 25.0743 10.3837 26.8397 0.0013 43.7273 -0.0002
# 6 0.0002 0.0119 0.0092 8.5159 -0.0002 16.5972
#
#
#
# Elastic Compliance Matrix: (Units=1/GPa)
#
#
# Indices 1 2 3 4 5 6 
#
# 1 0.016245 -0.005820 -0.002731 -0.000011 -0.006257 0.000011
# 2 -0.005820 0.022149 -0.001410 0.000028 -0.001057 -0.000030
# 3 -0.002731 -0.001410 0.009959 0.000003 -0.004212 -0.000006
# 4 -0.000011 0.000028 0.000003 0.054403 -0.000004 -0.027914
# 5 -0.006257 -0.001057 -0.004212 -0.000004 0.029293 0.000005
# 6 0.000011 -0.000030 -0.000006 -0.027914 0.000005 0.074573
#
#
# Mechanical properties :
#
#
# Convention : Reuss Voigt Hill
#
# Bulk Modulus (GPa) = 35.17523 48.24209 41.70866
# Shear Modulus (GPa) = 21.18465 28.74195 24.96330
#
# Velocity S-wave (km/s) = 3.37172 3.92735 3.66009
# Velocity P-wave (km/s) = 5.83390 6.81572 6.34383
#
# Compressibility (1/GPa) = 0.02842910
#
# Stress axis : x y z
#
# Youngs Moduli (GPa) = 61.55884 45.14964 100.41621
#
# Poissons Ratio (x) = 0.26278 0.27426
# Poissons Ratio (y) = 0.35828 0.14158
# Poissons Ratio (z) = 0.16813 0.06366
#
# Static dielectric constant tensor:
#      x y z
#    x 1.670810 0.000000 0.025610 
#    y 0.000000 1.663440 0.000010 
#    z 0.025610 0.000010 1.694650 
# 
# From -- ./inp_files/53395.got.cif
#   From: 2010.05.17/outbox.cif.g08.bks.cpg/sg5_27_cif.got.tgz:53395.got - 2010.06.03 18:56:24.
