data_PCOD9121367
_publ_section_title
;
Structure prediction by ZEFSAII (Michael W. Deem and Ramdas Pophale) SiO2 
 PCOD9121367
Probable space group: C 2
;
_chemical_formula_sum "Si O2"
_cell_formula_units_Z 20
_cell_length_a 5.169569
_cell_length_b 23.047445
_cell_length_c 8.201240
_cell_angle_alpha 90.000000
_cell_angle_beta 119.251401
_cell_angle_gamma 90.000000
_cell_volume 852.538785
_symmetry_space_group_name_H-M "C 2"
_symmetry_group_IT_number 5
_symmetry_cell_setting 'monoclinic'
loop_
_space_group_symop_operation_xyz
x,y,z
-x,y,-z
1/2+x,1/2+y,z
1/2-x,1/2+y,-z
loop_
_atom_site_type_symbol
_atom_site_label
_atom_site_fract_x
_atom_site_fract_y
_atom_site_fract_z
Si Si1 0.815444 0.553590 0.774133
Si Si2 0.168495 0.755280 0.722951
Si Si3 0.164372 0.320854 0.729143
Si Si4 0.334611 0.931531 0.619277
Si Si5 0.810159 0.120707 0.777324
O O1 0.765232 0.487329 0.707833
O O2 0.532664 0.595366 0.710610
O O3 0.027539 0.580243 0.704034
O O4 0.000000 0.553485 0.000000
O O5 0.499422 0.776847 0.796843
O O6 0.191271 0.686292 0.748433
O O7 0.000000 0.763485 0.500000
O O8 0.988276 0.795484 0.793664
O O9 0.072141 0.384882 0.762598
O O10 0.000000 0.320071 0.500000
O O11 0.500000 0.948244 0.500000
O O12 0.000000 0.904175 0.500000
O O13 0.000000 0.114122 0.000000
#
# Coordination Sequence:
#
# PCOD9121367 Si02
#       5
#     4   4   4   4   4
#     4  10  22  39  57  80 116 155 186 230 290 339
#     4  10  19  33  55  79 107 142 183 228 276 333
#     4   9  18  33  53  79 109 142 177 226 285 327
#     4  11  21  36  60  87 115 148 192 237 279 339
#     4  10  21  37  56  79 112 151 188 231 284 336
#
# _framework density 23.459344000000002
#
# number of rings (size 3 to 8) (size 9 to 14) (size 15 to 20)
#    0.000    2.000    0.000    5.400    0.000    2.400 
#    0.000    1.000    0.000    7.200    0.000    0.000 
#    0.000    0.000    0.000    0.000    0.000    0.000 
#
# Total GULP energy -55801.362613 kJ/mol
# GULP energy per Si atom -5580.136261 kJ/mol
# Density = 2.340595 g / cm^3
# Si number density = 23.459344 Si / 1000 Ang^3
#
#
#
# Elastic Constant Matrix: (Units=GPa)
#
#
# Indices 1 2 3 4 5 6 
#
# 1 166.4523 38.1424 25.7112 0.0000 -0.6054 0.0000
# 2 38.1424 142.3587 -3.3773 0.0000 4.3018 0.0000
# 3 25.7112 -3.3773 52.3485 0.0000 10.2860 0.0000
# 4 0.0000 0.0000 0.0000 16.1710 0.0000 -4.5315
# 5 -0.6054 4.3018 10.2860 0.0000 22.3765 0.0000
# 6 0.0000 0.0000 0.0000 -4.5315 0.0000 47.9545
#
#
#
# Elastic Compliance Matrix: (Units=1/GPa)
#
#
# Indices 1 2 3 4 5 6 
#
# 1 0.007132 -0.002084 -0.004127 0.000000 0.002490 0.000000
# 2 -0.002084 0.007705 0.002004 0.000000 -0.002459 0.000000
# 3 -0.004127 0.002004 0.023477 0.000000 -0.011289 0.000000
# 4 0.000000 0.000000 0.000000 0.063521 0.000000 0.006003
# 5 0.002490 -0.002459 -0.011289 0.000000 0.050419 0.000000
# 6 0.000000 0.000000 0.000000 0.006003 0.000000 0.021420
#
#
# Mechanical properties :
#
#
# Convention : Reuss Voigt Hill
#
# Bulk Modulus (GPa) = 33.44519 53.56802 43.50661
# Shear Modulus (GPa) = 26.03434 37.34595 31.69015
#
# Velocity S-wave (km/s) = 3.33493 3.99425 3.67938
# Velocity P-wave (km/s) = 5.39598 6.64500 6.05279
#
# Compressibility (1/GPa) = 0.02989967
#
# Stress axis : x y z
#
# Youngs Moduli (GPa) = 140.21821 129.79084 42.59506
#
# Poissons Ratio (x) = 0.27048 0.17577
# Poissons Ratio (y) = 0.29221 -0.08535
# Poissons Ratio (z) = 0.57862 -0.26006
#
# Static dielectric constant tensor:
#      x y z
#    x 1.852130 0.000000 0.002870 
#    y 0.000000 1.901270 0.000000 
#    z 0.002870 0.000000 1.937900 
# 
# From -- ./inp_files/12331.got.cif
#   From: 2010.05.17/outbox.cif.g08.bks.cpg/sg5_7_cif.got.tgz:12331.got - 2010.06.03 18:56:24.
