data_PCOD9121495
_publ_section_title
;
Structure prediction by ZEFSAII (Michael W. Deem and Ramdas Pophale) SiO2 
 PCOD9121495
Probable space group: C 2
;
_chemical_formula_sum "Si O2"
_cell_formula_units_Z 32
_cell_length_a 9.272348
_cell_length_b 22.892307
_cell_length_c 15.495767
_cell_angle_alpha 90.000000
_cell_angle_beta 149.248291
_cell_angle_gamma 90.000000
_cell_volume 1681.837589
_symmetry_space_group_name_H-M "C 2"
_symmetry_group_IT_number 5
_symmetry_cell_setting 'monoclinic'
loop_
_space_group_symop_operation_xyz
x,y,z
-x,y,-z
1/2+x,1/2+y,z
1/2-x,1/2+y,-z
loop_
_atom_site_type_symbol
_atom_site_label
_atom_site_fract_x
_atom_site_fract_y
_atom_site_fract_z
Si Si1 0.662753 0.590190 0.317853
Si Si2 0.140267 0.026720 0.480071
Si Si3 0.803084 0.010079 0.822158
Si Si4 0.651813 0.274940 0.996547
Si Si5 0.713526 0.293063 0.688372
Si Si6 0.878902 0.895865 0.602175
Si Si7 0.271614 0.382789 0.747413
Si Si8 0.995271 0.185903 0.901687
O O1 0.563298 0.571186 0.362331
O O2 0.617662 0.535498 0.230568
O O3 0.534135 0.643057 0.195330
O O4 0.000000 0.600569 0.500000
O O5 0.478157 0.028263 0.666683
O O6 0.000000 0.038538 0.500000
O O7 0.076792 0.960056 0.415922
O O8 0.824358 0.940459 0.829572
O O9 0.000000 0.031459 0.000000
O O10 0.451432 0.326940 0.864918
O O11 0.500000 0.246920 0.000000
O O12 0.963505 0.300573 0.177588
O O13 0.724450 0.225207 0.965232
O O14 0.500000 0.283937 0.500000
O O15 0.605459 0.349141 0.685207
O O16 0.745938 0.234308 0.762222
O O17 0.862417 0.898981 0.696743
O O18 0.563995 0.873075 0.417839
O O19 0.000000 0.160375 0.000000
#
# Coordination Sequence:
#
# PCOD9121495 Si02
#       8
#     4   4   4   4   4   4   4   4
#     4  10  20  41  65  86 119 166 213 257 307 377
#     4  10  21  38  61  93 128 160 203 264 313 370
#     4  10  20  36  61  90 121 164 207 245 315 376
#     4  10  22  37  57  85 127 164 202 262 319 362
#     4  10  21  35  59  87 122 163 217 246 314 376
#     4  10  19  34  59  92 129 167 203 253 313 393
#     4  10  19  34  57  90 132 166 199 253 321 374
#     4  10  22  39  63  89 118 162 217 264 308 364
#
# _framework density 19.026807000000002
#
# number of rings (size 3 to 8) (size 9 to 14) (size 15 to 20)
#    0.750    1.250    1.250    3.000    0.000    3.000 
#    0.000    4.375    0.000    0.000    0.000    0.000 
#    0.000    0.000    0.000    0.000    0.000    0.000 
#
# Total GULP energy -89105.766454 kJ/mol
# GULP energy per Si atom -5569.110403 kJ/mol
# Density = 1.898350 g / cm^3
# Si number density = 19.026807 Si / 1000 Ang^3
#
#
#
# Elastic Constant Matrix: (Units=GPa)
#
#
# Indices 1 2 3 4 5 6 
#
# 1 134.9101 37.4717 39.9933 0.0008 -13.4417 0.0003
# 2 37.4717 81.8893 33.7413 0.0014 -1.7285 0.0007
# 3 39.9933 33.7413 71.0871 0.0129 -14.7941 0.0078
# 4 0.0008 0.0014 0.0129 15.0751 0.0036 -20.8667
# 5 -13.4417 -1.7285 -14.7941 0.0036 27.0631 0.0026
# 6 0.0003 0.0007 0.0078 -20.8667 0.0026 15.2864
#
#
#
# Elastic Compliance Matrix: (Units=1/GPa)
#
#
# Indices 1 2 3 4 5 6 
#
# 1 0.009490 -0.002877 -0.003420 -0.000004 0.002660 -0.000005
# 2 -0.002877 0.016327 -0.007008 -0.000012 -0.004218 -0.000013
# 3 -0.003420 -0.007008 0.021294 0.000041 0.009494 0.000044
# 4 -0.000004 -0.000012 0.000041 -0.074576 0.000039 -0.101800
# 5 0.002660 -0.004218 0.009494 0.000039 0.043193 0.000041
# 6 -0.000005 -0.000013 0.000044 -0.101800 0.000041 -0.073545
#
#
# Mechanical properties :
#
#
# Convention : Reuss Voigt Hill
#
# Bulk Modulus (GPa) = 48.78152 56.69988 52.74070
# Shear Modulus (GPa) = -205.14930 23.26361 -90.94285
#
# Velocity S-wave (km/s) = -10.39496 3.50047 -6.92105
# Velocity P-wave (km/s) = 10.88024 6.79724 6.00738
#
# Compressibility (1/GPa) = 0.02049957
#
# Stress axis : x y z
#
# Youngs Moduli (GPa) = 105.36931 61.24825 46.96260
#
# Poissons Ratio (x) = 0.17624 0.16060
# Poissons Ratio (y) = 0.30320 0.32913
# Poissons Ratio (z) = 0.36034 0.42925
#
# Static dielectric constant tensor:
#      x y z
#    x 1.660160 0.000000 -0.023840 
#    y 0.000000 1.688720 0.000000 
#    z -0.023840 0.000000 1.669870 
# 
# From -- ./inp_files/51703.got.cif
#   From: 2010.05.17/outbox.cif.g08.bks.cpg/sg5_26_cif.got.tgz:51703.got - 2010.06.03 18:56:24.
