data_PCOD9121123
_publ_section_title
;
Structure prediction by ZEFSAII (Michael W. Deem and Ramdas Pophale) SiO2 
 PCOD9121123
Probable space group: C 2
;
_chemical_formula_sum "Si O2"
_cell_formula_units_Z 32
_cell_length_a 11.168326
_cell_length_b 12.934137
_cell_length_c 9.860066
_cell_angle_alpha 90.000000
_cell_angle_beta 70.562790
_cell_angle_gamma 90.000000
_cell_volume 1343.136522
_symmetry_space_group_name_H-M "C 2"
_symmetry_group_IT_number 5
_symmetry_cell_setting 'monoclinic'
loop_
_space_group_symop_operation_xyz
x,y,z
-x,y,-z
1/2+x,1/2+y,z
1/2-x,1/2+y,-z
loop_
_atom_site_type_symbol
_atom_site_label
_atom_site_fract_x
_atom_site_fract_y
_atom_site_fract_z
Si Si1 0.871732 0.690870 0.242167
Si Si2 0.638854 0.007817 0.556381
Si Si3 0.483862 0.555626 0.819490
Si Si4 0.750308 0.626752 0.713455
Si Si5 0.264473 0.684695 0.974024
Si Si6 0.115283 0.843283 0.120014
Si Si7 0.383943 0.443546 0.614562
Si Si8 0.133877 0.266639 0.514257
O O1 0.912430 0.592389 0.317775
O O2 0.817342 0.643174 0.121436
O O3 0.752872 0.747868 0.364599
O O4 0.988884 0.770646 0.172904
O O5 0.784457 0.991923 0.552199
O O6 0.603647 0.887250 0.560540
O O7 0.643535 0.064637 0.409461
O O8 0.631252 0.552266 0.780893
O O9 0.409473 0.655054 0.899619
O O10 0.447582 0.534627 0.677458
O O11 0.421688 0.456880 0.911816
O O12 0.781498 0.659091 0.855771
O O13 0.686356 0.709394 0.631095
O O14 0.226912 0.803830 0.983195
O O15 0.166669 0.865393 0.253003
O O16 0.500000 0.385628 0.500000
O O17 0.000000 0.229251 0.500000
#
# Coordination Sequence:
#
# PCOD9121123 Si02
#       8
#     4   4   4   4   4   4   4   4
#     4  11  23  43  68  92 131 183 219 275 331 409
#     4  11  22  42  65  96 132 167 221 282 340 386
#     4  10  22  41  67  93 126 172 221 273 324 399
#     4  11  24  40  67  99 128 173 226 274 333 401
#     4  12  24  40  63  98 136 166 218 276 334 392
#     4  10  24  41  65  98 125 178 228 268 326 404
#     4  10  18  39  73  93 123 169 225 278 324 386
#     4  11  25  42  66  98 131 173 225 283 338 395
#
# _framework density 23.824829999999999
#
# number of rings (size 3 to 8) (size 9 to 14) (size 15 to 20)
#    0.750    0.500    2.500    3.750    1.750    5.000 
#    0.000    1.250    0.000    3.000    0.000    0.000 
#    0.000    0.000    0.000    0.000    0.000    0.000 
#
# Total GULP energy -89179.399494 kJ/mol
# GULP energy per Si atom -5573.712468 kJ/mol
# Density = 2.377060 g / cm^3
# Si number density = 23.824830 Si / 1000 Ang^3
#
#
#
# Elastic Constant Matrix: (Units=GPa)
#
#
# Indices 1 2 3 4 5 6 
#
# 1 78.4148 0.0240 14.0649 0.0000 15.1401 0.0000
# 2 0.0240 92.7806 17.1738 0.0000 -3.7860 0.0000
# 3 14.0649 17.1738 102.6496 0.0000 24.9472 0.0000
# 4 0.0000 0.0000 0.0000 36.0802 0.0000 -1.6062
# 5 15.1401 -3.7860 24.9472 0.0000 47.8262 0.0000
# 6 0.0000 0.0000 0.0000 -1.6062 0.0000 27.5154
#
#
#
# Elastic Compliance Matrix: (Units=1/GPa)
#
#
# Indices 1 2 3 4 5 6 
#
# 1 0.013662 0.000015 -0.000943 0.000000 -0.003832 0.000000
# 2 0.000015 0.011313 -0.002418 0.000000 0.002152 0.000000
# 3 -0.000943 -0.002418 0.011738 0.000000 -0.006015 0.000000
# 4 0.000000 0.000000 0.000000 0.027788 0.000000 0.001622
# 5 -0.003832 0.002152 -0.006015 0.000000 0.025430 0.000000
# 6 0.000000 0.000000 0.000000 0.001622 0.000000 0.036438
#
#
# Mechanical properties :
#
#
# Convention : Reuss Voigt Hill
#
# Bulk Modulus (GPa) = 33.31103 37.37450 35.34277
# Shear Modulus (GPa) = 34.94830 38.45650 36.70240
#
# Velocity S-wave (km/s) = 3.83415 4.02199 3.92919
# Velocity P-wave (km/s) = 5.79767 6.10654 5.95410
#
# Compressibility (1/GPa) = 0.03002009
#
# Stress axis : x y z
#
# Youngs Moduli (GPa) = 73.19751 88.39015 85.19643
#
# Poissons Ratio (x) = -0.00130 0.08035
# Poissons Ratio (y) = -0.00107 0.20599
# Poissons Ratio (z) = 0.06904 0.21372
#
# Static dielectric constant tensor:
#      x y z
#    x 1.963940 0.000000 0.061420 
#    y 0.000000 2.025790 0.000000 
#    z 0.061420 0.000000 1.969170 
# 
# From -- ./inp_files/39416.got.cif
#   From: 2010.05.17/outbox.cif.g08.bks.cpg/sg5_20_cif.got.tgz:39416.got - 2010.06.03 18:56:24.
