data_PCOD9121640
_publ_section_title
;
Structure prediction by ZEFSAII (Michael W. Deem and Ramdas Pophale) SiO2 
 PCOD9121640
Probable space group: C 2
;
_chemical_formula_sum "Si O2"
_cell_formula_units_Z 22
_cell_length_a 5.625044
_cell_length_b 14.557783
_cell_length_c 9.678265
_cell_angle_alpha 90.000000
_cell_angle_beta 74.528173
_cell_angle_gamma 90.000000
_cell_volume 763.815305
_symmetry_space_group_name_H-M "C 2"
_symmetry_group_IT_number 5
_symmetry_cell_setting 'monoclinic'
loop_
_space_group_symop_operation_xyz
x,y,z
-x,y,-z
1/2+x,1/2+y,z
1/2-x,1/2+y,-z
loop_
_atom_site_type_symbol
_atom_site_label
_atom_site_fract_x
_atom_site_fract_y
_atom_site_fract_z
Si Si1 0.567420 0.360490 0.725402
Si Si2 0.968194 0.654456 0.800603
Si Si3 0.000000 0.257613 0.500000
Si Si4 0.500000 0.851938 0.000000
Si Si5 0.500000 0.440759 0.000000
Si Si6 0.500000 0.465311 0.500000
Si Si7 0.029581 0.180068 0.192511
Si Si8 0.500000 0.068176 0.500000
O O1 0.473898 0.265549 0.809213
O O2 0.781312 0.321415 0.590495
O O3 0.387816 0.406798 0.643170
O O4 0.648010 0.432495 0.828380
O O5 0.207959 0.628623 0.850523
O O6 0.683314 0.628905 0.860874
O O7 0.018914 0.627168 0.636027
O O8 0.957837 0.197869 0.365240
O O9 0.450394 0.779640 0.881891
O O10 0.743299 0.913880 0.955316
O O11 0.737241 0.515070 0.531388
#
# Coordination Sequence:
#
# PCOD9121640 Si02
#       8
#     4   4   2   2   2   2   4   2
#     4  11  23  43  71 103 136 178 231 283 347 397
#     4  11  21  39  66  97 127 176 213 285 329 406
#     4  10  19  35  60 101 127 172 208 288 317 401
#     4  12  20  38  54 105 143 172 206 284 346 404
#     4  12  24  40  66 101 147 174 216 288 348 406
#     4  12  27  43  67  99 134 182 230 286 327 417
#     4  11  20  34  61  94 140 162 216 266 348 383
#     4  12  26  44  65  98 141 176 228 280 354 390
#
# _framework density 28.802776000000001
#
# number of rings (size 3 to 8) (size 9 to 14) (size 15 to 20)
#    0.000    0.727    5.455    5.455    0.000    3.636 
#    0.000    0.909    0.000    8.727    0.000    0.000 
#    0.000    0.000    0.000    0.000    0.000    0.000 
#
# Total GULP energy -61286.230715 kJ/mol
# GULP energy per Si atom -5571.475520 kJ/mol
# Density = 2.873722 g / cm^3
# Si number density = 28.802776 Si / 1000 Ang^3
#
#
#
# Elastic Constant Matrix: (Units=GPa)
#
#
# Indices 1 2 3 4 5 6 
#
# 1 245.5409 17.4088 31.0662 0.0000 25.8118 0.0000
# 2 17.4088 89.1554 3.9648 0.0000 15.4058 0.0000
# 3 31.0662 3.9648 190.3026 0.0000 27.4317 0.0000
# 4 0.0000 0.0000 0.0000 -34.3102 0.0000 18.0479
# 5 25.8118 15.4058 27.4317 0.0000 57.5475 0.0000
# 6 0.0000 0.0000 0.0000 18.0479 0.0000 3.3880
#
#
#
# Elastic Compliance Matrix: (Units=1/GPa)
#
#
# Indices 1 2 3 4 5 6 
#
# 1 0.004337 -0.000554 -0.000470 0.000000 -0.001573 0.000000
# 2 -0.000554 0.011840 0.000284 0.000000 -0.003057 0.000000
# 3 -0.000470 0.000284 0.005698 0.000000 -0.002581 0.000000
# 4 0.000000 0.000000 0.000000 -0.007666 0.000000 0.040835
# 5 -0.001573 -0.003057 -0.002581 0.000000 0.020131 0.000000
# 6 0.000000 0.000000 0.000000 0.040835 0.000000 0.077630
#
#
# Mechanical properties :
#
#
# Convention : Reuss Voigt Hill
#
# Bulk Modulus (GPa) = 49.03002 69.98650 59.50826
# Shear Modulus (GPa) = 41.58078 36.82899 39.20489
#
# Velocity S-wave (km/s) = 3.80365 3.57972 3.69338
# Velocity P-wave (km/s) = 6.02909 6.43717 6.23647
#
# Compressibility (1/GPa) = 0.02039567
#
# Stress axis : x y z
#
# Youngs Moduli (GPa) = 230.59003 84.45869 175.51118
#
# Poissons Ratio (x) = 0.04680 0.08243
# Poissons Ratio (y) = 0.12777 -0.04991
# Poissons Ratio (z) = 0.10830 -0.02402
#
# Static dielectric constant tensor:
#      x y z
#    x 2.624540 0.000000 -0.368360 
#    y 0.000000 2.386140 0.000000 
#    z -0.368360 0.000000 2.564620 
# 
# From -- ./inp_files/33297.got.cif
#   From: 2010.05.17/outbox.cif.g08.bks.cpg/sg5_17_cif.got.tgz:33297.got - 2010.06.03 18:56:24.
