data_PCOD9121538
_publ_section_title
;
Structure prediction by ZEFSAII (Michael W. Deem and Ramdas Pophale) SiO2 
 PCOD9121538
Probable space group: C 2
;
_chemical_formula_sum "Si O2"
_cell_formula_units_Z 32
_cell_length_a 19.550091
_cell_length_b 9.245650
_cell_length_c 15.635109
_cell_angle_alpha 90.000000
_cell_angle_beta 144.777699
_cell_angle_gamma 90.000000
_cell_volume 1629.952673
_symmetry_space_group_name_H-M "C 2"
_symmetry_group_IT_number 5
_symmetry_cell_setting 'monoclinic'
loop_
_space_group_symop_operation_xyz
x,y,z
-x,y,-z
1/2+x,1/2+y,z
1/2-x,1/2+y,-z
loop_
_atom_site_type_symbol
_atom_site_label
_atom_site_fract_x
_atom_site_fract_y
_atom_site_fract_z
Si Si1 0.688768 0.701590 0.979029
Si Si2 0.369021 0.871993 0.558303
Si Si3 0.254262 0.415283 0.384793
Si Si4 0.950793 0.634301 0.856319
Si Si5 0.868260 0.219559 0.878557
Si Si6 0.368014 0.455451 0.759586
Si Si7 0.406402 0.017623 0.156144
Si Si8 0.536817 0.563383 0.322111
O O1 0.659969 0.710570 0.050455
O O2 0.820441 0.642475 0.100738
O O3 0.601932 0.587765 0.840403
O O4 0.660694 0.862976 0.916487
O O5 0.305786 0.862787 0.587410
O O6 0.268754 0.914735 0.390570
O O7 0.423650 0.716056 0.598694
O O8 0.474205 0.988141 0.668456
O O9 0.178294 0.560961 0.288186
O O10 0.222952 0.308045 0.274930
O O11 0.392586 0.446313 0.547729
O O12 0.939594 0.806236 0.832275
O O13 0.041695 0.563051 0.882721
O O14 0.000000 0.609389 0.000000
O O15 0.877436 0.058614 0.849823
O O16 0.000000 0.284811 0.000000
O O17 0.407400 0.542529 0.715348
#
# Coordination Sequence:
#
# PCOD9121538 Si02
#       8
#     4   4   4   4   4   4   4   4
#     4  11  24  42  65  88 129 175 218 262 325 391
#     4   9  18  38  58  89 121 159 204 266 319 379
#     4  10  19  34  61  88 123 160 204 264 326 372
#     4  11  22  36  61  95 124 155 205 267 318 379
#     4  12  21  38  61  96 131 163 210 280 326 376
#     4  11  21  33  62  93 121 157 208 265 322 373
#     4  10  24  42  64  90 124 171 215 259 319 399
#     4  10  19  36  58  90 119 164 210 259 309 383
#
# _framework density 19.632472
#
# number of rings (size 3 to 8) (size 9 to 14) (size 15 to 20)
#    0.000    1.500    3.750    3.000    1.750    0.000 
#    0.000    0.625    0.000    2.250    0.000    0.000 
#    0.000    0.000    0.000    0.000    0.000    0.000 
#
# Total GULP energy -89251.007021 kJ/mol
# GULP energy per Si atom -5578.187939 kJ/mol
# Density = 1.958779 g / cm^3
# Si number density = 19.632472 Si / 1000 Ang^3
#
#
#
# Elastic Constant Matrix: (Units=GPa)
#
#
# Indices 1 2 3 4 5 6 
#
# 1 43.2316 10.0956 25.9124 0.0000 7.2527 0.0000
# 2 10.0956 78.2283 18.7976 0.0000 6.5294 0.0000
# 3 25.9124 18.7976 85.0138 0.0000 0.6720 0.0000
# 4 0.0000 0.0000 0.0000 30.6244 0.0000 1.1282
# 5 7.2527 6.5294 0.6720 0.0000 23.5135 0.0000
# 6 0.0000 0.0000 0.0000 1.1282 0.0000 21.7422
#
#
#
# Elastic Compliance Matrix: (Units=1/GPa)
#
#
# Indices 1 2 3 4 5 6 
#
# 1 0.030178 -0.001023 -0.008903 0.000000 -0.008770 0.000000
# 2 -0.001023 0.013858 -0.002725 0.000000 -0.003455 0.000000
# 3 -0.008903 -0.002725 0.015055 0.000000 0.003072 0.000000
# 4 0.000000 0.000000 0.000000 0.032716 0.000000 -0.001698
# 5 -0.008770 -0.003455 0.003072 0.000000 0.046105 0.000000
# 6 0.000000 0.000000 0.000000 -0.001698 0.000000 0.046082
#
#
# Mechanical properties :
#
#
# Convention : Reuss Voigt Hill
#
# Bulk Modulus (GPa) = 29.59582 35.12055 32.35818
# Shear Modulus (GPa) = 22.66972 25.28721 23.97847
#
# Velocity S-wave (km/s) = 3.40178 3.59281 3.49860
# Velocity P-wave (km/s) = 5.52604 5.92780 5.73045
#
# Compressibility (1/GPa) = 0.03378855
#
# Stress axis : x y z
#
# Youngs Moduli (GPa) = 33.13719 72.15880 66.42498
#
# Poissons Ratio (x) = 0.07384 0.59136
# Poissons Ratio (y) = 0.03391 0.18101
# Poissons Ratio (z) = 0.29501 0.19663
#
# Static dielectric constant tensor:
#      x y z
#    x 1.635490 0.000000 0.013470 
#    y 0.000000 1.728230 0.000000 
#    z 0.013470 0.000000 1.730230 
# 
# From -- ./inp_files/63246.got.cif
#   From: 2010.05.17/outbox.cif.g08.bks.cpg/sg5_32_cif.got.tgz:63246.got - 2010.06.03 18:56:24.
