data_PCOD9121957
_publ_section_title
;
Structure prediction by ZEFSAII (Michael W. Deem and Ramdas Pophale) SiO2 
 PCOD9121957
Probable space group: C 2
;
_chemical_formula_sum "Si O2"
_cell_formula_units_Z 32
_cell_length_a 10.119879
_cell_length_b 12.079132
_cell_length_c 22.386250
_cell_angle_alpha 90.000000
_cell_angle_beta 34.130570
_cell_angle_gamma 90.000000
_cell_volume 1535.386597
_symmetry_space_group_name_H-M "C 2"
_symmetry_group_IT_number 5
_symmetry_cell_setting 'monoclinic'
loop_
_space_group_symop_operation_xyz
x,y,z
-x,y,-z
1/2+x,1/2+y,z
1/2-x,1/2+y,-z
loop_
_atom_site_type_symbol
_atom_site_label
_atom_site_fract_x
_atom_site_fract_y
_atom_site_fract_z
Si Si1 0.729813 0.626270 0.807201
Si Si2 0.522660 0.998913 0.388235
Si Si3 0.097052 0.294476 0.025917
Si Si4 0.857735 0.040293 0.369980
Si Si5 0.726252 0.396374 0.875703
Si Si6 0.990724 0.714167 0.186057
Si Si7 0.593217 0.984169 0.831970
Si Si8 0.971929 0.276627 0.682533
O O1 0.872995 0.594227 0.694233
O O2 0.501150 0.706282 0.888969
O O3 0.666257 0.509028 0.861863
O O4 0.901517 0.689119 0.789613
O O5 0.729446 0.985181 0.360818
O O6 0.294854 0.021224 0.513659
O O7 0.454408 0.894960 0.371389
O O8 0.984025 0.412021 0.082701
O O9 0.368120 0.305244 0.905339
O O10 0.000000 0.245507 0.000000
O O11 0.862362 0.174680 0.363084
O O12 0.124940 0.995985 0.275932
O O13 0.813468 0.301654 0.799385
O O14 0.956979 0.423032 0.829165
O O15 0.500000 0.367964 0.000000
O O16 0.011708 0.606406 0.135924
O O17 0.716010 0.734984 0.296031
#
# Coordination Sequence:
#
# PCOD9121957 Si02
#       8
#     4   4   4   4   4   4   4   4
#     4   9  19  35  60  87 116 164 211 247 314 381
#     4  10  23  44  66  87 125 172 207 277 331 369
#     4  10  20  33  56  89 121 162 197 249 315 378
#     4  10  24  45  60  94 128 158 222 274 314 385
#     4  10  19  37  62  89 126 167 202 255 317 386
#     4   9  19  38  56  87 129 154 206 258 300 394
#     4  10  21  37  58  88 123 161 209 263 306 383
#     4  10  22  41  63  90 124 168 207 261 328 374
#
# _framework density 20.841656
#
# number of rings (size 3 to 8) (size 9 to 14) (size 15 to 20)
#    0.000    2.250    0.000    2.625    5.250    2.000 
#    4.500   10.000    0.000    0.000    0.000    0.000 
#    0.000    0.000    0.000    0.000    0.000    0.000 
#
# Total GULP energy -89083.121072 kJ/mol
# GULP energy per Si atom -5567.695067 kJ/mol
# Density = 2.079422 g / cm^3
# Si number density = 20.841656 Si / 1000 Ang^3
#
#
#
# Elastic Constant Matrix: (Units=GPa)
#
#
# Indices 1 2 3 4 5 6 
#
# 1 48.8866 9.2673 31.2661 -0.0002 -2.0062 0.0001
# 2 9.2673 41.7721 7.4841 -0.0001 10.2860 0.0000
# 3 31.2661 7.4841 89.7493 -0.0004 15.7925 0.0001
# 4 -0.0002 -0.0001 -0.0004 25.1635 0.0003 2.5703
# 5 -2.0062 10.2860 15.7925 0.0003 27.5471 -0.0001
# 6 0.0001 0.0000 0.0001 2.5703 -0.0001 24.5773
#
#
#
# Elastic Compliance Matrix: (Units=1/GPa)
#
#
# Indices 1 2 3 4 5 6 
#
# 1 0.029942 -0.007410 -0.011882 0.000000 0.011759 0.000000
# 2 -0.007410 0.028219 0.002421 0.000000 -0.012465 0.000000
# 3 -0.011882 0.002421 0.017118 0.000000 -0.011583 0.000000
# 4 0.000000 0.000000 0.000000 0.040169 -0.000001 -0.004201
# 5 0.011759 -0.012465 -0.011583 -0.000001 0.048453 0.000000
# 6 0.000000 0.000000 0.000000 -0.004201 0.000000 0.041127
#
#
# Mechanical properties :
#
#
# Convention : Reuss Voigt Hill
#
# Bulk Modulus (GPa) = 24.07438 30.71590 27.39514
# Shear Modulus (GPa) = 19.79297 24.28360 22.03829
#
# Velocity S-wave (km/s) = 3.08504 3.41713 3.25532
# Velocity P-wave (km/s) = 4.92606 5.50806 5.22517
#
# Compressibility (1/GPa) = 0.04153794
#
# Stress axis : x y z
#
# Youngs Moduli (GPa) = 33.39764 35.43749 58.41836
#
# Poissons Ratio (x) = 0.26257 0.69415
# Poissons Ratio (y) = 0.24746 -0.14146
# Poissons Ratio (z) = 0.39684 -0.08581
#
# Static dielectric constant tensor:
#      x y z
#    x 1.841640 0.000000 -0.037090 
#    y 0.000000 1.778430 0.000000 
#    z -0.037090 0.000000 1.747660 
# 
# From -- ./inp_files/68386.got.cif
#   From: 2010.05.17/outbox.cif.g08.bks.cpg/sg5_35_cif.got.tgz:68386.got - 2010.06.03 18:56:24.
