data_PCOD9121563
_publ_section_title
;
Structure prediction by ZEFSAII (Michael W. Deem and Ramdas Pophale) SiO2 
 PCOD9121563
Probable space group: C 2
;
_chemical_formula_sum "Si O2"
_cell_formula_units_Z 28
_cell_length_a 7.049458
_cell_length_b 17.454010
_cell_length_c 13.467359
_cell_angle_alpha 90.000000
_cell_angle_beta 43.935728
_cell_angle_gamma 90.000000
_cell_volume 1149.739915
_symmetry_space_group_name_H-M "C 2"
_symmetry_group_IT_number 5
_symmetry_cell_setting 'monoclinic'
loop_
_space_group_symop_operation_xyz
x,y,z
-x,y,-z
1/2+x,1/2+y,z
1/2-x,1/2+y,-z
loop_
_atom_site_type_symbol
_atom_site_label
_atom_site_fract_x
_atom_site_fract_y
_atom_site_fract_z
Si Si1 0.544589 0.907090 0.224926
Si Si2 0.830170 0.646344 0.351137
Si Si3 0.166430 0.504182 0.529963
Si Si4 0.642381 0.574826 0.233820
Si Si5 0.907492 0.239401 0.822373
Si Si6 0.154624 0.936837 0.085177
Si Si7 0.615870 0.266322 0.128497
O O1 0.444533 0.819236 0.255588
O O2 0.842819 0.928070 0.162105
O O3 0.340950 0.950641 0.373201
O O4 0.617699 0.933198 0.086702
O O5 0.500000 0.660060 0.500000
O O6 0.937922 0.587053 0.391868
O O7 0.862081 0.604922 0.231014
O O8 0.011800 0.721045 0.264436
O O9 0.453043 0.524665 0.375891
O O10 0.000000 0.471865 0.500000
O O11 0.513323 0.654761 0.242968
O O12 0.692298 0.517276 0.125442
O O13 0.639935 0.258526 0.853515
O O14 0.846956 0.237387 0.963490
O O15 0.174572 0.854553 0.131864
#
# Coordination Sequence:
#
# PCOD9121563 Si02
#       7
#     4   4   4   4   4   4   4
#     4   9  18  34  54  82 109 147 184 230 267 331
#     4   9  20  35  54  80 116 142 182 231 279 331
#     4  11  21  36  53  80 111 147 190 220 273 333
#     4  10  19  35  54  84 111 139 179 239 276 325
#     4   8  16  31  55  79 111 137 186 228 269 318
#     4   9  17  32  57  84 110 134 189 235 272 317
#     4   8  15  32  53  82 104 144 183 223 272 331
#
# _framework density 24.353335000000001
#
# number of rings (size 3 to 8) (size 9 to 14) (size 15 to 20)
#    0.000    2.857    1.429    1.714    2.000    0.000 
#   10.286    0.000    3.143    0.000    0.000    0.000 
#    0.000    0.000    0.000    0.000    0.000    0.000 
#
# Total GULP energy -77997.252522 kJ/mol
# GULP energy per Si atom -5571.232323 kJ/mol
# Density = 2.429791 g / cm^3
# Si number density = 24.353335 Si / 1000 Ang^3
#
#
#
# Elastic Constant Matrix: (Units=GPa)
#
#
# Indices 1 2 3 4 5 6 
#
# 1 62.1144 36.2653 9.5830 0.0000 6.5972 0.0000
# 2 36.2653 173.0806 102.2748 0.0000 23.5626 0.0000
# 3 9.5830 102.2748 118.8654 0.0000 21.5998 0.0000
# 4 0.0000 0.0000 0.0000 41.1993 0.0000 10.9543
# 5 6.5972 23.5626 21.5998 0.0000 30.6233 0.0000
# 6 0.0000 0.0000 0.0000 10.9543 0.0000 13.1130
#
#
#
# Elastic Compliance Matrix: (Units=1/GPa)
#
#
# Indices 1 2 3 4 5 6 
#
# 1 0.019334 -0.006230 0.004229 0.000000 -0.002355 0.000000
# 2 -0.006230 0.013890 -0.011185 0.000000 -0.001457 0.000000
# 3 0.004229 -0.011185 0.018693 0.000000 -0.005490 0.000000
# 4 0.000000 0.000000 0.000000 0.031203 0.000000 -0.026066
# 5 -0.002355 -0.001457 -0.005490 0.000000 0.038156 0.000000
# 6 0.000000 0.000000 0.000000 -0.026066 0.000000 0.098035
#
#
# Mechanical properties :
#
#
# Convention : Reuss Voigt Hill
#
# Bulk Modulus (GPa) = 39.14253 72.25628 55.69941
# Shear Modulus (GPa) = 19.66982 30.71628 25.19305
#
# Velocity S-wave (km/s) = 2.84506 3.55530 3.21982
# Velocity P-wave (km/s) = 5.18654 6.82553 6.06169
#
# Compressibility (1/GPa) = 0.02554766
#
# Stress axis : x y z
#
# Youngs Moduli (GPa) = 51.72221 71.99249 53.49555
#
# Poissons Ratio (x) = 0.44848 -0.22625
# Poissons Ratio (y) = 0.32221 0.59833
# Poissons Ratio (z) = -0.21875 0.80521
#
# Static dielectric constant tensor:
#      x y z
#    x 2.159380 0.000000 -0.021110 
#    y 0.000000 1.962860 0.000000 
#    z -0.021110 0.000000 1.956680 
# 
# From -- ./inp_files/51337.got.cif
#   From: 2010.05.17/outbox.cif.g08.bks.cpg/sg5_26_cif.got.tgz:51337.got - 2010.06.03 18:56:24.
