data_PCOD9121238
_publ_section_title
;
Structure prediction by ZEFSAII (Michael W. Deem and Ramdas Pophale) SiO2 
 PCOD9121238
Probable space group: C 2
;
_chemical_formula_sum "Si O2"
_cell_formula_units_Z 30
_cell_length_a 21.268222
_cell_length_b 9.382926
_cell_length_c 5.603299
_cell_angle_alpha 90.000000
_cell_angle_beta 113.758852
_cell_angle_gamma 90.000000
_cell_volume 1023.417062
_symmetry_space_group_name_H-M "C 2"
_symmetry_group_IT_number 5
_symmetry_cell_setting 'monoclinic'
loop_
_space_group_symop_operation_xyz
x,y,z
-x,y,-z
1/2+x,1/2+y,z
1/2-x,1/2+y,-z
loop_
_atom_site_type_symbol
_atom_site_label
_atom_site_fract_x
_atom_site_fract_y
_atom_site_fract_z
Si Si1 0.424121 0.733770 0.993375
Si Si2 0.836222 0.424693 0.477673
Si Si3 0.846300 0.707947 0.981192
Si Si4 0.705416 0.420523 0.510167
Si Si5 0.000000 0.405368 0.500000
Si Si6 0.928486 0.912808 0.468061
Si Si7 0.434397 0.125813 0.706306
Si Si8 0.713145 0.712282 0.004380
O O1 0.447094 0.802488 0.281380
O O2 0.354730 0.645148 0.971914
O O3 0.500000 0.684664 0.000000
O O4 0.386689 0.836556 0.738186
O O5 0.768942 0.499061 0.487388
O O6 0.877604 0.559506 0.439306
O O7 0.813754 0.314311 0.246313
O O8 0.820471 0.816095 0.735245
O O9 0.897571 0.613576 0.902435
O O10 0.776774 0.631959 0.974681
O O11 0.891166 0.814852 0.213884
O O12 0.636856 0.492774 0.514275
O O13 0.744865 0.317174 0.755541
O O14 0.989798 0.514666 0.705378
O O15 0.953247 0.787764 0.687793
O O16 0.000000 0.985277 0.500000
#
# Coordination Sequence:
#
# PCOD9121238 Si02
#       8
#     4   4   4   4   2   4   4   4
#     4  11  19  29  46  71 102 137 164 204 246 289
#     4  10  19  30  49  66  99 134 169 203 239 288
#     4   9  20  34  47  66  97 141 169 197 242 292
#     4   8  18  33  48  65  89 132 170 205 241 285
#     4  12  22  30  40  76 110 136 164 194 244 304
#     4  10  20  31  47  70 103 130 163 202 245 295
#     4  11  21  30  45  71 104 140 161 198 244 296
#     4   9  17  34  48  64  94 133 173 210 233 288
#
# _framework density 29.313565000000001
#
# number of rings (size 3 to 8) (size 9 to 14) (size 15 to 20)
#    0.000    2.133    3.333    0.000    1.867    3.200 
#    0.000    0.000    0.000    0.000    0.000    0.000 
#   26.000    0.000   22.667    0.000    5.333    0.000 
#
# Total GULP energy -83652.729092 kJ/mol
# GULP energy per Si atom -5576.848606 kJ/mol
# Density = 2.924685 g / cm^3
# Si number density = 29.313565 Si / 1000 Ang^3
#
#
#
# Elastic Constant Matrix: (Units=GPa)
#
#
# Indices 1 2 3 4 5 6 
#
# 1 300.9308 30.9693 48.8423 0.0000 11.7910 0.0000
# 2 30.9693 74.3167 20.0953 0.0000 1.0499 0.0000
# 3 48.8423 20.0953 149.5925 0.0000 31.7414 0.0000
# 4 0.0000 0.0000 0.0000 21.7830 0.0000 -10.0222
# 5 11.7910 1.0499 31.7414 0.0000 51.7435 0.0000
# 6 0.0000 0.0000 0.0000 -10.0222 0.0000 48.7221
#
#
#
# Elastic Compliance Matrix: (Units=1/GPa)
#
#
# Indices 1 2 3 4 5 6 
#
# 1 0.003616 -0.001242 -0.000971 0.000000 -0.000203 0.000000
# 2 -0.001242 0.014434 -0.001761 0.000000 0.001070 0.000000
# 3 -0.000971 -0.001761 0.008259 0.000000 -0.004809 0.000000
# 4 0.000000 0.000000 0.000000 0.050706 0.000000 0.010430
# 5 -0.000203 0.001070 -0.004809 0.000000 0.022301 0.000000
# 6 0.000000 0.000000 0.000000 0.010430 0.000000 0.022670
#
#
# Mechanical properties :
#
#
# Convention : Reuss Voigt Hill
#
# Bulk Modulus (GPa) = 54.45672 80.51709 67.48690
# Shear Modulus (GPa) = 36.75011 52.77860 44.76436
#
# Velocity S-wave (km/s) = 3.54459 4.24781 3.91204
# Velocity P-wave (km/s) = 5.94725 7.18232 6.59377
#
# Compressibility (1/GPa) = 0.01836321
#
# Stress axis : x y z
#
# Youngs Moduli (GPa) = 276.52318 69.27935 121.08318
#
# Poissons Ratio (x) = 0.08602 0.11755
# Poissons Ratio (y) = 0.34334 0.21319
# Poissons Ratio (z) = 0.26845 0.12198
#
# Static dielectric constant tensor:
#      x y z
#    x 2.542800 0.000000 -0.001680 
#    y 0.000000 2.171740 0.000000 
#    z -0.001680 0.000000 2.454730 
# 
# From -- ./inp_files/8550.got.cif
#   From: 2010.05.17/outbox.cif.g08.bks.cpg/sg5_5_cif.got.tgz:8550.got - 2010.06.03 18:56:24.
