data_PCOD9121794
_publ_section_title
;
Structure prediction by ZEFSAII (Michael W. Deem and Ramdas Pophale) SiO2 
 PCOD9121794
Probable space group: C 2
;
_chemical_formula_sum "Si O2"
_cell_formula_units_Z 24
_cell_length_a 5.428282
_cell_length_b 14.241313
_cell_length_c 15.628279
_cell_angle_alpha 90.000000
_cell_angle_beta 122.458540
_cell_angle_gamma 90.000000
_cell_volume 1019.419243
_symmetry_space_group_name_H-M "C 2"
_symmetry_group_IT_number 5
_symmetry_cell_setting 'monoclinic'
loop_
_space_group_symop_operation_xyz
x,y,z
-x,y,-z
1/2+x,1/2+y,z
1/2-x,1/2+y,-z
loop_
_atom_site_type_symbol
_atom_site_label
_atom_site_fract_x
_atom_site_fract_y
_atom_site_fract_z
Si Si1 0.787059 0.327330 0.322966
Si Si2 0.718387 0.797852 0.280323
Si Si3 0.272280 0.024715 0.719075
Si Si4 0.345523 0.102780 0.059092
Si Si5 0.112507 0.535557 0.611895
Si Si6 0.876481 0.806374 0.892478
O O1 0.542793 0.265861 0.322930
O O2 0.876967 0.420925 0.387507
O O3 0.635182 0.356382 0.202293
O O4 0.071554 0.273270 0.343154
O O5 0.748009 0.911286 0.287415
O O6 0.465982 0.775948 0.163913
O O7 0.399160 0.055883 0.651148
O O8 0.952780 0.061903 0.685536
O O9 0.502822 0.052144 0.833616
O O10 0.432345 0.212922 0.081290
O O11 0.500000 0.069173 0.000000
O O12 0.000000 0.091385 0.000000
O O13 0.000000 0.569916 0.500000
O O14 0.000000 0.856418 0.000000
#
# Coordination Sequence:
#
# PCOD9121794 Si02
#       6
#     4   4   4   4   4   4
#     4   8  17  31  49  79 103 135 174 236 272 325
#     4   8  17  31  49  72 107 131 182 223 275 310
#     4  10  20  38  53  87 113 151 186 245 285 334
#     4  11  24  37  55  81 121 164 194 220 281 350
#     4  10  19  36  61  83 109 144 193 243 305 338
#     4   9  20  32  53  76 110 151 188 217 268 342
#
# _framework density 23.542816999999999
#
# number of rings (size 3 to 8) (size 9 to 14) (size 15 to 20)
#    1.000    1.667    0.000    1.500    4.667    0.667 
#    6.000    0.000    0.000    2.000    0.000    0.000 
#    0.000    0.000    0.000    0.000    0.000    0.000 
#
# Total GULP energy -66917.470282 kJ/mol
# GULP energy per Si atom -5576.455857 kJ/mol
# Density = 2.348923 g / cm^3
# Si number density = 23.542817 Si / 1000 Ang^3
#
#
#
# Elastic Constant Matrix: (Units=GPa)
#
#
# Indices 1 2 3 4 5 6 
#
# 1 145.4100 -13.3139 4.1835 0.0000 -7.7318 0.0000
# 2 -13.3139 68.7437 7.7710 0.0000 -1.3833 0.0000
# 3 4.1835 7.7710 60.2275 0.0000 -25.5268 0.0000
# 4 0.0000 0.0000 0.0000 -15.2124 0.0000 -2.0717
# 5 -7.7318 -1.3833 -25.5268 0.0000 32.2797 0.0000
# 6 0.0000 0.0000 0.0000 -2.0717 0.0000 -16.9170
#
#
#
# Elastic Compliance Matrix: (Units=1/GPa)
#
#
# Indices 1 2 3 4 5 6 
#
# 1 0.007100 0.001400 0.000109 0.000000 0.001847 0.000000
# 2 0.001400 0.015075 -0.002446 0.000000 -0.000953 0.000000
# 3 0.000109 -0.002446 0.025388 0.000000 0.019998 0.000000
# 4 0.000000 0.000000 0.000000 -0.066851 0.000000 0.008187
# 5 0.001847 -0.000953 0.019998 0.000000 0.047195 0.000000
# 6 0.000000 0.000000 0.000000 0.008187 0.000000 -0.060115
#
#
# Mechanical properties :
#
#
# Convention : Reuss Voigt Hill
#
# Bulk Modulus (GPa) = 21.88741 30.18471 26.03606
# Shear Modulus (GPa) = -331.06038 18.41279 -156.32380
#
# Velocity S-wave (km/s) = -11.87122 2.79964 -8.15745
# Velocity P-wave (km/s) = 13.36353 4.82697 8.81148
#
# Compressibility (1/GPa) = 0.04568836
#
# Stress axis : x y z
#
# Youngs Moduli (GPa) = 140.83789 66.33368 39.38920
#
# Poissons Ratio (x) = -0.09287 -0.00429
# Poissons Ratio (y) = -0.19717 0.09636
# Poissons Ratio (z) = -0.01534 0.16228
#
# Static dielectric constant tensor:
#      x y z
#    x 2.022770 0.000000 -0.025640 
#    y 0.000000 1.868850 0.000000 
#    z -0.025640 0.000000 1.871360 
# 
# From -- ./inp_files/49497.got.cif
#   From: 2010.05.17/outbox.cif.g08.bks.cpg/sg5_25_cif.got.tgz:49497.got - 2010.06.03 18:56:24.
