data_PCOD9121394
_publ_section_title
;
Structure prediction by ZEFSAII (Michael W. Deem and Ramdas Pophale) SiO2 
 PCOD9121394
Probable space group: C 2
;
_chemical_formula_sum "Si O2"
_cell_formula_units_Z 28
_cell_length_a 9.369289
_cell_length_b 11.977725
_cell_length_c 14.574021
_cell_angle_alpha 90.000000
_cell_angle_beta 48.233100
_cell_angle_gamma 90.000000
_cell_volume 1219.883127
_symmetry_space_group_name_H-M "C 2"
_symmetry_group_IT_number 5
_symmetry_cell_setting 'monoclinic'
loop_
_space_group_symop_operation_xyz
x,y,z
-x,y,-z
1/2+x,1/2+y,z
1/2-x,1/2+y,-z
loop_
_atom_site_type_symbol
_atom_site_label
_atom_site_fract_x
_atom_site_fract_y
_atom_site_fract_z
Si Si1 0.623196 0.261090 0.683635
Si Si2 0.298727 0.424673 0.817439
Si Si3 0.529755 0.565442 0.589148
Si Si4 0.735742 0.679391 0.830528
Si Si5 0.390089 0.916028 0.458028
Si Si6 0.871100 0.257223 0.751645
Si Si7 0.339700 0.623488 0.929843
O O1 0.498491 0.369730 0.764936
O O2 0.460513 0.182557 0.707971
O O3 0.778106 0.307040 0.546336
O O4 0.718505 0.225188 0.737899
O O5 0.359669 0.482905 0.695940
O O6 0.176816 0.312309 0.854885
O O7 0.250874 0.519411 0.911900
O O8 0.500000 0.608974 0.500000
O O9 0.725513 0.498600 0.499672
O O10 0.529221 0.660866 0.665932
O O11 0.570708 0.615585 0.846769
O O12 0.736863 0.638769 0.935161
O O13 0.500000 0.960923 0.500000
O O14 0.535516 0.873736 0.317700
O O15 0.800539 0.232832 0.883609
#
# Coordination Sequence:
#
# PCOD9121394 Si02
#       7
#     4   4   4   4   4   4   4
#     4   8  17  37  56  78 115 151 182 250 286 344
#     4   8  19  38  58  81 121 145 197 250 282 355
#     4  10  19  33  57  83 114 151 184 243 296 346
#     4   9  20  39  60  82 120 152 201 244 298 345
#     4   9  18  34  56  78 115 151 187 231 291 350
#     4  10  20  35  57  84 115 150 194 237 298 356
#     4  10  20  38  61  86 114 159 193 249 300 348
#
# _framework density 22.953018
#
# number of rings (size 3 to 8) (size 9 to 14) (size 15 to 20)
#    0.857    2.000    0.000    1.286    2.000    0.571 
#    5.143   17.857    0.000    0.000    0.000    0.000 
#    0.000    0.000    0.000    0.000    0.000    0.000 
#
# Total GULP energy -77954.992672 kJ/mol
# GULP energy per Si atom -5568.213762 kJ/mol
# Density = 2.290078 g / cm^3
# Si number density = 22.953018 Si / 1000 Ang^3
#
#
#
# Elastic Constant Matrix: (Units=GPa)
#
#
# Indices 1 2 3 4 5 6 
#
# 1 47.9330 -3.3576 3.5367 0.0000 -2.6901 0.0000
# 2 -3.3576 51.1936 -4.7368 0.0000 1.0441 0.0000
# 3 3.5367 -4.7368 34.8516 0.0000 17.1977 0.0000
# 4 0.0000 0.0000 0.0000 23.4519 0.0000 1.0258
# 5 -2.6901 1.0441 17.1977 0.0000 27.9640 0.0000
# 6 0.0000 0.0000 0.0000 1.0258 0.0000 23.0632
#
#
#
# Elastic Compliance Matrix: (Units=1/GPa)
#
#
# Indices 1 2 3 4 5 6 
#
# 1 0.021517 0.000907 -0.004400 0.000000 0.004742 0.000000
# 2 0.000907 0.020053 0.004249 0.000000 -0.003275 0.000000
# 3 -0.004400 0.004249 0.043077 0.000000 -0.027074 0.000000
# 4 0.000000 0.000000 0.000000 0.042724 0.000000 -0.001900
# 5 0.004742 -0.003275 -0.027074 0.000000 0.052989 0.000000
# 6 0.000000 0.000000 0.000000 -0.001900 0.000000 0.043444
#
#
# Mechanical properties :
#
#
# Convention : Reuss Voigt Hill
#
# Bulk Modulus (GPa) = 11.60629 13.87364 12.73996
# Shear Modulus (GPa) = 19.91949 24.13155 22.02552
#
# Velocity S-wave (km/s) = 2.94910 3.24596 3.10109
# Velocity P-wave (km/s) = 4.08213 4.48396 4.28775
#
# Compressibility (1/GPa) = 0.08616021
#
# Stress axis : x y z
#
# Youngs Moduli (GPa) = 46.47531 49.86739 23.21420
#
# Poissons Ratio (x) = -0.04525 0.10215
# Poissons Ratio (y) = -0.04217 -0.09865
# Poissons Ratio (z) = 0.20450 -0.21190
#
# Static dielectric constant tensor:
#      x y z
#    x 1.850990 0.000000 -0.034370 
#    y 0.000000 1.915370 0.000000 
#    z -0.034370 0.000000 1.897640 
# 
# From -- ./inp_files/50691.got.cif
#   From: 2010.05.17/outbox.cif.g08.bks.cpg/sg5_26_cif.got.tgz:50691.got - 2010.06.03 18:56:24.
