data_PCOD9121260
_publ_section_title
;
Structure prediction by ZEFSAII (Michael W. Deem and Ramdas Pophale) SiO2 
 PCOD9121260
Probable space group: C 2
;
_chemical_formula_sum "Si O2"
_cell_formula_units_Z 32
_cell_length_a 11.587575
_cell_length_b 22.707588
_cell_length_c 8.469390
_cell_angle_alpha 90.000000
_cell_angle_beta 141.248781
_cell_angle_gamma 90.000000
_cell_volume 1394.917254
_symmetry_space_group_name_H-M "C 2"
_symmetry_group_IT_number 5
_symmetry_cell_setting 'monoclinic'
loop_
_space_group_symop_operation_xyz
x,y,z
-x,y,-z
1/2+x,1/2+y,z
1/2-x,1/2+y,-z
loop_
_atom_site_type_symbol
_atom_site_label
_atom_site_fract_x
_atom_site_fract_y
_atom_site_fract_z
Si Si1 0.545731 0.169180 0.736355
Si Si2 0.961856 0.920789 0.273410
Si Si3 0.546956 0.294830 0.737999
Si Si4 0.521498 0.544025 0.834519
Si Si5 0.459180 0.042759 0.270351
Si Si6 0.019883 0.295621 0.708205
Si Si7 0.475178 0.919348 0.159841
Si Si8 0.983679 0.171626 0.171926
O O1 0.500000 0.168722 0.500000
O O2 0.479087 0.231961 0.730678
O O3 0.476867 0.106408 0.725716
O O4 0.767105 0.170301 0.984001
O O5 0.000000 0.921297 0.500000
O O6 0.024619 0.857317 0.274204
O O7 0.259708 0.920586 0.980021
O O8 0.045843 0.980553 0.295396
O O9 0.500000 0.294703 0.500000
O O10 0.767708 0.295345 0.002302
O O11 0.443639 0.607405 0.695270
O O12 0.500000 0.544362 0.000000
O O13 0.737625 0.543668 0.019445
O O14 0.500000 0.040826 0.500000
O O15 0.541349 0.983711 0.284677
O O16 0.944132 0.358745 0.685148
O O17 0.939405 0.233716 0.685304
O O18 0.000000 0.294508 0.500000
O O19 0.500000 0.915480 0.000000
O O20 0.000000 0.172918 0.000000
#
# Coordination Sequence:
#
# PCOD9121260 Si02
#       8
#     4   4   4   4   4   4   4   4
#     4   8  14  27  50  70  89 124 165 201 240 291
#     4   9  18  32  49  70  95 127 168 207 246 293
#     4   8  15  30  51  71  94 129 167 200 243 300
#     4   9  18  31  48  71  99 129 164 202 245 297
#     4   9  17  30  49  72  96 124 163 208 251 292
#     4  10  19  31  50  77 103 128 162 210 257 296
#     4  10  20  33  49  71  99 132 167 206 250 300
#     4   9  17  30  48  72  98 127 163 202 246 301
#
# _framework density 22.940428000000001
#
# number of rings (size 3 to 8) (size 9 to 14) (size 15 to 20)
#    0.000    3.000    0.000    0.750    0.000    1.500 
#    0.000    0.000    0.000    0.750    0.000    7.000 
#    0.000    0.000    0.000    0.000    0.000    0.000 
#
# Total GULP energy -89139.123639 kJ/mol
# GULP energy per Si atom -5571.195227 kJ/mol
# Density = 2.288821 g / cm^3
# Si number density = 22.940428 Si / 1000 Ang^3
#
#
#
# Elastic Constant Matrix: (Units=GPa)
#
#
# Indices 1 2 3 4 5 6 
#
# 1 57.2585 48.7956 21.3228 0.0000 18.9942 0.0000
# 2 48.7956 356.7924 26.3401 0.0000 -23.5146 0.0000
# 3 21.3228 26.3401 42.5313 0.0000 15.9043 0.0000
# 4 0.0000 0.0000 0.0000 18.1396 0.0000 -24.6432
# 5 18.9942 -23.5146 15.9043 0.0000 43.3125 0.0000
# 6 0.0000 0.0000 0.0000 -24.6432 0.0000 62.8954
#
#
#
# Elastic Compliance Matrix: (Units=1/GPa)
#
#
# Indices 1 2 3 4 5 6 
#
# 1 0.027267 -0.003987 -0.006862 0.000000 -0.011602 0.000000
# 2 -0.003987 0.003802 -0.002065 0.000000 0.004571 0.000000
# 3 -0.006862 -0.002065 0.031906 0.000000 -0.009827 0.000000
# 4 0.000000 0.000000 0.000000 0.117868 0.000000 0.046182
# 5 -0.011602 0.004571 -0.009827 0.000000 0.034266 0.000000
# 6 0.000000 0.000000 0.000000 0.046182 0.000000 0.033994
#
#
# Mechanical properties :
#
#
# Convention : Reuss Voigt Hill
#
# Bulk Modulus (GPa) = 26.92041 72.16660 49.54351
# Shear Modulus (GPa) = 17.40265 48.87774 33.14019
#
# Velocity S-wave (km/s) = 2.75726 4.62089 3.80494
# Velocity P-wave (km/s) = 4.67943 7.74576 6.39898
#
# Compressibility (1/GPa) = 0.03714654
#
# Stress axis : x y z
#
# Youngs Moduli (GPa) = 36.67474 263.04125 31.34213
#
# Poissons Ratio (x) = 1.04878 0.21507
# Poissons Ratio (y) = 0.14623 0.06471
# Poissons Ratio (z) = 0.25167 0.54309
#
# Static dielectric constant tensor:
#      x y z
#    x 1.783830 0.000000 0.036320 
#    y 0.000000 1.975930 0.000000 
#    z 0.036320 0.000000 1.807810 
# 
# From -- ./inp_files/25450.got.cif
#   From: 2010.05.17/outbox.cif.g08.bks.cpg/sg5_13_cif.got.tgz:25450.got - 2010.06.03 18:56:24.
