data_PCOD9121002
_publ_section_title
;
Structure prediction by ZEFSAII (Michael W. Deem and Ramdas Pophale) SiO2 
 PCOD9121002
Probable space group: C 2
;
_chemical_formula_sum "Si O2"
_cell_formula_units_Z 24
_cell_length_a 16.735615
_cell_length_b 9.909857
_cell_length_c 16.532970
_cell_angle_alpha 90.000000
_cell_angle_beta 25.488694
_cell_angle_gamma 90.000000
_cell_volume 1179.952641
_symmetry_space_group_name_H-M "C 2"
_symmetry_group_IT_number 5
_symmetry_cell_setting 'monoclinic'
loop_
_space_group_symop_operation_xyz
x,y,z
-x,y,-z
1/2+x,1/2+y,z
1/2-x,1/2+y,-z
loop_
_atom_site_type_symbol
_atom_site_label
_atom_site_fract_x
_atom_site_fract_y
_atom_site_fract_z
Si Si1 0.802234 0.900380 0.210518
Si Si2 0.977887 0.887862 0.216310
Si Si3 0.393906 0.888835 0.761077
Si Si4 0.537471 0.195288 0.620550
Si Si5 0.048933 0.184703 0.748287
Si Si6 0.672828 0.704493 0.884174
O O1 0.639490 0.846209 0.301898
O O2 0.821340 0.882788 0.288814
O O3 0.807881 0.060386 0.180568
O O4 0.000000 0.842333 0.000000
O O5 0.969888 0.766941 0.285982
O O6 0.183168 0.892458 0.989219
O O7 0.950423 0.031749 0.284607
O O8 0.503275 0.788949 0.719524
O O9 0.482301 0.037993 0.680263
O O10 0.748133 0.211326 0.400010
O O11 0.380753 0.257535 0.704940
O O12 0.900124 0.187915 0.956881
O O13 0.500000 0.779188 0.000000
#
# Coordination Sequence:
#
# PCOD9121002 Si02
#       6
#     4   4   4   4   4   4
#     4   8  15  32  61  83 106 151 192 235 277 338
#     4  11  18  38  63  84 117 154 196 242 281 348
#     4  10  19  38  58  85 118 154 192 239 296 340
#     4  11  23  35  58  91 117 153 194 239 294 344
#     4  12  21  35  61  88 118 151 195 245 287 343
#     4  10  18  38  56  84 115 147 194 240 284 336
#
# _framework density 20.339798999999999
#
# number of rings (size 3 to 8) (size 9 to 14) (size 15 to 20)
#    0.000    1.667    8.333    1.000    0.000    0.667 
#    0.000    2.500    3.667    0.000    0.000    0.000 
#    0.000    0.000    0.000    0.000    0.000    0.000 
#
# Total GULP energy -66879.934767 kJ/mol
# GULP energy per Si atom -5573.327897 kJ/mol
# Density = 2.029351 g / cm^3
# Si number density = 20.339799 Si / 1000 Ang^3
#
#
#
# Elastic Constant Matrix: (Units=GPa)
#
#
# Indices 1 2 3 4 5 6 
#
# 1 158.7424 54.2944 27.9853 -0.0002 -28.7487 0.0001
# 2 54.2944 49.7908 3.1876 -0.0003 -4.4606 0.0003
# 3 27.9853 3.1876 79.2896 -0.0002 -24.3991 0.0002
# 4 -0.0002 -0.0003 -0.0002 18.4797 0.0002 -1.6399
# 5 -28.7487 -4.4606 -24.3991 0.0002 42.2628 -0.0001
# 6 0.0001 0.0003 0.0002 -1.6399 -0.0001 35.3562
#
#
#
# Elastic Compliance Matrix: (Units=1/GPa)
#
#
# Indices 1 2 3 4 5 6 
#
# 1 0.011885 -0.012329 -0.001960 0.000000 0.005652 0.000000
# 2 -0.012329 0.033066 0.001843 0.000001 -0.003833 0.000000
# 3 -0.001960 0.001843 0.015662 0.000000 0.007903 0.000000
# 4 0.000000 0.000001 0.000000 0.054337 0.000000 0.002520
# 5 0.005652 -0.003833 0.007903 0.000000 0.031664 0.000000
# 6 0.000000 0.000000 0.000000 0.002520 0.000000 0.028400
#
#
# Mechanical properties :
#
#
# Convention : Reuss Voigt Hill
#
# Bulk Modulus (GPa) = 27.99431 50.97303 39.48367
# Shear Modulus (GPa) = 23.60557 32.71011 28.15784
#
# Velocity S-wave (km/s) = 3.41040 4.01457 3.72475
# Velocity P-wave (km/s) = 5.41303 6.82672 6.16056
#
# Compressibility (1/GPa) = 0.03572154
#
# Stress axis : x y z
#
# Youngs Moduli (GPa) = 84.13692 30.24216 63.85032
#
# Poissons Ratio (x) = 0.37284 0.12515
# Poissons Ratio (y) = 1.03729 -0.11766
# Poissons Ratio (z) = 0.16491 -0.05573
#
# Static dielectric constant tensor:
#      x y z
#    x 1.777940 0.000000 -0.022950 
#    y 0.000000 1.680850 0.000000 
#    z -0.022950 0.000000 1.816220 
# 
# From -- ./inp_files/54535.got.cif
#   From: 2010.05.17/outbox.cif.g08.bks.cpg/sg5_28_cif.got.tgz:54535.got - 2010.06.03 18:56:24.
