data_PCOD9121484
_publ_section_title
;
Structure prediction by ZEFSAII (Michael W. Deem and Ramdas Pophale) SiO2 
 PCOD9121484
Probable space group: C 2
;
_chemical_formula_sum "Si O2"
_cell_formula_units_Z 28
_cell_length_a 12.684193
_cell_length_b 8.367998
_cell_length_c 13.534621
_cell_angle_alpha 90.000000
_cell_angle_beta 125.804554
_cell_angle_gamma 90.000000
_cell_volume 1165.093123
_symmetry_space_group_name_H-M "C 2"
_symmetry_group_IT_number 5
_symmetry_cell_setting 'monoclinic'
loop_
_space_group_symop_operation_xyz
x,y,z
-x,y,-z
1/2+x,1/2+y,z
1/2-x,1/2+y,-z
loop_
_atom_site_type_symbol
_atom_site_label
_atom_site_fract_x
_atom_site_fract_y
_atom_site_fract_z
Si Si1 0.211132 0.619450 0.767508
Si Si2 0.344101 0.770391 0.680208
Si Si3 0.132429 0.195445 0.817912
Si Si4 0.687897 0.271319 0.241119
Si Si5 0.774658 0.479598 0.017146
Si Si6 0.240495 0.930428 0.451568
Si Si7 0.500000 0.078813 0.000000
Si Si8 0.500000 0.032393 0.500000
O O1 0.301233 0.755621 0.770005
O O2 0.285898 0.455221 0.777033
O O3 0.196342 0.600433 0.875309
O O4 0.079351 0.624271 0.629633
O O5 0.497350 0.786866 0.753332
O O6 0.254537 0.895181 0.573954
O O7 0.316924 0.601835 0.608542
O O8 0.184065 0.184648 0.734769
O O9 0.232322 0.310568 0.931680
O O10 0.145502 0.032823 0.886749
O O11 0.673246 0.290539 0.350518
O O12 0.571261 0.187387 0.121102
O O13 0.890232 0.483286 0.000429
O O14 0.388844 0.931800 0.492804
#
# Coordination Sequence:
#
# PCOD9121484 Si02
#       8
#     4   4   4   4   4   4   2   2
#     4   9  19  34  55  80 109 150 187 227 277 337
#     4  10  21  35  58  87 114 147 190 232 280 333
#     4  10  21  39  58  84 115 149 188 232 280 336
#     4   8  18  34  55  78 109 151 189 220 278 347
#     4  10  22  38  58  81 113 150 188 233 282 333
#     4  10  19  34  57  82 109 150 193 234 276 331
#     4  10  20  34  56  86 112 146 190 236 284 330
#     4   8  16  34  54  74 106 152 192 214 270 346
#
# _framework density 24.032415
#
# number of rings (size 3 to 8) (size 9 to 14) (size 15 to 20)
#    0.000    2.857    0.000    2.571    0.000   12.000 
#    0.000    1.429    0.000   17.143    0.000    0.000 
#    0.000    0.000    0.000    0.000    0.000    0.000 
#
# Total GULP energy -78080.657572 kJ/mol
# GULP energy per Si atom -5577.189827 kJ/mol
# Density = 2.397772 g / cm^3
# Si number density = 24.032415 Si / 1000 Ang^3
#
#
#
# Elastic Constant Matrix: (Units=GPa)
#
#
# Indices 1 2 3 4 5 6 
#
# 1 45.3582 -9.0073 11.9760 0.0000 -17.5906 0.0000
# 2 -9.0073 30.1108 10.5521 0.0000 -10.8571 0.0000
# 3 11.9760 10.5521 67.0814 0.0000 -10.2802 0.0000
# 4 0.0000 0.0000 0.0000 46.5183 0.0000 -6.8968
# 5 -17.5906 -10.8571 -10.2802 0.0000 31.6043 0.0000
# 6 0.0000 0.0000 0.0000 -6.8968 0.0000 14.0300
#
#
#
# Elastic Compliance Matrix: (Units=1/GPa)
#
#
# Indices 1 2 3 4 5 6 
#
# 1 0.039556 0.024312 -0.006559 0.000000 0.028235 0.000000
# 2 0.024312 0.053993 -0.008333 0.000000 0.029370 0.000000
# 3 -0.006559 -0.008333 0.017251 0.000000 -0.000902 0.000000
# 4 0.000000 0.000000 0.000000 0.023187 0.000000 0.011398
# 5 0.028235 0.029370 -0.000902 0.000000 0.057152 0.000000
# 6 0.000000 0.000000 0.000000 0.011398 0.000000 0.076879
#
#
# Mechanical properties :
#
#
# Convention : Reuss Voigt Hill
#
# Bulk Modulus (GPa) = 7.71365 18.84355 13.27860
# Shear Modulus (GPa) = 17.10034 27.03249 22.06642
#
# Velocity S-wave (km/s) = 2.67039 3.35749 3.03346
# Velocity P-wave (km/s) = 3.56716 4.78417 4.21977
#
# Compressibility (1/GPa) = 0.12964031
#
# Stress axis : x y z
#
# Youngs Moduli (GPa) = 25.28040 18.52085 57.96825
#
# Poissons Ratio (x) = -0.45028 0.38023
# Poissons Ratio (y) = -0.61462 0.48304
# Poissons Ratio (z) = 0.16582 0.15433
#
# Static dielectric constant tensor:
#      x y z
#    x 1.912710 0.000000 -0.015520 
#    y 0.000000 1.979510 0.000000 
#    z -0.015520 0.000000 1.978810 
# 
# From -- ./inp_files/41917.got.cif
#   From: 2010.05.17/outbox.cif.g08.bks.cpg/sg5_21_cif.got.tgz:41917.got - 2010.06.03 18:56:24.
