data_PCOD9121364
_publ_section_title
;
Structure prediction by ZEFSAII (Michael W. Deem and Ramdas Pophale) SiO2 
 PCOD9121364
Probable space group: C 2
;
_chemical_formula_sum "Si O2"
_cell_formula_units_Z 24
_cell_length_a 15.773309
_cell_length_b 19.495186
_cell_length_c 9.193572
_cell_angle_alpha 90.000000
_cell_angle_beta 28.126505
_cell_angle_gamma 90.000000
_cell_volume 1332.730662
_symmetry_space_group_name_H-M "C 2"
_symmetry_group_IT_number 5
_symmetry_cell_setting 'monoclinic'
loop_
_space_group_symop_operation_xyz
x,y,z
-x,y,-z
1/2+x,1/2+y,z
1/2-x,1/2+y,-z
loop_
_atom_site_type_symbol
_atom_site_label
_atom_site_fract_x
_atom_site_fract_y
_atom_site_fract_z
Si Si1 0.689396 0.295960 0.631113
Si Si2 0.965291 0.546254 0.383369
Si Si3 0.470351 0.886677 0.377873
Si Si4 0.166229 0.043399 0.357149
Si Si5 0.799784 0.399847 0.230847
Si Si6 0.308767 0.137143 0.376825
O O1 0.833143 0.333508 0.516079
O O2 0.700409 0.339941 0.466855
O O3 0.733961 0.216664 0.534870
O O4 0.500000 0.299371 0.000000
O O5 0.905707 0.466266 0.465163
O O6 0.835381 0.595231 0.486339
O O7 0.000000 0.563647 0.500000
O O8 0.155379 0.550141 0.011806
O O9 0.500000 0.871413 0.500000
O O10 0.652529 0.882937 0.007665
O O11 0.170712 0.100364 0.476216
O O12 0.000000 0.046257 0.500000
O O13 0.188936 0.969889 0.401158
O O14 0.000000 0.410628 0.000000
O O15 0.500000 0.134001 0.000000
#
# Coordination Sequence:
#
# PCOD9121364 Si02
#       6
#     4   4   4   4   4   4
#     4  10  20  33  52  76 103 137 172 207 249 302
#     4   9  18  36  57  75  98 133 172 209 257 305
#     4   9  18  34  55  75  99 134 170 210 257 304
#     4  10  19  33  55  79 101 130 171 214 252 298
#     4   9  18  35  54  73 102 138 170 206 258 308
#     4   9  18  35  53  72 105 140 166 202 257 309
#
# _framework density 18.008140999999998
#
# number of rings (size 3 to 8) (size 9 to 14) (size 15 to 20)
#    0.000    2.667    0.000    3.500    0.000    4.667 
#    0.000   11.667    0.000    0.000    0.000    0.000 
#    0.000    0.000    0.000    0.000    0.000    0.000 
#
# Total GULP energy -66889.622040 kJ/mol
# GULP energy per Si atom -5574.135170 kJ/mol
# Density = 1.796715 g / cm^3
# Si number density = 18.008141 Si / 1000 Ang^3
#
#
#
# Elastic Constant Matrix: (Units=GPa)
#
#
# Indices 1 2 3 4 5 6 
#
# 1 116.2075 86.0609 26.7204 -0.0071 19.2824 0.0074
# 2 86.0609 154.2770 43.4082 -0.0168 8.2267 0.0131
# 3 26.7204 43.4082 23.0973 -0.0201 8.2997 0.0195
# 4 -0.0071 -0.0168 -0.0201 22.1934 0.0091 1.4575
# 5 19.2824 8.2267 8.2997 0.0091 37.4104 -0.0082
# 6 0.0074 0.0131 0.0195 1.4575 -0.0082 4.9643
#
#
#
# Elastic Compliance Matrix: (Units=1/GPa)
#
#
# Indices 1 2 3 4 5 6 
#
# 1 0.016036 -0.008550 -0.000206 0.000002 -0.006340 -0.000011
# 2 -0.008550 0.018619 -0.027398 -0.000022 0.006391 0.000088
# 3 -0.000206 -0.027398 0.100862 0.000102 -0.016246 -0.000380
# 4 0.000002 -0.000022 0.000102 0.045944 -0.000033 -0.013490
# 5 -0.006340 0.006391 -0.016246 -0.000033 0.032197 0.000119
# 6 -0.000011 0.000088 -0.000380 -0.013490 0.000119 0.205402
#
#
# Mechanical properties :
#
#
# Convention : Reuss Voigt Hill
#
# Bulk Modulus (GPa) = 15.82015 67.32901 41.57458
# Shear Modulus (GPa) = 9.75730 22.07311 15.91521
#
# Velocity S-wave (km/s) = 2.33024 3.50484 2.97607
# Velocity P-wave (km/s) = 4.00551 7.33811 5.91151
#
# Compressibility (1/GPa) = 0.06321052
#
# Stress axis : x y z
#
# Youngs Moduli (GPa) = 62.35876 53.70832 9.91457
#
# Poissons Ratio (x) = 0.45918 0.00204
# Poissons Ratio (y) = 0.53314 0.27164
# Poissons Ratio (z) = 0.01284 1.47149
#
# Static dielectric constant tensor:
#      x y z
#    x 1.623750 0.000000 0.010130 
#    y 0.000000 1.616680 0.000000 
#    z 0.010130 0.000000 1.630060 
# 
# From -- ./inp_files/15693.got.cif
#   From: 2010.05.17/outbox.cif.g08.bks.cpg/sg5_8_cif.got.tgz:15693.got - 2010.06.03 18:56:24.
