data_PCOD9121965
_publ_section_title
;
Structure prediction by ZEFSAII (Michael W. Deem and Ramdas Pophale) SiO2 
 PCOD9121965
Probable space group: C 2
;
_chemical_formula_sum "Si O2"
_cell_formula_units_Z 32
_cell_length_a 7.164803
_cell_length_b 16.392782
_cell_length_c 11.219413
_cell_angle_alpha 90.000000
_cell_angle_beta 94.604906
_cell_angle_gamma 90.000000
_cell_volume 1313.478250
_symmetry_space_group_name_H-M "C 2"
_symmetry_group_IT_number 5
_symmetry_cell_setting 'monoclinic'
loop_
_space_group_symop_operation_xyz
x,y,z
-x,y,-z
1/2+x,1/2+y,z
1/2-x,1/2+y,-z
loop_
_atom_site_type_symbol
_atom_site_label
_atom_site_fract_x
_atom_site_fract_y
_atom_site_fract_z
Si Si1 0.130668 0.375000 0.411963
Si Si2 0.276713 0.198872 0.479193
Si Si3 0.823612 0.323249 0.202713
Si Si4 0.225022 0.152272 0.742263
Si Si5 0.220623 0.975478 0.761225
Si Si6 0.681609 0.154903 0.781898
Si Si7 0.923317 0.820255 0.129334
Si Si8 0.607127 0.994502 0.884290
O O1 0.217660 0.293100 0.469456
O O2 0.293919 0.430078 0.365294
O O3 0.000000 0.420482 0.500000
O O4 0.982392 0.342756 0.306242
O O5 0.500000 0.192890 0.500000
O O6 0.193154 0.165548 0.598849
O O7 0.237861 0.158088 0.348104
O O8 0.849029 0.226840 0.180632
O O9 0.603824 0.323575 0.227355
O O10 0.825101 0.400397 0.112577
O O11 0.141666 0.064867 0.772011
O O12 0.451802 0.152781 0.769320
O O13 0.443369 0.990255 0.778099
O O14 0.168233 0.908439 0.856111
O O15 0.709185 0.244489 0.842717
O O16 0.733429 0.071762 0.854753
O O17 0.000000 0.806757 0.000000
O O18 0.500000 0.014279 0.000000
#
# Coordination Sequence:
#
# PCOD9121965 Si02
#       8
#     4   4   4   4   4   4   4   4
#     4  11  21  36  63  86 122 159 195 245 313 358
#     4  10  19  37  63  87 119 158 201 243 301 370
#     4  10  22  38  58  86 120 156 198 250 296 357
#     4   9  19  37  58  82 122 156 190 245 299 354
#     4  10  22  37  59  87 118 159 206 246 292 364
#     4   9  19  35  61  87 113 152 204 243 292 361
#     4  11  21  39  62  88 118 162 205 254 295 344
#     4  10  20  38  58  86 118 156 200 254 300 350
#
# _framework density 24.362793
#
# number of rings (size 3 to 8) (size 9 to 14) (size 15 to 20)
#    0.000    2.000    2.500    1.125    0.000    3.500 
#    2.250    0.625    5.500    0.000    0.000    0.000 
#    0.000    0.000    0.000    0.000    0.000    0.000 
#
# Total GULP energy -89161.935102 kJ/mol
# GULP energy per Si atom -5572.620944 kJ/mol
# Density = 2.430734 g / cm^3
# Si number density = 24.362793 Si / 1000 Ang^3
#
#
#
# Elastic Constant Matrix: (Units=GPa)
#
#
# Indices 1 2 3 4 5 6 
#
# 1 56.8189 23.7098 5.2751 0.0000 -15.4697 0.0000
# 2 23.7098 227.1171 62.5430 0.0000 -20.3422 0.0000
# 3 5.2751 62.5430 79.0405 0.0000 -24.3251 0.0000
# 4 0.0000 0.0000 0.0000 7.3254 0.0000 -11.9278
# 5 -15.4697 -20.3422 -24.3251 0.0000 28.1036 0.0000
# 6 0.0000 0.0000 0.0000 -11.9278 0.0000 20.7729
#
#
#
# Elastic Compliance Matrix: (Units=1/GPa)
#
#
# Indices 1 2 3 4 5 6 
#
# 1 0.022135 -0.002344 0.004914 0.000000 0.014741 0.000000
# 2 -0.002344 0.005880 -0.004884 0.000000 -0.001262 0.000000
# 3 0.004914 -0.004884 0.021718 0.000000 0.017968 0.000000
# 4 0.000000 0.000000 0.000000 2.099043 0.000000 1.205277
# 5 0.014741 -0.001262 0.017968 0.000000 0.058335 0.000000
# 6 0.000000 0.000000 0.000000 1.205277 0.000000 0.740214
#
#
# Mechanical properties :
#
#
# Convention : Reuss Voigt Hill
#
# Bulk Modulus (GPa) = 22.17066 60.67025 41.42046
# Shear Modulus (GPa) = 1.68521 29.33695 15.51108
#
# Velocity S-wave (km/s) = 0.83260 3.47388 2.52597
# Velocity P-wave (km/s) = 3.16927 6.40682 5.05429
#
# Compressibility (1/GPa) = 0.04510465
#
# Stress axis : x y z
#
# Youngs Moduli (GPa) = 45.17735 170.07621 46.04392
#
# Poissons Ratio (x) = 0.39859 -0.22625
# Poissons Ratio (y) = 0.10588 0.22490
# Poissons Ratio (z) = -0.22199 0.83072
#
# Static dielectric constant tensor:
#      x y z
#    x 2.020660 0.000000 0.065730 
#    y 0.000000 2.048710 0.000000 
#    z 0.065730 0.000000 2.043810 
# 
# From -- ./inp_files/36418.got.cif
#   From: 2010.05.17/outbox.cif.g08.bks.cpg/sg5_19_cif.got.tgz:36418.got - 2010.06.03 18:56:24.
