data_PCOD9121854
_publ_section_title
;
Structure prediction by ZEFSAII (Michael W. Deem and Ramdas Pophale) SiO2 
 PCOD9121854
Probable space group: C 2
;
_chemical_formula_sum "Si O2"
_cell_formula_units_Z 24
_cell_length_a 17.913811
_cell_length_b 5.258958
_cell_length_c 11.065305
_cell_angle_alpha 90.000000
_cell_angle_beta 117.543102
_cell_angle_gamma 90.000000
_cell_volume 924.293234
_symmetry_space_group_name_H-M "C 2"
_symmetry_group_IT_number 5
_symmetry_cell_setting 'monoclinic'
loop_
_space_group_symop_operation_xyz
x,y,z
-x,y,-z
1/2+x,1/2+y,z
1/2-x,1/2+y,-z
loop_
_atom_site_type_symbol
_atom_site_label
_atom_site_fract_x
_atom_site_fract_y
_atom_site_fract_z
Si Si1 0.473213 0.125000 0.115094
Si Si2 0.855166 0.766476 0.759108
Si Si3 0.360150 0.762555 0.930133
Si Si4 0.676132 0.242147 0.831629
Si Si5 0.672377 0.931642 0.593365
Si Si6 0.596843 0.438828 0.549172
O O1 0.557424 0.208194 0.246028
O O2 0.390120 0.241279 0.110761
O O3 0.500000 0.202797 0.000000
O O4 0.441924 0.833450 0.071115
O O5 0.845763 0.505855 0.830310
O O6 0.764928 0.830008 0.633830
O O7 0.866828 0.017463 0.851520
O O8 0.273437 0.752452 0.940267
O O9 0.645098 0.456835 0.714815
O O10 0.666982 0.999858 0.733686
O O11 0.607834 0.716272 0.502072
O O12 0.647710 0.208772 0.526837
O O13 0.500000 0.371541 0.500000
#
# Coordination Sequence:
#
# PCOD9121854 Si02
#       6
#     4   4   4   4   4   4
#     4  10  23  38  55  86 119 163 194 234 281 348
#     4  10  19  40  56  82 117 156 193 238 290 337
#     4  10  21  39  55  80 114 159 199 239 277 336
#     4   9  21  39  58  89 119 153 200 240 289 339
#     4   9  18  36  60  85 114 150 186 246 294 341
#     4  10  19  36  64  91 113 144 198 249 297 342
#
# _framework density 25.965788
#
# number of rings (size 3 to 8) (size 9 to 14) (size 15 to 20)
#    1.000    1.333    1.667    0.500    0.000   11.333 
#   12.000    0.000    0.000    2.000    0.000    0.000 
#    0.000    0.000    0.000    0.000    0.000    0.000 
#
# Total GULP energy -66902.775594 kJ/mol
# GULP energy per Si atom -5575.231300 kJ/mol
# Density = 2.590669 g / cm^3
# Si number density = 25.965788 Si / 1000 Ang^3
#
#
#
# Elastic Constant Matrix: (Units=GPa)
#
#
# Indices 1 2 3 4 5 6 
#
# 1 194.6148 40.4935 37.5411 0.0000 37.7267 0.0000
# 2 40.4935 165.0675 12.6290 0.0000 4.4353 0.0000
# 3 37.5411 12.6290 75.8671 0.0000 13.4702 0.0000
# 4 0.0000 0.0000 0.0000 11.4317 0.0000 18.8756
# 5 37.7267 4.4353 13.4702 0.0000 37.0200 0.0000
# 6 0.0000 0.0000 0.0000 18.8756 0.0000 32.7070
#
#
#
# Elastic Compliance Matrix: (Units=1/GPa)
#
#
# Indices 1 2 3 4 5 6 
#
# 1 0.007053 -0.001398 -0.002150 0.000000 -0.006238 0.000000
# 2 -0.001398 0.006419 -0.000527 0.000000 0.000848 0.000000
# 3 -0.002150 -0.000527 0.014895 0.000000 -0.003166 0.000000
# 4 0.000000 0.000000 0.000000 1.857390 0.000000 -1.071920
# 5 -0.006238 0.000848 -0.003166 0.000000 0.034420 0.000000
# 6 0.000000 0.000000 0.000000 -1.071920 0.000000 0.649191
#
#
# Mechanical properties :
#
#
# Convention : Reuss Voigt Hill
#
# Bulk Modulus (GPa) = 49.46516 68.54186 59.00351
# Shear Modulus (GPa) = 1.93479 39.22413 20.57946
#
# Velocity S-wave (km/s) = 0.86415 3.89087 2.81830
# Velocity P-wave (km/s) = 4.48187 6.82931 5.77610
#
# Compressibility (1/GPa) = 0.02021625
#
# Stress axis : x y z
#
# Youngs Moduli (GPa) = 141.77853 155.79548 67.13878
#
# Poissons Ratio (x) = 0.21783 0.14434
# Poissons Ratio (y) = 0.19823 0.03539
# Poissons Ratio (z) = 0.30480 0.08212
#
# Static dielectric constant tensor:
#      x y z
#    x 2.048110 0.000000 -0.015090 
#    y 0.000000 2.132830 0.000000 
#    z -0.015090 0.000000 2.252690 
# 
# From -- ./inp_files/56430.got.cif
#   From: 2010.05.17/outbox.cif.g08.bks.cpg/sg5_29_cif.got.tgz:56430.got - 2010.06.03 18:56:24.
