data_PCOD9121114
_publ_section_title
;
Structure prediction by ZEFSAII (Michael W. Deem and Ramdas Pophale) SiO2 
 PCOD9121114
Probable space group: C 2
;
_chemical_formula_sum "Si O2"
_cell_formula_units_Z 22
_cell_length_a 9.340176
_cell_length_b 16.742388
_cell_length_c 11.112104
_cell_angle_alpha 90.000000
_cell_angle_beta 38.832545
_cell_angle_gamma 90.000000
_cell_volume 1089.603350
_symmetry_space_group_name_H-M "C 2"
_symmetry_group_IT_number 5
_symmetry_cell_setting 'monoclinic'
loop_
_space_group_symop_operation_xyz
x,y,z
-x,y,-z
1/2+x,1/2+y,z
1/2-x,1/2+y,-z
loop_
_atom_site_type_symbol
_atom_site_label
_atom_site_fract_x
_atom_site_fract_y
_atom_site_fract_z
Si Si1 0.834133 0.551690 0.771574
Si Si2 0.788816 0.131940 0.380616
Si Si3 0.248684 0.305861 0.979482
Si Si4 0.764077 0.806884 0.681994
Si Si5 0.718028 0.127279 0.939538
Si Si6 0.000000 0.911325 0.000000
O O1 0.691778 0.606909 0.772287
O O2 0.804672 0.571586 0.929728
O O3 0.720912 0.465728 0.825611
O O4 0.091593 0.577108 0.566572
O O5 0.726496 0.225652 0.406569
O O6 0.032028 0.116697 0.282203
O O7 0.271750 0.295499 0.821249
O O8 0.273521 0.218003 0.018691
O O9 0.431531 0.359827 0.928474
O O10 0.991626 0.338654 0.173297
O O11 0.000000 0.852591 0.500000
O O12 0.500000 0.115245 0.000000
#
# Coordination Sequence:
#
# PCOD9121114 Si02
#       6
#     4   4   4   4   4   2
#     4  11  21  39  65  86 123 164 217 250 300 380
#     4  10  19  37  67  93 109 162 219 255 292 363
#     4  10  22  38  62  94 131 163 204 256 321 377
#     4  10  18  39  68  90 119 158 218 259 301 362
#     4  11  20  37  64  92 124 161 210 268 303 356
#     4  12  24  44  60  94 138 168 194 260 332 378
#
# _framework density 20.190835
#
# number of rings (size 3 to 8) (size 9 to 14) (size 15 to 20)
#    0.000    1.455    6.364    0.000    0.000    0.727 
#    9.818    0.000    0.000    0.000    0.000    0.000 
#    0.000    0.000    0.000    0.000    0.000    0.000 
#
# Total GULP energy -61265.126982 kJ/mol
# GULP energy per Si atom -5569.556998 kJ/mol
# Density = 2.014488 g / cm^3
# Si number density = 20.190835 Si / 1000 Ang^3
#
#
#
# Elastic Constant Matrix: (Units=GPa)
#
#
# Indices 1 2 3 4 5 6 
#
# 1 125.6611 25.8951 52.3741 -0.0043 -43.0572 0.0004
# 2 25.8951 52.3756 19.9580 -0.0017 -10.7069 0.0005
# 3 52.3741 19.9580 124.7805 -0.0069 -36.9163 0.0022
# 4 -0.0043 -0.0017 -0.0069 21.1580 0.0037 -12.1454
# 5 -43.0572 -10.7069 -36.9163 0.0037 33.1515 -0.0008
# 6 0.0004 0.0005 0.0022 -12.1454 -0.0008 23.4333
#
#
#
# Elastic Compliance Matrix: (Units=1/GPa)
#
#
# Indices 1 2 3 4 5 6 
#
# 1 0.014987 -0.003599 -0.000447 0.000000 0.017804 0.000000
# 2 -0.003599 0.021635 -0.001887 0.000000 0.000211 0.000000
# 3 -0.000447 -0.001887 0.012156 0.000002 0.012347 0.000000
# 4 0.000000 0.000000 0.000002 0.067281 -0.000005 0.034871
# 5 0.017804 0.000211 0.012347 -0.000005 0.067105 -0.000002
# 6 0.000000 0.000000 0.000000 0.034871 -0.000002 0.060748
#
#
# Mechanical properties :
#
#
# Convention : Reuss Voigt Hill
#
# Bulk Modulus (GPa) = 27.09315 55.47461 41.28388
# Shear Modulus (GPa) = 18.65098 29.18790 23.91944
#
# Velocity S-wave (km/s) = 3.04260 3.80623 3.44563
# Velocity P-wave (km/s) = 5.07847 6.84480 6.02670
#
# Compressibility (1/GPa) = 0.03690970
#
# Stress axis : x y z
#
# Youngs Moduli (GPa) = 66.72663 46.22205 82.26146
#
# Poissons Ratio (x) = 0.16638 0.03679
# Poissons Ratio (y) = 0.24018 0.15524
# Poissons Ratio (z) = 0.02984 0.08723
#
# Static dielectric constant tensor:
#      x y z
#    x 1.714530 0.000000 -0.054100 
#    y 0.000000 1.734590 0.000000 
#    z -0.054100 0.000000 1.820160 
# 
# From -- ./inp_files/36751.got.cif
#   From: 2010.05.17/outbox.cif.g08.bks.cpg/sg5_19_cif.got.tgz:36751.got - 2010.06.03 18:56:24.
