data_PCOD9121666
_publ_section_title
;
Structure prediction by ZEFSAII (Michael W. Deem and Ramdas Pophale) SiO2 
 PCOD9121666
Probable space group: C 2
;
_chemical_formula_sum "Si O2"
_cell_formula_units_Z 30
_cell_length_a 11.559735
_cell_length_b 16.700530
_cell_length_c 9.349378
_cell_angle_alpha 90.000000
_cell_angle_beta 121.633831
_cell_angle_gamma 90.000000
_cell_volume 1536.750518
_symmetry_space_group_name_H-M "C 2"
_symmetry_group_IT_number 5
_symmetry_cell_setting 'monoclinic'
loop_
_space_group_symop_operation_xyz
x,y,z
-x,y,-z
1/2+x,1/2+y,z
1/2-x,1/2+y,-z
loop_
_atom_site_type_symbol
_atom_site_label
_atom_site_fract_x
_atom_site_fract_y
_atom_site_fract_z
Si Si1 0.600095 0.416180 0.692735
Si Si2 0.958592 0.212099 0.630705
Si Si3 0.879818 0.321428 0.829790
Si Si4 0.000000 0.627745 0.500000
Si Si5 0.496336 0.285903 0.155877
Si Si6 0.780687 0.684252 0.142531
Si Si7 0.319969 0.136251 0.641078
Si Si8 0.192778 0.083754 0.850218
O O1 0.500000 0.439075 0.500000
O O2 0.741805 0.373559 0.737209
O O3 0.518387 0.352879 0.735052
O O4 0.633559 0.495616 0.801562
O O5 0.930791 0.288606 0.711395
O O6 0.823056 0.158247 0.524992
O O7 0.000000 0.239649 0.500000
O O8 0.077958 0.152800 0.760289
O O9 0.842832 0.238027 0.886693
O O10 0.000000 0.361277 0.000000
O O11 0.882860 0.677074 0.342418
O O12 0.916947 0.593189 0.584880
O O13 0.357616 0.235066 0.071984
O O14 0.610099 0.220942 0.270972
O O15 0.500000 0.320068 0.000000
O O16 0.754297 0.601150 0.046442
O O17 0.290006 0.092920 0.772942
#
# Coordination Sequence:
#
# PCOD9121666 Si02
#       8
#     4   4   4   2   4   4   4   4
#     4  11  25  42  63  93 131 170 208 256 329 379
#     4  10  20  34  62  91 118 160 212 257 308 361
#     4  11  21  39  61  92 125 166 210 262 309 378
#     4  10  20  32  60  98 116 154 214 272 300 350
#     4  10  20  37  60  92 120 161 210 259 303 366
#     4  10  20  36  62  92 121 160 215 257 308 370
#     4  10  19  35  61  92 122 157 214 262 298 366
#     4  11  22  41  61  90 131 165 205 260 321 383
#
# _framework density 19.521711
#
# number of rings (size 3 to 8) (size 9 to 14) (size 15 to 20)
#    0.000    1.600    4.000    2.000    6.533    0.000 
#    7.200    0.000    1.467    0.000    0.000    0.000 
#    0.000    0.000    0.000    0.000    0.000    0.000 
#
# Total GULP energy -83572.073248 kJ/mol
# GULP energy per Si atom -5571.471550 kJ/mol
# Density = 1.947728 g / cm^3
# Si number density = 19.521711 Si / 1000 Ang^3
#
#
#
# Elastic Constant Matrix: (Units=GPa)
#
#
# Indices 1 2 3 4 5 6 
#
# 1 70.9681 -11.5441 17.4429 0.0000 4.0197 0.0000
# 2 -11.5441 53.2927 11.2853 0.0000 0.4145 0.0000
# 3 17.4429 11.2853 70.6856 0.0000 3.6483 0.0000
# 4 0.0000 0.0000 0.0000 17.2658 0.0000 -6.7481
# 5 4.0197 0.4145 3.6483 0.0000 19.5599 0.0000
# 6 0.0000 0.0000 0.0000 -6.7481 0.0000 9.2961
#
#
#
# Elastic Compliance Matrix: (Units=1/GPa)
#
#
# Indices 1 2 3 4 5 6 
#
# 1 0.016080 0.004466 -0.004549 0.000000 -0.002551 0.000000
# 2 0.004466 0.020662 -0.004373 0.000000 -0.000540 0.000000
# 3 -0.004549 -0.004373 0.016070 0.000000 -0.001970 0.000000
# 4 0.000000 0.000000 0.000000 0.080858 0.000000 0.058696
# 5 -0.002551 -0.000540 -0.001970 0.000000 0.052028 0.000000
# 6 0.000000 0.000000 0.000000 0.058696 0.000000 0.150179
#
#
# Mechanical properties :
#
#
# Convention : Reuss Voigt Hill
#
# Bulk Modulus (GPa) = 22.77930 25.47940 24.12935
# Shear Modulus (GPa) = 13.91118 21.07517 17.49317
#
# Velocity S-wave (km/s) = 2.67235 3.28925 2.99672
# Velocity P-wave (km/s) = 4.60608 5.24459 4.93567
#
# Compressibility (1/GPa) = 0.04389951
#
# Stress axis : x y z
#
# Youngs Moduli (GPa) = 62.18886 48.39790 62.22903
#
# Poissons Ratio (x) = -0.21617 0.28311
# Poissons Ratio (y) = -0.27776 0.27213
# Poissons Ratio (z) = 0.28293 0.21165
#
# Static dielectric constant tensor:
#      x y z
#    x 1.765630 0.000000 -0.000430 
#    y 0.000000 1.631460 0.000000 
#    z -0.000430 0.000000 1.744880 
# 
# From -- ./inp_files/21447.got.cif
#   From: 2010.05.17/outbox.cif.g08.bks.cpg/sg5_11_cif.got.tgz:21447.got - 2010.06.03 18:56:24.
