data_PCOD9121014
_publ_section_title
;
Structure prediction by ZEFSAII (Michael W. Deem and Ramdas Pophale) SiO2 
 PCOD9121014
Probable space group: C 2
;
_chemical_formula_sum "Si O2"
_cell_formula_units_Z 22
_cell_length_a 19.399310
_cell_length_b 7.083151
_cell_length_c 16.782297
_cell_angle_alpha 90.000000
_cell_angle_beta 156.703074
_cell_angle_gamma 90.000000
_cell_volume 912.024552
_symmetry_space_group_name_H-M "C 2"
_symmetry_group_IT_number 5
_symmetry_cell_setting 'monoclinic'
loop_
_space_group_symop_operation_xyz
x,y,z
-x,y,-z
1/2+x,1/2+y,z
1/2-x,1/2+y,-z
loop_
_atom_site_type_symbol
_atom_site_label
_atom_site_fract_x
_atom_site_fract_y
_atom_site_fract_z
Si Si1 0.881696 0.933610 0.674290
Si Si2 0.718905 0.246931 0.951846
Si Si3 0.000000 0.290793 0.000000
Si Si4 0.742384 0.438685 0.286875
Si Si5 0.357554 0.897523 0.242980
Si Si6 0.965825 0.372749 0.791178
O O1 0.848935 0.859545 0.730063
O O2 0.701526 0.950305 0.433313
O O3 0.030497 0.820601 0.783682
O O4 0.939078 0.147554 0.751511
O O5 0.700987 0.088902 0.864778
O O6 0.836029 0.232460 0.156374
O O7 0.844796 0.406703 0.044708
O O8 0.982690 0.411415 0.902142
O O9 0.837521 0.144445 0.819136
O O10 0.747110 0.347083 0.204291
O O11 0.944041 0.438522 0.524923
#
# Coordination Sequence:
#
# PCOD9121014 Si02
#       6
#     4   4   2   4   4   4
#     4  11  23  39  68  93 134 167 219 260 328 377
#     4  12  21  40  61  99 126 173 208 272 318 382
#     4  10  18  38  60  88 128 160 222 256 310 374
#     4  10  20  38  62  96 118 175 217 264 299 398
#     4  11  22  38  68  91 132 164 223 263 322 375
#     4  11  23  40  65  96 124 175 216 267 313 392
#
# _framework density 24.122157000000001
#
# number of rings (size 3 to 8) (size 9 to 14) (size 15 to 20)
#    0.000    1.091    5.455    3.273    0.000    0.000 
#    0.000    0.000    4.000    7.636    0.000    0.000 
#    0.000    0.000    0.000    0.000    0.000    0.000 
#
# Total GULP energy -61330.450852 kJ/mol
# GULP energy per Si atom -5575.495532 kJ/mol
# Density = 2.406725 g / cm^3
# Si number density = 24.122157 Si / 1000 Ang^3
#
#
#
# Elastic Constant Matrix: (Units=GPa)
#
#
# Indices 1 2 3 4 5 6 
#
# 1 199.8918 12.6860 80.8689 0.0001 -26.8865 0.0000
# 2 12.6860 43.3770 41.1723 0.0001 -5.6957 0.0000
# 3 80.8689 41.1723 175.1451 0.0002 -4.7392 0.0001
# 4 0.0001 0.0001 0.0002 31.6497 0.0002 0.9930
# 5 -26.8865 -5.6957 -4.7392 0.0002 51.4999 0.0001
# 6 0.0000 0.0000 0.0001 0.9930 0.0001 31.0543
#
#
#
# Elastic Compliance Matrix: (Units=1/GPa)
#
#
# Indices 1 2 3 4 5 6 
#
# 1 0.006734 0.001725 -0.003423 0.000000 0.003392 0.000000
# 2 0.001725 0.030481 -0.007866 0.000000 0.003548 0.000000
# 3 -0.003423 -0.007866 0.009090 0.000000 -0.001821 0.000000
# 4 0.000000 0.000000 0.000000 0.031628 0.000000 -0.001011
# 5 0.003392 0.003548 -0.001821 0.000000 0.021413 0.000000
# 6 0.000000 0.000000 0.000000 -0.001011 0.000000 0.032234
#
#
# Mechanical properties :
#
#
# Convention : Reuss Voigt Hill
#
# Bulk Modulus (GPa) = 36.79543 76.42981 56.61262
# Shear Modulus (GPa) = 31.29563 41.75324 36.52444
#
# Velocity S-wave (km/s) = 3.60583 4.16493 3.89542
# Velocity P-wave (km/s) = 5.71164 7.40825 6.61457
#
# Compressibility (1/GPa) = 0.02717729
#
# Stress axis : x y z
#
# Youngs Moduli (GPa) = 148.49416 32.80727 110.01242
#
# Poissons Ratio (x) = -0.05659 0.37658
# Poissons Ratio (y) = -0.25615 0.86534
# Poissons Ratio (z) = 0.50831 0.25806
#
# Static dielectric constant tensor:
#      x y z
#    x 2.054170 0.000000 0.044650 
#    y 0.000000 2.130780 0.000000 
#    z 0.044650 0.000000 1.905710 
# 
# From -- ./inp_files/26233.got.cif
#   From: 2010.05.17/outbox.cif.g08.bks.cpg/sg5_14_cif.got.tgz:26233.got - 2010.06.03 18:56:24.
