data_PCOD9121835
_publ_section_title
;
Structure prediction by ZEFSAII (Michael W. Deem and Ramdas Pophale) SiO2 
 PCOD9121835
Probable space group: C 2
;
_chemical_formula_sum "Si O2"
_cell_formula_units_Z 30
_cell_length_a 19.262006
_cell_length_b 14.446032
_cell_length_c 14.210810
_cell_angle_alpha 90.000000
_cell_angle_beta 20.604394
_cell_angle_gamma 90.000000
_cell_volume 1391.569062
_symmetry_space_group_name_H-M "C 2"
_symmetry_group_IT_number 5
_symmetry_cell_setting 'monoclinic'
loop_
_space_group_symop_operation_xyz
x,y,z
-x,y,-z
1/2+x,1/2+y,z
1/2-x,1/2+y,-z
loop_
_atom_site_type_symbol
_atom_site_label
_atom_site_fract_x
_atom_site_fract_y
_atom_site_fract_z
Si Si1 0.627297 0.350990 0.922590
Si Si2 0.316630 0.368163 0.610674
Si Si3 0.879330 0.488133 0.477734
Si Si4 0.991398 0.687202 0.401107
Si Si5 0.236865 0.433582 0.915069
Si Si6 0.500000 0.735882 0.500000
Si Si7 0.366140 0.620709 0.831594
Si Si8 0.377317 0.484819 0.369132
O O1 0.738201 0.431258 0.724085
O O2 0.797718 0.292970 0.756076
O O3 0.500000 0.302888 0.000000
O O4 0.494990 0.401577 0.168473
O O5 0.328248 0.259641 0.570536
O O6 0.213346 0.394370 0.839859
O O7 0.551321 0.392965 0.323181
O O8 0.251961 0.436448 0.610474
O O9 0.764244 0.523164 0.531567
O O10 0.944913 0.579158 0.449008
O O11 0.054830 0.421479 0.217377
O O12 0.000000 0.710590 0.500000
O O13 0.204887 0.689492 0.080724
O O14 0.265148 0.544863 0.889841
O O15 0.510543 0.675983 0.581253
O O16 0.476974 0.560882 0.770909
#
# Coordination Sequence:
#
# PCOD9121835 Si02
#       8
#     4   4   4   4   4   2   4   4
#     4  10  24  42  63  90 125 166 212 252 306 377
#     4  10  19  36  63  85 122 149 205 255 292 357
#     4  10  23  39  61  87 123 165 199 243 322 369
#     4  11  21  36  62  95 116 151 206 258 299 361
#     4   9  19  38  61  87 117 160 200 247 302 372
#     4  12  24  40  66  94 124 166 208 260 312 362
#     4  10  22  37  62  91 120 157 208 245 308 367
#     4  10  21  43  61  84 126 163 199 251 305 377
#
# _framework density 21.558398
#
# number of rings (size 3 to 8) (size 9 to 14) (size 15 to 20)
#    0.000    1.867    1.333    3.200    8.400    0.533 
#    9.600    0.000    8.800    0.000    0.000    0.000 
#    0.000    0.000    0.000    0.000    0.000    0.000 
#
# Total GULP energy -83673.915045 kJ/mol
# GULP energy per Si atom -5578.261003 kJ/mol
# Density = 2.150933 g / cm^3
# Si number density = 21.558398 Si / 1000 Ang^3
#
#
#
# Elastic Constant Matrix: (Units=GPa)
#
#
# Indices 1 2 3 4 5 6 
#
# 1 68.5059 10.9878 5.9344 -0.0017 8.2894 0.0005
# 2 10.9878 42.0260 7.1959 -0.0003 8.4248 0.0030
# 3 5.9344 7.1959 48.8949 -0.0048 4.7867 -0.0033
# 4 -0.0017 -0.0003 -0.0048 0.1768 0.0025 3.4720
# 5 8.2894 8.4248 4.7867 0.0025 29.4473 0.0010
# 6 0.0005 0.0030 -0.0033 3.4720 0.0010 3.9911
#
#
#
# Elastic Compliance Matrix: (Units=1/GPa)
#
#
# Indices 1 2 3 4 5 6 
#
# 1 0.015609 -0.003234 -0.001096 -0.000010 -0.003291 0.000009
# 2 -0.003234 0.026370 -0.002885 -0.000026 -0.006165 0.000002
# 3 -0.001096 -0.002885 0.021237 -0.000012 -0.002318 0.000031
# 4 -0.000010 -0.000026 -0.000012 -0.351663 0.000032 0.305927
# 5 -0.003291 -0.006165 -0.002318 0.000032 0.037026 -0.000034
# 6 0.000009 0.000002 0.000031 0.305927 -0.000034 -0.015582
#
#
# Mechanical properties :
#
#
# Convention : Reuss Voigt Hill
#
# Bulk Modulus (GPa) = 20.49771 23.07363 21.78567
# Shear Modulus (GPa) = -21.15846 15.74364 -2.70741
#
# Velocity S-wave (km/s) = -3.13621 2.70530 -1.12186
# Velocity P-wave (km/s) = 1.89361 4.52596 2.90676
#
# Compressibility (1/GPa) = 0.04878595
#
# Stress axis : x y z
#
# Youngs Moduli (GPa) = 64.06528 37.92169 47.08848
#
# Poissons Ratio (x) = 0.12263 0.05163
# Poissons Ratio (y) = 0.20716 0.13584
# Poissons Ratio (z) = 0.07024 0.10940
#
# Static dielectric constant tensor:
#      x y z
#    x 1.844230 0.000000 -0.062560 
#    y 0.000000 1.781920 0.000000 
#    z -0.062560 0.000000 1.826010 
# 
# From -- ./inp_files/57131.got.cif
#   From: 2010.05.17/outbox.cif.g08.bks.cpg/sg5_29_cif.got.tgz:57131.got - 2010.06.03 18:56:24.
