data_PCOD9121334
_publ_section_title
;
Structure prediction by ZEFSAII (Michael W. Deem and Ramdas Pophale) SiO2 
 PCOD9121334
Probable space group: C 2
;
_chemical_formula_sum "Si O2"
_cell_formula_units_Z 30
_cell_length_a 11.966283
_cell_length_b 27.757642
_cell_length_c 5.226982
_cell_angle_alpha 90.000000
_cell_angle_beta 80.688023
_cell_angle_gamma 90.000000
_cell_volume 1713.292956
_symmetry_space_group_name_H-M "C 2"
_symmetry_group_IT_number 5
_symmetry_cell_setting 'monoclinic'
loop_
_space_group_symop_operation_xyz
x,y,z
-x,y,-z
1/2+x,1/2+y,z
1/2-x,1/2+y,-z
loop_
_atom_site_type_symbol
_atom_site_label
_atom_site_fract_x
_atom_site_fract_y
_atom_site_fract_z
Si Si1 0.863520 0.708210 0.553626
Si Si2 0.425049 0.867487 0.272308
Si Si3 0.374774 0.378108 0.109392
Si Si4 0.628545 0.044265 0.838682
Si Si5 0.690501 0.320002 0.371092
Si Si6 0.676266 0.948292 0.041979
Si Si7 0.138178 0.652378 0.943789
Si Si8 0.000000 0.489082 0.500000
O O1 0.832572 0.763568 0.604897
O O2 0.824406 0.673714 0.798957
O O3 0.000000 0.705883 0.500000
O O4 0.824306 0.687455 0.297209
O O5 0.500000 0.869197 0.500000
O O6 0.322868 0.830969 0.357666
O O7 0.637354 0.916108 0.812241
O O8 0.500000 0.852646 0.000000
O O9 0.345609 0.341111 0.890413
O O10 0.500000 0.397361 0.000000
O O11 0.370889 0.349527 0.378320
O O12 0.277513 0.419094 0.136378
O O13 0.598117 0.024657 0.569172
O O14 0.500000 0.043174 0.000000
O O15 0.672382 0.097707 0.864888
O O16 0.702345 0.002110 0.937770
O O17 0.568389 0.957031 0.267993
O O18 0.000000 0.651960 0.000000
#
# Coordination Sequence:
#
# PCOD9121334 Si02
#       8
#     4   4   4   4   4   4   4   2
#     4  10  19  33  51  73 102 137 175 215 260 316
#     4  11  23  36  54  81 112 142 180 223 272 326
#     4  11  23  38  55  78 110 148 188 224 263 316
#     4   9  19  30  48  77 110 139 169 213 271 330
#     4  11  23  37  56  79 107 145 185 222 273 318
#     4  10  23  32  55  79 113 147 180 215 270 327
#     4   9  19  30  49  73 103 136 168 213 265 319
#     4  10  20  32  52  78 116 140 174 214 274 326
#
# _framework density 17.510141000000001
#
# number of rings (size 3 to 8) (size 9 to 14) (size 15 to 20)
#    0.000    1.867    0.000    4.800   15.867    1.067 
#    0.000    0.000    0.000    0.000    0.000    2.800 
#    0.000    0.000    0.000    0.000    0.000    0.000 
#
# Total GULP energy -83631.429884 kJ/mol
# GULP energy per Si atom -5575.428659 kJ/mol
# Density = 1.747029 g / cm^3
# Si number density = 17.510141 Si / 1000 Ang^3
#
#
#
# Elastic Constant Matrix: (Units=GPa)
#
#
# Indices 1 2 3 4 5 6 
#
# 1 44.1751 17.2616 11.4731 0.0000 -2.2543 0.0000
# 2 17.2616 117.4750 32.4378 0.0000 -1.4204 0.0000
# 3 11.4731 32.4378 98.4221 0.0000 5.6748 0.0000
# 4 0.0000 0.0000 0.0000 21.6320 0.0000 -1.8052
# 5 -2.2543 -1.4204 5.6748 0.0000 19.2705 0.0000
# 6 0.0000 0.0000 0.0000 -1.8052 0.0000 19.2547
#
#
#
# Elastic Compliance Matrix: (Units=1/GPa)
#
#
# Indices 1 2 3 4 5 6 
#
# 1 0.024507 -0.002994 -0.002058 0.000000 0.003252 0.000000
# 2 -0.002994 0.009781 -0.002946 0.000000 0.001238 0.000000
# 3 -0.002058 -0.002946 0.011594 0.000000 -0.003872 0.000000
# 4 0.000000 0.000000 0.000000 0.046592 0.000000 0.004368
# 5 0.003252 0.001238 -0.003872 0.000000 0.053505 0.000000
# 6 0.000000 0.000000 0.000000 0.004368 0.000000 0.052345
#
#
# Mechanical properties :
#
#
# Convention : Reuss Voigt Hill
#
# Bulk Modulus (GPa) = 33.45829 42.49080 37.97455
# Shear Modulus (GPa) = 22.29340 25.29142 23.79241
#
# Velocity S-wave (km/s) = 3.57202 3.80463 3.69016
# Velocity P-wave (km/s) = 6.01348 6.60450 6.31590
#
# Compressibility (1/GPa) = 0.02988796
#
# Stress axis : x y z
#
# Youngs Moduli (GPa) = 40.80410 102.24165 86.24864
#
# Poissons Ratio (x) = 0.30607 0.17748
# Poissons Ratio (y) = 0.12215 0.25409
# Poissons Ratio (z) = 0.08396 0.30120
#
# Static dielectric constant tensor:
#      x y z
#    x 1.596310 0.000000 0.019190 
#    y 0.000000 1.610780 0.000000 
#    z 0.019190 0.000000 1.676200 
# 
# From -- ./inp_files/6100.got.cif
#   From: 2010.05.17/outbox.cif.g08.bks.cpg/sg5_4_cif.got.tgz:6100.got - 2010.06.03 18:56:24.
