data_PCOD9121366
_publ_section_title
;
Structure prediction by ZEFSAII (Michael W. Deem and Ramdas Pophale) SiO2 
 PCOD9121366
Probable space group: C 2
;
_chemical_formula_sum "Si O2"
_cell_formula_units_Z 32
_cell_length_a 23.911372
_cell_length_b 9.045914
_cell_length_c 21.629925
_cell_angle_alpha 90.000000
_cell_angle_beta 17.537878
_cell_angle_gamma 90.000000
_cell_volume 1409.818865
_symmetry_space_group_name_H-M "C 2"
_symmetry_group_IT_number 5
_symmetry_cell_setting 'monoclinic'
loop_
_space_group_symop_operation_xyz
x,y,z
-x,y,-z
1/2+x,1/2+y,z
1/2-x,1/2+y,-z
loop_
_atom_site_type_symbol
_atom_site_label
_atom_site_fract_x
_atom_site_fract_y
_atom_site_fract_z
Si Si1 0.405399 0.378380 0.866938
Si Si2 0.912324 0.898666 0.448038
Si Si3 0.960058 0.523924 0.807131
Si Si4 0.783407 0.051898 0.108716
Si Si5 0.281327 0.383674 0.235406
Si Si6 0.870069 0.564268 0.491376
Si Si7 0.162643 0.387481 0.944115
Si Si8 0.198714 0.045043 0.316694
O O1 0.554699 0.434018 0.658819
O O2 0.414545 0.199773 0.858973
O O3 0.209110 0.430481 0.044675
O O4 0.408628 0.450124 0.931725
O O5 0.821936 0.736317 0.546775
O O6 0.125688 0.900057 0.250529
O O7 0.797051 0.998749 0.616414
O O8 0.128043 0.510379 0.581368
O O9 0.971832 0.460494 0.863524
O O10 0.587896 0.067763 0.280155
O O11 0.869832 0.212885 0.027590
O O12 0.730880 0.982100 0.229574
O O13 0.227864 0.462014 0.355525
O O14 0.202092 0.220888 0.311494
O O15 0.500000 0.367837 0.000000
O O16 0.161764 0.471417 0.879502
O O17 0.000000 0.992864 0.500000
#
# Coordination Sequence:
#
# PCOD9121366 Si02
#       8
#     4   4   4   4   4   4   4   4
#     4   9  16  27  49  82 115 136 163 209 257 303
#     4   8  16  30  52  84 111 132 166 212 255 301
#     4   9  16  27  48  82 114 136 164 209 257 303
#     4  10  19  34  57  80 104 137 174 213 258 310
#     4  12  25  37  50  73 105 137 176 222 264 309
#     4   9  18  34  56  79 104 136 172 210 255 309
#     4   9  17  30  53  85 111 132 169 215 258 304
#     4  10  19  33  55  79 106 138 172 212 256 307
#
# _framework density 22.697952000000001
#
# number of rings (size 3 to 8) (size 9 to 14) (size 15 to 20)
#    0.000    2.500    0.000    4.875    0.000    8.000 
#    0.000    2.500    0.000    9.000    0.000    0.000 
#    0.000    0.000    0.000    0.000    0.000    0.000 
#
# Total GULP energy -89342.395513 kJ/mol
# GULP energy per Si atom -5583.899720 kJ/mol
# Density = 2.264629 g / cm^3
# Si number density = 22.697952 Si / 1000 Ang^3
#
#
#
# Elastic Constant Matrix: (Units=GPa)
#
#
# Indices 1 2 3 4 5 6 
#
# 1 -2131.7251 1806.6585 -887.5090 0.1007 -714.9500 0.1484
# 2 1806.6585-1282.2940 808.8444 -0.0792 647.9977 -0.1184
# 3 -887.5090 808.8444 -270.5864 0.0433 -259.1447 0.0622
# 4 0.1007 -0.0792 0.0433 25.6328 0.0325 34.4353
# 5 -714.9500 647.9977 -259.1447 0.0325 -195.6505 0.0502
# 6 0.1484 -0.1184 0.0622 34.4353 0.0502 -0.7419
#
#
#
# Elastic Compliance Matrix: (Units=1/GPa)
#
#
# Indices 1 2 3 4 5 6 
#
# 1 0.009479 0.005946 -0.003711 0.000001 -0.010029 -0.000001
# 2 0.005946 0.004934 -0.001508 -0.000001 -0.003388 0.000000
# 3 -0.003711 -0.001508 0.015774 0.000000 -0.012327 -0.000001
# 4 0.000001 -0.000001 0.000000 0.000616 0.000000 0.028582
# 5 -0.010029 -0.003388 -0.012327 0.000000 0.036645 0.000002
# 6 -0.000001 0.000000 -0.000001 0.028582 0.000002 -0.021275
#
#
# Mechanical properties :
#
#
# Convention : Reuss Voigt Hill
#
# Bulk Modulus (GPa) = 31.60490 -25.40198 3.10146
# Shear Modulus (GPa) = 90.47331 -394.99189 -152.25929
#
# Velocity S-wave (km/s) = 6.32030 -13.20601 -8.19916
# Velocity P-wave (km/s) = 8.19853 15.61241 9.39498
#
# Compressibility (1/GPa) = 0.03164067
#
# Stress axis : x y z
#
# Youngs Moduli (GPa) = 105.50072 202.66354 63.39694
#
# Poissons Ratio (x) = -1.20501 0.23525
# Poissons Ratio (y) = -0.62729 0.09560
# Poissons Ratio (z) = 0.39149 0.30562
#
# Static dielectric constant tensor:
#      x y z
#    x 2.794400 0.005650 -0.187950 
#    y 0.005650 6.426530 -0.000980 
#    z -0.187950 -0.000980 1.896930 
# 
# From -- ./inp_files/67556.got.cif
#   From: 2010.05.17/outbox.cif.g08.bks.cpg/sg5_34_cif.got.tgz:67556.got - 2010.06.03 18:56:24.
