data_PCOD9121693
_publ_section_title
;
Structure prediction by ZEFSAII (Michael W. Deem and Ramdas Pophale) SiO2 
 PCOD9121693
Probable space group: C 2
;
_chemical_formula_sum "Si O2"
_cell_formula_units_Z 28
_cell_length_a 18.214397
_cell_length_b 19.492148
_cell_length_c 13.394982
_cell_angle_alpha 90.000000
_cell_angle_beta 19.080085
_cell_angle_gamma 90.000000
_cell_volume 1554.595882
_symmetry_space_group_name_H-M "C 2"
_symmetry_group_IT_number 5
_symmetry_cell_setting 'monoclinic'
loop_
_space_group_symop_operation_xyz
x,y,z
-x,y,-z
1/2+x,1/2+y,z
1/2-x,1/2+y,-z
loop_
_atom_site_type_symbol
_atom_site_label
_atom_site_fract_x
_atom_site_fract_y
_atom_site_fract_z
Si Si1 0.033483 0.330870 0.242711
Si Si2 0.728734 0.142837 0.267703
Si Si3 0.169555 0.940965 0.691891
Si Si4 0.258959 0.302330 0.755917
Si Si5 0.011274 0.830545 0.738611
Si Si6 0.701134 0.591325 0.603446
Si Si7 0.332141 0.217706 0.308385
O O1 0.870505 0.394010 0.476817
O O2 0.891763 0.260457 0.433758
O O3 0.096529 0.337463 0.044193
O O4 0.262128 0.329258 0.011888
O O5 0.500000 0.136705 0.500000
O O6 0.804134 0.222391 0.171785
O O7 0.701869 0.119004 0.415938
O O8 0.931753 0.100471 0.958697
O O9 0.046481 0.893339 0.768647
O O10 0.252330 0.010923 0.534630
O O11 0.000000 0.957992 0.000000
O O12 0.500000 0.302621 0.500000
O O13 0.308782 0.332601 0.583360
O O14 0.060335 0.762301 0.739747
O O15 0.782003 0.641764 0.412741
O O16 0.500000 0.217679 0.000000
#
# Coordination Sequence:
#
# PCOD9121693 Si02
#       7
#     4   4   4   4   4   4   4
#     4  10  21  38  60  84 114 148 188 238 281 330
#     4  10  19  35  64  89 109 138 183 242 291 329
#     4  11  24  38  53  86 115 149 194 222 281 353
#     4   9  17  33  61  90 105 137 192 232 280 330
#     4  10  21  38  60  84 114 148 188 238 281 330
#     4  11  22  39  57  85 118 145 188 238 282 341
#     4  11  23  37  58  85 114 147 192 232 283 343
#
# _framework density 18.011111
#
# number of rings (size 3 to 8) (size 9 to 14) (size 15 to 20)
#    0.000    1.714    4.286    1.714    0.000    5.714 
#    2.571    0.000    0.000    0.000    0.000    0.000 
#    0.000    0.000    0.000    0.000    0.000    0.000 
#
# Total GULP energy -78123.568469 kJ/mol
# GULP energy per Si atom -5580.254891 kJ/mol
# Density = 1.797012 g / cm^3
# Si number density = 18.011111 Si / 1000 Ang^3
#
#
#
# Elastic Constant Matrix: (Units=GPa)
#
#
# Indices 1 2 3 4 5 6 
#
# 1 71.1047 4.3050 8.5548 0.0067 -9.3461 -0.0293
# 2 4.3050 92.3139 3.5761 -0.0620 8.0738 0.0214
# 3 8.5548 3.5761 57.2385 -0.0090 16.6258 -0.0253
# 4 0.0067 -0.0620 -0.0090 23.0933 0.0172 7.6603
# 5 -9.3461 8.0738 16.6258 0.0172 38.7010 -0.0155
# 6 -0.0293 0.0214 -0.0253 7.6603 -0.0155 15.3216
#
#
#
# Elastic Compliance Matrix: (Units=1/GPa)
#
#
# Indices 1 2 3 4 5 6 
#
# 1 0.015322 -0.001053 -0.003842 -0.000027 0.005571 0.000044
# 2 -0.001053 0.011106 0.000240 0.000047 -0.002675 -0.000043
# 3 -0.003842 0.000240 0.020925 0.000014 -0.009967 0.000010
# 4 -0.000027 0.000047 0.000014 0.051912 -0.000056 -0.025955
# 5 0.005571 -0.002675 -0.009967 -0.000056 0.032024 0.000058
# 6 0.000044 -0.000043 0.000010 -0.025955 0.000058 0.078244
#
#
# Mechanical properties :
#
#
# Convention : Reuss Voigt Hill
#
# Bulk Modulus (GPa) = 26.28542 28.16988 27.22765
# Shear Modulus (GPa) = 21.59586 29.03791 25.31688
#
# Velocity S-wave (km/s) = 3.46646 4.01960 3.75324
# Velocity P-wave (km/s) = 5.53601 6.10059 5.82515
#
# Compressibility (1/GPa) = 0.03804390
#
# Stress axis : x y z
#
# Youngs Moduli (GPa) = 65.26560 90.03858 47.78920
#
# Poissons Ratio (x) = 0.09480 0.18362
# Poissons Ratio (y) = 0.06872 -0.01149
# Poissons Ratio (z) = 0.25077 -0.02164
#
# Static dielectric constant tensor:
#      x y z
#    x 1.617600 -0.000030 -0.004080 
#    y -0.000030 1.611020 0.000040 
#    z -0.004080 0.000040 1.629590 
# 
# From -- ./inp_files/45153.got.cif
#   From: 2010.05.17/outbox.cif.g08.bks.cpg/sg5_23_cif.got.tgz:45153.got - 2010.06.03 18:56:24.
