data_PCOD9121645
_publ_section_title
;
Structure prediction by ZEFSAII (Michael W. Deem and Ramdas Pophale) SiO2 
 PCOD9121645
Probable space group: C 2
;
_chemical_formula_sum "Si O2"
_cell_formula_units_Z 32
_cell_length_a 16.169449
_cell_length_b 20.899955
_cell_length_c 9.727785
_cell_angle_alpha 90.000000
_cell_angle_beta 29.093614
_cell_angle_gamma 90.000000
_cell_volume 1598.466071
_symmetry_space_group_name_H-M "C 2"
_symmetry_group_IT_number 5
_symmetry_cell_setting 'monoclinic'
loop_
_space_group_symop_operation_xyz
x,y,z
-x,y,-z
1/2+x,1/2+y,z
1/2-x,1/2+y,-z
loop_
_atom_site_type_symbol
_atom_site_label
_atom_site_fract_x
_atom_site_fract_y
_atom_site_fract_z
Si Si1 0.270353 0.948500 0.699507
Si Si2 0.895547 0.109276 0.526393
Si Si3 0.838624 0.455628 0.905233
Si Si4 0.653200 0.307620 0.867738
Si Si5 0.000753 0.250277 0.336896
Si Si6 0.331804 0.319403 0.829691
Si Si7 0.955363 0.578267 0.907980
Si Si8 0.168709 0.070345 0.679737
O O1 0.273899 0.977151 0.848619
O O2 0.467703 0.929933 0.388709
O O3 0.165888 0.884219 0.841151
O O4 0.202802 0.000447 0.692146
O O5 0.992583 0.173982 0.345219
O O6 0.874404 0.068900 0.419108
O O7 0.000000 0.078765 0.500000
O O8 0.703450 0.126820 0.854965
O O9 0.870663 0.516929 0.955423
O O10 0.721383 0.394533 0.109619
O O11 0.821624 0.278814 0.553370
O O12 0.500000 0.282276 0.000000
O O13 0.639562 0.298934 0.052259
O O14 0.000000 0.269009 0.500000
O O15 0.165453 0.279464 0.027553
O O16 0.500000 0.306598 0.500000
O O17 0.139358 0.600116 0.581617
O O18 0.000000 0.560244 0.000000
O O19 0.000000 0.097596 0.000000
#
# Coordination Sequence:
#
# PCOD9121645 Si02
#       8
#     4   4   4   4   4   4   4   4
#     4   9  17  33  58  84 119 161 200 236 291 372
#     4  10  22  40  61  85 113 163 210 247 297 358
#     4   9  17  33  57  86 120 164 192 240 301 368
#     4  10  19  35  60  87 114 158 203 234 296 366
#     4   9  19  40  65  81 115 162 206 242 289 370
#     4  10  20  38  59  91 124 151 195 257 308 350
#     4   9  20  38  56  83 124 159 201 245 296 357
#     4  10  21  37  57  86 121 157 196 255 299 345
#
# _framework density 20.019193000000001
#
# number of rings (size 3 to 8) (size 9 to 14) (size 15 to 20)
#    0.000    2.500    1.250    0.375    1.750    2.000 
#   13.500    5.625    0.000    0.000    0.000    0.000 
#    0.000    0.000    0.000    0.000    0.000    0.000 
#
# Total GULP energy -89073.921157 kJ/mol
# GULP energy per Si atom -5567.120072 kJ/mol
# Density = 1.997363 g / cm^3
# Si number density = 20.019193 Si / 1000 Ang^3
#
#
#
# Elastic Constant Matrix: (Units=GPa)
#
#
# Indices 1 2 3 4 5 6 
#
# 1 104.0983 18.2993 47.7701 -0.0056 -23.0664 0.0026
# 2 18.2993 22.7200 22.5592 -0.0248 -3.5020 0.0027
# 3 47.7701 22.5592 155.6183 -0.0172 -22.1584 0.0024
# 4 -0.0056 -0.0248 -0.0172 14.7861 0.0045 -2.1105
# 5 -23.0664 -3.5020 -22.1584 0.0045 25.6147 0.0019
# 6 0.0026 0.0027 0.0024 -2.1105 0.0019 10.1031
#
#
#
# Elastic Compliance Matrix: (Units=1/GPa)
#
#
# Indices 1 2 3 4 5 6 
#
# 1 0.014036 -0.008058 -0.001708 -0.000014 0.010060 -0.000006
# 2 -0.008058 0.056051 -0.006380 0.000086 -0.005112 0.000008
# 3 -0.001708 -0.006380 0.008590 -0.000003 0.005021 -0.000002
# 4 -0.000014 0.000086 -0.000003 0.069710 -0.000017 0.014562
# 5 0.010060 -0.005112 0.005021 -0.000017 0.051744 -0.000015
# 6 -0.000006 0.000008 -0.000002 0.014562 -0.000015 0.102022
#
#
# Mechanical properties :
#
#
# Convention : Reuss Voigt Hill
#
# Bulk Modulus (GPa) = 21.55874 51.07710 36.31792
# Shear Modulus (GPa) = 14.28956 23.02130 18.65543
#
# Velocity S-wave (km/s) = 2.67459 3.39479 3.05598
# Velocity P-wave (km/s) = 4.50892 6.39809 5.53470
#
# Compressibility (1/GPa) = 0.04638490
#
# Stress axis : x y z
#
# Youngs Moduli (GPa) = 71.24636 17.84088 116.41466
#
# Poissons Ratio (x) = 0.14377 0.19883
# Poissons Ratio (y) = 0.57413 0.74269
# Poissons Ratio (z) = 0.12168 0.11382
#
# Static dielectric constant tensor:
#      x y z
#    x 1.718300 0.000000 -0.019010 
#    y 0.000000 1.709750 0.000000 
#    z -0.019010 0.000000 1.781960 
# 
# From -- ./inp_files/25611.got.cif
#   From: 2010.05.17/outbox.cif.g08.bks.cpg/sg5_13_cif.got.tgz:25611.got - 2010.06.03 18:56:24.
