data_PCOD9121706
_publ_section_title
;
Structure prediction by ZEFSAII (Michael W. Deem and Ramdas Pophale) SiO2 
 PCOD9121706
Probable space group: C 2
;
_chemical_formula_sum "Si O2"
_cell_formula_units_Z 30
_cell_length_a 8.358559
_cell_length_b 21.651918
_cell_length_c 8.130989
_cell_angle_alpha 90.000000
_cell_angle_beta 108.375304
_cell_angle_gamma 90.000000
_cell_volume 1396.506151
_symmetry_space_group_name_H-M "C 2"
_symmetry_group_IT_number 5
_symmetry_cell_setting 'monoclinic'
loop_
_space_group_symop_operation_xyz
x,y,z
-x,y,-z
1/2+x,1/2+y,z
1/2-x,1/2+y,-z
loop_
_atom_site_type_symbol
_atom_site_label
_atom_site_fract_x
_atom_site_fract_y
_atom_site_fract_z
Si Si1 0.093716 0.989000 0.201547
Si Si2 0.816625 0.078026 0.516549
Si Si3 0.540414 0.148761 0.331121
Si Si4 0.000000 0.567732 0.000000
Si Si5 0.259390 0.860528 0.293899
Si Si6 0.056673 0.790418 0.703988
Si Si7 0.758908 0.480435 0.762048
Si Si8 0.112818 0.349831 0.285775
O O1 0.224468 0.932550 0.244077
O O2 0.938798 0.968678 0.272218
O O3 0.166322 0.053923 0.292169
O O4 0.000000 0.995831 0.000000
O O5 0.740558 0.141852 0.422904
O O6 0.000000 0.077310 0.500000
O O7 0.720724 0.021465 0.395171
O O8 0.500000 0.121828 0.500000
O O9 0.472741 0.217338 0.291632
O O10 0.487279 0.109781 0.157111
O O11 0.838457 0.523724 0.927697
O O12 0.413616 0.835702 0.232025
O O13 0.323234 0.853426 0.503251
O O14 0.078884 0.825517 0.224762
O O15 0.254167 0.807591 0.771147
O O16 0.000000 0.807508 0.500000
O O17 0.858639 0.417602 0.778687
#
# Coordination Sequence:
#
# PCOD9121706 Si02
#       8
#     4   4   4   2   4   4   4   4
#     4  11  22  33  56  93 131 167 203 261 329 394
#     4   9  20  38  59  87 123 171 211 265 327 378
#     4  10  22  42  66  89 124 175 222 270 320 391
#     4  10  24  40  64  96 128 170 226 266 326 394
#     4  10  20  35  60  98 126 166 211 260 329 397
#     4   9  19  39  61  91 125 166 220 265 320 383
#     4  10  20  37  60  86 132 165 201 276 323 382
#     4  10  19  35  65  94 125 165 211 266 328 392
#
# _framework density 21.482182000000002
#
# number of rings (size 3 to 8) (size 9 to 14) (size 15 to 20)
#    0.000    2.133    2.667    0.000    3.733    1.067 
#    8.400    0.000    0.000    0.000    0.000    0.000 
#    0.000    0.000    0.000    0.000    0.000    0.000 
#
# Total GULP energy -83586.143092 kJ/mol
# GULP energy per Si atom -5572.409539 kJ/mol
# Density = 2.143329 g / cm^3
# Si number density = 21.482182 Si / 1000 Ang^3
#
#
#
# Elastic Constant Matrix: (Units=GPa)
#
#
# Indices 1 2 3 4 5 6 
#
# 1 139.3151 69.3033 25.5561 0.0000 4.6735 0.0000
# 2 69.3033 82.8327 25.4646 0.0000 -3.1711 0.0000
# 3 25.5561 25.4646 77.4924 0.0000 -0.8275 0.0000
# 4 0.0000 0.0000 0.0000 19.4220 0.0000 0.0793
# 5 4.6735 -3.1711 -0.8275 0.0000 16.9415 0.0000
# 6 0.0000 0.0000 0.0000 0.0793 0.0000 23.0436
#
#
#
# Elastic Compliance Matrix: (Units=1/GPa)
#
#
# Indices 1 2 3 4 5 6 
#
# 1 0.012839 -0.010719 -0.000772 0.000000 -0.005586 0.000000
# 2 -0.010719 0.022468 -0.003774 0.000000 0.006978 0.000000
# 3 -0.000772 -0.003774 0.014401 0.000000 0.000210 0.000000
# 4 0.000000 0.000000 0.000000 0.051489 0.000000 -0.000177
# 5 -0.005586 0.006978 0.000210 0.000000 0.061884 0.000000
# 6 0.000000 0.000000 0.000000 -0.000177 0.000000 0.043397
#
#
# Mechanical properties :
#
#
# Convention : Reuss Voigt Hill
#
# Bulk Modulus (GPa) = 52.13707 60.03203 56.08455
# Shear Modulus (GPa) = 20.54249 23.83583 22.18916
#
# Velocity S-wave (km/s) = 3.09570 3.33462 3.21738
# Velocity P-wave (km/s) = 6.09101 6.54462 6.32188
#
# Compressibility (1/GPa) = 0.01918021
#
# Stress axis : x y z
#
# Youngs Moduli (GPa) = 77.88829 44.50851 69.43840
#
# Poissons Ratio (x) = 0.47707 0.05358
# Poissons Ratio (y) = 0.83485 0.26204
# Poissons Ratio (z) = 0.06010 0.16796
#
# Static dielectric constant tensor:
#      x y z
#    x 2.280660 0.000000 0.080410 
#    y 0.000000 1.753210 0.000000 
#    z 0.080410 0.000000 1.850980 
# 
# From -- ./inp_files/17223.got.cif
#   From: 2010.05.17/outbox.cif.g08.bks.cpg/sg5_9_cif.got.tgz:17223.got - 2010.06.03 18:56:24.
