data_PCOD9121969
_publ_section_title
;
Structure prediction by ZEFSAII (Michael W. Deem and Ramdas Pophale) SiO2 
 PCOD9121969
Probable space group: C 2
;
_chemical_formula_sum "Si O2"
_cell_formula_units_Z 32
_cell_length_a 13.785260
_cell_length_b 17.511431
_cell_length_c 14.067552
_cell_angle_alpha 90.000000
_cell_angle_beta 148.358133
_cell_angle_gamma 90.000000
_cell_volume 1781.517738
_symmetry_space_group_name_H-M "C 2"
_symmetry_group_IT_number 5
_symmetry_cell_setting 'monoclinic'
loop_
_space_group_symop_operation_xyz
x,y,z
-x,y,-z
1/2+x,1/2+y,z
1/2-x,1/2+y,-z
loop_
_atom_site_type_symbol
_atom_site_label
_atom_site_fract_x
_atom_site_fract_y
_atom_site_fract_z
Si Si1 0.735000 0.871780 0.430301
Si Si2 0.657383 0.503367 0.882791
Si Si3 0.057549 0.770824 0.778780
Si Si4 0.623968 0.529986 0.513283
Si Si5 0.110428 0.887200 0.995161
Si Si6 0.497676 0.951906 0.611558
Si Si7 0.501621 0.092331 0.753372
Si Si8 0.103786 0.358029 0.988466
O O1 0.670151 0.908155 0.476649
O O2 0.551864 0.845891 0.221846
O O3 0.890246 0.810502 0.582566
O O4 0.820556 0.940535 0.439394
O O5 0.506462 0.537631 0.687267
O O6 0.560286 0.462910 0.892018
O O7 0.772247 0.432845 0.931638
O O8 0.813016 0.563550 0.040330
O O9 0.017814 0.681823 0.751467
O O10 0.081339 0.815196 0.900323
O O11 0.250790 0.789212 0.888230
O O12 0.500000 0.550975 0.500000
O O13 0.816799 0.573678 0.659600
O O14 0.321162 0.906463 0.200381
O O15 0.000000 0.878304 0.000000
O O16 0.500000 0.952751 0.500000
O O17 0.493908 0.036873 0.654269
O O18 0.000000 0.368962 0.000000
#
# Coordination Sequence:
#
# PCOD9121969 Si02
#       8
#     4   4   4   4   4   4   4   4
#     4  11  20  37  65  90 117 154 205 256 292 356
#     4  10  20  38  63  86 119 154 200 254 295 354
#     4  11  23  41  58  89 130 158 193 252 312 363
#     4  11  21  37  63  92 112 158 206 241 299 364
#     4  10  19  37  63  89 111 158 208 249 297 347
#     4  10  20  39  64  87 114 158 212 255 290 354
#     4  10  24  41  56  88 131 155 192 254 310 358
#     4  11  21  38  64  91 118 157 204 247 295 364
#
# _framework density 17.962212000000001
#
# number of rings (size 3 to 8) (size 9 to 14) (size 15 to 20)
#    0.000    1.500    7.500    1.500    1.750    1.000 
#    4.500    3.125    0.000    0.000    0.000    0.000 
#    0.000    0.000    0.000    0.000    0.000    0.000 
#
# Total GULP energy -89237.496075 kJ/mol
# GULP energy per Si atom -5577.343505 kJ/mol
# Density = 1.792133 g / cm^3
# Si number density = 17.962212 Si / 1000 Ang^3
#
#
#
# Elastic Constant Matrix: (Units=GPa)
#
#
# Indices 1 2 3 4 5 6 
#
# 1 64.3880 -0.0503 -12.1758 0.0000 -0.2571 0.0000
# 2 -0.0503 110.6959 24.3171 0.0000 13.4421 0.0000
# 3 -12.1758 24.3171 75.9170 0.0000 8.1425 0.0000
# 4 0.0000 0.0000 0.0000 22.2766 0.0000 3.6227
# 5 -0.2571 13.4421 8.1425 0.0000 25.0674 0.0000
# 6 0.0000 0.0000 0.0000 3.6227 0.0000 2.4563
#
#
#
# Elastic Compliance Matrix: (Units=1/GPa)
#
#
# Indices 1 2 3 4 5 6 
#
# 1 0.016058 -0.000554 0.002801 0.000000 -0.000448 0.000000
# 2 -0.000554 0.010217 -0.002873 0.000000 -0.004551 0.000000
# 3 0.002801 -0.002873 0.014892 0.000000 -0.003268 0.000000
# 4 0.000000 0.000000 0.000000 0.059054 0.000000 -0.087094
# 5 -0.000448 -0.004551 -0.003268 0.000000 0.043390 0.000000
# 6 0.000000 0.000000 0.000000 -0.087094 0.000000 0.535563
#
#
# Mechanical properties :
#
#
# Convention : Reuss Voigt Hill
#
# Bulk Modulus (GPa) = 25.05268 30.57587 27.81427
# Shear Modulus (GPa) = 7.20739 25.88738 16.54739
#
# Velocity S-wave (km/s) = 2.00530 3.80045 3.03848
# Velocity P-wave (km/s) = 4.39765 6.02637 5.27525
#
# Compressibility (1/GPa) = 0.03991589
#
# Stress axis : x y z
#
# Youngs Moduli (GPa) = 62.27323 97.87231 67.14844
#
# Poissons Ratio (x) = 0.05418 -0.18807
# Poissons Ratio (y) = 0.03447 0.19294
# Poissons Ratio (z) = -0.17442 0.28122
#
# Static dielectric constant tensor:
#      x y z
#    x 1.631470 0.000000 0.000510 
#    y 0.000000 1.583650 0.000000 
#    z 0.000510 0.000000 1.644590 
# 
# From -- ./inp_files/54918.got.cif
#   From: 2010.05.17/outbox.cif.g08.bks.cpg/sg5_28_cif.got.tgz:54918.got - 2010.06.03 18:56:24.
