data_PCOD9121475
_publ_section_title
;
Structure prediction by ZEFSAII (Michael W. Deem and Ramdas Pophale) SiO2 
 PCOD9121475
Probable space group: C 2
;
_chemical_formula_sum "Si O2"
_cell_formula_units_Z 30
_cell_length_a 9.200913
_cell_length_b 14.020572
_cell_length_c 11.658372
_cell_angle_alpha 90.000000
_cell_angle_beta 99.622895
_cell_angle_gamma 90.000000
_cell_volume 1482.792383
_symmetry_space_group_name_H-M "C 2"
_symmetry_group_IT_number 5
_symmetry_cell_setting 'monoclinic'
loop_
_space_group_symop_operation_xyz
x,y,z
-x,y,-z
1/2+x,1/2+y,z
1/2-x,1/2+y,-z
loop_
_atom_site_type_symbol
_atom_site_label
_atom_site_fract_x
_atom_site_fract_y
_atom_site_fract_z
Si Si1 0.264685 0.750000 0.564401
Si Si2 0.470829 0.070081 0.260748
Si Si3 0.863460 0.067913 0.690520
Si Si4 0.435125 0.677881 0.116100
Si Si5 0.719442 0.362257 0.331923
Si Si6 0.897361 0.732919 0.879562
Si Si7 0.030547 0.367820 0.256605
Si Si8 0.000000 0.640671 0.500000
O O1 0.357564 0.652592 0.595036
O O2 0.233792 0.784295 0.432812
O O3 0.332820 0.832707 0.649560
O O4 0.106981 0.711967 0.581186
O O5 0.292695 0.069915 0.258150
O O6 0.518396 0.157078 0.188350
O O7 0.547087 0.075948 0.398539
O O8 0.533116 0.974141 0.208962
O O9 0.997787 0.098580 0.789295
O O10 0.859206 0.960579 0.642490
O O11 0.258961 0.688337 0.099859
O O12 0.498004 0.781072 0.166235
O O13 0.500000 0.658361 0.000000
O O14 0.642303 0.321049 0.208534
O O15 0.890065 0.377344 0.322050
O O16 0.000000 0.758919 0.000000
#
# Coordination Sequence:
#
# PCOD9121475 Si02
#       8
#     4   4   4   4   4   4   4   2
#     4  10  19  34  56  86 119 155 196 238 296 354
#     4  10  20  38  60  89 121 156 205 243 297 352
#     4   9  21  38  61  87 118 162 199 244 304 358
#     4  10  21  42  61  85 119 160 201 252 308 357
#     4  10  20  37  60  86 118 153 204 244 299 357
#     4  11  23  39  61  90 118 159 204 258 296 355
#     4   9  21  35  62  87 113 159 198 245 296 359
#     4  10  20  34  56  82 124 164 186 244 296 358
#
# _framework density 20.232099000000002
#
# number of rings (size 3 to 8) (size 9 to 14) (size 15 to 20)
#    0.000    2.133    1.333    1.200    5.600    1.067 
#    2.400    2.667    2.933    0.000    0.000    0.000 
#    0.000    0.000    0.000    0.000    0.000    0.000 
#
# Total GULP energy -83523.696634 kJ/mol
# GULP energy per Si atom -5568.246442 kJ/mol
# Density = 2.018605 g / cm^3
# Si number density = 20.232099 Si / 1000 Ang^3
#
#
#
# Elastic Constant Matrix: (Units=GPa)
#
#
# Indices 1 2 3 4 5 6 
#
# 1 50.8371 6.5721 21.1391 0.0000 22.5068 0.0000
# 2 6.5721 76.4149 12.2969 0.0000 5.4421 0.0000
# 3 21.1391 12.2969 90.4827 0.0000 15.8085 0.0000
# 4 0.0000 0.0000 0.0000 10.8651 0.0000 -3.9796
# 5 22.5068 5.4421 15.8085 0.0000 33.0108 0.0000
# 6 0.0000 0.0000 0.0000 -3.9796 0.0000 22.7481
#
#
#
# Elastic Compliance Matrix: (Units=1/GPa)
#
#
# Indices 1 2 3 4 5 6 
#
# 1 0.029273 -0.000650 -0.003582 0.000000 -0.018136 0.000000
# 2 -0.000650 0.013458 -0.001492 0.000000 -0.001061 0.000000
# 3 -0.003582 -0.001492 0.012683 0.000000 -0.003386 0.000000
# 4 0.000000 0.000000 0.000000 0.098339 0.000000 0.017204
# 5 -0.018136 -0.001061 -0.003386 0.000000 0.044455 0.000000
# 6 0.000000 0.000000 0.000000 0.017204 0.000000 0.046969
#
#
# Mechanical properties :
#
#
# Convention : Reuss Voigt Hill
#
# Bulk Modulus (GPa) = 22.74414 33.08342 27.91378
# Shear Modulus (GPa) = 18.43110 25.17324 21.80217
#
# Velocity S-wave (km/s) = 3.02152 3.53118 3.28625
# Velocity P-wave (km/s) = 4.84137 5.74570 5.31281
#
# Compressibility (1/GPa) = 0.04396737
#
# Stress axis : x y z
#
# Youngs Moduli (GPa) = 34.16059 74.30542 78.84608
#
# Poissons Ratio (x) = 0.04827 0.28244
# Poissons Ratio (y) = 0.02219 0.11762
# Poissons Ratio (z) = 0.12237 0.11085
#
# Static dielectric constant tensor:
#      x y z
#    x 1.767480 0.000000 0.021840 
#    y 0.000000 1.827710 0.000000 
#    z 0.021840 0.000000 1.721890 
# 
# From -- ./inp_files/39253.got.cif
#   From: 2010.05.17/outbox.cif.g08.bks.cpg/sg5_20_cif.got.tgz:39253.got - 2010.06.03 18:56:24.
