data_PCOD9121021
_publ_section_title
;
Structure prediction by ZEFSAII (Michael W. Deem and Ramdas Pophale) SiO2 
 PCOD9121021
Probable space group: C 2
;
_chemical_formula_sum "Si O2"
_cell_formula_units_Z 30
_cell_length_a 10.457650
_cell_length_b 10.761396
_cell_length_c 16.686758
_cell_angle_alpha 90.000000
_cell_angle_beta 139.759522
_cell_angle_gamma 90.000000
_cell_volume 1213.124213
_symmetry_space_group_name_H-M "C 2"
_symmetry_group_IT_number 5
_symmetry_cell_setting 'monoclinic'
loop_
_space_group_symop_operation_xyz
x,y,z
-x,y,-z
1/2+x,1/2+y,z
1/2-x,1/2+y,-z
loop_
_atom_site_type_symbol
_atom_site_label
_atom_site_fract_x
_atom_site_fract_y
_atom_site_fract_z
Si Si1 0.749368 0.584250 0.671505
Si Si2 0.864492 0.125915 0.562307
Si Si3 0.663308 0.171054 0.837386
Si Si4 0.058047 0.928774 0.279610
Si Si5 0.872974 0.161551 0.097262
Si Si6 0.298906 0.943475 0.249582
Si Si7 0.835407 0.327231 0.667229
Si Si8 0.000000 0.788013 0.000000
O O1 0.602118 0.646400 0.664256
O O2 0.714463 0.634795 0.564952
O O3 0.707107 0.436922 0.643432
O O4 0.978933 0.605008 0.796139
O O5 0.866548 0.989837 0.602390
O O6 0.757091 0.217713 0.572594
O O7 0.579682 0.308201 0.779454
O O8 0.703939 0.088029 0.778422
O O9 0.837833 0.163362 0.985600
O O10 0.937006 0.033283 0.170539
O O11 0.254014 0.912595 0.319535
O O12 0.036606 0.261310 0.202801
O O13 0.666200 0.207249 0.036132
O O14 0.505645 0.894828 0.314756
O O15 0.120775 0.875507 0.118016
#
# Coordination Sequence:
#
# PCOD9121021 Si02
#       8
#     4   4   4   4   4   4   4   2
#     4  10  23  42  66  90 122 165 220 262 322 371
#     4  10  23  42  64  91 122 170 211 269 317 371
#     4  11  23  38  66  93 123 170 214 256 320 389
#     4  11  23  38  59  93 130 161 213 265 312 387
#     4  10  22  36  62  92 125 169 205 261 325 378
#     4  10  20  38  60  90 125 165 206 260 317 372
#     4   9  21  41  64  90 125 165 209 267 320 378
#     4  10  18  38  62  80 128 168 202 256 316 376
#
# _framework density 24.729537000000001
#
# number of rings (size 3 to 8) (size 9 to 14) (size 15 to 20)
#    0.000    1.867    1.333    1.600    9.333    2.133 
#    0.000    4.000    0.000    0.000    0.000    0.000 
#    0.000    0.000    0.000    0.000    0.000    0.000 
#
# Total GULP energy -83922.393507 kJ/mol
# GULP energy per Si atom -5594.826234 kJ/mol
# Density = 2.467325 g / cm^3
# Si number density = 24.729537 Si / 1000 Ang^3
#
#
#
# Elastic Constant Matrix: (Units=GPa)
#
#
# Indices 1 2 3 4 5 6 
#
# 1 80.8933 12.1655 4.3457 0.0000 -5.0397 0.0000
# 2 12.1655 133.8656 12.7150 0.0000 0.2788 0.0000
# 3 4.3457 12.7150 66.4715 0.0000 -13.3305 0.0000
# 4 0.0000 0.0000 0.0000 25.7406 0.0000 -1.5044
# 5 -5.0397 0.2788 -13.3305 0.0000 30.0604 0.0000
# 6 0.0000 0.0000 0.0000 -1.5044 0.0000 32.5509
#
#
#
# Elastic Compliance Matrix: (Units=1/GPa)
#
#
# Indices 1 2 3 4 5 6 
#
# 1 0.012671 -0.001137 -0.000201 0.000000 0.002046 0.000000
# 2 -0.001137 0.007727 -0.001599 0.000000 -0.000971 0.000000
# 3 -0.000201 -0.001599 0.016858 0.000000 0.007457 0.000000
# 4 0.000000 0.000000 0.000000 0.038954 0.000000 0.001800
# 5 0.002046 -0.000971 0.007457 0.000000 0.036925 0.000000
# 6 0.000000 0.000000 0.000000 0.001800 0.000000 0.030804
#
#
# Mechanical properties :
#
#
# Convention : Reuss Voigt Hill
#
# Bulk Modulus (GPa) = 31.86231 37.74251 34.80241
# Shear Modulus (GPa) = 31.19647 34.47067 32.83357
#
# Velocity S-wave (km/s) = 3.55562 3.73756 3.64772
# Velocity P-wave (km/s) = 5.45609 5.82418 5.64313
#
# Compressibility (1/GPa) = 0.03138505
#
# Stress axis : x y z
#
# Youngs Moduli (GPa) = 78.91940 129.41065 59.31742
#
# Poissons Ratio (x) = 0.14711 0.01190
# Poissons Ratio (y) = 0.08971 0.09482
# Poissons Ratio (z) = 0.01584 0.20687
#
# Static dielectric constant tensor:
#      x y z
#    x 1.982770 0.000000 0.032930 
#    y 0.000000 2.023000 0.000000 
#    z 0.032930 0.000000 1.958360 
# 
# From -- ./inp_files/38857.got.cif
#   From: 2010.05.17/outbox.cif.g08.bks.cpg/sg5_20_cif.got.tgz:38857.got - 2010.06.03 18:56:24.
