data_PCOD9121239
_publ_section_title
;
Structure prediction by ZEFSAII (Michael W. Deem and Ramdas Pophale) SiO2 
 PCOD9121239
Probable space group: C 2
;
_chemical_formula_sum "Si O2"
_cell_formula_units_Z 30
_cell_length_a 30.854472
_cell_length_b 5.626419
_cell_length_c 7.241821
_cell_angle_alpha 90.000000
_cell_angle_beta 84.964601
_cell_angle_gamma 90.000000
_cell_volume 1252.329593
_symmetry_space_group_name_H-M "C 2"
_symmetry_group_IT_number 5
_symmetry_cell_setting 'monoclinic'
loop_
_space_group_symop_operation_xyz
x,y,z
-x,y,-z
1/2+x,1/2+y,z
1/2-x,1/2+y,-z
loop_
_atom_site_type_symbol
_atom_site_label
_atom_site_fract_x
_atom_site_fract_y
_atom_site_fract_z
Si Si1 0.000000 0.570281 0.500000
Si Si2 0.286583 0.061498 0.400129
Si Si3 0.125196 0.058382 0.294930
Si Si4 0.915789 0.648455 0.326830
Si Si5 0.533495 0.675161 0.254621
Si Si6 0.936484 0.137471 0.176869
Si Si7 0.807564 0.064872 0.404448
Si Si8 0.851682 0.569153 0.698188
O O1 0.034243 0.676967 0.626989
O O2 0.032698 0.429136 0.351659
O O3 0.234808 0.062989 0.443150
O O4 0.303506 0.308922 0.309320
O O5 0.306145 0.055906 0.603652
O O6 0.302622 0.816009 0.303161
O O7 0.073081 0.038226 0.338824
O O8 0.150615 0.074648 0.479911
O O9 0.136033 0.320611 0.209660
O O10 0.142975 0.817441 0.195159
O O11 0.914469 0.391694 0.227091
O O12 0.884526 0.611320 0.512936
O O13 0.909538 0.894663 0.217356
O O14 0.481778 0.628451 0.277417
O O15 0.547925 0.653894 0.039306
#
# Coordination Sequence:
#
# PCOD9121239 Si02
#       8
#     2   4   4   4   4   4   4   4
#     4  10  22  36  64  76 108 128 194 224 272 292
#     4   8  14  25  41  65 102 127 153 197 258 306
#     4  10  19  30  51  75 101 127 173 215 253 300
#     4  11  22  38  54  80 101 142 173 222 254 322
#     4  10  22  40  54  80 101 143 171 227 254 319
#     4  10  25  38  54  71 112 139 178 204 277 308
#     4   8  14  25  41  67  97 130 153 198 259 303
#     4  10  19  30  49  78 101 129 169 213 254 301
#
# _framework density 23.955352999999999
#
# number of rings (size 3 to 8) (size 9 to 14) (size 15 to 20)
#    0.000    2.400    1.333    0.800    3.733    5.867 
#    0.000    0.000    0.000    0.000    0.000    1.867 
#    0.000    0.000    0.000    0.000    0.000    0.000 
#
# Total GULP energy -83534.572632 kJ/mol
# GULP energy per Si atom -5568.971509 kJ/mol
# Density = 2.390083 g / cm^3
# Si number density = 23.955353 Si / 1000 Ang^3
#
#
#
# Elastic Constant Matrix: (Units=GPa)
#
#
# Indices 1 2 3 4 5 6 
#
# 1 89.8360 9.3788 19.0122 0.0000 10.4573 0.0000
# 2 9.3788 248.3764 21.5035 0.0000 -2.2242 0.0000
# 3 19.0122 21.5035 19.3902 0.0000 -0.8751 0.0000
# 4 0.0000 0.0000 0.0000 -25.6684 0.0000 5.6294
# 5 10.4573 -2.2242 -0.8751 0.0000 8.6162 0.0000
# 6 0.0000 0.0000 0.0000 5.6294 0.0000 32.0762
#
#
#
# Elastic Compliance Matrix: (Units=1/GPa)
#
#
# Indices 1 2 3 4 5 6 
#
# 1 0.017916 0.000803 -0.019518 0.000000 -0.023520 0.000000
# 2 0.000803 0.004493 -0.005788 0.000000 -0.000402 0.000000
# 3 -0.019518 -0.005788 0.078491 0.000000 0.030167 0.000000
# 4 0.000000 0.000000 0.000000 -0.037515 0.000000 0.006584
# 5 -0.023520 -0.000402 0.030167 0.000000 0.147566 0.000000
# 6 0.000000 0.000000 0.000000 0.006584 0.000000 0.030020
#
#
# Mechanical properties :
#
#
# Convention : Reuss Voigt Hill
#
# Bulk Modulus (GPa) = 19.27064 50.82127 35.04595
# Shear Modulus (GPa) = 16.27194 23.51869 19.89531
#
# Velocity S-wave (km/s) = 2.60909 3.13672 2.88499
# Velocity P-wave (km/s) = 4.13985 5.86343 5.07534
#
# Compressibility (1/GPa) = 0.05189241
#
# Stress axis : x y z
#
# Youngs Moduli (GPa) = 55.81566 222.55045 12.74030
#
# Poissons Ratio (x) = -0.17864 0.24867
# Poissons Ratio (y) = -0.04480 0.07374
# Poissons Ratio (z) = 1.08944 1.28819
#
# Static dielectric constant tensor:
#      x y z
#    x 1.945060 0.000000 0.046100 
#    y 0.000000 2.110700 0.000000 
#    z 0.046100 0.000000 1.856440 
# 
# From -- ./inp_files/32169.got.cif
#   From: 2010.05.17/outbox.cif.g08.bks.cpg/sg5_17_cif.got.tgz:32169.got - 2010.06.03 18:56:24.
