data_PCOD9121517
_publ_section_title
;
Structure prediction by ZEFSAII (Michael W. Deem and Ramdas Pophale) SiO2 
 PCOD9121517
Probable space group: C 2
;
_chemical_formula_sum "Si O2"
_cell_formula_units_Z 32
_cell_length_a 13.011004
_cell_length_b 7.353350
_cell_length_c 15.758813
_cell_angle_alpha 90.000000
_cell_angle_beta 76.509238
_cell_angle_gamma 90.000000
_cell_volume 1466.114439
_symmetry_space_group_name_H-M "C 2"
_symmetry_group_IT_number 5
_symmetry_cell_setting 'monoclinic'
loop_
_space_group_symop_operation_xyz
x,y,z
-x,y,-z
1/2+x,1/2+y,z
1/2-x,1/2+y,-z
loop_
_atom_site_type_symbol
_atom_site_label
_atom_site_fract_x
_atom_site_fract_y
_atom_site_fract_z
Si Si1 0.132619 0.602800 0.790525
Si Si2 0.512404 0.448782 0.593837
Si Si3 0.358573 0.772425 0.425870
Si Si4 0.374068 0.013191 0.026005
Si Si5 0.955767 0.886775 0.778018
Si Si6 0.735039 0.206672 0.107353
Si Si7 0.198001 0.678740 0.602299
Si Si8 0.358887 0.677990 0.241921
O O1 0.159874 0.629184 0.883748
O O2 0.026423 0.711017 0.787335
O O3 0.214068 0.660877 0.700534
O O4 0.113819 0.387152 0.784830
O O5 0.500000 0.390665 0.500000
O O6 0.530732 0.665711 0.592151
O O7 0.430612 0.393597 0.682151
O O8 0.618326 0.344565 0.602762
O O9 0.295997 0.711326 0.521568
O O10 0.311619 0.693683 0.346083
O O11 0.356157 0.988786 0.416497
O O12 0.334703 0.808061 0.047335
O O13 0.500000 0.024529 0.000000
O O14 0.321473 0.084093 0.950641
O O15 0.848618 0.863866 0.849894
O O16 0.036015 0.053916 0.779648
O O17 0.776487 0.114912 0.186059
#
# Coordination Sequence:
#
# PCOD9121517 Si02
#       8
#     4   4   4   4   4   4   4   4
#     4   9  20  40  61  85 130 165 201 272 310 363
#     4  10  22  35  58  90 127 162 205 265 304 364
#     4  10  19  36  60  87 127 165 207 254 310 367
#     4  11  24  43  63  94 129 158 211 274 313 383
#     4  10  21  42  65  91 130 170 209 264 322 373
#     4  11  25  41  69  95 121 173 212 254 339 383
#     4  10  19  34  59  88 117 168 205 242 313 368
#     4   9  22  40  63  94 130 167 214 262 310 381
#
# _framework density 21.826401000000001
#
# number of rings (size 3 to 8) (size 9 to 14) (size 15 to 20)
#    0.000    2.000    2.500    0.000    3.500    3.500 
#    0.000    0.000    0.000    0.000    0.000    0.000 
#    0.000    0.000    0.000    0.000    0.000    0.000 
#
# Total GULP energy -89229.375429 kJ/mol
# GULP energy per Si atom -5576.835964 kJ/mol
# Density = 2.177672 g / cm^3
# Si number density = 21.826401 Si / 1000 Ang^3
#
#
#
# Elastic Constant Matrix: (Units=GPa)
#
#
# Indices 1 2 3 4 5 6 
#
# 1 43.9900 6.6028 36.2310 0.0000 11.4732 0.0000
# 2 6.6028 66.8292 8.5757 0.0000 1.5538 0.0000
# 3 36.2310 8.5757 120.0439 0.0000 12.3497 0.0000
# 4 0.0000 0.0000 0.0000 4.5337 0.0000 -15.7434
# 5 11.4732 1.5538 12.3497 0.0000 30.1864 0.0000
# 6 0.0000 0.0000 0.0000 -15.7434 0.0000 15.1983
#
#
#
# Elastic Compliance Matrix: (Units=1/GPa)
#
#
# Indices 1 2 3 4 5 6 
#
# 1 0.032512 -0.001883 -0.008787 0.000000 -0.008665 0.000000
# 2 -0.001883 0.015215 -0.000534 0.000000 0.000151 0.000000
# 3 -0.008787 -0.000534 0.011143 0.000000 -0.001192 0.000000
# 4 0.000000 0.000000 0.000000 -0.084929 0.000000 -0.087976
# 5 -0.008665 0.000151 -0.001192 0.000000 0.036901 0.000000
# 6 0.000000 0.000000 0.000000 -0.087976 0.000000 -0.025335
#
#
# Mechanical properties :
#
#
# Convention : Reuss Voigt Hill
#
# Bulk Modulus (GPa) = 27.42596 37.07578 32.25087
# Shear Modulus (GPa) = 249.15310 21.94725 135.55017
#
# Velocity S-wave (km/s) = 10.69579 3.17446 7.88914
# Velocity P-wave (km/s) = 12.85014 5.51904 9.88903
#
# Compressibility (1/GPa) = 0.03646180
#
# Stress axis : x y z
#
# Youngs Moduli (GPa) = 30.75788 65.72633 89.74278
#
# Poissons Ratio (x) = 0.12378 0.78853
# Poissons Ratio (y) = 0.05792 0.04793
# Poissons Ratio (z) = 0.27026 0.03510
#
# Static dielectric constant tensor:
#      x y z
#    x 1.818590 0.000000 0.014520 
#    y 0.000000 1.786960 0.000000 
#    z 0.014520 0.000000 1.895080 
# 
# From -- ./inp_files/52445.got.cif
#   From: 2010.05.17/outbox.cif.g08.bks.cpg/sg5_27_cif.got.tgz:52445.got - 2010.06.03 18:56:24.
