data_PCOD9121764
_publ_section_title
;
Structure prediction by ZEFSAII (Michael W. Deem and Ramdas Pophale) SiO2 
 PCOD9121764
Probable space group: C 2
;
_chemical_formula_sum "Si O2"
_cell_formula_units_Z 28
_cell_length_a 9.348182
_cell_length_b 12.928641
_cell_length_c 11.122287
_cell_angle_alpha 90.000000
_cell_angle_beta 118.324109
_cell_angle_gamma 90.000000
_cell_volume 1183.297307
_symmetry_space_group_name_H-M "C 2"
_symmetry_group_IT_number 5
_symmetry_cell_setting 'monoclinic'
loop_
_space_group_symop_operation_xyz
x,y,z
-x,y,-z
1/2+x,1/2+y,z
1/2-x,1/2+y,-z
loop_
_atom_site_type_symbol
_atom_site_label
_atom_site_fract_x
_atom_site_fract_y
_atom_site_fract_z
Si Si1 0.425421 0.488850 0.604867
Si Si2 0.724788 0.367660 0.801874
Si Si3 0.500000 0.025528 0.000000
Si Si4 0.500000 0.648585 0.000000
Si Si5 0.392649 0.900601 0.615217
Si Si6 0.963868 0.203731 0.252084
Si Si7 0.815844 0.785943 0.966007
Si Si8 0.325039 0.014048 0.152171
O O1 0.500000 0.496657 0.500000
O O2 0.543804 0.413576 0.724481
O O3 0.242971 0.445907 0.526828
O O4 0.448098 0.600630 0.672258
O O5 0.853610 0.452936 0.896663
O O6 0.784247 0.359684 0.687495
O O7 0.711211 0.281035 0.899884
O O8 0.576653 0.074728 0.913421
O O9 0.497554 0.716699 0.121309
O O10 0.654148 0.573512 0.088926
O O11 0.490039 0.794270 0.637583
O O12 0.528870 0.988625 0.695581
O O13 0.769403 0.202543 0.157267
O O14 0.727921 0.895974 0.900503
O O15 0.000000 0.794441 0.000000
#
# Coordination Sequence:
#
# PCOD9121764 Si02
#       8
#     4   4   2   2   4   4   4   4
#     4  10  22  43  63  89 127 181 220 255 305 394
#     4   9  17  35  65  86 120 172 215 256 316 391
#     4   8  14  29  56  91 114 162 212 255 306 387
#     4  12  22  39  66 101 136 156 206 293 340 369
#     4   9  20  42  64  85 126 181 222 247 316 393
#     4  11  23  40  63  96 131 165 215 277 325 377
#     4  10  19  36  59  98 130 162 208 271 337 377
#     4   9  18  34  62  91 127 168 211 257 326 390
#
# _framework density 23.662690000000001
#
# number of rings (size 3 to 8) (size 9 to 14) (size 15 to 20)
#    0.000    2.286    0.714    3.429    0.000    1.143 
#   12.857    5.000    0.000    0.000    0.000    0.000 
#    0.000    0.000    0.000    0.000    0.000    0.000 
#
# Total GULP energy -77956.733798 kJ/mol
# GULP energy per Si atom -5568.338128 kJ/mol
# Density = 2.360883 g / cm^3
# Si number density = 23.662690 Si / 1000 Ang^3
#
#
#
# Elastic Constant Matrix: (Units=GPa)
#
#
# Indices 1 2 3 4 5 6 
#
# 1 103.2536 9.2011 49.7563 0.0000 26.4560 0.0000
# 2 9.2011 88.3493 56.9544 0.0000 16.9344 0.0000
# 3 49.7563 56.9544 135.7704 0.0000 47.0949 0.0000
# 4 0.0000 0.0000 0.0000 44.0546 0.0000 6.3314
# 5 26.4560 16.9344 47.0949 0.0000 55.8094 0.0000
# 6 0.0000 0.0000 0.0000 6.3314 0.0000 35.4402
#
#
#
# Elastic Compliance Matrix: (Units=1/GPa)
#
#
# Indices 1 2 3 4 5 6 
#
# 1 0.012347 0.002116 -0.004467 0.000000 -0.002726 0.000000
# 2 0.002116 0.015926 -0.007680 0.000000 0.000645 0.000000
# 3 -0.004467 -0.007680 0.015102 0.000000 -0.008296 0.000000
# 4 0.000000 0.000000 0.000000 0.023297 0.000000 -0.004162
# 5 -0.002726 0.000645 -0.008296 0.000000 0.026015 0.000000
# 6 0.000000 0.000000 0.000000 -0.004162 0.000000 0.028960
#
#
# Mechanical properties :
#
#
# Convention : Reuss Voigt Hill
#
# Bulk Modulus (GPa) = 42.89510 62.13299 52.51404
# Shear Modulus (GPa) = 33.44938 41.15828 37.30383
#
# Velocity S-wave (km/s) = 3.76385 4.17511 3.97480
# Velocity P-wave (km/s) = 6.08736 7.03966 6.58076
#
# Compressibility (1/GPa) = 0.02331268
#
# Stress axis : x y z
#
# Youngs Moduli (GPa) = 80.98859 62.79208 66.21746
#
# Poissons Ratio (x) = -0.13289 0.29582
# Poissons Ratio (y) = -0.17141 0.50855
# Poissons Ratio (z) = 0.36181 0.48225
#
# Static dielectric constant tensor:
#      x y z
#    x 2.039900 0.000000 -0.081530 
#    y 0.000000 1.943290 0.000000 
#    z -0.081530 0.000000 1.678460 
# 
# From -- ./inp_files/36511.got.cif
#   From: 2010.05.17/outbox.cif.g08.bks.cpg/sg5_19_cif.got.tgz:36511.got - 2010.06.03 18:56:24.
