data_PCOD9121848
_publ_section_title
;
Structure prediction by ZEFSAII (Michael W. Deem and Ramdas Pophale) SiO2 
 PCOD9121848
Probable space group: C 2
;
_chemical_formula_sum "Si O2"
_cell_formula_units_Z 28
_cell_length_a 17.991457
_cell_length_b 5.584524
_cell_length_c 12.582108
_cell_angle_alpha 90.000000
_cell_angle_beta 68.356614
_cell_angle_gamma 90.000000
_cell_volume 1175.043962
_symmetry_space_group_name_H-M "C 2"
_symmetry_group_IT_number 5
_symmetry_cell_setting 'monoclinic'
loop_
_space_group_symop_operation_xyz
x,y,z
-x,y,-z
1/2+x,1/2+y,z
1/2-x,1/2+y,-z
loop_
_atom_site_type_symbol
_atom_site_label
_atom_site_fract_x
_atom_site_fract_y
_atom_site_fract_z
Si Si1 0.267401 0.154770 0.830546
Si Si2 0.663916 0.018011 0.754672
Si Si3 0.859105 0.976996 0.949157
Si Si4 0.726032 0.757133 0.458059
Si Si5 0.981921 0.765174 0.173548
Si Si6 0.910495 0.378843 0.759615
Si Si7 0.071644 0.166495 0.636898
O O1 0.225123 0.355995 0.784985
O O2 0.313068 0.276040 0.905928
O O3 0.339311 0.012447 0.736061
O O4 0.193725 0.012529 0.919538
O O5 0.618287 0.849093 0.692472
O O6 0.719784 0.217866 0.673055
O O7 0.588853 0.137956 0.853287
O O8 0.952297 0.923286 0.919841
O O9 0.865441 0.205504 0.866783
O O10 0.760815 0.533316 0.512851
O O11 0.632829 0.678845 0.506313
O O12 0.036475 0.566989 0.202020
O O13 0.940295 0.923289 0.288927
O O14 0.980644 0.242423 0.660043
#
# Coordination Sequence:
#
# PCOD9121848 Si02
#       7
#     4   4   4   4   4   4   4
#     4  11  21  37  60  87 122 164 223 255 318 389
#     4  10  21  35  59  97 124 154 213 278 312 385
#     4  10  20  37  60  78 117 173 204 252 325 391
#     4  10  19  36  63  97 129 167 208 263 348 395
#     4   9  18  37  58  83 120 156 201 257 327 374
#     4   9  19  36  59  84 114 167 204 250 316 392
#     4   9  18  36  61  89 122 160 201 259 331 389
#
# _framework density 23.828897999999999
#
# number of rings (size 3 to 8) (size 9 to 14) (size 15 to 20)
#    0.000    2.286    2.857    0.000    0.000    1.143 
#    0.000    7.857    0.000    9.429    0.000    0.000 
#    0.000    0.000    0.000    0.000    0.000    0.000 
#
# Total GULP energy -78089.803119 kJ/mol
# GULP energy per Si atom -5577.843080 kJ/mol
# Density = 2.377466 g / cm^3
# Si number density = 23.828898 Si / 1000 Ang^3
#
#
#
# Elastic Constant Matrix: (Units=GPa)
#
#
# Indices 1 2 3 4 5 6 
#
# 1 124.6925 24.5624 52.8461 0.0000 -42.5444 0.0000
# 2 24.5624 56.5019 4.5737 0.0000 -13.4213 0.0000
# 3 52.8461 4.5737 57.2804 0.0000 -42.8701 0.0000
# 4 0.0000 0.0000 0.0000 28.2688 0.0000 -15.1881
# 5 -42.5444 -13.4213 -42.8701 0.0000 45.5383 0.0000
# 6 0.0000 0.0000 0.0000 -15.1881 0.0000 68.4740
#
#
#
# Elastic Compliance Matrix: (Units=1/GPa)
#
#
# Indices 1 2 3 4 5 6 
#
# 1 0.014592 -0.005428 -0.013618 0.000000 -0.000788 0.000000
# 2 -0.005428 0.022550 0.014846 0.000000 0.015551 0.000000
# 3 -0.013618 0.014846 0.076463 0.000000 0.063636 0.000000
# 4 0.000000 0.000000 0.000000 0.040161 0.000000 0.008908
# 5 -0.000788 0.015551 0.063636 0.000000 0.085714 0.000000
# 6 0.000000 0.000000 0.000000 0.008908 0.000000 0.016580
#
#
# Mechanical properties :
#
#
# Convention : Reuss Voigt Hill
#
# Bulk Modulus (GPa) = 9.50521 44.71545 27.11033
# Shear Modulus (GPa) = 16.69290 38.88907 27.79098
#
# Velocity S-wave (km/s) = 2.64963 4.04420 3.41878
# Velocity P-wave (km/s) = 3.65490 6.37286 5.19479
#
# Compressibility (1/GPa) = 0.10520542
#
# Stress axis : x y z
#
# Youngs Moduli (GPa) = 68.53161 44.34497 13.07819
#
# Poissons Ratio (x) = 0.24071 0.17810
# Poissons Ratio (y) = 0.37199 -0.19416
# Poissons Ratio (z) = 0.93329 -0.65836
#
# Static dielectric constant tensor:
#      x y z
#    x 1.908660 0.000000 0.009410 
#    y 0.000000 1.974280 0.000000 
#    z 0.009410 0.000000 1.954390 
# 
# From -- ./inp_files/55267.got.cif
#   From: 2010.05.17/outbox.cif.g08.bks.cpg/sg5_28_cif.got.tgz:55267.got - 2010.06.03 18:56:24.
