data_PCOD9121415
_publ_section_title
;
Structure prediction by ZEFSAII (Michael W. Deem and Ramdas Pophale) SiO2 
 PCOD9121415
Probable space group: C 2
;
_chemical_formula_sum "Si O2"
_cell_formula_units_Z 26
_cell_length_a 7.573915
_cell_length_b 19.107140
_cell_length_c 7.544263
_cell_angle_alpha 90.000000
_cell_angle_beta 93.069846
_cell_angle_gamma 90.000000
_cell_volume 1090.207761
_symmetry_space_group_name_H-M "C 2"
_symmetry_group_IT_number 5
_symmetry_cell_setting 'monoclinic'
loop_
_space_group_symop_operation_xyz
x,y,z
-x,y,-z
1/2+x,1/2+y,z
1/2-x,1/2+y,-z
loop_
_atom_site_type_symbol
_atom_site_label
_atom_site_fract_x
_atom_site_fract_y
_atom_site_fract_z
Si Si1 0.354627 0.598620 0.257096
Si Si2 0.366692 0.314489 0.156966
Si Si3 0.273132 0.578416 0.836646
Si Si4 0.846196 0.429938 0.256741
Si Si5 0.750402 0.447313 0.633492
Si Si6 0.028239 0.679974 0.218584
Si Si7 0.500000 0.817579 0.000000
O O1 0.327223 0.524860 0.354481
O O2 0.044581 0.456797 0.304427
O O3 0.221294 0.660376 0.300807
O O4 0.298725 0.590387 0.047012
O O5 0.332469 0.389274 0.243910
O O6 0.460846 0.254928 0.277902
O O7 0.169505 0.282211 0.101305
O O8 0.500000 0.327372 0.000000
O O9 0.260874 0.494768 0.826107
O O10 0.437480 0.610465 0.739501
O O11 0.098822 0.614565 0.750408
O O12 0.752543 0.414956 0.437231
O O13 0.889337 0.365701 0.131743
O O14 0.000000 0.686165 0.000000
#
# Coordination Sequence:
#
# PCOD9121415 Si02
#       7
#     4   4   4   4   4   4   2
#     4  10  20  33  59  91 118 155 208 255 310 366
#     4  10  22  38  61  89 130 171 210 254 318 379
#     4  10  19  33  60  88 119 157 204 257 310 367
#     4  10  20  37  61  92 126 158 206 271 318 360
#     4  10  21  36  60  94 125 164 210 263 316 369
#     4   9  19  36  57  85 123 164 205 251 306 373
#     4  10  22  38  62  90 126 164 212 260 322 380
#
# _framework density 23.848662999999998
#
# number of rings (size 3 to 8) (size 9 to 14) (size 15 to 20)
#    0.000    2.154    1.538    1.846    5.385    4.308 
#    0.000    0.000    0.000   18.462    0.000    0.000 
#    0.000    0.000    0.000    0.000    0.000    0.000 
#
# Total GULP energy -72590.466153 kJ/mol
# GULP energy per Si atom -5583.882012 kJ/mol
# Density = 2.379438 g / cm^3
# Si number density = 23.848663 Si / 1000 Ang^3
#
#
#
# Elastic Constant Matrix: (Units=GPa)
#
#
# Indices 1 2 3 4 5 6 
#
# 1 98.3777 38.4856 25.7879 0.0000 -18.9126 0.0000
# 2 38.4856 96.2171 27.3236 0.0000 -14.9814 0.0000
# 3 25.7879 27.3236 59.4402 0.0000 -20.7980 0.0000
# 4 0.0000 0.0000 0.0000 -11.4425 0.0000 -6.0743
# 5 -18.9126 -14.9814 -20.7980 0.0000 23.6710 0.0000
# 6 0.0000 0.0000 0.0000 -6.0743 0.0000 35.9942
#
#
#
# Elastic Compliance Matrix: (Units=1/GPa)
#
#
# Indices 1 2 3 4 5 6 
#
# 1 0.013412 -0.003827 -0.001671 0.000000 0.006825 0.000000
# 2 -0.003827 0.013308 -0.003725 0.000000 0.002092 0.000000
# 3 -0.001671 -0.003725 0.025945 0.000000 0.019103 0.000000
# 4 0.000000 0.000000 0.000000 -0.080208 0.000000 -0.013536
# 5 0.006825 0.002092 0.019103 0.000000 0.065808 0.000000
# 6 0.000000 0.000000 0.000000 -0.013536 0.000000 0.025498
#
#
# Mechanical properties :
#
#
# Convention : Reuss Voigt Hill
#
# Bulk Modulus (GPa) = 29.22456 48.58102 38.90279
# Shear Modulus (GPa) = 53.40967 20.47373 36.94170
#
# Velocity S-wave (km/s) = 4.73750 2.93317 3.94001
# Velocity P-wave (km/s) = 6.49661 5.64678 6.08654
#
# Compressibility (1/GPa) = 0.03421780
#
# Stress axis : x y z
#
# Youngs Moduli (GPa) = 74.55750 75.14530 38.54278
#
# Poissons Ratio (x) = 0.28762 0.06442
# Poissons Ratio (y) = 0.28537 0.14357
# Poissons Ratio (z) = 0.12461 0.27991
#
# Static dielectric constant tensor:
#      x y z
#    x 1.978370 0.000000 0.008840 
#    y 0.000000 1.899430 0.000000 
#    z 0.008840 0.000000 2.003750 
# 
# From -- ./inp_files/16474.got.cif
#   From: 2010.05.17/outbox.cif.g08.bks.cpg/sg5_9_cif.got.tgz:16474.got - 2010.06.03 18:56:24.
