data_PCOD9121979
_publ_section_title
;
Structure prediction by ZEFSAII (Michael W. Deem and Ramdas Pophale) SiO2 
 PCOD9121979
Probable space group: C 2
;
_chemical_formula_sum "Si O2"
_cell_formula_units_Z 32
_cell_length_a 14.814330
_cell_length_b 7.202389
_cell_length_c 24.362894
_cell_angle_alpha 90.000000
_cell_angle_beta 152.697346
_cell_angle_gamma 90.000000
_cell_volume 1192.360042
_symmetry_space_group_name_H-M "C 2"
_symmetry_group_IT_number 5
_symmetry_cell_setting 'monoclinic'
loop_
_space_group_symop_operation_xyz
x,y,z
-x,y,-z
1/2+x,1/2+y,z
1/2-x,1/2+y,-z
loop_
_atom_site_type_symbol
_atom_site_label
_atom_site_fract_x
_atom_site_fract_y
_atom_site_fract_z
Si Si1 0.925329 0.781420 0.896732
Si Si2 0.988205 0.296099 0.791975
Si Si3 0.449275 0.382769 0.413839
Si Si4 0.470668 0.278564 0.305747
Si Si5 0.994972 0.351849 0.321190
Si Si6 0.738841 0.099133 0.988951
Si Si7 0.380213 0.805035 0.488232
Si Si8 0.950092 0.211649 0.911245
O O1 0.698366 0.730447 0.774306
O O2 0.049917 0.670622 0.919960
O O3 0.923019 0.998345 0.876150
O O4 0.000000 0.763516 0.000000
O O5 0.927553 0.279530 0.695454
O O6 0.153829 0.455307 0.896625
O O7 0.788316 0.356764 0.715102
O O8 0.093232 0.109400 0.871431
O O9 0.500000 0.295548 0.500000
O O10 0.535924 0.299107 0.404807
O O11 0.548854 0.588006 0.470196
O O12 0.644768 0.337917 0.358979
O O13 0.243156 0.336814 0.187733
O O14 0.450095 0.062626 0.280807
O O15 0.076226 0.370995 0.426490
O O16 0.849605 0.263626 0.012266
O O17 0.500000 0.877150 0.500000
O O18 0.000000 0.183180 0.000000
#
# Coordination Sequence:
#
# PCOD9121979 Si02
#       8
#     4   4   4   4   4   4   4   4
#     4  10  19  37  63  93 129 174 219 266 326 404
#     4  12  24  43  70 101 138 187 225 283 341 401
#     4  11  24  44  70 103 137 173 227 288 344 396
#     4  11  22  40  68  97 131 176 223 277 339 402
#     4  11  23  43  69  96 134 180 227 274 340 411
#     4  12  21  40  67  97 136 178 229 270 338 407
#     4  11  24  44  69 101 132 178 227 287 342 402
#     4  10  21  38  61  91 130 175 220 268 333 402
#
# _framework density 26.837534000000002
#
# number of rings (size 3 to 8) (size 9 to 14) (size 15 to 20)
#    0.000    1.000    3.750    5.250    0.000    1.500 
#    0.000    4.375    0.000    0.000    0.000    0.000 
#    0.000    0.000    0.000    0.000    0.000    0.000 
#
# Total GULP energy -89097.015875 kJ/mol
# GULP energy per Si atom -5568.563492 kJ/mol
# Density = 2.677645 g / cm^3
# Si number density = 26.837534 Si / 1000 Ang^3
#
#
#
# Elastic Constant Matrix: (Units=GPa)
#
#
# Indices 1 2 3 4 5 6 
#
# 1 217.0772 1.4209 36.1351 0.0002 27.3147 0.0000
# 2 1.4209 94.5164 9.7991 0.0002 -7.6071 -0.0001
# 3 36.1351 9.7991 65.6598 0.0012 29.7975 -0.0001
# 4 0.0002 0.0002 0.0012 22.3380 0.0000 -12.8392
# 5 27.3147 -7.6071 29.7975 0.0000 48.4897 0.0000
# 6 0.0000 -0.0001 -0.0001 -12.8392 0.0000 9.0847
#
#
#
# Elastic Compliance Matrix: (Units=1/GPa)
#
#
# Indices 1 2 3 4 5 6 
#
# 1 0.005160 0.000012 -0.002113 0.000000 -0.001607 0.000000
# 2 0.000012 0.011249 -0.003444 0.000001 0.003874 0.000001
# 3 -0.002113 -0.003444 0.023036 -0.000006 -0.013506 -0.000008
# 4 0.000000 0.000001 -0.000006 0.238516 0.000004 0.337090
# 5 -0.001607 0.003874 -0.013506 0.000004 0.030435 0.000006
# 6 0.000000 0.000001 -0.000008 0.337090 0.000006 0.586478
#
#
# Mechanical properties :
#
#
# Convention : Reuss Voigt Hill
#
# Bulk Modulus (GPa) = 35.26461 52.44040 43.85250
# Shear Modulus (GPa) = 5.46200 37.97569 21.71885
#
# Velocity S-wave (km/s) = 1.42816 3.76576 2.84786
# Velocity P-wave (km/s) = 3.98598 6.20405 5.21432
#
# Compressibility (1/GPa) = 0.02835704
#
# Stress axis : x y z
#
# Youngs Moduli (GPa) = 193.78240 88.89842 43.41066
#
# Poissons Ratio (x) = -0.00108 0.09171
# Poissons Ratio (y) = -0.00235 0.14949
# Poissons Ratio (z) = 0.40939 0.30612
#
# Static dielectric constant tensor:
#      x y z
#    x 2.194150 0.000000 0.102020 
#    y 0.000000 2.248430 0.000000 
#    z 0.102020 0.000000 2.237040 
# 
# From -- ./inp_files/68777.got.cif
#   From: 2010.05.17/outbox.cif.g08.bks.cpg/sg5_35_cif.got.tgz:68777.got - 2010.06.03 18:56:24.
