data_PCOD9121537
_publ_section_title
;
Structure prediction by ZEFSAII (Michael W. Deem and Ramdas Pophale) SiO2 
 PCOD9121537
Probable space group: C 2
;
_chemical_formula_sum "Si O2"
_cell_formula_units_Z 22
_cell_length_a 9.596288
_cell_length_b 14.711227
_cell_length_c 10.153895
_cell_angle_alpha 90.000000
_cell_angle_beta 43.765622
_cell_angle_gamma 90.000000
_cell_volume 991.536907
_symmetry_space_group_name_H-M "C 2"
_symmetry_group_IT_number 5
_symmetry_cell_setting 'monoclinic'
loop_
_space_group_symop_operation_xyz
x,y,z
-x,y,-z
1/2+x,1/2+y,z
1/2-x,1/2+y,-z
loop_
_atom_site_type_symbol
_atom_site_label
_atom_site_fract_x
_atom_site_fract_y
_atom_site_fract_z
Si Si1 0.544113 0.333300 0.732753
Si Si2 0.500000 0.682174 0.000000
Si Si3 0.173020 0.542148 0.201025
Si Si4 0.268130 0.839565 0.861217
Si Si5 0.149056 0.229107 0.627893
Si Si6 0.217534 0.030705 0.563676
O O1 0.659159 0.325715 0.795637
O O2 0.634501 0.261099 0.569759
O O3 0.596683 0.434872 0.639375
O O4 0.325956 0.304219 0.937329
O O5 0.671224 0.618303 0.951870
O O6 0.618934 0.733195 0.804727
O O7 0.247157 0.445922 0.099566
O O8 0.215559 0.539377 0.329028
O O9 0.932804 0.539473 0.341678
O O10 0.488918 0.801608 0.685248
O O11 0.106099 0.125885 0.610573
#
# Coordination Sequence:
#
# PCOD9121537 Si02
#       6
#     4   2   4   4   4   4
#     4  10  20  37  57  86 111 144 183 235 276 326
#     4  10  22  34  54  86 114 146 188 222 282 326
#     4   9  16  34  55  79 109 142 183 237 268 318
#     4  10  19  34  61  84 109 139 189 231 279 318
#     4  11  21  34  55  86 116 143 184 230 274 331
#     4   9  18  32  56  83 111 141 182 233 280 310
#
# _framework density 22.187778000000002
#
# number of rings (size 3 to 8) (size 9 to 14) (size 15 to 20)
#    0.000    2.182    1.818    3.818    2.545    0.000 
#    0.000    0.000    0.000   10.909    0.000    0.000 
#    0.000    0.000    0.000    0.000    0.000    0.000 
#
# Total GULP energy -61241.420042 kJ/mol
# GULP energy per Si atom -5567.401822 kJ/mol
# Density = 2.213728 g / cm^3
# Si number density = 22.187778 Si / 1000 Ang^3
#
#
#
# Elastic Constant Matrix: (Units=GPa)
#
#
# Indices 1 2 3 4 5 6 
#
# 1 10.9534 2.6659 -1.6806 -0.0003 -1.9329 0.0002
# 2 2.6659 86.8713 12.2966 -0.0001 12.0519 0.0001
# 3 -1.6806 12.2966 146.5954 -0.0004 5.2431 0.0007
# 4 -0.0003 -0.0001 -0.0004 25.9180 0.0003 -2.7773
# 5 -1.9329 12.0519 5.2431 0.0003 21.2393 -0.0005
# 6 0.0002 0.0001 0.0007 -2.7773 -0.0005 15.7297
#
#
#
# Elastic Compliance Matrix: (Units=1/GPa)
#
#
# Indices 1 2 3 4 5 6 
#
# 1 0.094500 -0.004568 0.001076 0.000001 0.010926 -0.000001
# 2 -0.004568 0.012810 -0.000860 0.000000 -0.007472 0.000000
# 3 0.001076 -0.000860 0.006946 0.000000 -0.001129 0.000000
# 4 0.000001 0.000000 0.000000 0.039327 0.000000 0.006944
# 5 0.010926 -0.007472 -0.001129 0.000000 0.052596 0.000001
# 6 -0.000001 0.000000 0.000000 0.006944 0.000001 0.064800
#
#
# Mechanical properties :
#
#
# Convention : Reuss Voigt Hill
#
# Bulk Modulus (GPa) = 9.47395 30.10932 19.79164
# Shear Modulus (GPa) = 15.87970 27.98663 21.93317
#
# Velocity S-wave (km/s) = 2.67815 3.55541 3.14749
# Velocity P-wave (km/s) = 3.72055 5.51854 4.70621
#
# Compressibility (1/GPa) = 0.10555256
#
# Stress axis : x y z
#
# Youngs Moduli (GPa) = 10.58196 78.06538 143.96119
#
# Poissons Ratio (x) = 0.35661 -0.15487
# Poissons Ratio (y) = 0.04834 0.12375
# Poissons Ratio (z) = -0.01138 0.06711
#
# Static dielectric constant tensor:
#      x y z
#    x 1.827510 0.000000 -0.037200 
#    y 0.000000 1.874780 0.000000 
#    z -0.037200 0.000000 1.880530 
# 
# From -- ./inp_files/39055.got.cif
#   From: 2010.05.17/outbox.cif.g08.bks.cpg/sg5_20_cif.got.tgz:39055.got - 2010.06.03 18:56:24.
