data_PCOD9121003
_publ_section_title
;
Structure prediction by ZEFSAII (Michael W. Deem and Ramdas Pophale) SiO2 
 PCOD9121003
Probable space group: C 2
;
_chemical_formula_sum "Si O2"
_cell_formula_units_Z 28
_cell_length_a 12.044495
_cell_length_b 17.871530
_cell_length_c 8.302471
_cell_angle_alpha 90.000000
_cell_angle_beta 119.115744
_cell_angle_gamma 90.000000
_cell_volume 1561.311247
_symmetry_space_group_name_H-M "C 2"
_symmetry_group_IT_number 5
_symmetry_cell_setting 'monoclinic'
loop_
_space_group_symop_operation_xyz
x,y,z
-x,y,-z
1/2+x,1/2+y,z
1/2-x,1/2+y,-z
loop_
_atom_site_type_symbol
_atom_site_label
_atom_site_fract_x
_atom_site_fract_y
_atom_site_fract_z
Si Si1 0.824067 0.134990 0.671923
Si Si2 0.975087 0.253252 0.175008
Si Si3 0.500000 0.522969 0.000000
Si Si4 0.683421 0.038159 0.303428
Si Si5 0.500000 0.156102 0.000000
Si Si6 0.267522 0.499015 0.029627
Si Si7 0.216336 0.674076 0.923636
Si Si8 0.480648 0.922205 0.295895
O O1 0.755573 0.083245 0.493464
O O2 0.730943 0.174812 0.738550
O O3 0.918786 0.198844 0.673542
O O4 0.917121 0.078224 0.831387
O O5 0.987696 0.335704 0.252934
O O6 0.833971 0.218662 0.085345
O O7 0.000000 0.254933 0.000000
O O8 0.599679 0.478674 0.960386
O O9 0.768307 0.000161 0.223631
O O10 0.591187 0.973003 0.299013
O O11 0.595014 0.101521 0.161575
O O12 0.586980 0.196359 0.925472
O O13 0.238343 0.585915 0.969920
O O14 0.152276 0.452915 0.869964
O O15 0.500000 0.930320 0.500000
#
# Coordination Sequence:
#
# PCOD9121003 Si02
#       8
#     4   4   2   4   2   4   4   4
#     4  10  19  34  60  86 114 155 195 242 292 350
#     4  10  20  38  60  85 118 153 193 247 297 347
#     4  10  18  38  56  86 118 146 202 238 290 350
#     4  11  21  34  58  87 115 156 196 244 293 347
#     4  10  20  34  54  84 120 148 202 242 284 350
#     4  10  19  37  56  81 118 150 196 241 292 347
#     4   9  17  36  56  81 116 152 192 238 294 344
#     4  12  23  36  58  88 119 154 200 248 293 348
#
# _framework density 17.933643
#
# number of rings (size 3 to 8) (size 9 to 14) (size 15 to 20)
#    0.000    1.714    6.429    2.571    0.000    2.857 
#    0.000    0.714    0.000    1.714    0.000    4.000 
#    0.000    0.000    0.000    0.000    0.000    0.000 
#
# Total GULP energy -77976.955176 kJ/mol
# GULP energy per Si atom -5569.782513 kJ/mol
# Density = 1.789283 g / cm^3
# Si number density = 17.933643 Si / 1000 Ang^3
#
#
#
# Elastic Constant Matrix: (Units=GPa)
#
#
# Indices 1 2 3 4 5 6 
#
# 1 165.8796 47.6255 48.5726 0.0000 -2.6370 0.0000
# 2 47.6255 76.2204 32.7132 0.0000 4.8629 0.0000
# 3 48.5726 32.7132 103.2482 0.0000 8.8460 0.0000
# 4 0.0000 0.0000 0.0000 31.3021 0.0000 2.5110
# 5 -2.6370 4.8629 8.8460 0.0000 13.8956 0.0000
# 6 0.0000 0.0000 0.0000 2.5110 0.0000 20.6096
#
#
#
# Elastic Compliance Matrix: (Units=1/GPa)
#
#
# Indices 1 2 3 4 5 6 
#
# 1 0.008157 -0.004145 -0.002942 0.000000 0.004871 0.000000
# 2 -0.004145 0.017366 -0.003135 0.000000 -0.004868 0.000000
# 3 -0.002942 -0.003135 0.012710 0.000000 -0.007552 0.000000
# 4 0.000000 0.000000 0.000000 0.032262 0.000000 -0.003931
# 5 0.004871 -0.004868 -0.007552 0.000000 0.079401 0.000000
# 6 0.000000 0.000000 0.000000 -0.003931 0.000000 0.049000
#
#
# Mechanical properties :
#
#
# Convention : Reuss Voigt Hill
#
# Bulk Modulus (GPa) = 56.21371 67.01897 61.61634
# Shear Modulus (GPa) = 22.19557 27.59059 24.89308
#
# Velocity S-wave (km/s) = 3.52184 3.92660 3.72972
# Velocity P-wave (km/s) = 6.92469 7.61638 7.27875
#
# Compressibility (1/GPa) = 0.01778925
#
# Stress axis : x y z
#
# Youngs Moduli (GPa) = 122.58763 57.58320 78.68078
#
# Poissons Ratio (x) = 0.23870 0.23144
# Poissons Ratio (y) = 0.50817 0.24667
# Poissons Ratio (z) = 0.36060 0.18052
#
# Static dielectric constant tensor:
#      x y z
#    x 1.708650 0.000000 -0.057720 
#    y 0.000000 1.587710 0.000000 
#    z -0.057720 0.000000 1.628620 
# 
# From -- ./inp_files/20742.got.cif
#   From: 2010.05.17/outbox.cif.g08.bks.cpg/sg5_11_cif.got.tgz:20742.got - 2010.06.03 18:56:24.
