data_PCOD9121831
_publ_section_title
;
Structure prediction by ZEFSAII (Michael W. Deem and Ramdas Pophale) SiO2 
 PCOD9121831
Probable space group: C 2
;
_chemical_formula_sum "Si O2"
_cell_formula_units_Z 30
_cell_length_a 20.921651
_cell_length_b 7.444436
_cell_length_c 12.607252
_cell_angle_alpha 90.000000
_cell_angle_beta 45.116022
_cell_angle_gamma 90.000000
_cell_volume 1391.268150
_symmetry_space_group_name_H-M "C 2"
_symmetry_group_IT_number 5
_symmetry_cell_setting 'monoclinic'
loop_
_space_group_symop_operation_xyz
x,y,z
-x,y,-z
1/2+x,1/2+y,z
1/2-x,1/2+y,-z
loop_
_atom_site_type_symbol
_atom_site_label
_atom_site_fract_x
_atom_site_fract_y
_atom_site_fract_z
Si Si1 0.317949 0.299260 0.303970
Si Si2 0.585718 0.203893 0.124492
Si Si3 0.756846 0.622607 0.172604
Si Si4 0.935279 0.991351 0.670785
Si Si5 0.832171 0.392395 0.362218
Si Si6 0.000000 0.822586 0.000000
Si Si7 0.979393 0.305369 0.766385
Si Si8 0.600426 0.819467 0.927444
O O1 0.254735 0.253854 0.276584
O O2 0.261126 0.382902 0.465615
O O3 0.347691 0.099465 0.309165
O O4 0.406897 0.401448 0.156965
O O5 0.556496 0.350673 0.243503
O O6 0.558729 0.006938 0.197514
O O7 0.694024 0.223425 0.981644
O O8 0.539592 0.234650 0.062529
O O9 0.665621 0.522616 0.253173
O O10 0.833523 0.474500 0.107705
O O11 0.963081 0.183453 0.685424
O O12 0.000000 0.936677 0.500000
O O13 0.841815 0.271412 0.244752
O O14 0.914768 0.326343 0.336293
O O15 0.929788 0.218327 0.929552
O O16 0.500000 0.872467 0.000000
#
# Coordination Sequence:
#
# PCOD9121831 Si02
#       8
#     4   4   4   4   4   2   4   4
#     4  10  20  36  65  93 129 169 214 279 337 395
#     4  10  23  43  72  96 131 179 226 278 336 402
#     4   9  21  39  64  90 132 173 222 268 327 402
#     4  12  27  44  66 101 138 180 230 281 330 399
#     4  10  19  36  62  97 129 164 214 276 349 386
#     4  10  20  44  70  94 134 178 220 274 348 406
#     4  10  21  42  69  92 134 182 223 272 339 405
#     4   8  17  36  67  92 125 174 215 269 343 395
#
# _framework density 21.56306
#
# number of rings (size 3 to 8) (size 9 to 14) (size 15 to 20)
#    0.000    2.133    1.333    1.600   13.067    3.733 
#    8.400    0.000    0.000    0.000    0.000    0.000 
#    0.000    0.000    0.000    0.000    0.000    0.000 
#
# Total GULP energy -83520.691880 kJ/mol
# GULP energy per Si atom -5568.046125 kJ/mol
# Density = 2.151398 g / cm^3
# Si number density = 21.563060 Si / 1000 Ang^3
#
#
#
# Elastic Constant Matrix: (Units=GPa)
#
#
# Indices 1 2 3 4 5 6 
#
# 1 68.0547 10.7850 26.1858 -0.0003 0.6978 0.0005
# 2 10.7850 57.7962 28.6041 -0.0042 9.5235 0.0006
# 3 26.1858 28.6041 167.8615 -0.0028 -4.5273 -0.0017
# 4 -0.0003 -0.0042 -0.0028 37.7759 -0.0002 27.8841
# 5 0.6978 9.5235 -4.5273 -0.0002 23.0030 -0.0015
# 6 0.0005 0.0006 -0.0017 27.8841 -0.0015 61.1344
#
#
#
# Elastic Compliance Matrix: (Units=1/GPa)
#
#
# Indices 1 2 3 4 5 6 
#
# 1 0.015820 -0.001864 -0.002154 0.000000 -0.000132 0.000000
# 2 -0.001864 0.020928 -0.003526 0.000004 -0.009302 -0.000002
# 3 -0.002154 -0.003526 0.006972 0.000000 0.002897 0.000000
# 4 0.000000 0.000004 0.000000 0.039908 -0.000002 -0.018203
# 5 -0.000132 -0.009302 0.002897 -0.000002 0.047898 0.000002
# 6 0.000000 -0.000002 0.000000 -0.018203 0.000002 0.024660
#
#
# Mechanical properties :
#
#
# Convention : Reuss Voigt Hill
#
# Bulk Modulus (GPa) = 34.92685 47.20693 41.06689
# Shear Modulus (GPa) = 27.65214 39.59182 33.62198
#
# Velocity S-wave (km/s) = 3.58493 4.28962 3.95300
# Velocity P-wave (km/s) = 5.77653 6.81722 6.31834
#
# Compressibility (1/GPa) = 0.02863127
#
# Stress axis : x y z
#
# Youngs Moduli (GPa) = 63.21293 47.78295 143.42514
#
# Poissons Ratio (x) = 0.08909 0.30889
# Poissons Ratio (y) = 0.11785 0.50575
# Poissons Ratio (z) = 0.13614 0.16849
#
# Static dielectric constant tensor:
#      x y z
#    x 1.742630 0.000000 0.048340 
#    y 0.000000 1.865850 0.000000 
#    z 0.048340 0.000000 1.800240 
# 
# From -- ./inp_files/47302.got.cif
#   From: 2010.05.17/outbox.cif.g08.bks.cpg/sg5_24_cif.got.tgz:47302.got - 2010.06.03 18:56:24.
