data_PCOD9121344
_publ_section_title
;
Structure prediction by ZEFSAII (Michael W. Deem and Ramdas Pophale) SiO2 
 PCOD9121344
Probable space group: C 2
;
_chemical_formula_sum "Si O2"
_cell_formula_units_Z 30
_cell_length_a 24.861418
_cell_length_b 8.115883
_cell_length_c 9.711664
_cell_angle_alpha 90.000000
_cell_angle_beta 121.996760
_cell_angle_gamma 90.000000
_cell_volume 1661.847431
_symmetry_space_group_name_H-M "C 2"
_symmetry_group_IT_number 5
_symmetry_cell_setting 'monoclinic'
loop_
_space_group_symop_operation_xyz
x,y,z
-x,y,-z
1/2+x,1/2+y,z
1/2-x,1/2+y,-z
loop_
_atom_site_type_symbol
_atom_site_label
_atom_site_fract_x
_atom_site_fract_y
_atom_site_fract_z
Si Si1 0.822401 0.958560 0.453802
Si Si2 0.451181 0.426575 0.768594
Si Si3 0.500000 0.122313 0.000000
Si Si4 0.758079 0.592775 0.889112
Si Si5 0.417430 0.557887 0.028727
Si Si6 0.219263 0.210690 0.381481
Si Si7 0.782842 0.966000 0.880128
Si Si8 0.376599 0.915889 0.917461
O O1 0.896294 0.933698 0.582075
O O2 0.785468 0.805741 0.472760
O O3 0.794874 0.985974 0.264392
O O4 0.799757 0.119509 0.506430
O O5 0.473980 0.245342 0.846177
O O6 0.515114 0.519935 0.813956
O O7 0.425780 0.512202 0.876685
O O8 0.439489 0.014960 0.962703
O O9 0.754495 0.783819 0.842495
O O10 0.826422 0.521495 0.936491
O O11 0.746694 0.568713 0.034867
O O12 0.358847 0.451803 0.003596
O O13 0.398589 0.747545 0.020264
O O14 0.165883 0.344899 0.266671
O O15 0.223399 0.071919 0.267635
#
# Coordination Sequence:
#
# PCOD9121344 Si02
#       8
#     4   4   2   4   4   4   4   4
#     4  11  21  35  52  87 114 146 179 235 285 323
#     4  10  19  33  53  80 113 148 180 233 275 328
#     4  10  20  30  54  80 116 144 192 228 272 328
#     4  11  23  35  60  80 116 141 191 226 285 329
#     4   9  18  34  56  76 109 145 186 222 274 327
#     4  10  22  33  58  78 119 143 186 228 285 327
#     4  11  20  41  57  82 107 153 186 229 270 347
#     4  10  19  33  52  86 106 146 186 231 268 330
#
# _framework density 18.052198000000001
#
# number of rings (size 3 to 8) (size 9 to 14) (size 15 to 20)
#    0.000    1.867    2.667    5.600    3.733    0.000 
#    0.000    0.667    0.000    0.000    0.000    0.000 
#    0.000    0.000    0.000    0.000    0.000    0.000 
#
# Total GULP energy -83665.514148 kJ/mol
# GULP energy per Si atom -5577.700943 kJ/mol
# Density = 1.801111 g / cm^3
# Si number density = 18.052198 Si / 1000 Ang^3
#
#
#
# Elastic Constant Matrix: (Units=GPa)
#
#
# Indices 1 2 3 4 5 6 
#
# 1 74.3522 12.3098 26.8358 0.0000 20.7937 0.0000
# 2 12.3098 67.0550 9.5570 0.0000 7.0072 0.0000
# 3 26.8358 9.5570 44.7695 0.0000 12.4751 0.0000
# 4 0.0000 0.0000 0.0000 20.7517 0.0000 5.1150
# 5 20.7937 7.0072 12.4751 0.0000 36.4630 0.0000
# 6 0.0000 0.0000 0.0000 5.1150 0.0000 37.7768
#
#
#
# Elastic Compliance Matrix: (Units=1/GPa)
#
#
# Indices 1 2 3 4 5 6 
#
# 1 0.019037 -0.001426 -0.009018 0.000000 -0.007497 0.000000
# 2 -0.001426 0.015624 -0.002068 0.000000 -0.001482 0.000000
# 3 -0.009018 -0.002068 0.029447 0.000000 -0.004535 0.000000
# 4 0.000000 0.000000 0.000000 0.049853 0.000000 -0.006750
# 5 -0.007497 -0.001482 -0.004535 0.000000 0.033537 0.000000
# 6 0.000000 0.000000 0.000000 -0.006750 0.000000 0.027385
#
#
# Mechanical properties :
#
#
# Convention : Reuss Voigt Hill
#
# Bulk Modulus (GPa) = 25.58480 31.50910 28.54695
# Shear Modulus (GPa) = 23.48143 28.16324 25.82233
#
# Velocity S-wave (km/s) = 3.61051 3.95410 3.78620
# Velocity P-wave (km/s) = 5.62000 6.19184 5.91284
#
# Compressibility (1/GPa) = 0.03908571
#
# Stress axis : x y z
#
# Youngs Moduli (GPa) = 52.52939 64.00218 33.95928
#
# Poissons Ratio (x) = 0.09127 0.30623
# Poissons Ratio (y) = 0.07491 0.07021
# Poissons Ratio (z) = 0.47369 0.13233
#
# Static dielectric constant tensor:
#      x y z
#    x 1.613230 0.000000 0.022140 
#    y 0.000000 1.640620 0.000000 
#    z 0.022140 0.000000 1.628740 
# 
# From -- ./inp_files/30602.got.cif
#   From: 2010.05.17/outbox.cif.g08.bks.cpg/sg5_16_cif.got.tgz:30602.got - 2010.06.03 18:56:24.
