data_PCOD9121670
_publ_section_title
;
Structure prediction by ZEFSAII (Michael W. Deem and Ramdas Pophale) SiO2 
 PCOD9121670
Probable space group: C 2
;
_chemical_formula_sum "Si O2"
_cell_formula_units_Z 28
_cell_length_a 7.035301
_cell_length_b 14.493197
_cell_length_c 14.069816
_cell_angle_alpha 90.000000
_cell_angle_beta 53.522072
_cell_angle_gamma 90.000000
_cell_volume 1153.553568
_symmetry_space_group_name_H-M "C 2"
_symmetry_group_IT_number 5
_symmetry_cell_setting 'monoclinic'
loop_
_space_group_symop_operation_xyz
x,y,z
-x,y,-z
1/2+x,1/2+y,z
1/2-x,1/2+y,-z
loop_
_atom_site_type_symbol
_atom_site_label
_atom_site_fract_x
_atom_site_fract_y
_atom_site_fract_z
Si Si1 0.013279 0.860010 0.830169
Si Si2 0.329321 0.538701 0.282488
Si Si3 0.489265 0.029710 0.803903
Si Si4 0.253413 0.197007 0.319740
Si Si5 0.754308 0.698242 0.544967
Si Si6 0.641599 0.849042 0.087311
Si Si7 0.230383 0.138054 0.040738
O O1 0.031346 0.759378 0.779503
O O2 0.183826 0.857008 0.872647
O O3 0.100521 0.932174 0.726071
O O4 0.766721 0.881891 0.953030
O O5 0.113729 0.532355 0.271539
O O6 0.257184 0.603325 0.391211
O O7 0.548617 0.581435 0.158808
O O8 0.713049 0.096623 0.734615
O O9 0.542407 0.927981 0.827736
O O10 0.287518 0.079112 0.929013
O O11 0.994669 0.241348 0.640649
O O12 0.257635 0.187374 0.431085
O O13 0.000000 0.746263 0.500000
O O14 0.613264 0.740345 0.075667
O O15 0.500000 0.150681 0.000000
#
# Coordination Sequence:
#
# PCOD9121670 Si02
#       7
#     4   4   4   4   4   4   4
#     4  10  19  39  66  97 133 183 221 276 347 415
#     4  11  23  40  67  94 137 180 231 289 345 407
#     4  11  21  39  66  99 135 180 226 281 344 424
#     4  11  23  45  76  96 137 187 232 281 353 409
#     4  11  24  46  70  99 129 182 240 293 339 398
#     4  10  19  35  62 101 140 173 228 267 342 425
#     4  12  21  36  63  97 139 183 225 281 349 415
#
# _framework density 24.272822999999999
#
# number of rings (size 3 to 8) (size 9 to 14) (size 15 to 20)
#    0.000    1.143    5.714    2.143    0.000    0.000 
#    2.571    5.714    9.429    0.000    0.000    0.000 
#    0.000    0.000    0.000    0.000    0.000    0.000 
#
# Total GULP energy -78168.972512 kJ/mol
# GULP energy per Si atom -5583.498037 kJ/mol
# Density = 2.421758 g / cm^3
# Si number density = 24.272823 Si / 1000 Ang^3
#
#
#
# Elastic Constant Matrix: (Units=GPa)
#
#
# Indices 1 2 3 4 5 6 
#
# 1 98.5911 -3.6335 20.2364 0.0000 -0.9690 0.0000
# 2 -3.6335 82.2422 -5.3196 0.0000 0.9799 0.0000
# 3 20.2364 -5.3196 77.6486 0.0000 4.0764 0.0000
# 4 0.0000 0.0000 0.0000 11.6626 0.0000 2.5151
# 5 -0.9690 0.9799 4.0764 0.0000 43.5320 0.0000
# 6 0.0000 0.0000 0.0000 2.5151 0.0000 16.4118
#
#
#
# Elastic Compliance Matrix: (Units=1/GPa)
#
#
# Indices 1 2 3 4 5 6 
#
# 1 0.010734 0.000287 -0.002804 0.000000 0.000495 0.000000
# 2 0.000287 0.012226 0.000781 0.000000 -0.000342 0.000000
# 3 -0.002804 0.000781 0.013734 0.000000 -0.001366 0.000000
# 4 0.000000 0.000000 0.000000 0.088674 0.000000 -0.013589
# 5 0.000495 -0.000342 -0.001366 0.000000 0.023118 0.000000
# 6 0.000000 0.000000 0.000000 -0.013589 0.000000 0.063014
#
#
# Mechanical properties :
#
#
# Convention : Reuss Voigt Hill
#
# Bulk Modulus (GPa) = 30.09983 31.22761 30.66372
# Shear Modulus (GPa) = 22.11921 30.80121 26.46021
#
# Velocity S-wave (km/s) = 3.02201 3.56611 3.30527
# Velocity P-wave (km/s) = 4.96027 5.46346 5.21793
#
# Compressibility (1/GPa) = 0.03322278
#
# Stress axis : x y z
#
# Youngs Moduli (GPa) = 93.16346 81.78984 72.80970
#
# Poissons Ratio (x) = -0.02347 0.20414
# Poissons Ratio (y) = -0.02674 -0.05685
# Poissons Ratio (z) = 0.26120 -0.06386
#
# Static dielectric constant tensor:
#      x y z
#    x 2.066340 0.000000 -0.027350 
#    y 0.000000 1.936220 0.000000 
#    z -0.027350 0.000000 1.881240 
# 
# From -- ./inp_files/50888.got.cif
#   From: 2010.05.17/outbox.cif.g08.bks.cpg/sg5_26_cif.got.tgz:50888.got - 2010.06.03 18:56:24.
