data_PCOD9121630
_publ_section_title
;
Structure prediction by ZEFSAII (Michael W. Deem and Ramdas Pophale) SiO2 
 PCOD9121630
Probable space group: C 2
;
_chemical_formula_sum "Si O2"
_cell_formula_units_Z 20
_cell_length_a 9.294151
_cell_length_b 22.863233
_cell_length_c 7.809402
_cell_angle_alpha 90.000000
_cell_angle_beta 147.101390
_cell_angle_gamma 90.000000
_cell_volume 901.339061
_symmetry_space_group_name_H-M "C 2"
_symmetry_group_IT_number 5
_symmetry_cell_setting 'monoclinic'
loop_
_space_group_symop_operation_xyz
x,y,z
-x,y,-z
1/2+x,1/2+y,z
1/2-x,1/2+y,-z
loop_
_atom_site_type_symbol
_atom_site_label
_atom_site_fract_x
_atom_site_fract_y
_atom_site_fract_z
Si Si1 0.517465 0.126470 0.808822
Si Si2 0.889268 0.360486 0.078330
Si Si3 0.747810 0.742172 0.866129
Si Si4 0.484024 0.559523 0.691686
Si Si5 0.396034 0.427549 0.705058
O O1 0.226807 0.108446 0.460402
O O2 0.500000 0.124718 0.000000
O O3 0.641863 0.190176 0.903214
O O4 0.725645 0.077880 0.957158
O O5 0.110704 0.398867 0.395511
O O6 0.847249 0.298822 0.128728
O O7 0.000000 0.351329 0.000000
O O8 0.613911 0.395457 0.805283
O O9 0.500000 0.721337 0.500000
O O10 0.000000 0.758328 0.000000
O O11 0.500000 0.558784 0.500000
O O12 0.394088 0.496073 0.661103
O O13 0.500000 0.418654 0.000000
#
# Coordination Sequence:
#
# PCOD9121630 Si02
#       5
#     4   4   4   4   4
#     4   9  18  33  58  88 117 155 201 244 296 362
#     4  12  25  42  64  93 126 166 210 259 315 372
#     4  11  21  38  64  93 124 162 208 256 304 367
#     4  10  19  35  59  87 119 157 201 248 297 360
#     4  12  25  42  64  93 127 166 209 259 315 373
#
# _framework density 22.189205999999999
#
# number of rings (size 3 to 8) (size 9 to 14) (size 15 to 20)
#    0.000    1.200    0.000    9.600    0.000    1.600 
#    0.000    1.000    0.000    7.200    0.000    0.000 
#    0.000    0.000    0.000    0.000    0.000    0.000 
#
# Total GULP energy -55957.610203 kJ/mol
# GULP energy per Si atom -5595.761020 kJ/mol
# Density = 2.213870 g / cm^3
# Si number density = 22.189206 Si / 1000 Ang^3
#
#
#
# Elastic Constant Matrix: (Units=GPa)
#
#
# Indices 1 2 3 4 5 6 
#
# 1 69.4479 31.6269 24.0576 0.0000 10.3588 0.0000
# 2 31.6269 149.5041 19.8393 0.0000 16.3807 0.0000
# 3 24.0576 19.8393 81.7010 0.0000 22.5340 0.0000
# 4 0.0000 0.0000 0.0000 38.2469 0.0000 14.7370
# 5 10.3588 16.3807 22.5340 0.0000 30.4002 0.0000
# 6 0.0000 0.0000 0.0000 14.7370 0.0000 70.5495
#
#
#
# Elastic Compliance Matrix: (Units=1/GPa)
#
#
# Indices 1 2 3 4 5 6 
#
# 1 0.017351 -0.002993 -0.004018 0.000000 -0.001321 0.000000
# 2 -0.002993 0.007671 -0.000154 0.000000 -0.002999 0.000000
# 3 -0.004018 -0.000154 0.016416 0.000000 -0.010716 0.000000
# 4 0.000000 0.000000 0.000000 0.028435 0.000000 -0.005940
# 5 -0.001321 -0.002999 -0.010716 0.000000 0.042904 0.000000
# 6 0.000000 0.000000 0.000000 -0.005940 0.000000 0.015415
#
#
# Mechanical properties :
#
#
# Convention : Reuss Voigt Hill
#
# Bulk Modulus (GPa) = 36.88919 50.18896 43.53907
# Shear Modulus (GPa) = 32.99075 42.84794 37.91935
#
# Velocity S-wave (km/s) = 3.86008 4.39911 4.13838
# Velocity P-wave (km/s) = 6.04383 6.96209 6.51915
#
# Compressibility (1/GPa) = 0.02710821
#
# Stress axis : x y z
#
# Youngs Moduli (GPa) = 57.63317 130.36204 60.91640
#
# Poissons Ratio (x) = 0.39012 0.24476
# Poissons Ratio (y) = 0.17247 0.00940
# Poissons Ratio (z) = 0.23157 0.02011
#
# Static dielectric constant tensor:
#      x y z
#    x 1.824550 0.000000 -0.020650 
#    y 0.000000 1.804660 0.000000 
#    z -0.020650 0.000000 1.783350 
# 
# From -- ./inp_files/17263.got.cif
#   From: 2010.05.17/outbox.cif.g08.bks.cpg/sg5_9_cif.got.tgz:17263.got - 2010.06.03 18:56:24.
