data_PCOD9121270
_publ_section_title
;
Structure prediction by ZEFSAII (Michael W. Deem and Ramdas Pophale) SiO2 
 PCOD9121270
Probable space group: C 2
;
_chemical_formula_sum "Si O2"
_cell_formula_units_Z 32
_cell_length_a 20.684493
_cell_length_b 11.262361
_cell_length_c 8.434932
_cell_angle_alpha 90.000000
_cell_angle_beta 62.540944
_cell_angle_gamma 90.000000
_cell_volume 1743.597554
_symmetry_space_group_name_H-M "C 2"
_symmetry_group_IT_number 5
_symmetry_cell_setting 'monoclinic'
loop_
_space_group_symop_operation_xyz
x,y,z
-x,y,-z
1/2+x,1/2+y,z
1/2-x,1/2+y,-z
loop_
_atom_site_type_symbol
_atom_site_label
_atom_site_fract_x
_atom_site_fract_y
_atom_site_fract_z
Si Si1 0.211547 0.480550 0.636040
Si Si2 0.926493 0.032541 0.022032
Si Si3 0.213530 0.192901 0.309027
Si Si4 0.343342 0.364024 0.650879
Si Si5 0.294877 0.116252 0.688648
Si Si6 0.347079 0.739617 0.269431
Si Si7 0.219721 0.920369 0.930015
Si Si8 0.928836 0.075709 0.653307
O O1 0.224345 0.594191 0.732734
O O2 0.289542 0.411526 0.571919
O O3 0.199436 0.533713 0.474365
O O4 0.151455 0.382117 0.749356
O O5 0.941355 0.063094 0.823719
O O6 0.910997 0.151274 0.143693
O O7 0.000000 0.971164 0.000000
O O8 0.851500 0.958415 0.092657
O O9 0.177908 0.217926 0.521458
O O10 0.246063 0.306935 0.190960
O O11 0.146664 0.144010 0.283209
O O12 0.353672 0.222152 0.628641
O O13 0.413274 0.449830 0.581663
O O14 0.304190 0.391141 0.864374
O O15 0.220731 0.192819 0.757679
O O16 0.278501 0.027103 0.850896
O O17 0.000000 0.134727 0.500000
#
# Coordination Sequence:
#
# PCOD9121270 Si02
#       8
#     4   4   4   4   4   4   4   4
#     4   9  17  30  48  78 108 138 179 225 278 323
#     4  10  21  37  56  80 114 150 187 231 278 341
#     4  10  19  31  53  82 114 144 184 232 280 334
#     4   9  20  31  52  78 109 146 183 231 280 331
#     4   9  17  31  48  77 111 138 178 229 280 324
#     4   9  17  31  51  77 108 142 184 225 275 328
#     4  10  20  32  54  83 114 146 186 234 286 328
#     4  10  21  37  54  81 111 149 189 232 284 337
#
# _framework density 18.352858000000001
#
# number of rings (size 3 to 8) (size 9 to 14) (size 15 to 20)
#    0.000    2.500    1.250    0.750    8.750    1.000 
#    0.000    0.000    0.000    1.500    0.000    0.000 
#    0.000    0.000    0.000    0.000    0.000    0.000 
#
# Total GULP energy -89077.971093 kJ/mol
# GULP energy per Si atom -5567.373193 kJ/mol
# Density = 1.831109 g / cm^3
# Si number density = 18.352858 Si / 1000 Ang^3
#
#
#
# Elastic Constant Matrix: (Units=GPa)
#
#
# Indices 1 2 3 4 5 6 
#
# 1 63.4060 18.7842 17.3394 0.0000 5.3996 0.0000
# 2 18.7842 107.2826 21.8629 0.0000 -0.4800 0.0000
# 3 17.3394 21.8629 49.5921 0.0000 6.2172 0.0000
# 4 0.0000 0.0000 0.0000 18.5626 0.0000 4.3615
# 5 5.3996 -0.4800 6.2172 0.0000 22.9091 0.0000
# 6 0.0000 0.0000 0.0000 4.3615 0.0000 11.8929
#
#
#
# Elastic Compliance Matrix: (Units=1/GPa)
#
#
# Indices 1 2 3 4 5 6 
#
# 1 0.018022 -0.002153 -0.004984 0.000000 -0.002941 0.000000
# 2 -0.002153 0.010548 -0.004129 0.000000 0.001849 0.000000
# 3 -0.004984 -0.004129 0.024422 0.000000 -0.005540 0.000000
# 4 0.000000 0.000000 0.000000 0.058951 0.000000 -0.021619
# 5 -0.002941 0.001849 -0.005540 0.000000 0.045886 0.000000
# 6 0.000000 0.000000 0.000000 -0.021619 0.000000 0.092012
#
#
# Mechanical properties :
#
#
# Convention : Reuss Voigt Hill
#
# Bulk Modulus (GPa) = 32.82923 37.36151 35.09537
# Shear Modulus (GPa) = 17.69745 21.49255 19.59500
#
# Velocity S-wave (km/s) = 3.10867 3.42581 3.27108
# Velocity P-wave (km/s) = 5.55083 6.00414 5.78193
#
# Compressibility (1/GPa) = 0.03046066
#
# Stress axis : x y z
#
# Youngs Moduli (GPa) = 55.48623 94.80556 40.94715
#
# Poissons Ratio (x) = 0.20413 0.20406
# Poissons Ratio (y) = 0.11947 0.16907
# Poissons Ratio (z) = 0.27652 0.39146
#
# Static dielectric constant tensor:
#      x y z
#    x 1.642120 0.000000 0.024250 
#    y 0.000000 1.703670 0.000000 
#    z 0.024250 0.000000 1.652790 
# 
# From -- ./inp_files/29471.got.cif
#   From: 2010.05.17/outbox.cif.g08.bks.cpg/sg5_15_cif.got.tgz:29471.got - 2010.06.03 18:56:24.
