data_PCOD9121347
_publ_section_title
;
Structure prediction by ZEFSAII (Michael W. Deem and Ramdas Pophale) SiO2 
 PCOD9121347
Probable space group: C 2
;
_chemical_formula_sum "Si O2"
_cell_formula_units_Z 28
_cell_length_a 8.250216
_cell_length_b 33.405266
_cell_length_c 5.246973
_cell_angle_alpha 90.000000
_cell_angle_beta 119.341218
_cell_angle_gamma 90.000000
_cell_volume 1260.563110
_symmetry_space_group_name_H-M "C 2"
_symmetry_group_IT_number 5
_symmetry_cell_setting 'monoclinic'
loop_
_space_group_symop_operation_xyz
x,y,z
-x,y,-z
1/2+x,1/2+y,z
1/2-x,1/2+y,-z
loop_
_atom_site_type_symbol
_atom_site_label
_atom_site_fract_x
_atom_site_fract_y
_atom_site_fract_z
Si Si1 0.224045 0.113200 0.159221
Si Si2 0.774502 0.483803 0.785041
Si Si3 0.219768 0.155045 0.652286
Si Si4 0.871058 0.828325 0.650072
Si Si5 0.379619 0.903491 0.652996
Si Si6 0.127780 0.739828 0.347981
Si Si7 0.718902 0.021757 0.710165
O O1 0.299208 0.128020 0.487494
O O2 0.261150 0.066270 0.164725
O O3 0.294489 0.140869 0.982948
O O4 0.000000 0.117749 0.000000
O O5 0.748940 0.439897 0.645908
O O6 0.705939 0.514753 0.516917
O O7 0.702208 0.492509 0.011643
O O8 0.000000 0.487077 0.000000
O O9 0.247493 0.200949 0.594535
O O10 0.000000 0.147773 0.500000
O O11 0.727512 0.864351 0.522015
O O12 0.780697 0.783868 0.572972
O O13 0.000000 0.830680 0.500000
O O14 0.000000 0.831707 0.000000
O O15 0.500000 0.917317 0.500000
O O16 0.500000 0.894118 0.000000
O O17 0.000000 0.735335 0.500000
O O18 0.000000 0.740603 0.000000
O O19 0.500000 0.014403 0.500000
#
# Coordination Sequence:
#
# PCOD9121347 Si02
#       7
#     4   4   4   4   4   4   4
#     4  10  21  36  53  77 111 144 178 227 281 327
#     4   9  18  33  53  77 108 140 178 231 277 313
#     4  10  21  37  56  79 110 146 182 227 278 329
#     4  10  22  40  59  85 122 154 182 234 296 341
#     4  11  21  37  62  88 114 152 197 237 279 340
#     4  10  21  38  59  82 112 147 184 228 279 333
#     4  10  19  33  53  76 103 141 183 224 271 325
#
# _framework density 22.212295000000001
#
# number of rings (size 3 to 8) (size 9 to 14) (size 15 to 20)
#    0.000    2.000    0.000    4.714    0.000    2.286 
#    0.000    4.286    0.000    0.000    0.000    0.000 
#    0.000    0.000    0.000    0.000    0.000    0.000 
#
# Total GULP energy -78189.565323 kJ/mol
# GULP energy per Si atom -5584.968952 kJ/mol
# Density = 2.216174 g / cm^3
# Si number density = 22.212295 Si / 1000 Ang^3
#
#
#
# Elastic Constant Matrix: (Units=GPa)
#
#
# Indices 1 2 3 4 5 6 
#
# 1 58.8312 24.1974 46.7392 0.0000 -24.8208 0.0000
# 2 24.1974 135.4211 34.7211 0.0000 -27.7773 0.0000
# 3 46.7392 34.7211 121.5664 0.0000 -42.2028 0.0000
# 4 0.0000 0.0000 0.0000 40.4770 0.0000 -9.1516
# 5 -24.8208 -27.7773 -42.2028 0.0000 37.0888 0.0000
# 6 0.0000 0.0000 0.0000 -9.1516 0.0000 -22.8658
#
#
#
# Elastic Compliance Matrix: (Units=1/GPa)
#
#
# Indices 1 2 3 4 5 6 
#
# 1 0.026763 -0.001128 -0.006683 0.000000 0.009461 0.000000
# 2 -0.001128 0.008782 -0.000088 0.000000 0.005722 0.000000
# 3 -0.006683 -0.000088 0.015282 0.000000 0.012850 0.000000
# 4 0.000000 0.000000 0.000000 0.022655 0.000000 -0.009067
# 5 0.009461 0.005722 0.012850 0.000000 0.052202 0.000000
# 6 0.000000 0.000000 0.000000 -0.009067 0.000000 -0.040104
#
#
# Mechanical properties :
#
#
# Convention : Reuss Voigt Hill
#
# Bulk Modulus (GPa) = 28.54812 58.57046 43.55929
# Shear Modulus (GPa) = 44.22690 24.95074 34.58882
#
# Velocity S-wave (km/s) = 4.46702 3.35518 3.95041
# Velocity P-wave (km/s) = 6.28378 6.43703 6.36087
#
# Compressibility (1/GPa) = 0.03502857
#
# Stress axis : x y z
#
# Youngs Moduli (GPa) = 37.36551 113.86604 65.43794
#
# Poissons Ratio (x) = 0.12843 0.43732
# Poissons Ratio (y) = 0.04215 0.00577
# Poissons Ratio (z) = 0.24971 0.01004
#
# Static dielectric constant tensor:
#      x y z
#    x 1.858540 0.000000 0.009150 
#    y 0.000000 1.827040 0.000000 
#    z 0.009150 0.000000 1.818930 
# 
# From -- ./inp_files/3995.got.cif
#   From: 2010.05.17/outbox.cif.g08.bks.cpg/sg5_2_cif.got.tgz:3995.got - 2010.06.03 18:56:24.
