data_PCOD9121337
_publ_section_title
;
Structure prediction by ZEFSAII (Michael W. Deem and Ramdas Pophale) SiO2 
 PCOD9121337
Probable space group: C 2
;
_chemical_formula_sum "Si O2"
_cell_formula_units_Z 30
_cell_length_a 13.372624
_cell_length_b 25.488189
_cell_length_c 5.164038
_cell_angle_alpha 90.000000
_cell_angle_beta 60.563044
_cell_angle_gamma 90.000000
_cell_volume 1532.892975
_symmetry_space_group_name_H-M "C 2"
_symmetry_group_IT_number 5
_symmetry_cell_setting 'monoclinic'
loop_
_space_group_symop_operation_xyz
x,y,z
-x,y,-z
1/2+x,1/2+y,z
1/2-x,1/2+y,-z
loop_
_atom_site_type_symbol
_atom_site_label
_atom_site_fract_x
_atom_site_fract_y
_atom_site_fract_z
Si Si1 0.500000 0.052531 0.500000
Si Si2 0.638723 0.230317 0.341610
Si Si3 0.886464 0.636869 0.274526
Si Si4 0.790996 0.544087 0.097968
Si Si5 0.075605 0.994895 0.147945
Si Si6 0.753104 0.899804 0.127635
Si Si7 0.138978 0.790353 0.840250
Si Si8 0.135150 0.441382 0.771046
O O1 0.442914 0.089965 0.363109
O O2 0.395131 0.025733 0.777175
O O3 0.500000 0.229179 0.500000
O O4 0.670064 0.176195 0.448264
O O5 0.674406 0.274377 0.504853
O O6 0.673652 0.245221 0.005866
O O7 0.811059 0.603644 0.167511
O O8 0.000000 0.663236 0.000000
O O9 0.672234 0.536908 0.103340
O O10 0.803821 0.499050 0.300037
O O11 0.000000 0.985700 0.500000
O O12 0.143425 0.941843 0.991397
O O13 0.000000 0.011205 0.000000
O O14 0.804934 0.843268 0.126390
O O15 0.661585 0.915211 0.463618
O O16 0.696385 0.907737 0.918984
O O17 0.000000 0.795691 0.000000
O O18 0.000000 0.445788 0.000000
#
# Coordination Sequence:
#
# PCOD9121337 Si02
#       8
#     2   4   4   4   4   4   4   4
#     4  10  20  32  58  80 128 148 198 238 304 362
#     4  10  19  33  52  81 116 150 184 233 295 357
#     4  10  19  33  51  85 121 154 187 236 305 365
#     4  10  24  34  58  85 121 164 199 243 299 358
#     4  11  24  40  58  81 119 162 210 246 285 349
#     4  11  23  39  59  84 118 156 202 243 299 351
#     4  10  21  34  55  80 115 153 190 234 286 352
#     4  11  23  38  59  87 120 153 194 247 301 357
#
# _framework density 19.570837999999998
#
# number of rings (size 3 to 8) (size 9 to 14) (size 15 to 20)
#    0.000    1.600    0.667    5.600   11.200    1.600 
#    0.000    0.000    0.000    0.000    0.000    4.667 
#    4.000    0.000    0.000    0.000    0.000    0.000 
#
# Total GULP energy -83720.321307 kJ/mol
# GULP energy per Si atom -5581.354754 kJ/mol
# Density = 1.952629 g / cm^3
# Si number density = 19.570838 Si / 1000 Ang^3
#
#
#
# Elastic Constant Matrix: (Units=GPa)
#
#
# Indices 1 2 3 4 5 6 
#
# 1 102.8711 52.7416 21.6470 0.0000 7.5402 0.0000
# 2 52.7416 82.7060 14.5074 0.0000 7.3574 0.0000
# 3 21.6470 14.5074 80.6903 0.0000 11.4659 0.0000
# 4 0.0000 0.0000 0.0000 15.8474 0.0000 2.4817
# 5 7.5402 7.3574 11.4659 0.0000 30.9973 0.0000
# 6 0.0000 0.0000 0.0000 2.4817 0.0000 22.1307
#
#
#
# Elastic Compliance Matrix: (Units=1/GPa)
#
#
# Indices 1 2 3 4 5 6 
#
# 1 0.014877 -0.009031 -0.002277 0.000000 -0.000633 0.000000
# 2 -0.009031 0.018118 -0.000565 0.000000 -0.001894 0.000000
# 3 -0.002277 -0.000565 0.013730 0.000000 -0.004390 0.000000
# 4 0.000000 0.000000 0.000000 0.064230 0.000000 -0.007203
# 5 -0.000633 -0.001894 -0.004390 0.000000 0.034488 0.000000
# 6 0.000000 0.000000 0.000000 -0.007203 0.000000 0.045994
#
#
# Mechanical properties :
#
#
# Convention : Reuss Voigt Hill
#
# Bulk Modulus (GPa) = 43.52318 49.33993 46.43155
# Shear Modulus (GPa) = 22.43734 25.61983 24.02858
#
# Velocity S-wave (km/s) = 3.38963 3.62205 3.50776
# Velocity P-wave (km/s) = 6.13241 6.53896 6.33895
#
# Compressibility (1/GPa) = 0.02297626
#
# Stress axis : x y z
#
# Youngs Moduli (GPa) = 67.21914 55.19418 72.83560
#
# Poissons Ratio (x) = 0.49846 0.16587
# Poissons Ratio (y) = 0.60706 0.04118
# Poissons Ratio (z) = 0.15308 0.03121
#
# Static dielectric constant tensor:
#      x y z
#    x 1.715210 0.000000 0.068880 
#    y 0.000000 1.726500 0.000000 
#    z 0.068880 0.000000 1.788260 
# 
# From -- ./inp_files/6131.got.cif
#   From: 2010.05.17/outbox.cif.g08.bks.cpg/sg5_4_cif.got.tgz:6131.got - 2010.06.03 18:56:24.
