data_PCOD9121715
_publ_section_title
;
Structure prediction by ZEFSAII (Michael W. Deem and Ramdas Pophale) SiO2 
 PCOD9121715
Probable space group: C 2
;
_chemical_formula_sum "Si O2"
_cell_formula_units_Z 30
_cell_length_a 12.035606
_cell_length_b 15.338926
_cell_length_c 8.843026
_cell_angle_alpha 90.000000
_cell_angle_beta 64.898540
_cell_angle_gamma 90.000000
_cell_volume 1478.359590
_symmetry_space_group_name_H-M "C 2"
_symmetry_group_IT_number 5
_symmetry_cell_setting 'monoclinic'
loop_
_space_group_symop_operation_xyz
x,y,z
-x,y,-z
1/2+x,1/2+y,z
1/2-x,1/2+y,-z
loop_
_atom_site_type_symbol
_atom_site_label
_atom_site_fract_x
_atom_site_fract_y
_atom_site_fract_z
Si Si1 0.500000 0.302270 0.500000
Si Si2 0.349598 0.243567 0.311069
Si Si3 0.124906 0.943881 0.248370
Si Si4 0.475745 0.918231 0.694160
Si Si5 0.674076 0.046078 0.704010
Si Si6 0.080639 0.235699 0.604067
Si Si7 0.115560 0.049465 0.675266
Si Si8 0.815966 0.909544 0.122298
O O1 0.449474 0.250007 0.386573
O O2 0.607154 0.365554 0.376644
O O3 0.352224 0.146538 0.242235
O O4 0.216824 0.253929 0.465792
O O5 0.357046 0.323837 0.191250
O O6 0.245713 0.998712 0.215145
O O7 0.131316 0.908196 0.075530
O O8 0.003695 0.003583 0.327278
O O9 0.500000 0.928192 0.500000
O O10 0.528265 0.823176 0.706380
O O11 0.331097 0.915378 0.801987
O O12 0.552044 0.992699 0.734815
O O13 0.766771 0.043668 0.504628
O O14 0.085161 0.151304 0.707106
O O15 0.000000 0.215082 0.500000
O O16 0.142848 0.995438 0.810006
#
# Coordination Sequence:
#
# PCOD9121715 Si02
#       8
#     2   4   4   4   4   4   4   4
#     4  12  24  42  68  94 128 180 224 268 334 394
#     4  11  23  40  66 101 130 172 223 270 327 394
#     4  12  24  41  68  95 135 171 221 274 336 386
#     4  11  21  41  67  91 128 174 216 260 331 394
#     4  11  23  42  69  95 131 173 224 268 328 401
#     4  10  19  35  69  95 125 165 224 263 322 389
#     4  11  20  38  68  99 124 166 222 278 322 389
#     4  12  24  42  65  97 137 173 215 278 331 388
#
# _framework density 20.292760999999999
#
# number of rings (size 3 to 8) (size 9 to 14) (size 15 to 20)
#    0.000    0.800    6.667    2.800    0.933    0.533 
#    0.000    6.667    8.800    0.000    0.000    0.000 
#    0.000    0.000    0.000    0.000    0.000    0.000 
#
# Total GULP energy -83867.512707 kJ/mol
# GULP energy per Si atom -5591.167514 kJ/mol
# Density = 2.024657 g / cm^3
# Si number density = 20.292761 Si / 1000 Ang^3
#
#
#
# Elastic Constant Matrix: (Units=GPa)
#
#
# Indices 1 2 3 4 5 6 
#
# 1 110.6105 58.2134 7.8786 0.0000 2.5719 0.0000
# 2 58.2134 120.8668 30.4424 0.0000 10.6440 0.0000
# 3 7.8786 30.4424 61.6947 0.0000 8.4151 0.0000
# 4 0.0000 0.0000 0.0000 -4.5479 0.0000 -49.5071
# 5 2.5719 10.6440 8.4151 0.0000 26.6220 0.0000
# 6 0.0000 0.0000 0.0000 -49.5071 0.0000 -150.7314
#
#
#
# Elastic Compliance Matrix: (Units=1/GPa)
#
#
# Indices 1 2 3 4 5 6 
#
# 1 0.012257 -0.006346 0.001444 0.000000 0.000897 0.000000
# 2 -0.006346 0.012883 -0.005150 0.000000 -0.002910 0.000000
# 3 0.001444 -0.005150 0.019128 0.000000 -0.004127 0.000000
# 4 0.000000 0.000000 0.000000 0.085378 0.000000 -0.028042
# 5 0.000897 -0.002910 -0.004127 0.000000 0.039944 0.000000
# 6 0.000000 0.000000 0.000000 -0.028042 0.000000 0.002576
#
#
# Mechanical properties :
#
#
# Convention : Reuss Voigt Hill
#
# Bulk Modulus (GPa) = 41.38256 54.02676 47.70466
# Shear Modulus (GPa) = 24.95932 -12.62227 6.16853
#
# Velocity S-wave (km/s) = 3.51089 -2.49672 1.74538
# Velocity P-wave (km/s) = 6.07224 4.28602 5.25558
#
# Compressibility (1/GPa) = 0.02416477
#
# Stress axis : x y z
#
# Youngs Moduli (GPa) = 81.58713 77.61995 52.27813
#
# Poissons Ratio (x) = 0.49257 -0.07548
# Poissons Ratio (y) = 0.51774 0.26922
# Poissons Ratio (z) = -0.11779 0.39972
#
# Static dielectric constant tensor:
#      x y z
#    x 1.911630 0.000000 0.099610 
#    y 0.000000 1.717820 0.000000 
#    z 0.099610 0.000000 1.747800 
# 
# From -- ./inp_files/20627.got.cif
#   From: 2010.05.17/outbox.cif.g08.bks.cpg/sg5_11_cif.got.tgz:20627.got - 2010.06.03 18:56:24.
