data_PCOD9121851
_publ_section_title
;
Structure prediction by ZEFSAII (Michael W. Deem and Ramdas Pophale) SiO2 
 PCOD9121851
Probable space group: C 2
;
_chemical_formula_sum "Si O2"
_cell_formula_units_Z 28
_cell_length_a 21.087808
_cell_length_b 7.247665
_cell_length_c 17.167773
_cell_angle_alpha 90.000000
_cell_angle_beta 25.259010
_cell_angle_gamma 90.000000
_cell_volume 1119.637186
_symmetry_space_group_name_H-M "C 2"
_symmetry_group_IT_number 5
_symmetry_cell_setting 'monoclinic'
loop_
_space_group_symop_operation_xyz
x,y,z
-x,y,-z
1/2+x,1/2+y,z
1/2-x,1/2+y,-z
loop_
_atom_site_type_symbol
_atom_site_label
_atom_site_fract_x
_atom_site_fract_y
_atom_site_fract_z
Si Si1 0.619730 0.801190 0.612927
Si Si2 0.829768 0.834699 0.843112
Si Si3 0.527080 0.978900 0.364031
Si Si4 0.272574 0.217711 0.080347
Si Si5 0.724923 0.638770 0.739059
Si Si6 0.985974 0.035493 0.889727
Si Si7 0.326038 0.449174 0.520971
O O1 0.687745 0.666894 0.471760
O O2 0.744302 0.874446 0.533754
O O3 0.532736 0.953493 0.659427
O O4 0.514709 0.667162 0.783102
O O5 0.735317 0.997375 0.908533
O O6 0.856153 0.645950 0.768380
O O7 0.998890 0.905536 0.668623
O O8 0.766591 0.778092 0.996704
O O9 0.618629 0.798214 0.285368
O O10 0.383653 0.041020 0.570922
O O11 0.411958 0.335742 0.956701
O O12 0.619435 0.633006 0.929892
O O13 0.752891 0.843548 0.674461
O O14 0.641515 0.529211 0.762223
#
# Coordination Sequence:
#
# PCOD9121851 Si02
#       7
#     4   4   4   4   4   4   4
#     4  11  20  38  69 103 132 179 232 274 347 401
#     4  11  22  37  60 103 131 172 221 290 330 400
#     4  11  23  39  66  96 135 171 223 290 330 407
#     4  12  21  36  65  94 137 172 231 274 349 400
#     4   9  22  42  65  96 138 177 228 280 346 400
#     4  10  21  40  69  96 135 184 221 280 346 414
#     4  10  19  36  64 101 133 172 225 281 329 405
#
# _framework density 25.008099999999999
#
# number of rings (size 3 to 8) (size 9 to 14) (size 15 to 20)
#    0.000    1.429    4.286    2.571    0.000    0.571 
#    0.000    0.000    6.286    8.571    0.000    0.000 
#    0.000    0.000    0.000    0.000    0.000    0.000 
#
# Total GULP energy -78361.841719 kJ/mol
# GULP energy per Si atom -5597.274409 kJ/mol
# Density = 2.495118 g / cm^3
# Si number density = 25.008100 Si / 1000 Ang^3
#
#
#
# Elastic Constant Matrix: (Units=GPa)
#
#
# Indices 1 2 3 4 5 6 
#
# 1 87.0419 33.0588 25.3938 -0.0002 -16.3489 -0.0001
# 2 33.0588 147.4448 38.7948 -0.0008 4.4850 0.0003
# 3 25.3938 38.7948 103.7624 -0.0009 9.7696 0.0005
# 4 -0.0002 -0.0008 -0.0009 38.4784 0.0000 -8.4709
# 5 -16.3489 4.4850 9.7696 0.0000 48.4247 0.0001
# 6 -0.0001 0.0003 0.0005 -8.4709 0.0001 32.4706
#
#
#
# Elastic Compliance Matrix: (Units=1/GPa)
#
#
# Indices 1 2 3 4 5 6 
#
# 1 0.014463 -0.002600 -0.003109 0.000000 0.005751 0.000000
# 2 -0.002600 0.007990 -0.002241 0.000000 -0.001166 0.000000
# 3 -0.003109 -0.002241 0.011535 0.000000 -0.003169 0.000000
# 4 0.000000 0.000000 0.000000 0.027572 0.000000 0.007193
# 5 0.005751 -0.001166 -0.003169 0.000000 0.023340 0.000000
# 6 0.000000 0.000000 0.000000 0.007193 0.000000 0.032674
#
#
# Mechanical properties :
#
#
# Convention : Reuss Voigt Hill
#
# Bulk Modulus (GPa) = 55.28589 59.19377 57.23983
# Shear Modulus (GPa) = 35.84136 39.94150 37.89143
#
# Velocity S-wave (km/s) = 3.78986 4.00076 3.89674
# Velocity P-wave (km/s) = 6.42696 6.71287 6.57147
#
# Compressibility (1/GPa) = 0.01808780
#
# Stress axis : x y z
#
# Youngs Moduli (GPa) = 69.14012 125.15164 86.69473
#
# Poissons Ratio (x) = 0.32536 0.26954
# Poissons Ratio (y) = 0.17975 0.19432
# Poissons Ratio (z) = 0.21496 0.28052
#
# Static dielectric constant tensor:
#      x y z
#    x 2.023810 0.000000 -0.015700 
#    y 0.000000 1.958700 0.000000 
#    z -0.015700 0.000000 2.005080 
# 
# From -- ./inp_files/67516.got.cif
#   From: 2010.05.17/outbox.cif.g08.bks.cpg/sg5_34_cif.got.tgz:67516.got - 2010.06.03 18:56:24.
