data_PCOD9121661
_publ_section_title
;
Structure prediction by ZEFSAII (Michael W. Deem and Ramdas Pophale) SiO2 
 PCOD9121661
Probable space group: C 2
;
_chemical_formula_sum "Si O2"
_cell_formula_units_Z 24
_cell_length_a 31.175989
_cell_length_b 7.111300
_cell_length_c 9.155239
_cell_angle_alpha 90.000000
_cell_angle_beta 149.478631
_cell_angle_gamma 90.000000
_cell_volume 1030.819584
_symmetry_space_group_name_H-M "C 2"
_symmetry_group_IT_number 5
_symmetry_cell_setting 'monoclinic'
loop_
_space_group_symop_operation_xyz
x,y,z
-x,y,-z
1/2+x,1/2+y,z
1/2-x,1/2+y,-z
loop_
_atom_site_type_symbol
_atom_site_label
_atom_site_fract_x
_atom_site_fract_y
_atom_site_fract_z
Si Si1 0.265786 0.034410 0.852382
Si Si2 0.027970 0.152531 0.733326
Si Si3 0.925454 0.574988 0.167906
Si Si4 0.847674 0.486676 0.652627
Si Si5 0.362854 0.825003 0.391971
Si Si6 0.679642 0.554571 0.326479
O O1 0.201021 0.163323 0.747214
O O2 0.211907 0.941849 0.562882
O O3 0.337462 0.149352 0.974317
O O4 0.318680 0.916932 0.122789
O O5 0.075334 0.344624 0.821517
O O6 0.000000 0.062941 0.500000
O O7 0.951549 0.229838 0.608142
O O8 0.090108 0.007852 0.993900
O O9 0.000000 0.629152 0.500000
O O10 0.915384 0.584654 0.961234
O O11 0.869058 0.475125 0.543695
O O12 0.754371 0.553973 0.427585
O O13 0.840864 0.264319 0.674334
#
# Coordination Sequence:
#
# PCOD9121661 Si02
#       6
#     4   4   4   4   4   4
#     4  10  21  36  56  91 119 153 190 251 288 347
#     4  10  19  35  61  87 113 157 198 238 281 360
#     4   9  16  35  57  81 111 152 192 236 283 336
#     4   9  20  33  59  90 114 154 196 244 286 354
#     4  11  22  36  61  89 116 151 206 239 291 343
#     4   9  20  37  59  86 120 153 196 237 301 341
#
# _framework density 23.282444000000002
#
# number of rings (size 3 to 8) (size 9 to 14) (size 15 to 20)
#    0.000    2.333    3.333    0.000    2.333    6.000 
#    0.000    0.000   11.000    0.000    4.333    0.000 
#    0.000    0.000    0.000    0.000    0.000    0.000 
#
# Total GULP energy -66849.044170 kJ/mol
# GULP energy per Si atom -5570.753681 kJ/mol
# Density = 2.322945 g / cm^3
# Si number density = 23.282444 Si / 1000 Ang^3
#
#
#
# Elastic Constant Matrix: (Units=GPa)
#
#
# Indices 1 2 3 4 5 6 
#
# 1 165.6734 19.5624 92.8558 0.0000 -16.8554 0.0000
# 2 19.5624 52.4962 9.4248 0.0000 -9.9105 0.0000
# 3 92.8558 9.4248 215.6817 0.0000 -41.7847 0.0000
# 4 0.0000 0.0000 0.0000 24.6606 0.0000 9.5196
# 5 -16.8554 -9.9105 -41.7847 0.0000 38.0908 0.0000
# 6 0.0000 0.0000 0.0000 9.5196 0.0000 14.5426
#
#
#
# Elastic Compliance Matrix: (Units=1/GPa)
#
#
# Indices 1 2 3 4 5 6 
#
# 1 0.008289 -0.002626 -0.003652 0.000000 -0.001021 0.000000
# 2 -0.002626 0.020870 0.001328 0.000000 0.005724 0.000000
# 3 -0.003652 0.001328 0.007498 0.000000 0.006955 0.000000
# 4 0.000000 0.000000 0.000000 0.054262 0.000000 -0.035520
# 5 -0.001021 0.005724 0.006955 0.000000 0.034919 0.000000
# 6 0.000000 0.000000 0.000000 -0.035520 0.000000 0.092015
#
#
# Mechanical properties :
#
#
# Convention : Reuss Voigt Hill
#
# Bulk Modulus (GPa) = 37.37409 75.28193 56.32801
# Shear Modulus (GPa) = 21.12627 36.25936 28.69282
#
# Velocity S-wave (km/s) = 3.01556 3.95063 3.51434
# Velocity P-wave (km/s) = 5.31151 7.29482 6.38069
#
# Compressibility (1/GPa) = 0.02675651
#
# Stress axis : x y z
#
# Youngs Moduli (GPa) = 120.64515 47.91603 133.37145
#
# Poissons Ratio (x) = 0.12582 0.48702
# Poissons Ratio (y) = 0.31681 -0.17705
# Poissons Ratio (z) = 0.44054 -0.06361
#
# Static dielectric constant tensor:
#      x y z
#    x 1.886310 0.000000 -0.126120 
#    y 0.000000 1.937210 0.000000 
#    z -0.126120 0.000000 2.088080 
# 
# From -- ./inp_files/26438.got.cif
#   From: 2010.05.17/outbox.cif.g08.bks.cpg/sg5_14_cif.got.tgz:26438.got - 2010.06.03 18:56:24.
