data_PCOD9121863
_publ_section_title
;
Structure prediction by ZEFSAII (Michael W. Deem and Ramdas Pophale) SiO2 
 PCOD9121863
Probable space group: C 2
;
_chemical_formula_sum "Si O2"
_cell_formula_units_Z 22
_cell_length_a 11.390087
_cell_length_b 14.353438
_cell_length_c 7.851478
_cell_angle_alpha 90.000000
_cell_angle_beta 131.534085
_cell_angle_gamma 90.000000
_cell_volume 960.863785
_symmetry_space_group_name_H-M "C 2"
_symmetry_group_IT_number 5
_symmetry_cell_setting 'monoclinic'
loop_
_space_group_symop_operation_xyz
x,y,z
-x,y,-z
1/2+x,1/2+y,z
1/2-x,1/2+y,-z
loop_
_atom_site_type_symbol
_atom_site_label
_atom_site_fract_x
_atom_site_fract_y
_atom_site_fract_z
Si Si1 0.421281 0.464570 0.665968
Si Si2 0.312137 0.264119 0.532528
Si Si3 0.516390 0.654875 0.208571
Si Si4 0.255895 0.963701 0.143589
Si Si5 0.000000 0.613440 0.500000
Si Si6 0.830530 0.259623 0.251343
O O1 0.371477 0.366780 0.533852
O O2 0.399802 0.573688 0.597234
O O3 0.322529 0.456851 0.745002
O O4 0.608562 0.467565 0.875090
O O5 0.133796 0.242146 0.306095
O O6 0.412648 0.182434 0.545935
O O7 0.301198 0.254421 0.729238
O O8 0.346959 0.685869 0.115770
O O9 0.500000 0.618683 0.000000
O O10 0.333293 0.864007 0.184285
O O11 0.382078 0.045200 0.284002
O O12 0.000000 0.243697 0.500000
#
# Coordination Sequence:
#
# PCOD9121863 Si02
#       6
#     4   4   4   4   2   4
#     4  10  20  39  59  93 127 167 205 255 317 377
#     4  10  23  38  62  97 128 166 208 265 315 372
#     4  11  20  40  70  93 123 168 218 254 314 381
#     4  10  19  36  65  88 127 169 206 247 319 384
#     4  12  20  38  66  96 122 168 220 256 304 382
#     4   9  20  38  63  93 124 168 203 260 312 374
#
# _framework density 22.896066999999999
#
# number of rings (size 3 to 8) (size 9 to 14) (size 15 to 20)
#    0.000    1.818    4.545    0.000    0.000    2.909 
#    4.909    0.000    4.000    0.000    4.727    0.000 
#    0.000    0.000    0.000    0.000    0.000    0.000 
#
# Total GULP energy -61256.406028 kJ/mol
# GULP energy per Si atom -5568.764184 kJ/mol
# Density = 2.284395 g / cm^3
# Si number density = 22.896067 Si / 1000 Ang^3
#
#
#
# Elastic Constant Matrix: (Units=GPa)
#
#
# Indices 1 2 3 4 5 6 
#
# 1 113.4379 54.2788 6.0744 0.0000 -0.5158 0.0000
# 2 54.2788 188.5948 27.2084 0.0000 11.4520 0.0000
# 3 6.0744 27.2084 31.5287 0.0000 18.0080 0.0000
# 4 0.0000 0.0000 0.0000 34.0891 0.0000 12.6999
# 5 -0.5158 11.4520 18.0080 0.0000 22.5883 0.0000
# 6 0.0000 0.0000 0.0000 12.6999 0.0000 45.7809
#
#
#
# Elastic Compliance Matrix: (Units=1/GPa)
#
#
# Indices 1 2 3 4 5 6 
#
# 1 0.010301 -0.003001 -0.000731 0.000000 0.002339 0.000000
# 2 -0.003001 0.006981 -0.006216 0.000000 0.001348 0.000000
# 3 -0.000731 -0.006216 0.065054 0.000000 -0.048728 0.000000
# 4 0.000000 0.000000 0.000000 0.032716 0.000000 -0.009076
# 5 0.002339 0.001348 -0.048728 0.000000 0.082488 0.000000
# 6 0.000000 0.000000 0.000000 -0.009076 0.000000 0.024361
#
#
# Mechanical properties :
#
#
# Convention : Reuss Voigt Hill
#
# Bulk Modulus (GPa) = 16.01540 56.52051 36.26795
# Shear Modulus (GPa) = 19.03956 36.89165 27.96561
#
# Velocity S-wave (km/s) = 2.88681 4.01841 3.49867
# Velocity P-wave (km/s) = 4.25695 6.80217 5.67411
#
# Compressibility (1/GPa) = 0.06243991
#
# Stress axis : x y z
#
# Youngs Moduli (GPa) = 97.07505 143.24284 15.37186
#
# Poissons Ratio (x) = 0.42993 0.01123
# Poissons Ratio (y) = 0.29136 0.09555
# Poissons Ratio (z) = 0.07094 0.89041
#
# Static dielectric constant tensor:
#      x y z
#    x 1.945320 0.000000 -0.086580 
#    y 0.000000 1.929530 0.000000 
#    z -0.086580 0.000000 1.955100 
# 
# From -- ./inp_files/20229.got.cif
#   From: 2010.05.17/outbox.cif.g08.bks.cpg/sg5_11_cif.got.tgz:20229.got - 2010.06.03 18:56:24.
