data_PCOD9121072
_publ_section_title
;
Structure prediction by ZEFSAII (Michael W. Deem and Ramdas Pophale) SiO2 
 PCOD9121072
Probable space group: C 2
;
_chemical_formula_sum "Si O2"
_cell_formula_units_Z 26
_cell_length_a 9.691794
_cell_length_b 17.793488
_cell_length_c 8.281311
_cell_angle_alpha 90.000000
_cell_angle_beta 137.083833
_cell_angle_gamma 90.000000
_cell_volume 972.445474
_symmetry_space_group_name_H-M "C 2"
_symmetry_group_IT_number 5
_symmetry_cell_setting 'monoclinic'
loop_
_space_group_symop_operation_xyz
x,y,z
-x,y,-z
1/2+x,1/2+y,z
1/2-x,1/2+y,-z
loop_
_atom_site_type_symbol
_atom_site_label
_atom_site_fract_x
_atom_site_fract_y
_atom_site_fract_z
Si Si1 0.000000 0.192120 0.500000
Si Si2 0.624743 0.783574 0.349425
Si Si3 0.054318 0.897445 0.868769
Si Si4 0.183359 0.751660 0.824103
Si Si5 0.507179 0.543771 0.329868
Si Si6 0.512841 0.945842 0.318151
Si Si7 0.059257 0.601582 0.869579
O O1 0.156697 0.253809 0.558358
O O2 0.915194 0.126801 0.554384
O O3 0.740469 0.752639 0.293682
O O4 0.634659 0.873737 0.359941
O O5 0.387369 0.757822 0.111432
O O6 0.052457 0.825417 0.751581
O O7 0.930903 0.975219 0.732475
O O8 0.287272 0.924537 0.063340
O O9 0.000000 0.871175 0.000000
O O10 0.071344 0.674675 0.770691
O O11 0.500000 0.504757 0.500000
O O12 0.288794 0.571224 0.077837
O O13 0.500000 0.948004 0.500000
O O14 0.565232 0.028659 0.295359
O O15 0.000000 0.622724 0.000000
#
# Coordination Sequence:
#
# PCOD9121072 Si02
#       7
#     2   4   4   4   4   4   4
#     4  10  18  38  66  92 110 154 216 258 298 354
#     4  10  20  38  68  88 120 162 223 254 302 374
#     4  10  22  40  63  90 126 166 205 255 322 367
#     4  10  21  40  60  91 124 168 208 258 305 379
#     4   9  21  39  61  91 119 157 213 253 309 367
#     4  10  23  41  64  93 121 167 214 259 314 377
#     4  11  23  40  63  92 132 164 202 264 325 366
#
# _framework density 26.736716999999999
#
# number of rings (size 3 to 8) (size 9 to 14) (size 15 to 20)
#    0.462    1.538    2.308    0.462    6.462    3.692 
#    2.769    0.769    0.000    0.000    0.000    0.000 
#    0.000    0.000    0.000    0.000    0.000    0.000 
#
# Total GULP energy -72540.272926 kJ/mol
# GULP energy per Si atom -5580.020994 kJ/mol
# Density = 2.667586 g / cm^3
# Si number density = 26.736717 Si / 1000 Ang^3
#
#
#
# Elastic Constant Matrix: (Units=GPa)
#
#
# Indices 1 2 3 4 5 6 
#
# 1 122.3501 94.1244 16.3068 0.0000 -35.7378 0.0000
# 2 94.1244 230.0764 51.3537 0.0000 -17.4426 0.0000
# 3 16.3068 51.3537 82.7092 0.0000 -8.1020 0.0000
# 4 0.0000 0.0000 0.0000 48.1207 0.0000 -10.5386
# 5 -35.7378 -17.4426 -8.1020 0.0000 48.6855 0.0000
# 6 0.0000 0.0000 0.0000 -10.5386 0.0000 56.0730
#
#
#
# Elastic Compliance Matrix: (Units=1/GPa)
#
#
# Indices 1 2 3 4 5 6 
#
# 1 0.015190 -0.005855 0.001553 0.000000 0.009311 0.000000
# 2 -0.005855 0.007386 -0.003653 0.000000 -0.002260 0.000000
# 3 0.001553 -0.003653 0.014268 0.000000 0.002205 0.000000
# 4 0.000000 0.000000 0.000000 0.021673 0.000000 0.004073
# 5 0.009311 -0.002260 0.002205 0.000000 0.026932 0.000000
# 6 0.000000 0.000000 0.000000 0.004073 0.000000 0.018599
#
#
# Mechanical properties :
#
#
# Convention : Reuss Voigt Hill
#
# Bulk Modulus (GPa) = 47.76887 84.30062 66.03475
# Shear Modulus (GPa) = 39.38933 48.79923 44.09428
#
# Velocity S-wave (km/s) = 3.84243 4.27684 4.06544
# Velocity P-wave (km/s) = 6.13114 7.48244 6.84024
#
# Compressibility (1/GPa) = 0.02093413
#
# Stress axis : x y z
#
# Youngs Moduli (GPa) = 65.83104 135.39750 70.08469
#
# Poissons Ratio (x) = 0.79276 -0.10881
# Poissons Ratio (y) = 0.38544 0.25600
# Poissons Ratio (z) = -0.10221 0.49457
#
# Static dielectric constant tensor:
#      x y z
#    x 2.078880 0.000000 0.191910 
#    y 0.000000 2.018320 0.000000 
#    z 0.191910 0.000000 2.375790 
# 
# From -- ./inp_files/20471.got.cif
#   From: 2010.05.17/outbox.cif.g08.bks.cpg/sg5_11_cif.got.tgz:20471.got - 2010.06.03 18:56:24.
