data_PCOD9121990
_publ_section_title
;
Structure prediction by ZEFSAII (Michael W. Deem and Ramdas Pophale) SiO2 
 PCOD9121990
Probable space group: C 2
;
_chemical_formula_sum "Si O2"
_cell_formula_units_Z 30
_cell_length_a 25.778428
_cell_length_b 8.910547
_cell_length_c 16.287452
_cell_angle_alpha 90.000000
_cell_angle_beta 20.748850
_cell_angle_gamma 90.000000
_cell_volume 1325.412623
_symmetry_space_group_name_H-M "C 2"
_symmetry_group_IT_number 5
_symmetry_cell_setting 'monoclinic'
loop_
_space_group_symop_operation_xyz
x,y,z
-x,y,-z
1/2+x,1/2+y,z
1/2-x,1/2+y,-z
loop_
_atom_site_type_symbol
_atom_site_label
_atom_site_fract_x
_atom_site_fract_y
_atom_site_fract_z
Si Si1 0.000000 0.564570 0.000000
Si Si2 0.450126 0.428670 0.383002
Si Si3 0.718190 0.728764 0.388412
Si Si4 0.231574 0.251430 0.831281
Si Si5 0.349206 0.490258 0.772131
Si Si6 0.085460 0.463642 0.456430
Si Si7 0.571685 0.883950 0.744018
Si Si8 0.064168 0.632564 0.172833
O O1 0.881105 0.669343 0.131635
O O2 0.909825 0.455817 0.194446
O O3 0.380768 0.581041 0.455678
O O4 0.330258 0.347768 0.620507
O O5 0.596444 0.471336 0.216563
O O6 0.499408 0.295158 0.251748
O O7 0.649586 0.830074 0.417541
O O8 0.704616 0.817238 0.494964
O O9 0.266443 0.339469 0.864173
O O10 0.287115 0.082645 0.753284
O O11 0.063493 0.267227 0.054409
O O12 0.500000 0.507069 0.500000
O O13 0.238779 0.622708 0.914142
O O14 0.000000 0.420136 0.500000
O O15 0.981218 0.564521 0.670724
O O16 0.506147 0.018489 0.786681
#
# Coordination Sequence:
#
# PCOD9121990 Si02
#       8
#     2   4   4   4   4   4   4   4
#     4  12  26  54  74  94 150 188 236 330 346 402
#     4  10  19  37  64  92 135 181 228 278 351 416
#     4  11  26  46  71 108 133 184 249 287 362 434
#     4   9  17  39  66  98 137 186 218 276 353 423
#     4   9  18  32  60  97 138 186 224 259 340 430
#     4  10  21  40  69 106 152 177 221 286 354 435
#     4  10  23  47  72  97 136 179 245 294 361 419
#     4   9  20  38  66  99 138 186 229 283 342 438
#
# _framework density 22.634461000000002
#
# number of rings (size 3 to 8) (size 9 to 14) (size 15 to 20)
#    0.000    2.133    1.333    2.000    0.000    6.933 
#    9.600    0.000    0.000    0.000    0.000    0.000 
#    0.000    0.000    0.000    0.000    0.000    0.000 
#
# Total GULP energy -83814.903481 kJ/mol
# GULP energy per Si atom -5587.660232 kJ/mol
# Density = 2.258294 g / cm^3
# Si number density = 22.634461 Si / 1000 Ang^3
#
#
#
# Elastic Constant Matrix: (Units=GPa)
#
#
# Indices 1 2 3 4 5 6 
#
# 1 61.0178 33.8153 4.5751 0.0000 9.9859 0.0000
# 2 33.8153 119.6841 36.2731 0.0000 -4.9528 0.0000
# 3 4.5751 36.2731 36.3903 0.0000 -1.6172 0.0000
# 4 0.0000 0.0000 0.0000 37.7080 0.0000 3.0932
# 5 9.9859 -4.9528 -1.6172 0.0000 27.9439 0.0000
# 6 0.0000 0.0000 0.0000 3.0932 0.0000 20.8399
#
#
#
# Elastic Compliance Matrix: (Units=1/GPa)
#
#
# Indices 1 2 3 4 5 6 
#
# 1 0.021957 -0.008050 0.004864 0.000000 -0.008992 0.000000
# 2 -0.008050 0.014981 -0.013710 0.000000 0.004738 0.000000
# 3 0.004864 -0.013710 0.040453 0.000000 -0.001827 0.000000
# 4 0.000000 0.000000 0.000000 0.026846 0.000000 -0.003985
# 5 -0.008992 0.004738 -0.001827 0.000000 0.039733 0.000000
# 6 0.000000 0.000000 0.000000 -0.003985 0.000000 0.048576
#
#
# Mechanical properties :
#
#
# Convention : Reuss Voigt Hill
#
# Bulk Modulus (GPa) = 22.93661 40.71324 31.82493
# Shear Modulus (GPa) = 20.75799 26.79362 23.77580
#
# Velocity S-wave (km/s) = 3.03165 3.44430 3.24454
# Velocity P-wave (km/s) = 4.73392 5.81756 5.30349
#
# Compressibility (1/GPa) = 0.04359841
#
# Stress axis : x y z
#
# Youngs Moduli (GPa) = 45.54454 66.75176 24.72006
#
# Poissons Ratio (x) = 0.53733 -0.12023
# Poissons Ratio (y) = 0.36662 0.33891
# Poissons Ratio (z) = -0.22151 0.91517
#
# Static dielectric constant tensor:
#      x y z
#    x 1.852370 0.000000 0.060560 
#    y 0.000000 1.836220 0.000000 
#    z 0.060560 0.000000 1.887520 
# 
# From -- ./inp_files/63796.got.cif
#   From: 2010.05.17/outbox.cif.g08.bks.cpg/sg5_32_cif.got.tgz:63796.got - 2010.06.03 18:56:24.
