data_PCOD9121596
_publ_section_title
;
Structure prediction by ZEFSAII (Michael W. Deem and Ramdas Pophale) SiO2 
 PCOD9121596
Probable space group: C 2
;
_chemical_formula_sum "Si O2"
_cell_formula_units_Z 26
_cell_length_a 11.365061
_cell_length_b 9.054324
_cell_length_c 12.380818
_cell_angle_alpha 90.000000
_cell_angle_beta 95.846098
_cell_angle_gamma 90.000000
_cell_volume 1267.396540
_symmetry_space_group_name_H-M "C 2"
_symmetry_group_IT_number 5
_symmetry_cell_setting 'monoclinic'
loop_
_space_group_symop_operation_xyz
x,y,z
-x,y,-z
1/2+x,1/2+y,z
1/2-x,1/2+y,-z
loop_
_atom_site_type_symbol
_atom_site_label
_atom_site_fract_x
_atom_site_fract_y
_atom_site_fract_z
Si Si1 0.500000 0.933430 0.500000
Si Si2 0.033718 0.325445 0.275949
Si Si3 0.706976 0.720481 0.998428
Si Si4 0.906106 0.040510 0.819667
Si Si5 0.346196 0.049146 0.307940
Si Si6 0.648479 0.003947 0.106938
Si Si7 0.951882 0.741275 0.146739
O O1 0.554602 0.840201 0.406094
O O2 0.396425 0.028362 0.433156
O O3 0.136821 0.401474 0.213323
O O4 0.913101 0.416696 0.251415
O O5 0.015311 0.163278 0.230761
O O6 0.635823 0.611402 0.071305
O O7 0.648090 0.883241 0.008237
O O8 0.836470 0.751177 0.061951
O O9 0.741922 0.617140 0.899959
O O10 0.790282 0.032246 0.732257
O O11 0.972423 0.888791 0.842249
O O12 0.400803 0.194783 0.258816
O O13 0.537547 0.112012 0.113112
#
# Coordination Sequence:
#
# PCOD9121596 Si02
#       7
#     2   4   4   4   4   4   4
#     4   8  16  40  56  78 118 148 186 234 284 320
#     4   8  18  35  59  79 115 149 185 234 276 330
#     4  10  21  35  55  82 116 141 189 230 272 341
#     4  10  19  35  57  83 109 147 187 228 282 333
#     4   8  18  36  55  76 113 145 182 231 275 334
#     4  10  19  36  56  82 109 154 178 229 285 324
#     4  10  20  35  55  82 111 146 185 232 276 332
#
# _framework density 20.514496000000001
#
# number of rings (size 3 to 8) (size 9 to 14) (size 15 to 20)
#    0.923    1.846    0.000    1.385    0.000    1.231 
#    2.769    6.923    3.385    0.000    0.000    0.000 
#    0.000    0.000    0.000    0.000    0.000    0.000 
#
# Total GULP energy -72391.236662 kJ/mol
# GULP energy per Si atom -5568.556666 kJ/mol
# Density = 2.046780 g / cm^3
# Si number density = 20.514496 Si / 1000 Ang^3
#
#
#
# Elastic Constant Matrix: (Units=GPa)
#
#
# Indices 1 2 3 4 5 6 
#
# 1 79.5117 52.2682 9.9401 0.0000 5.0695 0.0000
# 2 52.2682 146.6687 25.0956 0.0000 -8.6697 0.0000
# 3 9.9401 25.0956 90.0889 0.0000 -11.4956 0.0000
# 4 0.0000 0.0000 0.0000 24.9949 0.0000 -6.5109
# 5 5.0695 -8.6697 -11.4956 0.0000 17.2371 0.0000
# 6 0.0000 0.0000 0.0000 -6.5109 0.0000 29.2452
#
#
#
# Elastic Compliance Matrix: (Units=1/GPa)
#
#
# Indices 1 2 3 4 5 6 
#
# 1 0.017708 -0.006644 -0.001305 0.000000 -0.009420 0.000000
# 2 -0.006644 0.009751 -0.001211 0.000000 0.006051 0.000000
# 3 -0.001305 -0.001211 0.012627 0.000000 0.008196 0.000000
# 4 0.000000 0.000000 0.000000 0.042471 0.000000 0.009455
# 5 -0.009420 0.006051 0.008196 0.000000 0.069294 0.000000
# 6 0.000000 0.000000 0.000000 0.009455 0.000000 0.036299
#
#
# Mechanical properties :
#
#
# Convention : Reuss Voigt Hill
#
# Bulk Modulus (GPa) = 45.94383 54.54188 50.24286
# Shear Modulus (GPa) = 23.39444 29.55981 26.47713
#
# Velocity S-wave (km/s) = 3.38062 3.80007 3.59647
# Velocity P-wave (km/s) = 6.13861 6.77486 6.46457
#
# Compressibility (1/GPa) = 0.02176571
#
# Stress axis : x y z
#
# Youngs Moduli (GPa) = 56.47113 102.55636 79.19327
#
# Poissons Ratio (x) = 0.68140 0.10335
# Poissons Ratio (y) = 0.37520 0.09591
# Poissons Ratio (z) = 0.07370 0.12420
#
# Static dielectric constant tensor:
#      x y z
#    x 1.761580 0.000000 -0.002460 
#    y 0.000000 1.754750 0.000000 
#    z -0.002460 0.000000 1.769600 
# 
# From -- ./inp_files/52099.got.cif
#   From: 2010.05.17/outbox.cif.g08.bks.cpg/sg5_27_cif.got.tgz:52099.got - 2010.06.03 18:56:24.
