data_PCOD9121359
_publ_section_title
;
Structure prediction by ZEFSAII (Michael W. Deem and Ramdas Pophale) SiO2 
 PCOD9121359
Probable space group: C 2
;
_chemical_formula_sum "Si O2"
_cell_formula_units_Z 24
_cell_length_a 19.560575
_cell_length_b 5.554072
_cell_length_c 21.344250
_cell_angle_alpha 90.000000
_cell_angle_beta 151.974595
_cell_angle_gamma 90.000000
_cell_volume 1089.545281
_symmetry_space_group_name_H-M "C 2"
_symmetry_group_IT_number 5
_symmetry_cell_setting 'monoclinic'
loop_
_space_group_symop_operation_xyz
x,y,z
-x,y,-z
1/2+x,1/2+y,z
1/2-x,1/2+y,-z
loop_
_atom_site_type_symbol
_atom_site_label
_atom_site_fract_x
_atom_site_fract_y
_atom_site_fract_z
Si Si1 0.202926 0.758140 0.994960
Si Si2 0.466297 0.201623 0.721350
Si Si3 0.345222 0.096128 0.410404
Si Si4 0.874263 0.034543 0.244104
Si Si5 0.174475 0.083856 0.653882
Si Si6 0.137636 0.358306 0.449153
O O1 0.030610 0.745083 0.841701
O O2 0.252661 0.523393 0.993716
O O3 0.270257 0.702220 0.117063
O O4 0.582397 0.310716 0.765383
O O5 0.307940 0.315025 0.583223
O O6 0.432295 0.930204 0.673660
O O7 0.500000 0.113278 0.500000
O O8 0.267815 0.351221 0.336847
O O9 0.273784 0.849448 0.325791
O O10 0.377257 0.058932 0.509359
O O11 0.804600 0.016635 0.256179
O O12 0.033066 0.147418 0.386593
O O13 0.000000 0.098734 0.500000
#
# Coordination Sequence:
#
# PCOD9121359 Si02
#       6
#     4   4   4   4   4   4
#     4  10  22  38  58  83 123 161 201 234 291 366
#     4  11  23  36  56  90 124 157 192 247 310 357
#     4  10  20  33  53  82 112 144 191 247 284 339
#     4  11  21  37  58  85 116 162 197 247 294 361
#     4  10  19  33  54  82 108 143 198 245 281 330
#     4  12  21  35  58  88 122 154 194 252 305 353
#
# _framework density 22.027538
#
# number of rings (size 3 to 8) (size 9 to 14) (size 15 to 20)
#    0.000    1.333    6.667    2.000    0.000    0.000 
#    0.000    0.000    0.000    1.000    0.000    4.667 
#    0.000    0.000    0.000    0.000    0.000    0.000 
#
# Total GULP energy -66846.197009 kJ/mol
# GULP energy per Si atom -5570.516417 kJ/mol
# Density = 2.197740 g / cm^3
# Si number density = 22.027538 Si / 1000 Ang^3
#
#
#
# Elastic Constant Matrix: (Units=GPa)
#
#
# Indices 1 2 3 4 5 6 
#
# 1 40.5301 3.9701 22.2621 0.0003 -16.5565 0.0004
# 2 3.9701 115.2662 17.0946 0.0007 -3.5214 0.0011
# 3 22.2621 17.0946 103.6509 0.0003 -18.0550 0.0005
# 4 0.0003 0.0007 0.0003 33.3359 0.0000 -13.7047
# 5 -16.5565 -3.5214 -18.0550 0.0000 28.2760 0.0001
# 6 0.0004 0.0011 0.0005 -13.7047 0.0001 13.5955
#
#
#
# Elastic Compliance Matrix: (Units=1/GPa)
#
#
# Indices 1 2 3 4 5 6 
#
# 1 0.034069 -0.000007 -0.004322 -0.000001 0.017188 -0.000002
# 2 -0.000007 0.008894 -0.001432 -0.000001 0.000189 -0.000001
# 3 -0.004322 -0.001432 0.011634 0.000000 0.004720 0.000000
# 4 -0.000001 -0.000001 0.000000 0.051226 -0.000001 0.051638
# 5 0.017188 0.000189 0.004720 -0.000001 0.048467 -0.000002
# 6 -0.000002 -0.000001 0.000000 0.051638 -0.000002 0.125607
#
#
# Mechanical properties :
#
#
# Convention : Reuss Voigt Hill
#
# Bulk Modulus (GPa) = 23.21602 38.45564 30.83583
# Shear Modulus (GPa) = 16.35167 29.44951 22.90059
#
# Velocity S-wave (km/s) = 2.72753 3.66039 3.22783
# Velocity P-wave (km/s) = 4.52566 5.94647 5.28404
#
# Compressibility (1/GPa) = 0.04307371
#
# Stress axis : x y z
#
# Youngs Moduli (GPa) = 29.35218 112.43509 85.95163
#
# Poissons Ratio (x) = 0.00083 0.37150
# Poissons Ratio (y) = 0.00022 0.12312
# Poissons Ratio (z) = 0.12686 0.16105
#
# Static dielectric constant tensor:
#      x y z
#    x 1.833560 0.000000 -0.028000 
#    y 0.000000 1.970710 0.000000 
#    z -0.028000 0.000000 1.852200 
# 
# From -- ./inp_files/30237.got.cif
#   From: 2010.05.17/outbox.cif.g08.bks.cpg/sg5_16_cif.got.tgz:30237.got - 2010.06.03 18:56:24.
