data_PCOD9121092
_publ_section_title
;
Structure prediction by ZEFSAII (Michael W. Deem and Ramdas Pophale) SiO2 
 PCOD9121092
Probable space group: C 2
;
_chemical_formula_sum "Si O2"
_cell_formula_units_Z 32
_cell_length_a 9.395539
_cell_length_b 14.356330
_cell_length_c 11.677668
_cell_angle_alpha 90.000000
_cell_angle_beta 93.896312
_cell_angle_gamma 90.000000
_cell_volume 1571.506891
_symmetry_space_group_name_H-M "C 2"
_symmetry_group_IT_number 5
_symmetry_cell_setting 'monoclinic'
loop_
_space_group_symop_operation_xyz
x,y,z
-x,y,-z
1/2+x,1/2+y,z
1/2-x,1/2+y,-z
loop_
_atom_site_type_symbol
_atom_site_label
_atom_site_fract_x
_atom_site_fract_y
_atom_site_fract_z
Si Si1 0.669366 0.568870 0.486246
Si Si2 0.548296 0.250044 0.194016
Si Si3 0.374803 0.230350 0.401506
Si Si4 0.772173 0.931351 0.312711
Si Si5 0.207789 0.749707 0.981108
Si Si6 0.644383 0.933761 0.067415
Si Si7 0.155748 0.064744 0.054835
Si Si8 0.900150 0.944721 0.728338
O O1 0.500000 0.592913 0.500000
O O2 0.763671 0.654771 0.444992
O O3 0.742386 0.515859 0.597775
O O4 0.661817 0.490215 0.388053
O O5 0.462383 0.199049 0.290877
O O6 0.423625 0.286952 0.102281
O O7 0.628676 0.335699 0.258192
O O8 0.657021 0.212875 0.103302
O O9 0.500000 0.248897 0.500000
O O10 0.294697 0.328137 0.368705
O O11 0.655304 0.927098 0.205466
O O12 0.928691 0.951313 0.268833
O O13 0.317386 0.834299 0.987722
O O14 0.268404 0.661766 0.918215
O O15 0.500000 0.966851 0.000000
O O16 0.762959 0.006615 0.036209
O O17 0.152265 0.001009 0.165786
O O18 0.000000 0.085654 0.000000
#
# Coordination Sequence:
#
# PCOD9121092 Si02
#       8
#     4   4   4   4   4   4   4   4
#     4  10  23  43  68  98 128 173 230 281 334 404
#     4  10  20  39  67  93 126 175 225 273 333 400
#     4  11  22  42  71  98 132 173 227 281 337 403
#     4  10  21  44  70  93 129 180 227 268 336 415
#     4  11  22  39  63  96 133 171 224 277 332 405
#     4  12  25  43  64 101 141 174 220 290 338 399
#     4  12  23  40  66  95 131 180 222 270 347 415
#     4  10  18  38  71  89 119 175 227 267 321 409
#
# _framework density 20.362621000000001
#
# number of rings (size 3 to 8) (size 9 to 14) (size 15 to 20)
#    0.000    1.250    5.000    3.000    1.750    1.000 
#    2.250    0.625    0.000    0.000    0.000    0.000 
#    0.000    0.000    0.000    0.000    0.000    0.000 
#
# Total GULP energy -89219.066957 kJ/mol
# GULP energy per Si atom -5576.191685 kJ/mol
# Density = 2.031627 g / cm^3
# Si number density = 20.362621 Si / 1000 Ang^3
#
#
#
# Elastic Constant Matrix: (Units=GPa)
#
#
# Indices 1 2 3 4 5 6 
#
# 1 52.3930 40.1934 50.2031 0.0000 1.4628 0.0000
# 2 40.1934 107.5237 32.2525 0.0000 -12.3866 0.0000
# 3 50.2031 32.2525 125.1974 0.0000 4.5408 0.0000
# 4 0.0000 0.0000 0.0000 24.1281 0.0000 -16.7185
# 5 1.4628 -12.3866 4.5408 0.0000 26.9290 0.0000
# 6 0.0000 0.0000 0.0000 -16.7185 0.0000 16.6639
#
#
#
# Elastic Compliance Matrix: (Units=1/GPa)
#
#
# Indices 1 2 3 4 5 6 
#
# 1 0.041124 -0.012059 -0.013182 0.000000 -0.005558 0.000000
# 2 -0.012059 0.014364 0.000877 0.000000 0.007114 0.000000
# 3 -0.013182 0.000877 0.013087 0.000000 -0.001087 0.000000
# 4 0.000000 0.000000 0.000000 0.135968 0.000000 0.136414
# 5 -0.005558 0.007114 -0.001087 0.000000 0.040892 0.000000
# 6 0.000000 0.000000 0.000000 0.136414 0.000000 0.196871
#
#
# Mechanical properties :
#
#
# Convention : Reuss Voigt Hill
#
# Bulk Modulus (GPa) = 50.38500 58.93465 54.65983
# Shear Modulus (GPa) = 10.04723 24.37519 17.21121
#
# Velocity S-wave (km/s) = 2.22371 3.46360 2.91045
# Velocity P-wave (km/s) = 5.60274 6.70826 6.18027
#
# Compressibility (1/GPa) = 0.01984718
#
# Stress axis : x y z
#
# Youngs Moduli (GPa) = 24.31690 69.61637 76.41238
#
# Poissons Ratio (x) = 0.83947 1.00728
# Poissons Ratio (y) = 0.29323 -0.06700
# Poissons Ratio (z) = 0.32055 -0.06105
#
# Static dielectric constant tensor:
#      x y z
#    x 1.726860 0.000000 -0.024640 
#    y 0.000000 1.720820 0.000000 
#    z -0.024640 0.000000 1.772700 
# 
# From -- ./inp_files/36400.got.cif
#   From: 2010.05.17/outbox.cif.g08.bks.cpg/sg5_19_cif.got.tgz:36400.got - 2010.06.03 18:56:24.
