data_PCOD9121737
_publ_section_title
;
Structure prediction by ZEFSAII (Michael W. Deem and Ramdas Pophale) SiO2 
 PCOD9121737
Probable space group: C 2
;
_chemical_formula_sum "Si O2"
_cell_formula_units_Z 24
_cell_length_a 9.417800
_cell_length_b 23.713285
_cell_length_c 5.464241
_cell_angle_alpha 90.000000
_cell_angle_beta 64.888765
_cell_angle_gamma 90.000000
_cell_volume 1104.975322
_symmetry_space_group_name_H-M "C 2"
_symmetry_group_IT_number 5
_symmetry_cell_setting 'monoclinic'
loop_
_space_group_symop_operation_xyz
x,y,z
-x,y,-z
1/2+x,1/2+y,z
1/2-x,1/2+y,-z
loop_
_atom_site_type_symbol
_atom_site_label
_atom_site_fract_x
_atom_site_fract_y
_atom_site_fract_z
Si Si1 0.784508 0.380560 0.020923
Si Si2 0.785774 0.782660 0.538570
Si Si3 0.334669 0.616647 0.845184
Si Si4 0.500000 0.828600 0.500000
Si Si5 0.000000 0.822127 0.000000
Si Si6 0.808263 0.159985 0.357351
Si Si7 0.904719 0.985357 0.809196
O O1 0.744896 0.336902 0.268176
O O2 0.749371 0.445968 0.083030
O O3 0.646426 0.362433 0.935146
O O4 0.946932 0.366548 0.768135
O O5 0.646200 0.788615 0.442656
O O6 0.745773 0.722405 0.678859
O O7 0.949415 0.786130 0.272971
O O8 0.250066 0.642587 0.670056
O O9 0.503313 0.649040 0.751360
O O10 0.368137 0.550708 0.786667
O O11 0.255010 0.622522 0.167599
O O12 0.000000 0.964180 0.500000
O O13 0.000000 0.982433 0.000000
#
# Coordination Sequence:
#
# PCOD9121737 Si02
#       7
#     4   4   4   2   2   4   4
#     4  11  24  39  63  91 129 173 212 266 330 383
#     4  11  23  39  63  91 131 170 211 268 325 391
#     4  10  19  36  57  97 119 164 210 272 317 362
#     4  10  24  40  56  92 124 166 218 254 336 380
#     4  10  22  40  56  92 124 166 216 250 334 380
#     4  10  20  33  59  88 125 152 210 261 317 369
#     4  12  21  39  64  94 130 163 222 273 317 383
#
# _framework density 21.719942
#
# number of rings (size 3 to 8) (size 9 to 14) (size 15 to 20)
#    0.000    1.333    4.167    3.000   11.667    0.000 
#    0.000    0.000    0.000    2.000    0.000    0.000 
#    0.000    0.000    0.000    0.000    0.000    0.000 
#
# Total GULP energy -66860.503891 kJ/mol
# GULP energy per Si atom -5571.708658 kJ/mol
# Density = 2.167051 g / cm^3
# Si number density = 21.719942 Si / 1000 Ang^3
#
#
#
# Elastic Constant Matrix: (Units=GPa)
#
#
# Indices 1 2 3 4 5 6 
#
# 1 28.6157 8.9611 12.5799 0.0000 4.8754 0.0000
# 2 8.9611 110.7010 19.2857 0.0000 -7.9349 0.0000
# 3 12.5799 19.2857 120.6908 0.0000 16.8157 0.0000
# 4 0.0000 0.0000 0.0000 48.0658 0.0000 -17.4690
# 5 4.8754 -7.9349 16.8157 0.0000 43.0939 0.0000
# 6 0.0000 0.0000 0.0000 -17.4690 0.0000 35.9258
#
#
#
# Elastic Compliance Matrix: (Units=1/GPa)
#
#
# Indices 1 2 3 4 5 6 
#
# 1 0.037750 -0.002796 -0.002983 0.000000 -0.003621 0.000000
# 2 -0.002796 0.009744 -0.001649 0.000000 0.002754 0.000000
# 3 -0.002983 -0.001649 0.009365 0.000000 -0.003620 0.000000
# 4 0.000000 0.000000 0.000000 0.025271 0.000000 0.012288
# 5 -0.003621 0.002754 -0.003620 0.000000 0.025535 0.000000
# 6 0.000000 0.000000 0.000000 0.012288 0.000000 0.033810
#
#
# Mechanical properties :
#
#
# Convention : Reuss Voigt Hill
#
# Bulk Modulus (GPa) = 23.80851 37.96234 30.88542
# Shear Modulus (GPa) = 29.35440 40.02914 34.69177
#
# Velocity S-wave (km/s) = 3.68026 4.29764 4.00087
# Velocity P-wave (km/s) = 5.38929 6.49171 5.96602
#
# Compressibility (1/GPa) = 0.04200179
#
# Stress axis : x y z
#
# Youngs Moduli (GPa) = 26.49017 102.62284 106.78508
#
# Poissons Ratio (x) = 0.28689 0.31859
# Poissons Ratio (y) = 0.07406 0.17614
# Poissons Ratio (z) = 0.07903 0.16927
#
# Static dielectric constant tensor:
#      x y z
#    x 1.875520 0.000000 0.026210 
#    y 0.000000 1.804070 0.000000 
#    z 0.026210 0.000000 1.898950 
# 
# From -- ./inp_files/5918.got.cif
#   From: 2010.05.17/outbox.cif.g08.bks.cpg/sg5_3_cif.got.tgz:5918.got - 2010.06.03 18:56:24.
