data_PCOD9121389
_publ_section_title
;
Structure prediction by ZEFSAII (Michael W. Deem and Ramdas Pophale) SiO2 
 PCOD9121389
Probable space group: C 2
;
_chemical_formula_sum "Si O2"
_cell_formula_units_Z 24
_cell_length_a 17.032691
_cell_length_b 6.447254
_cell_length_c 19.124873
_cell_angle_alpha 90.000000
_cell_angle_beta 149.676435
_cell_angle_gamma 90.000000
_cell_volume 1060.344734
_symmetry_space_group_name_H-M "C 2"
_symmetry_group_IT_number 5
_symmetry_cell_setting 'monoclinic'
loop_
_space_group_symop_operation_xyz
x,y,z
-x,y,-z
1/2+x,1/2+y,z
1/2-x,1/2+y,-z
loop_
_atom_site_type_symbol
_atom_site_label
_atom_site_fract_x
_atom_site_fract_y
_atom_site_fract_z
Si Si1 0.580346 0.767410 0.393623
Si Si2 0.318307 0.138564 0.339661
Si Si3 0.613335 0.149984 0.811566
Si Si4 0.333570 0.413018 0.903297
Si Si5 0.613945 0.428539 0.302598
Si Si6 0.822590 0.009554 0.251053
O O1 0.570728 0.620268 0.318983
O O2 0.751676 0.803795 0.553041
O O3 0.478920 0.647463 0.374188
O O4 0.508388 0.984564 0.313432
O O5 0.500000 0.124753 0.500000
O O6 0.285957 0.378335 0.292498
O O7 0.283646 0.006238 0.244286
O O8 0.201139 0.035072 0.304753
O O9 0.529046 0.264169 0.812173
O O10 0.643965 0.339070 0.782326
O O11 0.775432 0.019028 0.931018
O O12 0.307228 0.167142 0.877547
O O13 0.500000 0.470944 0.000000
#
# Coordination Sequence:
#
# PCOD9121389 Si02
#       6
#     4   4   4   4   4   4
#     4  10  19  33  56  85 127 177 208 248 325 394
#     4  11  24  37  61 104 136 159 212 279 328 380
#     4   9  19  36  59  88 119 161 215 259 310 389
#     4  10  22  43  68  90 123 175 221 265 325 387
#     4  11  20  33  59  90 129 173 210 258 326 389
#     4   9  20  36  56  88 125 164 206 263 312 384
#
# _framework density 22.634148
#
# number of rings (size 3 to 8) (size 9 to 14) (size 15 to 20)
#    0.000    2.000    1.667    3.000    2.333    6.000 
#    0.000    0.000   11.000    0.000    0.000    0.000 
#    0.000    0.000    0.000    0.000    0.000    0.000 
#
# Total GULP energy -66831.192547 kJ/mol
# GULP energy per Si atom -5569.266046 kJ/mol
# Density = 2.258263 g / cm^3
# Si number density = 22.634148 Si / 1000 Ang^3
#
#
#
# Elastic Constant Matrix: (Units=GPa)
#
#
# Indices 1 2 3 4 5 6 
#
# 1 109.2378 57.8403 19.4890 0.0000 35.2767 0.0000
# 2 57.8403 139.2690 33.1539 0.0000 18.9646 0.0000
# 3 19.4890 33.1539 53.3137 0.0000 21.0691 0.0000
# 4 0.0000 0.0000 0.0000 20.8327 0.0000 7.4266
# 5 35.2767 18.9646 21.0691 0.0000 35.0377 0.0000
# 6 0.0000 0.0000 0.0000 7.4266 0.0000 28.2014
#
#
#
# Elastic Compliance Matrix: (Units=1/GPa)
#
#
# Indices 1 2 3 4 5 6 
#
# 1 0.016600 -0.005611 0.003707 0.000000 -0.015906 0.000000
# 2 -0.005611 0.010417 -0.005812 0.000000 0.003506 0.000000
# 3 0.003707 -0.005812 0.027871 0.000000 -0.017346 0.000000
# 4 0.000000 0.000000 0.000000 0.052975 0.000000 -0.013950
# 5 -0.015906 0.003506 -0.017346 0.000000 0.053088 0.000000
# 6 0.000000 0.000000 0.000000 -0.013950 0.000000 0.039133
#
#
# Mechanical properties :
#
#
# Convention : Reuss Voigt Hill
#
# Bulk Modulus (GPa) = 25.34511 58.08744 41.71627
# Shear Modulus (GPa) = 21.86571 29.57018 25.71794
#
# Velocity S-wave (km/s) = 3.11151 3.61839 3.37448
# Velocity P-wave (km/s) = 4.91230 6.57087 5.80117
#
# Compressibility (1/GPa) = 0.03945535
#
# Stress axis : x y z
#
# Youngs Moduli (GPa) = 60.23951 95.99838 35.87927
#
# Poissons Ratio (x) = 0.53863 -0.13299
# Poissons Ratio (y) = 0.33799 0.20854
# Poissons Ratio (z) = -0.22328 0.55797
#
# Static dielectric constant tensor:
#      x y z
#    x 1.976440 0.000000 0.048300 
#    y 0.000000 1.876210 0.000000 
#    z 0.048300 0.000000 1.856280 
# 
# From -- ./inp_files/45293.got.cif
#   From: 2010.05.17/outbox.cif.g08.bks.cpg/sg5_23_cif.got.tgz:45293.got - 2010.06.03 18:56:24.
