data_PCOD9121659
_publ_section_title
;
Structure prediction by ZEFSAII (Michael W. Deem and Ramdas Pophale) SiO2 
 PCOD9121659
Probable space group: C 2
;
_chemical_formula_sum "Si O2"
_cell_formula_units_Z 24
_cell_length_a 13.693650
_cell_length_b 17.814874
_cell_length_c 5.258178
_cell_angle_alpha 90.000000
_cell_angle_beta 76.564677
_cell_angle_gamma 90.000000
_cell_volume 1247.631072
_symmetry_space_group_name_H-M "C 2"
_symmetry_group_IT_number 5
_symmetry_cell_setting 'monoclinic'
loop_
_space_group_symop_operation_xyz
x,y,z
-x,y,-z
1/2+x,1/2+y,z
1/2-x,1/2+y,-z
loop_
_atom_site_type_symbol
_atom_site_label
_atom_site_fract_x
_atom_site_fract_y
_atom_site_fract_z
Si Si1 0.753283 0.629520 0.196685
Si Si2 0.065892 0.888285 0.719144
Si Si3 0.602431 0.552554 0.598441
Si Si4 0.806763 0.756942 0.549264
Si Si5 0.435162 0.155302 0.782208
Si Si6 0.887955 0.206684 0.087731
O O1 0.699236 0.559631 0.358298
O O2 0.806224 0.683674 0.368494
O O3 0.833771 0.611339 0.928620
O O4 0.663089 0.681225 0.143619
O O5 0.155015 0.829765 0.616980
O O6 0.000000 0.889872 0.500000
O O7 0.102554 0.973670 0.742321
O O8 0.000000 0.865520 0.000000
O O9 0.500000 0.555844 0.500000
O O10 0.604844 0.627161 0.767658
O O11 0.887431 0.734465 0.718172
O O12 0.694845 0.759193 0.729688
O O13 0.500000 0.127437 0.500000
O O14 0.500000 0.160434 0.000000
O O15 0.000000 0.237465 0.000000
#
# Coordination Sequence:
#
# PCOD9121659 Si02
#       6
#     4   4   4   4   4   4
#     4  10  21  35  59  87 118 157 202 251 294 348
#     4  11  26  38  60  89 127 162 190 242 307 369
#     4  10  20  38  58  87 121 157 197 249 307 358
#     4  10  23  35  56  91 120 160 198 246 297 355
#     4  11  21  35  56  86 122 157 192 247 294 349
#     4  10  19  35  61  86 119 152 206 253 296 346
#
# _framework density 19.236453999999998
#
# number of rings (size 3 to 8) (size 9 to 14) (size 15 to 20)
#    0.000    1.667    3.333    1.000    9.333    0.000 
#    0.000    0.000    0.000    1.000    0.000    0.000 
#    0.000    0.000    0.000    0.000    0.000    0.000 
#
# Total GULP energy -66926.183251 kJ/mol
# GULP energy per Si atom -5577.181938 kJ/mol
# Density = 1.919267 g / cm^3
# Si number density = 19.236454 Si / 1000 Ang^3
#
#
#
# Elastic Constant Matrix: (Units=GPa)
#
#
# Indices 1 2 3 4 5 6 
#
# 1 90.0597 20.6031 44.1365 0.0000 -14.4601 0.0000
# 2 20.6031 69.1256 21.5777 0.0000 -13.9678 0.0000
# 3 44.1365 21.5777 109.6196 0.0000 -20.9715 0.0000
# 4 0.0000 0.0000 0.0000 20.8418 0.0000 -7.2532
# 5 -14.4601 -13.9678 -20.9715 0.0000 51.3430 0.0000
# 6 0.0000 0.0000 0.0000 -7.2532 0.0000 13.4283
#
#
#
# Elastic Compliance Matrix: (Units=1/GPa)
#
#
# Indices 1 2 3 4 5 6 
#
# 1 0.014344 -0.002435 -0.005044 0.000000 0.001317 0.000000
# 2 -0.002435 0.016329 -0.001644 0.000000 0.003085 0.000000
# 3 -0.005044 -0.001644 0.012062 0.000000 0.003059 0.000000
# 4 0.000000 0.000000 0.000000 0.059087 0.000000 0.031916
# 5 0.001317 0.003085 0.003059 0.000000 0.021937 0.000000
# 6 0.000000 0.000000 0.000000 0.031916 0.000000 0.091709
#
#
# Mechanical properties :
#
#
# Convention : Reuss Voigt Hill
#
# Bulk Modulus (GPa) = 40.83302 49.04882 44.94092
# Shear Modulus (GPa) = 20.67170 29.28847 24.98009
#
# Velocity S-wave (km/s) = 3.28168 3.90622 3.60749
# Velocity P-wave (km/s) = 5.96927 6.77480 6.38475
#
# Compressibility (1/GPa) = 0.02448998
#
# Stress axis : x y z
#
# Youngs Moduli (GPa) = 69.71407 61.24245 82.90343
#
# Poissons Ratio (x) = 0.14910 0.41819
# Poissons Ratio (y) = 0.16973 0.13626
# Poissons Ratio (z) = 0.35166 0.10066
#
# Static dielectric constant tensor:
#      x y z
#    x 1.732250 0.000000 -0.001000 
#    y 0.000000 1.644390 0.000000 
#    z -0.001000 0.000000 1.776370 
# 
# From -- ./inp_files/5354.got.cif
#   From: 2010.05.17/outbox.cif.g08.bks.cpg/sg5_3_cif.got.tgz:5354.got - 2010.06.03 18:56:24.
