data_PCOD9121170
_publ_section_title
;
Structure prediction by ZEFSAII (Michael W. Deem and Ramdas Pophale) SiO2 
 PCOD9121170
Probable space group: C 2
;
_chemical_formula_sum "Si O2"
_cell_formula_units_Z 28
_cell_length_a 14.576144
_cell_length_b 9.786487
_cell_length_c 12.603505
_cell_angle_alpha 90.000000
_cell_angle_beta 128.666956
_cell_angle_gamma 90.000000
_cell_volume 1403.768649
_symmetry_space_group_name_H-M "C 2"
_symmetry_group_IT_number 5
_symmetry_cell_setting 'monoclinic'
loop_
_space_group_symop_operation_xyz
x,y,z
-x,y,-z
1/2+x,1/2+y,z
1/2-x,1/2+y,-z
loop_
_atom_site_type_symbol
_atom_site_label
_atom_site_fract_x
_atom_site_fract_y
_atom_site_fract_z
Si Si1 0.547022 0.407230 0.913958
Si Si2 0.775732 0.584161 0.263088
Si Si3 0.416088 0.707419 0.032249
Si Si4 0.679608 0.351947 0.353637
Si Si5 0.137132 0.860007 0.570923
Si Si6 0.180354 0.352676 0.848078
Si Si7 0.140698 0.154812 0.628561
O O1 0.538592 0.568307 0.877985
O O2 0.455270 0.321192 0.778671
O O3 0.500000 0.399634 0.000000
O O4 0.683082 0.365018 0.017303
O O5 0.715827 0.480924 0.304751
O O6 0.822032 0.713166 0.359503
O O7 0.855753 0.482975 0.249656
O O8 0.693495 0.649659 0.113333
O O9 0.391906 0.822955 0.099342
O O10 0.500000 0.756165 0.000000
O O11 0.671222 0.377809 0.472405
O O12 0.776663 0.237814 0.394466
O O13 0.000000 0.861546 0.500000
O O14 0.181134 0.997565 0.659754
O O15 0.164742 0.225308 0.758311
O O16 0.000000 0.164151 0.500000
#
# Coordination Sequence:
#
# PCOD9121170 Si02
#       7
#     4   4   4   4   4   4   4
#     4  10  18  40  70  95 126 171 211 267 336 384
#     4  10  22  42  63  94 132 167 218 267 324 384
#     4  10  20  36  66  97 127 167 212 266 325 391
#     4  11  21  43  70  93 127 175 220 268 323 392
#     4  11  26  39  63  93 133 173 214 271 326 385
#     4  10  22  38  70  97 128 169 221 269 321 390
#     4  10  23  41  64  97 125 174 223 264 323 392
#
# _framework density 19.946304999999999
#
# number of rings (size 3 to 8) (size 9 to 14) (size 15 to 20)
#    0.000    1.714    5.714    0.857    6.000    4.571 
#    0.000    1.429    3.143    0.000    0.000    0.000 
#    0.000    0.000    0.000    0.000    0.000    0.000 
#
# Total GULP energy -77997.144882 kJ/mol
# GULP energy per Si atom -5571.224634 kJ/mol
# Density = 1.990091 g / cm^3
# Si number density = 19.946305 Si / 1000 Ang^3
#
#
#
# Elastic Constant Matrix: (Units=GPa)
#
#
# Indices 1 2 3 4 5 6 
#
# 1 85.1325 34.1859 29.9366 0.0000 -20.0409 0.0000
# 2 34.1859 108.9162 52.8132 0.0000 -11.1865 0.0000
# 3 29.9366 52.8132 55.1506 0.0000 -12.6373 0.0000
# 4 0.0000 0.0000 0.0000 8.9221 0.0000 -6.3558
# 5 -20.0409 -11.1865 -12.6373 0.0000 36.6244 0.0000
# 6 0.0000 0.0000 0.0000 -6.3558 0.0000 -11.1087
#
#
#
# Elastic Compliance Matrix: (Units=1/GPa)
#
#
# Indices 1 2 3 4 5 6 
#
# 1 0.015838 -0.001596 -0.005641 0.000000 0.006233 0.000000
# 2 -0.001596 0.017309 -0.015959 0.000000 -0.001093 0.000000
# 3 -0.005641 -0.015959 0.037628 0.000000 0.005022 0.000000
# 4 0.000000 0.000000 0.000000 0.079628 0.000000 -0.045558
# 5 0.006233 -0.001093 0.005022 0.000000 0.032114 0.000000
# 6 0.000000 0.000000 0.000000 -0.045558 0.000000 -0.063954
#
#
# Mechanical properties :
#
#
# Convention : Reuss Voigt Hill
#
# Bulk Modulus (GPa) = 41.01278 53.67454 47.34366
# Shear Modulus (GPa) = 28.88815 15.70512 22.29663
#
# Velocity S-wave (km/s) = 3.80978 2.80906 3.34703
# Velocity P-wave (km/s) = 6.32129 6.12283 6.22285
#
# Compressibility (1/GPa) = 0.02438264
#
# Stress axis : x y z
#
# Youngs Moduli (GPa) = 63.13921 57.77488 26.57615
#
# Poissons Ratio (x) = 0.09220 0.14991
# Poissons Ratio (y) = 0.10076 0.42414
# Poissons Ratio (z) = 0.35615 0.92204
#
# Static dielectric constant tensor:
#      x y z
#    x 1.738410 0.000000 0.055240 
#    y 0.000000 1.753330 0.000000 
#    z 0.055240 0.000000 1.796450 
# 
# From -- ./inp_files/42028.got.cif
#   From: 2010.05.17/outbox.cif.g08.bks.cpg/sg5_22_cif.got.tgz:42028.got - 2010.06.03 18:56:24.
