data_PCOD9121332
_publ_section_title
;
Structure prediction by ZEFSAII (Michael W. Deem and Ramdas Pophale) SiO2 
 PCOD9121332
Probable space group: C 2
;
_chemical_formula_sum "Si O2"
_cell_formula_units_Z 18
_cell_length_a 13.473069
_cell_length_b 4.748559
_cell_length_c 10.849006
_cell_angle_alpha 90.000000
_cell_angle_beta 87.544237
_cell_angle_gamma 90.000000
_cell_volume 693.456595
_symmetry_space_group_name_H-M "C 2"
_symmetry_group_IT_number 5
_symmetry_cell_setting 'monoclinic'
loop_
_space_group_symop_operation_xyz
x,y,z
-x,y,-z
1/2+x,1/2+y,z
1/2-x,1/2+y,-z
loop_
_atom_site_type_symbol
_atom_site_label
_atom_site_fract_x
_atom_site_fract_y
_atom_site_fract_z
Si Si1 0.357741 0.506040 0.399927
Si Si2 0.762411 0.274327 0.085230
Si Si3 0.725883 0.501182 0.343052
Si Si4 0.465816 0.478325 0.165116
Si Si5 0.500000 0.937508 0.000000
O O1 0.354363 0.451939 0.545719
O O2 0.268183 0.317535 0.344918
O O3 0.454323 0.458882 0.312127
O O4 0.321897 0.825492 0.384629
O O5 0.704291 0.389065 0.207566
O O6 0.861993 0.129219 0.130113
O O7 0.788626 0.538026 0.995921
O O8 0.529165 0.172605 0.894843
O O9 0.540798 0.696949 0.096505
#
# Coordination Sequence:
#
# PCOD9121332 Si02
#       5
#     4   4   4   4   2
#     4   9  16  29  48  68  99 124 158 209 242 285
#     4  11  20  31  49  75 109 134 152 190 247 314
#     4   9  17  28  45  72  99 130 155 189 253 298
#     4  10  19  33  49  74  99 129 168 203 245 281
#     4  10  20  32  50  70  98 132 170 210 238 272
#
# _framework density 25.956928000000001
#
# number of rings (size 3 to 8) (size 9 to 14) (size 15 to 20)
#    0.000    2.222    0.000    6.667    0.000    0.000 
#    0.000    0.000    0.000    0.000    0.000   23.333 
#    0.000    0.000    0.000    0.000    0.000    0.000 
#
# Total GULP energy -50175.691922 kJ/mol
# GULP energy per Si atom -5575.076880 kJ/mol
# Density = 2.589785 g / cm^3
# Si number density = 25.956928 Si / 1000 Ang^3
#
#
#
# Elastic Constant Matrix: (Units=GPa)
#
#
# Indices 1 2 3 4 5 6 
#
# 1 41.0018 21.7498 60.1327 0.0000 -6.6746 0.0000
# 2 21.7498 154.5232 54.3586 0.0000 -1.4499 0.0000
# 3 60.1327 54.3586 241.3445 0.0000 -62.6308 0.0000
# 4 0.0000 0.0000 0.0000 41.6950 0.0000 -9.3197
# 5 -6.6746 -1.4499 -62.6308 0.0000 54.9296 0.0000
# 6 0.0000 0.0000 0.0000 -9.3197 0.0000 28.5663
#
#
#
# Elastic Compliance Matrix: (Units=1/GPa)
#
#
# Indices 1 2 3 4 5 6 
#
# 1 0.042096 -0.001610 -0.012512 0.000000 -0.009193 0.000000
# 2 -0.001610 0.007301 -0.001767 0.000000 -0.002017 0.000000
# 3 -0.012512 -0.001767 0.010300 0.000000 0.010177 0.000000
# 4 0.000000 0.000000 0.000000 0.025870 0.000000 0.008440
# 5 -0.009193 -0.002017 0.010177 0.000000 0.028638 0.000000
# 6 0.000000 0.000000 0.000000 0.008440 0.000000 0.037760
#
#
# Mechanical properties :
#
#
# Convention : Reuss Voigt Hill
#
# Bulk Modulus (GPa) = 35.81699 78.81685 57.31692
# Shear Modulus (GPa) = 25.90028 45.08008 35.49018
#
# Velocity S-wave (km/s) = 3.16225 4.17193 3.70168
# Velocity P-wave (km/s) = 5.21169 7.32373 6.35605
#
# Compressibility (1/GPa) = 0.02791971
#
# Stress axis : x y z
#
# Youngs Moduli (GPa) = 23.75519 136.97286 97.09057
#
# Poissons Ratio (x) = 0.22054 1.21475
# Poissons Ratio (y) = 0.03825 0.17153
# Poissons Ratio (z) = 0.29721 0.24199
#
# Static dielectric constant tensor:
#      x y z
#    x 2.675810 0.000000 -0.158870 
#    y 0.000000 1.935880 0.000000 
#    z -0.158870 0.000000 2.154660 
# 
# From -- ./inp_files/40892.got.cif
#   From: 2010.05.17/outbox.cif.g08.bks.cpg/sg5_21_cif.got.tgz:40892.got - 2010.06.03 18:56:24.
