data_PCOD9121768
_publ_section_title
;
Structure prediction by ZEFSAII (Michael W. Deem and Ramdas Pophale) SiO2 
 PCOD9121768
Probable space group: C 2
;
_chemical_formula_sum "Si O2"
_cell_formula_units_Z 30
_cell_length_a 14.967975
_cell_length_b 7.541475
_cell_length_c 17.986430
_cell_angle_alpha 90.000000
_cell_angle_beta 37.323161
_cell_angle_gamma 90.000000
_cell_volume 1231.002636
_symmetry_space_group_name_H-M "C 2"
_symmetry_group_IT_number 5
_symmetry_cell_setting 'monoclinic'
loop_
_space_group_symop_operation_xyz
x,y,z
-x,y,-z
1/2+x,1/2+y,z
1/2-x,1/2+y,-z
loop_
_atom_site_type_symbol
_atom_site_label
_atom_site_fract_x
_atom_site_fract_y
_atom_site_fract_z
Si Si1 0.675413 0.735160 0.969129
Si Si2 0.375154 0.043307 0.534770
Si Si3 0.073839 0.049497 0.818860
Si Si4 0.408218 0.453537 0.491844
Si Si5 0.221623 0.332386 0.107624
Si Si6 0.587894 0.996246 0.654578
Si Si7 0.546096 0.393462 0.252860
Si Si8 0.000000 0.788317 0.000000
O O1 0.716850 0.532557 0.923299
O O2 0.781042 0.853631 0.849219
O O3 0.498661 0.722970 0.094091
O O4 0.727767 0.778629 0.017845
O O5 0.500000 0.948935 0.500000
O O6 0.235554 0.065626 0.679570
O O7 0.429536 0.240761 0.479631
O O8 0.353450 0.959740 0.468245
O O9 0.063317 0.897088 0.887295
O O10 0.982420 0.993336 0.805757
O O11 0.500000 0.527887 0.500000
O O12 0.232788 0.481453 0.609531
O O13 0.476054 0.501485 0.367139
O O14 0.049315 0.363735 0.241335
O O15 0.344722 0.214574 0.069166
O O16 0.528383 0.197582 0.703874
#
# Coordination Sequence:
#
# PCOD9121768 Si02
#       8
#     4   4   4   4   4   4   4   2
#     4  10  19  36  60  84 114 164 195 241 306 349
#     4  10  20  35  59  89 118 153 199 251 302 363
#     4  11  20  36  61  86 122 156 200 245 304 359
#     4  10  21  38  61  85 118 156 201 250 307 355
#     4  10  20  35  60  86 119 155 203 246 297 366
#     4  10  20  36  60  84 120 160 198 247 309 355
#     4  10  20  38  59  86 122 154 197 258 294 363
#     4  10  20  34  58  90 116 156 198 252 294 352
#
# _framework density 24.370377999999999
#
# number of rings (size 3 to 8) (size 9 to 14) (size 15 to 20)
#    0.000    1.867    4.000    1.600    0.000    3.200 
#    0.000    2.000    0.000    3.200    0.000    0.000 
#    0.000    0.000    0.000    0.000    0.000    0.000 
#
# Total GULP energy -83654.823349 kJ/mol
# GULP energy per Si atom -5576.988223 kJ/mol
# Density = 2.431491 g / cm^3
# Si number density = 24.370378 Si / 1000 Ang^3
#
#
#
# Elastic Constant Matrix: (Units=GPa)
#
#
# Indices 1 2 3 4 5 6 
#
# 1 88.7032 10.2809 54.1513 0.0000 -27.5271 0.0000
# 2 10.2809 54.8968 -0.5824 0.0001 0.2446 -0.0001
# 3 54.1513 -0.5824 139.6011 0.0000 -17.7048 0.0000
# 4 0.0000 0.0001 0.0000 24.9536 0.0000 1.4257
# 5 -27.5271 0.2446 -17.7048 0.0000 45.7749 0.0000
# 6 0.0000 -0.0001 0.0000 1.4257 0.0000 13.2138
#
#
#
# Elastic Compliance Matrix: (Units=1/GPa)
#
#
# Indices 1 2 3 4 5 6 
#
# 1 0.017905 -0.003453 -0.005880 0.000000 0.008511 0.000000
# 2 -0.003453 0.018883 0.001201 0.000000 -0.001713 0.000000
# 3 -0.005880 0.001201 0.009464 0.000000 0.000118 0.000000
# 4 0.000000 0.000000 0.000000 0.040323 0.000000 -0.004351
# 5 0.008511 -0.001713 0.000118 0.000000 0.027019 0.000000
# 6 0.000000 0.000000 0.000000 -0.004351 0.000000 0.076148
#
#
# Mechanical properties :
#
#
# Convention : Reuss Voigt Hill
#
# Bulk Modulus (GPa) = 33.34781 45.65564 39.50172
# Shear Modulus (GPa) = 23.14779 31.41186 27.27982
#
# Velocity S-wave (km/s) = 3.08528 3.59407 3.34935
# Velocity P-wave (km/s) = 5.13862 5.99982 5.58584
#
# Compressibility (1/GPa) = 0.02998698
#
# Stress axis : x y z
#
# Youngs Moduli (GPa) = 55.85068 52.95731 105.66124
#
# Poissons Ratio (x) = 0.18289 0.62132
# Poissons Ratio (y) = 0.19288 -0.12691
# Poissons Ratio (z) = 0.32842 -0.06361
#
# Static dielectric constant tensor:
#      x y z
#    x 2.007320 0.000000 -0.051420 
#    y 0.000000 1.978550 0.000000 
#    z -0.051420 0.000000 1.990320 
# 
# From -- ./inp_files/60498.got.cif
#   From: 2010.05.17/outbox.cif.g08.bks.cpg/sg5_31_cif.got.tgz:60498.got - 2010.06.03 18:56:24.
