data_PCOD9121881
_publ_section_title
;
Structure prediction by ZEFSAII (Michael W. Deem and Ramdas Pophale) SiO2 
 PCOD9121881
Probable space group: C 2
;
_chemical_formula_sum "Si O2"
_cell_formula_units_Z 28
_cell_length_a 11.825714
_cell_length_b 8.804871
_cell_length_c 11.630950
_cell_angle_alpha 90.000000
_cell_angle_beta 67.337232
_cell_angle_gamma 90.000000
_cell_volume 1117.552177
_symmetry_space_group_name_H-M "C 2"
_symmetry_group_IT_number 5
_symmetry_cell_setting 'monoclinic'
loop_
_space_group_symop_operation_xyz
x,y,z
-x,y,-z
1/2+x,1/2+y,z
1/2-x,1/2+y,-z
loop_
_atom_site_type_symbol
_atom_site_label
_atom_site_fract_x
_atom_site_fract_y
_atom_site_fract_z
Si Si1 0.612169 0.286070 0.812889
Si Si2 0.826283 0.162292 0.600776
Si Si3 0.248064 0.861463 0.265341
Si Si4 0.779137 0.558181 0.838249
Si Si5 0.463296 0.746443 0.327030
Si Si6 0.874344 0.509267 0.012804
Si Si7 0.927855 0.032734 0.910049
O O1 0.686248 0.214748 0.677180
O O2 0.699779 0.425008 0.816311
O O3 0.619014 0.164395 0.913033
O O4 0.478421 0.363960 0.854466
O O5 0.872111 0.163277 0.453160
O O6 0.917836 0.274120 0.637458
O O7 0.836693 0.992524 0.648904
O O8 0.205416 0.689383 0.259681
O O9 0.368463 0.856126 0.298673
O O10 0.275734 0.910433 0.123344
O O11 0.896503 0.512337 0.864854
O O12 0.707602 0.582204 0.992019
O O13 0.521773 0.641597 0.206490
O O14 0.000000 0.424146 0.000000
O O15 0.000000 0.060102 0.000000
#
# Coordination Sequence:
#
# PCOD9121881 Si02
#       7
#     4   4   4   4   4   4   4
#     4  10  21  40  61  93 131 174 220 278 338 408
#     4  10  26  44  67 102 135 184 241 287 340 418
#     4  11  24  41  69  98 133 186 234 285 341 429
#     4  11  22  40  65  96 137 176 224 283 353 418
#     4  11  23  44  70  94 140 182 229 288 347 415
#     4  11  24  35  58 100 138 172 223 286 344 417
#     4  10  19  36  67  93 122 179 219 263 357 407
#
# _framework density 25.054760000000002
#
# number of rings (size 3 to 8) (size 9 to 14) (size 15 to 20)
#    0.000    1.429    2.857    3.857    6.000    2.286 
#    0.000    0.000    0.000    1.714    0.000    0.000 
#    0.000    0.000    0.000    0.000    0.000    0.000 
#
# Total GULP energy -77997.784950 kJ/mol
# GULP energy per Si atom -5571.270354 kJ/mol
# Density = 2.499773 g / cm^3
# Si number density = 25.054760 Si / 1000 Ang^3
#
#
#
# Elastic Constant Matrix: (Units=GPa)
#
#
# Indices 1 2 3 4 5 6 
#
# 1 55.1122 21.9151 -0.0331 0.0000 6.8454 0.0000
# 2 21.9151 67.4391 10.5312 0.0000 -3.5667 0.0000
# 3 -0.0331 10.5312 124.0392 0.0000 -15.1636 0.0000
# 4 0.0000 0.0000 0.0000 27.1145 0.0000 -0.8488
# 5 6.8454 -3.5667 -15.1636 0.0000 31.6332 0.0000
# 6 0.0000 0.0000 0.0000 -0.8488 0.0000 32.5340
#
#
#
# Elastic Compliance Matrix: (Units=1/GPa)
#
#
# Indices 1 2 3 4 5 6 
#
# 1 0.021762 -0.007358 -0.000049 0.000000 -0.005563 0.000000
# 2 -0.007358 0.017555 -0.001122 0.000000 0.003034 0.000000
# 3 -0.000049 -0.001122 0.008650 0.000000 0.004031 0.000000
# 4 0.000000 0.000000 0.000000 0.036911 0.000000 0.000963
# 5 -0.005563 0.003034 0.004031 0.000000 0.035090 0.000000
# 6 0.000000 0.000000 0.000000 0.000963 0.000000 0.030762
#
#
# Mechanical properties :
#
#
# Convention : Reuss Voigt Hill
#
# Bulk Modulus (GPa) = 32.35393 34.60189 33.47791
# Shear Modulus (GPa) = 28.07556 32.53481 30.30519
#
# Velocity S-wave (km/s) = 3.35112 3.60745 3.48164
# Velocity P-wave (km/s) = 5.28343 5.58498 5.43630
#
# Compressibility (1/GPa) = 0.03090815
#
# Stress axis : x y z
#
# Youngs Moduli (GPa) = 45.95247 56.96409 115.60804
#
# Poissons Ratio (x) = 0.41915 0.00572
# Poissons Ratio (y) = 0.33813 0.12965
# Poissons Ratio (z) = 0.00227 0.06389
#
# Static dielectric constant tensor:
#      x y z
#    x 1.822620 0.000000 -0.202640 
#    y 0.000000 2.025880 0.000000 
#    z -0.202640 0.000000 1.985830 
# 
# From -- ./inp_files/41633.got.cif
#   From: 2010.05.17/outbox.cif.g08.bks.cpg/sg5_21_cif.got.tgz:41633.got - 2010.06.03 18:56:24.
