data_PCOD9121912
_publ_section_title
;
Structure prediction by ZEFSAII (Michael W. Deem and Ramdas Pophale) SiO2 
 PCOD9121912
Probable space group: C 2
;
_chemical_formula_sum "Si O2"
_cell_formula_units_Z 28
_cell_length_a 12.352984
_cell_length_b 7.198773
_cell_length_c 14.670315
_cell_angle_alpha 90.000000
_cell_angle_beta 108.330747
_cell_angle_gamma 90.000000
_cell_volume 1238.378869
_symmetry_space_group_name_H-M "C 2"
_symmetry_group_IT_number 5
_symmetry_cell_setting 'monoclinic'
loop_
_space_group_symop_operation_xyz
x,y,z
-x,y,-z
1/2+x,1/2+y,z
1/2-x,1/2+y,-z
loop_
_atom_site_type_symbol
_atom_site_label
_atom_site_fract_x
_atom_site_fract_y
_atom_site_fract_z
Si Si1 0.123588 0.196450 0.064493
Si Si2 0.190838 0.197791 0.743950
Si Si3 0.646076 0.844670 0.398795
Si Si4 0.765735 0.972620 0.610505
Si Si5 0.579388 0.005581 0.197127
Si Si6 0.659244 0.944779 0.900176
Si Si7 0.001604 0.996616 0.397912
O O1 0.101420 0.310249 0.150967
O O2 0.224560 0.048071 0.094577
O O3 0.161811 0.348431 0.998930
O O4 0.000000 0.120736 0.000000
O O5 0.202729 0.353250 0.668848
O O6 0.135659 0.286220 0.818377
O O7 0.118213 0.027178 0.683326
O O8 0.317540 0.136803 0.803715
O O9 0.710932 0.947245 0.496368
O O10 0.728571 0.693035 0.371997
O O11 0.592964 0.973137 0.308360
O O12 0.552070 0.707747 0.417234
O O13 0.897979 0.906507 0.635618
O O14 0.453747 0.071424 0.135800
O O15 0.000000 0.919739 0.500000
#
# Coordination Sequence:
#
# PCOD9121912 Si02
#       7
#     4   4   4   4   4   4   4
#     4  10  24  43  64  89 123 154 197 250 304 361
#     4  12  22  39  64  87 125 160 198 253 300 351
#     4  10  19  37  59  84 123 157 202 245 294 345
#     4  10  21  35  62  87 118 165 203 241 296 351
#     4  11  23  40  62  91 122 156 202 253 295 360
#     4  11  23  42  64  92 118 159 198 246 307 363
#     4  10  20  37  61  82 123 165 199 242 301 340
#
# _framework density 22.610206999999999
#
# number of rings (size 3 to 8) (size 9 to 14) (size 15 to 20)
#    0.857    0.571    2.857    3.429    0.000    2.286 
#    0.000    1.429    3.143    0.000    0.000    0.000 
#    0.000    0.000    0.000    0.000    0.000    0.000 
#
# Total GULP energy -78182.112296 kJ/mol
# GULP energy per Si atom -5584.436593 kJ/mol
# Density = 2.255874 g / cm^3
# Si number density = 22.610207 Si / 1000 Ang^3
#
#
#
# Elastic Constant Matrix: (Units=GPa)
#
#
# Indices 1 2 3 4 5 6 
#
# 1 96.4392 12.3770 21.3638 0.0000 19.7589 0.0000
# 2 12.3770 30.0702 18.8606 0.0000 13.9513 0.0000
# 3 21.3638 18.8606 91.5204 0.0000 1.9041 0.0000
# 4 0.0000 0.0000 0.0000 12.5604 0.0000 4.4541
# 5 19.7589 13.9513 1.9041 0.0000 36.0222 0.0000
# 6 0.0000 0.0000 0.0000 4.4541 0.0000 39.6360
#
#
#
# Elastic Compliance Matrix: (Units=1/GPa)
#
#
# Indices 1 2 3 4 5 6 
#
# 1 0.012336 -0.000408 -0.002661 0.000000 -0.006468 0.000000
# 2 -0.000408 0.047465 -0.009319 0.000000 -0.017667 0.000000
# 3 -0.002661 -0.009319 0.013377 0.000000 0.004362 0.000000
# 4 0.000000 0.000000 0.000000 0.082919 0.000000 -0.009318
# 5 -0.006468 -0.017667 0.004362 0.000000 0.037920 0.000000
# 6 0.000000 0.000000 0.000000 -0.009318 0.000000 0.026277
#
#
# Mechanical properties :
#
#
# Convention : Reuss Voigt Hill
#
# Bulk Modulus (GPa) = 20.65972 35.91474 28.28723
# Shear Modulus (GPa) = 19.14207 28.67229 23.90718
#
# Velocity S-wave (km/s) = 2.91282 3.56492 3.25524
# Velocity P-wave (km/s) = 4.52436 5.73268 5.16399
#
# Compressibility (1/GPa) = 0.04840337
#
# Stress axis : x y z
#
# Youngs Moduli (GPa) = 81.06179 21.06818 74.75288
#
# Poissons Ratio (x) = 0.00859 0.19893
# Poissons Ratio (y) = 0.03304 0.69662
# Poissons Ratio (z) = 0.21571 0.19633
#
# Static dielectric constant tensor:
#      x y z
#    x 1.877510 0.000000 0.044380 
#    y 0.000000 1.830510 0.000000 
#    z 0.044380 0.000000 1.806240 
# 
# From -- ./inp_files/52296.got.cif
#   From: 2010.05.17/outbox.cif.g08.bks.cpg/sg5_27_cif.got.tgz:52296.got - 2010.06.03 18:56:24.
