data_PCOD9121728
_publ_section_title
;
Structure prediction by ZEFSAII (Michael W. Deem and Ramdas Pophale) SiO2 
 PCOD9121728
Probable space group: C 2
;
_chemical_formula_sum "Si O2"
_cell_formula_units_Z 28
_cell_length_a 22.302149
_cell_length_b 7.764729
_cell_length_c 27.671781
_cell_angle_alpha 90.000000
_cell_angle_beta 162.988991
_cell_angle_gamma 90.000000
_cell_volume 1401.904133
_symmetry_space_group_name_H-M "C 2"
_symmetry_group_IT_number 5
_symmetry_cell_setting 'monoclinic'
loop_
_space_group_symop_operation_xyz
x,y,z
-x,y,-z
1/2+x,1/2+y,z
1/2-x,1/2+y,-z
loop_
_atom_site_type_symbol
_atom_site_label
_atom_site_fract_x
_atom_site_fract_y
_atom_site_fract_z
Si Si1 0.971386 0.112960 0.633203
Si Si2 0.203155 0.852924 0.624140
Si Si3 0.526249 0.220387 0.323789
Si Si4 0.413316 0.710552 0.487244
Si Si5 0.151273 0.315150 0.971367
Si Si6 0.863894 0.161130 0.143865
Si Si7 0.682621 0.058828 0.534161
O O1 0.737852 0.185819 0.457558
O O2 0.045901 0.142678 0.635755
O O3 0.100827 0.215918 0.773685
O O4 0.971868 0.910987 0.649446
O O5 0.147819 0.732038 0.537149
O O6 0.000000 0.854650 0.500000
O O7 0.241374 0.049778 0.637426
O O8 0.419100 0.778241 0.809444
O O9 0.327559 0.213823 0.136475
O O10 0.541389 0.079411 0.378200
O O11 0.500000 0.732199 0.500000
O O12 0.344511 0.895862 0.452740
O O13 0.195256 0.514598 0.014200
O O14 0.167765 0.283918 0.926272
O O15 0.081370 0.068515 0.299929
#
# Coordination Sequence:
#
# PCOD9121728 Si02
#       7
#     4   4   4   4   4   4   4
#     4  10  19  36  56  90 128 155 207 250 312 380
#     4  10  22  40  61  85 121 168 210 251 302 371
#     4  10  20  35  62  94 126 164 200 260 324 368
#     4  11  22  36  64  89 115 169 212 251 298 369
#     4  10  21  35  57  95 126 159 201 258 321 364
#     4   9  21  33  57  92 126 156 191 264 323 368
#     4  10  20  39  60  91 121 159 207 253 315 375
#
# _framework density 19.972836999999998
#
# number of rings (size 3 to 8) (size 9 to 14) (size 15 to 20)
#    0.000    2.000    1.429    3.000    4.000    1.143 
#    0.000    0.714    0.000    0.000    7.429    0.000 
#    0.000    0.000    0.000    0.000    0.000    0.000 
#
# Total GULP energy -77935.871803 kJ/mol
# GULP energy per Si atom -5566.847986 kJ/mol
# Density = 1.992738 g / cm^3
# Si number density = 19.972837 Si / 1000 Ang^3
#
#
#
# Elastic Constant Matrix: (Units=GPa)
#
#
# Indices 1 2 3 4 5 6 
#
# 1 115.9669 31.8267 49.7267 0.0033 -31.0585 -0.0068
# 2 31.8267 71.1809 17.4496 0.0441 -16.1431 -0.0736
# 3 49.7267 17.4496 134.9332 0.0437 -27.7596 -0.0758
# 4 0.0033 0.0441 0.0437 -8.0509 -0.0023 26.8821
# 5 -31.0585 -16.1431 -27.7596 -0.0023 23.0083 -0.0164
# 6 -0.0068 -0.0736 -0.0758 26.8821 -0.0164 -0.1695
#
#
#
# Elastic Compliance Matrix: (Units=1/GPa)
#
#
# Indices 1 2 3 4 5 6 
#
# 1 0.014125 -0.002428 -0.001755 0.000001 0.015247 0.000007
# 2 -0.002428 0.017136 0.000636 0.000054 0.009512 -0.000012
# 3 -0.001755 0.000636 0.010083 0.000036 0.010242 -0.000006
# 4 0.000001 0.000054 0.000036 0.000235 0.000109 0.037270
# 5 0.015247 0.009512 0.010242 0.000109 0.083075 0.000006
# 6 0.000007 -0.000012 -0.000006 0.037270 0.000006 0.011162
#
#
# Mechanical properties :
#
#
# Convention : Reuss Voigt Hill
#
# Bulk Modulus (GPa) = 29.19734 57.78744 43.49239
# Shear Modulus (GPa) = 32.39883 17.82945 25.11414
#
# Velocity S-wave (km/s) = 4.03196 2.99102 3.54985
# Velocity P-wave (km/s) = 6.02709 6.39720 6.21490
#
# Compressibility (1/GPa) = 0.03424969
#
# Stress axis : x y z
#
# Youngs Moduli (GPa) = 70.79440 58.35780 99.18066
#
# Poissons Ratio (x) = 0.14168 0.17405
# Poissons Ratio (y) = 0.17187 -0.06305
# Poissons Ratio (z) = 0.12424 -0.03710
#
# Static dielectric constant tensor:
#      x y z
#    x 2.294090 -0.000090 0.219090 
#    y -0.000090 1.774990 -0.000040 
#    z 0.219090 -0.000040 1.848950 
# 
# From -- ./inp_files/69426.got.cif
#   From: 2010.05.17/outbox.cif.g08.bks.cpg/sg5_35_cif.got.tgz:69426.got - 2010.06.03 18:56:24.
