data_PCOD9121742
_publ_section_title
;
Structure prediction by ZEFSAII (Michael W. Deem and Ramdas Pophale) SiO2 
 PCOD9121742
Probable space group: C 2
;
_chemical_formula_sum "Si O2"
_cell_formula_units_Z 28
_cell_length_a 18.829912
_cell_length_b 11.333715
_cell_length_c 11.466627
_cell_angle_alpha 90.000000
_cell_angle_beta 26.099869
_cell_angle_gamma 90.000000
_cell_volume 1076.581388
_symmetry_space_group_name_H-M "C 2"
_symmetry_group_IT_number 5
_symmetry_cell_setting 'monoclinic'
loop_
_space_group_symop_operation_xyz
x,y,z
-x,y,-z
1/2+x,1/2+y,z
1/2-x,1/2+y,-z
loop_
_atom_site_type_symbol
_atom_site_label
_atom_site_fract_x
_atom_site_fract_y
_atom_site_fract_z
Si Si1 0.414589 0.716260 0.311785
Si Si2 0.520283 0.482161 0.090830
Si Si3 0.845480 0.221892 0.660035
Si Si4 0.606076 0.001878 0.455048
Si Si5 0.760956 0.805667 0.814747
Si Si6 0.042935 0.792088 0.246934
Si Si7 0.501148 0.968476 0.126999
O O1 0.411001 0.598828 0.241095
O O2 0.316393 0.683014 0.570958
O O3 0.394357 0.843754 0.280544
O O4 0.600736 0.732177 0.080827
O O5 0.486473 0.397004 0.247247
O O6 0.500000 0.413204 0.000000
O O7 0.704232 0.521862 0.834904
O O8 0.895216 0.358576 0.560828
O O9 0.000000 0.168289 0.500000
O O10 0.678789 0.219303 0.976777
O O11 0.500000 0.045876 0.500000
O O12 0.548397 0.022075 0.674151
O O13 0.855352 0.836520 0.792162
O O14 0.880850 0.743065 0.546485
O O15 0.683998 0.923148 0.875493
O O16 0.500000 0.023941 0.000000
#
# Coordination Sequence:
#
# PCOD9121742 Si02
#       7
#     4   4   4   4   4   4   4
#     4   9  19  35  55  80 115 152 191 232 287 355
#     4  11  23  35  55  88 123 149 183 245 303 344
#     4   9  14  32  59  79 104 148 200 229 269 344
#     4   9  18  35  58  81 108 155 203 234 278 353
#     4   9  19  35  59  81 114 148 195 241 279 344
#     4  10  19  36  58  84 116 144 194 245 285 336
#     4   9  17  31  60  80 103 148 202 234 271 346
#
# _framework density 26.008253
#
# number of rings (size 3 to 8) (size 9 to 14) (size 15 to 20)
#    0.857    1.714    1.429    2.143    2.000    0.000 
#    5.143    0.000    3.143    0.000    0.000    0.000 
#    0.000    0.000    0.000    0.000    0.000    0.000 
#
# Total GULP energy -78093.610412 kJ/mol
# GULP energy per Si atom -5578.115029 kJ/mol
# Density = 2.594906 g / cm^3
# Si number density = 26.008253 Si / 1000 Ang^3
#
#
#
# Elastic Constant Matrix: (Units=GPa)
#
#
# Indices 1 2 3 4 5 6 
#
# 1 134.7086 30.1950 52.5170 0.0000 26.6630 0.0000
# 2 30.1950 49.8091 13.7663 0.0000 8.4222 0.0000
# 3 52.5170 13.7663 144.9477 0.0000 24.3934 0.0000
# 4 0.0000 0.0000 0.0000 35.5393 0.0000 3.2030
# 5 26.6630 8.4222 24.3934 0.0000 46.6355 0.0000
# 6 0.0000 0.0000 0.0000 3.2030 0.0000 6.7845
#
#
#
# Elastic Compliance Matrix: (Units=1/GPa)
#
#
# Indices 1 2 3 4 5 6 
#
# 1 0.010263 -0.004880 -0.002649 0.000000 -0.003601 0.000000
# 2 -0.004880 0.023318 -0.000227 0.000000 -0.001302 0.000000
# 3 -0.002649 -0.000227 0.008354 0.000000 -0.002814 0.000000
# 4 0.000000 0.000000 0.000000 0.029388 0.000000 -0.013874
# 5 -0.003601 -0.001302 -0.002814 0.000000 0.025209 0.000000
# 6 0.000000 0.000000 0.000000 -0.013874 0.000000 0.153945
#
#
# Mechanical properties :
#
#
# Convention : Reuss Voigt Hill
#
# Bulk Modulus (GPa) = 37.84769 58.04689 47.94729
# Shear Modulus (GPa) = 18.19522 33.32433 25.75977
#
# Velocity S-wave (km/s) = 2.64785 3.58341 3.15055
# Velocity P-wave (km/s) = 4.89203 6.28396 5.63117
#
# Compressibility (1/GPa) = 0.02642169
#
# Stress axis : x y z
#
# Youngs Moduli (GPa) = 97.43981 42.88493 119.70368
#
# Poissons Ratio (x) = 0.20930 0.31708
# Poissons Ratio (y) = 0.47555 0.02720
# Poissons Ratio (z) = 0.25811 0.00974
#
# Static dielectric constant tensor:
#      x y z
#    x 1.987660 0.000000 0.023850 
#    y 0.000000 2.172530 0.000000 
#    z 0.023850 0.000000 2.043580 
# 
# From -- ./inp_files/44819.got.cif
#   From: 2010.05.17/outbox.cif.g08.bks.cpg/sg5_23_cif.got.tgz:44819.got - 2010.06.03 18:56:24.
