data_PCOD9121234
_publ_section_title
;
Structure prediction by ZEFSAII (Michael W. Deem and Ramdas Pophale) SiO2 
 PCOD9121234
Probable space group: C 2
;
_chemical_formula_sum "Si O2"
_cell_formula_units_Z 24
_cell_length_a 9.901869
_cell_length_b 15.912406
_cell_length_c 5.633342
_cell_angle_alpha 90.000000
_cell_angle_beta 96.625925
_cell_angle_gamma 90.000000
_cell_volume 881.675175
_symmetry_space_group_name_H-M "C 2"
_symmetry_group_IT_number 5
_symmetry_cell_setting 'monoclinic'
loop_
_space_group_symop_operation_xyz
x,y,z
-x,y,-z
1/2+x,1/2+y,z
1/2-x,1/2+y,-z
loop_
_atom_site_type_symbol
_atom_site_label
_atom_site_fract_x
_atom_site_fract_y
_atom_site_fract_z
Si Si1 0.197434 0.880160 0.130167
Si Si2 0.211777 0.129303 0.454211
Si Si3 0.707650 0.321592 0.633380
Si Si4 0.000000 0.636201 0.000000
Si Si5 0.000000 0.630441 0.500000
Si Si6 0.502763 0.810419 0.749466
Si Si7 0.803588 0.066773 0.042033
O O1 0.141687 0.865803 0.388080
O O2 0.358546 0.862512 0.207201
O O3 0.155498 0.822331 0.895677
O O4 0.169822 0.970424 0.011640
O O5 0.261338 0.226159 0.445412
O O6 0.358777 0.080070 0.472688
O O7 0.149653 0.101165 0.691637
O O8 0.144831 0.110875 0.188471
O O9 0.860784 0.360370 0.703705
O O10 0.005091 0.680169 0.254609
O O11 0.140441 0.584582 0.019582
O O12 0.500000 0.760718 0.500000
O O13 0.500000 0.764168 0.000000
#
# Coordination Sequence:
#
# PCOD9121234 Si02
#       7
#     4   4   4   2   2   4   4
#     4  10  19  31  47  73 101 129 164 196 249 298
#     4  10  19  33  47  69 103 133 167 198 241 295
#     4  10  19  31  47  69 102 134 164 200 238 296
#     4   8  16  26  42  64  90 128 146 184 234 288
#     4   8  16  30  42  64  90 122 164 188 234 284
#     4   8  16  28  42  66  96 126 156 183 234 292
#     4  10  19  30  47  69 100 135 158 197 243 298
#
# _framework density 27.220911000000001
#
# number of rings (size 3 to 8) (size 9 to 14) (size 15 to 20)
#    0.000    2.667    0.000    2.000    3.500    0.000 
#   15.000    0.000    0.000    0.000    0.000    0.000 
#   75.000    0.000    0.000    0.000    0.000    0.000 
#
# Total GULP energy -66805.648537 kJ/mol
# GULP energy per Si atom -5567.137378 kJ/mol
# Density = 2.715895 g / cm^3
# Si number density = 27.220911 Si / 1000 Ang^3
#
#
#
# Elastic Constant Matrix: (Units=GPa)
#
#
# Indices 1 2 3 4 5 6 
#
# 1 91.2399 -10.9844 22.2003 0.0000 -12.7442 0.0000
# 2 -10.9844 104.7957 72.2371 0.0000 3.5413 0.0000
# 3 22.2003 72.2371 410.2966 0.0000 -35.9878 0.0000
# 4 0.0000 0.0000 0.0000 38.8577 0.0000 4.0852
# 5 -12.7442 3.5413 -35.9878 0.0000 31.3921 0.0000
# 6 0.0000 0.0000 0.0000 4.0852 0.0000 -0.7603
#
#
#
# Elastic Compliance Matrix: (Units=1/GPa)
#
#
# Indices 1 2 3 4 5 6 
#
# 1 0.011832 0.001484 -0.000550 0.000000 0.004005 0.000000
# 2 0.001484 0.011470 -0.002402 0.000000 -0.003445 0.000000
# 3 -0.000550 -0.002402 0.003218 0.000000 0.003736 0.000000
# 4 0.000000 0.000000 0.000000 0.016446 0.000000 0.088359
# 5 0.004005 -0.003445 0.003736 0.000000 0.038153 0.000000
# 6 0.000000 0.000000 0.000000 0.088359 0.000000 -0.840458
#
#
# Mechanical properties :
#
#
# Convention : Reuss Voigt Hill
#
# Bulk Modulus (GPa) = 42.40197 85.91537 64.15867
# Shear Modulus (GPa) = -6.67964 48.75650 21.03843
#
# Velocity S-wave (km/s) = -1.56818 4.23678 2.78308
# Velocity P-wave (km/s) = 3.51168 7.45416 5.82651
#
# Compressibility (1/GPa) = 0.02358381
#
# Stress axis : x y z
#
# Youngs Moduli (GPa) = 84.51577 87.18397 310.78863
#
# Poissons Ratio (x) = -0.12939 0.17099
# Poissons Ratio (y) = -0.12543 0.74648
# Poissons Ratio (z) = 0.04650 0.20941
#
# Static dielectric constant tensor:
#      x y z
#    x 2.362670 0.000000 -0.021380 
#    y 0.000000 2.064510 0.000000 
#    z -0.021380 0.000000 2.208040 
# 
# From -- ./inp_files/6739.got.cif
#   From: 2010.05.17/outbox.cif.g08.bks.cpg/sg5_4_cif.got.tgz:6739.got - 2010.06.03 18:56:24.
