data_PCOD9121341
_publ_section_title
;
Structure prediction by ZEFSAII (Michael W. Deem and Ramdas Pophale) SiO2 
 PCOD9121341
Probable space group: C 2
;
_chemical_formula_sum "Si O2"
_cell_formula_units_Z 28
_cell_length_a 10.127525
_cell_length_b 25.242729
_cell_length_c 5.507111
_cell_angle_alpha 90.000000
_cell_angle_beta 66.057628
_cell_angle_gamma 90.000000
_cell_volume 1286.731224
_symmetry_space_group_name_H-M "C 2"
_symmetry_group_IT_number 5
_symmetry_cell_setting 'monoclinic'
loop_
_space_group_symop_operation_xyz
x,y,z
-x,y,-z
1/2+x,1/2+y,z
1/2-x,1/2+y,-z
loop_
_atom_site_type_symbol
_atom_site_label
_atom_site_fract_x
_atom_site_fract_y
_atom_site_fract_z
Si Si1 0.500000 0.541821 0.000000
Si Si2 0.218757 0.466389 0.228348
Si Si3 0.326056 0.849399 0.631421
Si Si4 0.000000 0.037968 0.500000
Si Si5 0.673536 0.788139 0.868801
Si Si6 0.813633 0.504488 0.247733
Si Si7 0.165407 0.628796 0.866796
Si Si8 0.676080 0.177398 0.356961
O O1 0.359193 0.504223 0.102749
O O2 0.499065 0.571412 0.255408
O O3 0.249434 0.405481 0.263032
O O4 0.135375 0.487556 0.526820
O O5 0.143544 0.472144 0.022236
O O6 0.500000 0.858722 0.500000
O O7 0.292952 0.825582 0.389868
O O8 0.292443 0.812440 0.890265
O O9 0.139521 0.001049 0.396697
O O10 0.760409 0.734439 0.755530
O O11 0.500000 0.778769 0.000000
O O12 0.839058 0.566345 0.181892
O O13 0.229918 0.657122 0.580520
O O14 0.221542 0.640025 0.096078
O O15 0.000000 0.647983 0.000000
O O16 0.500000 0.177916 0.500000
#
# Coordination Sequence:
#
# PCOD9121341 Si02
#       8
#     2   4   4   2   4   4   4   4
#     4   8  16  30  46  66 100 142 172 214 256 290
#     4  10  19  33  52  76 110 144 180 214 260 320
#     4  10  21  36  56  81 111 143 177 225 274 317
#     4   8  16  30  46  66 100 142 172 214 256 290
#     4  10  21  40  59  80 111 141 180 231 280 323
#     4  10  19  33  52  76 110 144 180 214 260 320
#     4  10  21  36  56  81 111 143 177 225 274 317
#     4  10  21  40  59  80 111 141 180 231 280 323
#
# _framework density 21.760566000000001
#
# number of rings (size 3 to 8) (size 9 to 14) (size 15 to 20)
#    0.000    2.286    0.000    2.571    0.000    1.143 
#    5.143    0.000    0.000    0.000    0.000    0.000 
#    0.000    0.000    0.000    0.000    0.000    0.000 
#
# Total GULP energy -78061.688588 kJ/mol
# GULP energy per Si atom -5575.834899 kJ/mol
# Density = 2.171104 g / cm^3
# Si number density = 21.760566 Si / 1000 Ang^3
#
#
#
# Elastic Constant Matrix: (Units=GPa)
#
#
# Indices 1 2 3 4 5 6 
#
# 1 49.4522 -5.0893 43.3309 0.0000 2.1206 0.0000
# 2 -5.0893 87.9688 59.5548 0.0000 2.3035 0.0000
# 3 43.3309 59.5548 228.5213 0.0000 38.8169 0.0000
# 4 0.0000 0.0000 0.0000 77.9248 0.0000 -54.4758
# 5 2.1206 2.3035 38.8169 0.0000 35.6087 0.0000
# 6 0.0000 0.0000 0.0000 -54.4758 0.0000 115.8597
#
#
#
# Elastic Compliance Matrix: (Units=1/GPa)
#
#
# Indices 1 2 3 4 5 6 
#
# 1 0.027941 0.007067 -0.008320 0.000000 0.006949 0.000000
# 2 0.007067 0.016003 -0.006459 0.000000 0.005585 0.000000
# 3 -0.008320 -0.006459 0.009182 0.000000 -0.009096 0.000000
# 4 0.000000 0.000000 0.000000 0.019116 0.000000 0.008988
# 5 0.006949 0.005585 -0.009096 0.000000 0.037223 0.000000
# 6 0.000000 0.000000 0.000000 0.008988 0.000000 0.012857
#
#
# Mechanical properties :
#
#
# Convention : Reuss Voigt Hill
#
# Bulk Modulus (GPa) = 26.52384 62.39277 44.45831
# Shear Modulus (GPa) = 33.26347 63.75505 48.50926
#
# Velocity S-wave (km/s) = 3.91399 5.41867 4.72659
# Velocity P-wave (km/s) = 5.71324 8.23918 7.08961
#
# Compressibility (1/GPa) = 0.03770193
#
# Stress axis : x y z
#
# Youngs Moduli (GPa) = 35.78956 62.48729 108.90917
#
# Poissons Ratio (x) = -0.44161 0.90613
# Poissons Ratio (y) = -0.25293 0.70348
# Poissons Ratio (z) = 0.29777 0.40363
#
# Static dielectric constant tensor:
#      x y z
#    x 1.783340 0.000000 0.017450 
#    y 0.000000 1.730270 0.000000 
#    z 0.017450 0.000000 1.864090 
# 
# From -- ./inp_files/5625.got.cif
#   From: 2010.05.17/outbox.cif.g08.bks.cpg/sg5_3_cif.got.tgz:5625.got - 2010.06.03 18:56:24.
