data_PCOD9121316
_publ_section_title
;
Structure prediction by ZEFSAII (Michael W. Deem and Ramdas Pophale) SiO2 
 PCOD9121316
Probable space group: C 2
;
_chemical_formula_sum "Si O2"
_cell_formula_units_Z 26
_cell_length_a 5.222481
_cell_length_b 17.661593
_cell_length_c 16.183192
_cell_angle_alpha 90.000000
_cell_angle_beta 101.386252
_cell_angle_gamma 90.000000
_cell_volume 1463.316127
_symmetry_space_group_name_H-M "C 2"
_symmetry_group_IT_number 5
_symmetry_cell_setting 'monoclinic'
loop_
_space_group_symop_operation_xyz
x,y,z
-x,y,-z
1/2+x,1/2+y,z
1/2-x,1/2+y,-z
loop_
_atom_site_type_symbol
_atom_site_label
_atom_site_fract_x
_atom_site_fract_y
_atom_site_fract_z
Si Si1 0.676196 0.233720 0.696514
Si Si2 0.000000 0.889533 0.000000
Si Si3 0.386837 0.734998 0.405169
Si Si4 0.671983 0.051805 0.696712
Si Si5 0.634858 0.346378 0.836760
Si Si6 0.848936 0.438070 0.162833
Si Si7 0.110373 0.050557 0.595025
O O1 0.410123 0.256642 0.632456
O O2 0.676298 0.142787 0.703567
O O3 0.679548 0.272403 0.785883
O O4 0.921825 0.257676 0.656804
O O5 0.865083 0.840191 0.063430
O O6 0.210467 0.939047 0.064002
O O7 0.500000 0.761617 0.500000
O O8 0.391953 0.642729 0.407863
O O9 0.407105 0.028400 0.632375
O O10 0.919884 0.027983 0.657620
O O11 0.663846 0.014241 0.785909
O O12 0.345978 0.379974 0.802052
O O13 0.861324 0.405585 0.827264
O O14 0.000000 0.023908 0.500000
#
# Coordination Sequence:
#
# PCOD9121316 Si02
#       7
#     4   2   4   4   4   4   4
#     4  10  19  32  55  82 106 135 176 222 259 292
#     4   8  22  36  62  72  98 140 188 192 266 332
#     4   9  17  30  50  78 110 142 175 209 252 308
#     4  10  19  32  55  82 106 135 176 222 259 292
#     4  10  20  36  58  76 103 136 181 208 259 326
#     4  10  20  36  58  76 103 136 181 208 259 326
#     4   9  17  30  50  78 110 142 175 209 252 308
#
# _framework density 17.767862000000001
#
# number of rings (size 3 to 8) (size 9 to 14) (size 15 to 20)
#    0.923    1.538    0.000    3.231    0.000    3.692 
#    0.000    0.000    6.769   18.462    0.000    0.000 
#    0.000    0.000    0.000    0.000    0.000    0.000 
#
# Total GULP energy -72371.002929 kJ/mol
# GULP energy per Si atom -5567.000225 kJ/mol
# Density = 1.772742 g / cm^3
# Si number density = 17.767862 Si / 1000 Ang^3
#
#
#
# Elastic Constant Matrix: (Units=GPa)
#
#
# Indices 1 2 3 4 5 6 
#
# 1 72.8682 0.9609 -10.8589 0.0000 -9.5222 0.0000
# 2 0.9609 12.5429 16.8828 0.0000 -6.8005 0.0000
# 3 -10.8589 16.8828 73.2548 0.0000 -5.8371 0.0000
# 4 0.0000 0.0000 0.0000 79.3590 0.0000 -5.9988
# 5 -9.5222 -6.8005 -5.8371 0.0000 26.5552 0.0000
# 6 0.0000 0.0000 0.0000 -5.9988 0.0000 15.2076
#
#
#
# Elastic Compliance Matrix: (Units=1/GPa)
#
#
# Indices 1 2 3 4 5 6 
#
# 1 0.014948 -0.002570 0.003239 0.000000 0.005414 0.000000
# 2 -0.002570 0.133574 -0.029021 0.000000 0.026906 0.000000
# 3 0.003239 -0.029021 0.020682 0.000000 -0.001724 0.000000
# 4 0.000000 0.000000 0.000000 0.012988 0.000000 0.005123
# 5 0.005414 0.026906 -0.001724 0.000000 0.046110 0.000000
# 6 0.000000 0.000000 0.000000 0.005123 0.000000 0.067777
#
#
# Mechanical properties :
#
#
# Convention : Reuss Voigt Hill
#
# Bulk Modulus (GPa) = 8.88893 19.18171 14.03532
# Shear Modulus (GPa) = 12.81120 34.33644 23.57382
#
# Velocity S-wave (km/s) = 2.68812 4.40079 3.64643
# Velocity P-wave (km/s) = 3.82731 6.05325 5.06410
#
# Compressibility (1/GPa) = 0.11249945
#
# Stress axis : x y z
#
# Youngs Moduli (GPa) = 66.90080 7.48649 48.35067
#
# Poissons Ratio (x) = 0.01924 -0.15663
# Poissons Ratio (y) = 0.17195 1.40320
# Poissons Ratio (z) = -0.21672 0.21727
#
# Static dielectric constant tensor:
#      x y z
#    x 1.614340 0.000000 0.004260 
#    y 0.000000 1.591330 0.000000 
#    z 0.004260 0.000000 1.601670 
# 
# From -- ./inp_files/49129.got.cif
#   From: 2010.05.17/outbox.cif.g08.bks.cpg/sg5_25_cif.got.tgz:49129.got - 2010.06.03 18:56:24.
