data_PCOD9121504
_publ_section_title
;
Structure prediction by ZEFSAII (Michael W. Deem and Ramdas Pophale) SiO2 
 PCOD9121504
Probable space group: C 2
;
_chemical_formula_sum "Si O2"
_cell_formula_units_Z 32
_cell_length_a 17.006297
_cell_length_b 11.609407
_cell_length_c 19.631536
_cell_angle_alpha 90.000000
_cell_angle_beta 23.422202
_cell_angle_gamma 90.000000
_cell_volume 1540.689142
_symmetry_space_group_name_H-M "C 2"
_symmetry_group_IT_number 5
_symmetry_cell_setting 'monoclinic'
loop_
_space_group_symop_operation_xyz
x,y,z
-x,y,-z
1/2+x,1/2+y,z
1/2-x,1/2+y,-z
loop_
_atom_site_type_symbol
_atom_site_label
_atom_site_fract_x
_atom_site_fract_y
_atom_site_fract_z
Si Si1 0.105923 0.514290 0.217016
Si Si2 0.836796 0.103450 0.782594
Si Si3 0.789525 0.974012 0.206505
Si Si4 0.970022 0.089314 0.182294
Si Si5 0.211072 0.684289 0.589863
Si Si6 0.029942 0.894929 0.242538
Si Si7 0.838367 0.273999 0.896841
Si Si8 0.769377 0.212357 0.698427
O O1 0.126441 0.510451 0.281847
O O2 0.105229 0.383560 0.192373
O O3 0.921077 0.583877 0.336745
O O4 0.308917 0.568968 0.024895
O O5 0.058835 0.155609 0.600864
O O6 0.728653 0.133617 0.797514
O O7 0.751455 0.176871 0.914275
O O8 0.866871 0.969773 0.779723
O O9 0.759415 0.845379 0.257969
O O10 0.814510 0.063798 0.247453
O O11 0.000000 0.971170 0.000000
O O12 0.980386 0.212625 0.208931
O O13 0.946385 0.992423 0.258445
O O14 0.171149 0.692316 0.703021
O O15 0.141747 0.802305 0.608504
O O16 0.190557 0.822436 0.071659
O O17 0.000000 0.193870 0.500000
#
# Coordination Sequence:
#
# PCOD9121504 Si02
#       8
#     4   4   4   4   4   4   4   4
#     4  10  20  33  58  84 115 153 192 241 298 347
#     4  10  23  37  60  90 120 152 207 246 295 357
#     4  10  19  34  58  86 114 151 195 249 291 343
#     4   9  18  34  57  86 112 149 197 244 293 343
#     4  11  22  37  61  87 118 160 198 245 298 352
#     4  10  20  36  60  86 117 157 195 249 300 352
#     4  10  19  37  59  82 118 152 197 245 295 352
#     4  10  21  38  57  85 119 155 196 245 287 347
#
# _framework density 20.769926000000002
#
# number of rings (size 3 to 8) (size 9 to 14) (size 15 to 20)
#    0.000    2.000    3.750    0.000    1.750    0.000 
#    0.000    1.250    0.000    0.000    0.000    0.000 
#    0.000    0.000    0.000    0.000    0.000    0.000 
#
# Total GULP energy -89337.759592 kJ/mol
# GULP energy per Si atom -5583.609975 kJ/mol
# Density = 2.072265 g / cm^3
# Si number density = 20.769926 Si / 1000 Ang^3
#
#
#
# Elastic Constant Matrix: (Units=GPa)
#
#
# Indices 1 2 3 4 5 6 
#
# 1 144.0236 49.0025 2.9961 0.0015 10.5032 -0.0013
# 2 49.0025 66.8570 -6.7925 0.0187 -6.8956 -0.0021
# 3 2.9961 -6.7925 37.6871 0.0066 -1.2191 -0.0010
# 4 0.0015 0.0187 0.0066 21.0427 -0.0017 2.9150
# 5 10.5032 -6.8956 -1.2191 -0.0017 19.3366 0.0007
# 6 -0.0013 -0.0021 -0.0010 2.9150 0.0007 37.1068
#
#
#
# Elastic Compliance Matrix: (Units=1/GPa)
#
#
# Indices 1 2 3 4 5 6 
#
# 1 0.010797 -0.009159 -0.002810 0.000008 -0.009308 -0.000001
# 2 -0.009159 0.023640 0.005434 -0.000021 0.013748 0.000003
# 3 -0.002810 0.005434 0.027906 -0.000013 0.005224 0.000002
# 4 0.000008 -0.000021 -0.000013 0.048045 -0.000008 -0.003774
# 5 -0.009308 0.013748 0.005224 -0.000008 0.062003 0.000000
# 6 -0.000001 0.000003 0.000002 -0.003774 0.000000 0.027246
#
#
# Mechanical properties :
#
#
# Convention : Reuss Voigt Hill
#
# Bulk Modulus (GPa) = 20.29550 37.66443 28.97996
# Shear Modulus (GPa) = 21.82145 29.05465 25.43805
#
# Velocity S-wave (km/s) = 3.24485 3.74422 3.50345
# Velocity P-wave (km/s) = 4.88176 6.07171 5.50896
#
# Compressibility (1/GPa) = 0.04927201
#
# Stress axis : x y z
#
# Youngs Moduli (GPa) = 92.61999 42.30063 35.83463
#
# Poissons Ratio (x) = 0.38743 0.10070
# Poissons Ratio (y) = 0.84830 -0.19471
# Poissons Ratio (z) = 0.26028 -0.22985
#
# Static dielectric constant tensor:
#      x y z
#    x 1.770320 0.000000 0.037330 
#    y 0.000000 1.715250 0.000000 
#    z 0.037330 0.000000 1.769430 
# 
# From -- ./inp_files/66654.got.cif
#   From: 2010.05.17/outbox.cif.g08.bks.cpg/sg5_34_cif.got.tgz:66654.got - 2010.06.03 18:56:24.
