data_PCOD9121603
_publ_section_title
;
Structure prediction by ZEFSAII (Michael W. Deem and Ramdas Pophale) SiO2 
 PCOD9121603
Probable space group: C 2
;
_chemical_formula_sum "Si O2"
_cell_formula_units_Z 30
_cell_length_a 22.922510
_cell_length_b 5.514705
_cell_length_c 20.308888
_cell_angle_alpha 90.000000
_cell_angle_beta 39.426467
_cell_angle_gamma 90.000000
_cell_volume 1630.437280
_symmetry_space_group_name_H-M "C 2"
_symmetry_group_IT_number 5
_symmetry_cell_setting 'monoclinic'
loop_
_space_group_symop_operation_xyz
x,y,z
-x,y,-z
1/2+x,1/2+y,z
1/2-x,1/2+y,-z
loop_
_atom_site_type_symbol
_atom_site_label
_atom_site_fract_x
_atom_site_fract_y
_atom_site_fract_z
Si Si1 0.188405 0.241660 0.837225
Si Si2 0.791536 0.814373 0.880907
Si Si3 0.500000 0.001958 0.000000
Si Si4 0.366043 0.816477 0.871074
Si Si5 0.109348 0.859989 0.821333
Si Si6 0.564581 0.679313 0.744553
Si Si7 0.272743 0.984991 0.336741
Si Si8 0.803970 0.940644 0.469000
O O1 0.257479 0.280299 0.836102
O O2 0.090141 0.356706 0.941426
O O3 0.225931 0.358275 0.735961
O O4 0.157381 0.972588 0.843613
O O5 0.849024 0.574210 0.850420
O O6 0.840486 0.073585 0.851479
O O7 0.702605 0.811944 0.006490
O O8 0.537903 0.160776 0.907017
O O9 0.470557 0.793230 0.803022
O O10 0.194319 0.757191 0.705222
O O11 0.054706 0.042662 0.822806
O O12 0.643820 0.869670 0.693969
O O13 0.606505 0.501364 0.652259
O O14 0.186598 0.952953 0.459697
O O15 0.737277 0.174838 0.512021
#
# Coordination Sequence:
#
# PCOD9121603 Si02
#       8
#     4   4   2   4   4   4   4   4
#     4  10  22  36  54  84 112 158 185 243 290 346
#     4  10  24  41  56  80 116 156 199 237 275 336
#     4  10  22  30  52  88 116 146 188 232 296 352
#     4  10  24  39  58  82 111 160 199 233 279 331
#     4  10  20  33  53  86 115 149 181 234 294 352
#     4  10  21  35  60  85 118 147 192 241 285 356
#     4   9  20  35  55  91 114 146 183 234 304 348
#     4  10  19  35  57  88 122 149 181 237 300 350
#
# _framework density 18.399972999999999
#
# number of rings (size 3 to 8) (size 9 to 14) (size 15 to 20)
#    0.000    2.133    1.333    0.400   13.067    1.067 
#    0.000    0.000    0.000    0.800    0.000    0.000 
#    0.000    0.000    0.000    0.000    0.000    0.000 
#
# Total GULP energy -83569.297447 kJ/mol
# GULP energy per Si atom -5571.286496 kJ/mol
# Density = 1.835809 g / cm^3
# Si number density = 18.399973 Si / 1000 Ang^3
#
#
#
# Elastic Constant Matrix: (Units=GPa)
#
#
# Indices 1 2 3 4 5 6 
#
# 1 93.5225 16.4351 14.0955 -0.0572 10.0402 0.0512
# 2 16.4351 71.4124 2.3965 -0.0387 5.0160 0.0556
# 3 14.0955 2.3965 25.1229 -0.0598 9.5875 0.0342
# 4 -0.0572 -0.0387 -0.0598 25.5174 0.0051 6.8075
# 5 10.0402 5.0160 9.5875 0.0051 22.7741 -0.0016
# 6 0.0512 0.0556 0.0342 6.8075 -0.0016 -0.8181
#
#
#
# Elastic Compliance Matrix: (Units=1/GPa)
#
#
# Indices 1 2 3 4 5 6 
#
# 1 0.012247 -0.002455 -0.005699 -0.000027 -0.002459 0.000142
# 2 -0.002455 0.014716 0.000949 -0.000068 -0.002559 0.000327
# 3 -0.005699 0.000949 0.050076 -0.000118 -0.018778 0.000853
# 4 -0.000027 -0.000068 -0.000118 0.012172 0.000081 0.101271
# 5 -0.002459 -0.002559 -0.018778 0.000081 0.053462 -0.000542
# 6 0.000142 0.000327 0.000853 0.101271 -0.000542 -0.379600
#
#
# Mechanical properties :
#
#
# Convention : Reuss Voigt Hill
#
# Bulk Modulus (GPa) = 15.96680 28.43466 22.20073
# Shear Modulus (GPa) = -24.79632 19.97008 -2.41312
#
# Velocity S-wave (km/s) = -3.67499 3.29801 -1.14644
# Velocity P-wave (km/s) = 3.05138 5.47628 3.21549
#
# Compressibility (1/GPa) = 0.06262996
#
# Stress axis : x y z
#
# Youngs Moduli (GPa) = 81.65390 67.95481 19.96975
#
# Poissons Ratio (x) = 0.16681 0.11380
# Poissons Ratio (y) = 0.20043 -0.01896
# Poissons Ratio (z) = 0.46533 -0.06451
#
# Static dielectric constant tensor:
#      x y z
#    x 1.610880 -0.000010 0.044930 
#    y -0.000010 1.724990 -0.000010 
#    z 0.044930 -0.000010 1.681270 
# 
# From -- ./inp_files/55300.got.cif
#   From: 2010.05.17/outbox.cif.g08.bks.cpg/sg5_28_cif.got.tgz:55300.got - 2010.06.03 18:56:24.
