data_PCOD9121090
_publ_section_title
;
Structure prediction by ZEFSAII (Michael W. Deem and Ramdas Pophale) SiO2 
 PCOD9121090
Probable space group: C 2
;
_chemical_formula_sum "Si O2"
_cell_formula_units_Z 30
_cell_length_a 11.597617
_cell_length_b 14.875141
_cell_length_c 12.190704
_cell_angle_alpha 90.000000
_cell_angle_beta 132.120382
_cell_angle_gamma 90.000000
_cell_volume 1559.943108
_symmetry_space_group_name_H-M "C 2"
_symmetry_group_IT_number 5
_symmetry_cell_setting 'monoclinic'
loop_
_space_group_symop_operation_xyz
x,y,z
-x,y,-z
1/2+x,1/2+y,z
1/2-x,1/2+y,-z
loop_
_atom_site_type_symbol
_atom_site_label
_atom_site_fract_x
_atom_site_fract_y
_atom_site_fract_z
Si Si1 0.321110 0.590800 0.353215
Si Si2 0.323092 0.724370 0.726849
Si Si3 0.655626 0.911774 0.813176
Si Si4 0.500000 0.961918 0.500000
Si Si5 0.165070 0.212454 0.850025
Si Si6 0.263526 0.110033 0.129753
Si Si7 0.610456 0.922487 0.175896
Si Si8 0.883431 0.621496 0.564334
O O1 0.500000 0.577100 0.500000
O O2 0.307581 0.664002 0.247951
O O3 0.237936 0.499985 0.258895
O O4 0.228898 0.618226 0.403680
O O5 0.480334 0.718377 0.756158
O O6 0.334247 0.656031 0.835854
O O7 0.313330 0.824363 0.768267
O O8 0.179549 0.696727 0.558596
O O9 0.594217 0.906122 0.649285
O O10 0.724243 0.815550 0.889644
O O11 0.505694 0.930365 0.794507
O O12 0.756510 0.002297 0.886940
O O13 0.386881 0.029143 0.495453
O O14 0.233936 0.154986 0.993955
O O15 0.441321 0.129444 0.280387
O O16 0.500000 0.928615 0.000000
#
# Coordination Sequence:
#
# PCOD9121090 Si02
#       8
#     4   4   4   2   4   4   4   4
#     4  12  25  41  61  97 133 162 208 277 326 369
#     4  11  21  41  67  97 125 166 218 263 309 376
#     4  10  21  39  67  91 119 174 217 247 312 385
#     4  10  18  38  70  88 116 168 224 252 296 394
#     4  11  25  38  65  97 132 165 213 266 321 378
#     4  11  21  41  69  90 129 172 219 256 313 385
#     4  11  23  41  65  93 129 171 214 253 323 392
#     4  11  21  40  66  94 120 168 213 261 320 369
#
# _framework density 19.231470000000002
#
# number of rings (size 3 to 8) (size 9 to 14) (size 15 to 20)
#    0.000    1.067    6.667    2.800    0.933    1.067 
#    0.000    0.000    8.800    0.000    0.000    0.000 
#    0.000    0.000    0.000    0.000    0.000    0.000 
#
# Total GULP energy -83774.194179 kJ/mol
# GULP energy per Si atom -5584.946279 kJ/mol
# Density = 1.918770 g / cm^3
# Si number density = 19.231470 Si / 1000 Ang^3
#
#
#
# Elastic Constant Matrix: (Units=GPa)
#
#
# Indices 1 2 3 4 5 6 
#
# 1 88.1699 29.1768 12.0680 0.0000 -23.3077 0.0000
# 2 29.1768 152.7249 39.7989 0.0000 -14.2110 0.0000
# 3 12.0680 39.7989 110.2047 0.0000 -17.0876 0.0000
# 4 0.0000 0.0000 0.0000 27.9022 0.0000 -5.6377
# 5 -23.3077 -14.2110 -17.0876 0.0000 31.2832 0.0000
# 6 0.0000 0.0000 0.0000 -5.6377 0.0000 10.5764
#
#
#
# Elastic Compliance Matrix: (Units=1/GPa)
#
#
# Indices 1 2 3 4 5 6 
#
# 1 0.014662 -0.002025 0.000740 0.000000 0.010408 0.000000
# 2 -0.002025 0.007628 -0.002436 0.000000 0.000625 0.000000
# 3 0.000740 -0.002436 0.010692 0.000000 0.005285 0.000000
# 4 0.000000 0.000000 0.000000 0.040165 0.000000 0.021410
# 5 0.010408 0.000625 0.005285 0.000000 0.042891 0.000000
# 6 0.000000 0.000000 0.000000 0.021410 0.000000 0.105963
#
#
# Mechanical properties :
#
#
# Convention : Reuss Voigt Hill
#
# Bulk Modulus (GPa) = 39.15619 57.02076 48.08847
# Shear Modulus (GPa) = 21.01216 31.95607 26.48412
#
# Velocity S-wave (km/s) = 3.30902 4.08076 3.71499
# Velocity P-wave (km/s) = 5.91644 7.20539 6.59249
#
# Compressibility (1/GPa) = 0.02553875
#
# Stress axis : x y z
#
# Youngs Moduli (GPa) = 68.20312 131.10273 93.52676
#
# Poissons Ratio (x) = 0.26553 -0.06918
# Poissons Ratio (y) = 0.13814 0.22782
# Poissons Ratio (z) = -0.05045 0.31934
#
# Static dielectric constant tensor:
#      x y z
#    x 1.671090 0.000000 -0.004450 
#    y 0.000000 1.680320 0.000000 
#    z -0.004450 0.000000 1.666670 
# 
# From -- ./inp_files/40062.got.cif
#   From: 2010.05.17/outbox.cif.g08.bks.cpg/sg5_21_cif.got.tgz:40062.got - 2010.06.03 18:56:24.
