data_PCOD9121351
_publ_section_title
;
Structure prediction by ZEFSAII (Michael W. Deem and Ramdas Pophale) SiO2 
 PCOD9121351
Probable space group: C 2
;
_chemical_formula_sum "Si O2"
_cell_formula_units_Z 32
_cell_length_a 21.420528
_cell_length_b 7.603287
_cell_length_c 11.916481
_cell_angle_alpha 90.000000
_cell_angle_beta 133.055738
_cell_angle_gamma 90.000000
_cell_volume 1418.119029
_symmetry_space_group_name_H-M "C 2"
_symmetry_group_IT_number 5
_symmetry_cell_setting 'monoclinic'
loop_
_space_group_symop_operation_xyz
x,y,z
-x,y,-z
1/2+x,1/2+y,z
1/2-x,1/2+y,-z
loop_
_atom_site_type_symbol
_atom_site_label
_atom_site_fract_x
_atom_site_fract_y
_atom_site_fract_z
Si Si1 0.944979 0.365250 0.620538
Si Si2 0.825567 0.943991 0.641809
Si Si3 0.458639 0.434834 0.629758
Si Si4 0.381891 0.442545 0.297891
Si Si5 0.121137 0.318966 0.783179
Si Si6 0.844599 0.362015 0.704333
Si Si7 0.200257 0.319426 0.113376
Si Si8 0.774225 0.450249 0.275053
O O1 0.951438 0.149966 0.627781
O O2 0.921585 0.421257 0.718534
O O3 0.864843 0.428695 0.448985
O O4 0.035013 0.432898 0.683493
O O5 0.744442 0.930129 0.458527
O O6 0.793911 0.864367 0.722069
O O7 0.906887 0.869203 0.674689
O O8 0.842623 0.149748 0.686437
O O9 0.411013 0.379001 0.456258
O O10 0.556318 0.377150 0.726261
O O11 0.400277 0.649284 0.316488
O O12 0.281076 0.424424 0.164651
O O13 0.205229 0.388493 0.825088
O O14 0.140628 0.273758 0.936004
O O15 0.846618 0.406378 0.838064
O O16 0.243635 0.147245 0.218863
#
# Coordination Sequence:
#
# PCOD9121351 Si02
#       8
#     4   4   4   4   4   4   4   4
#     4   9  18  35  58  76 100 140 186 220 253 316
#     4   9  17  31  52  76 106 129 176 222 264 306
#     4   9  16  32  56  78  96 133 179 217 258 309
#     4  10  19  33  54  76 104 138 177 215 260 323
#     4  11  21  36  55  75 109 150 180 210 266 334
#     4   9  18  32  51  78 105 135 174 220 268 307
#     4  11  22  34  51  82 115 138 172 224 277 319
#     4  10  20  35  53  81 110 137 177 226 269 312
#
# _framework density 22.565100000000001
#
# number of rings (size 3 to 8) (size 9 to 14) (size 15 to 20)
#    0.000    2.250    2.500    1.125    0.000    0.500 
#    4.500    0.000    0.000    2.250    0.000    0.000 
#    0.000    0.000    0.000    0.000    0.000    0.000 
#
# Total GULP energy -89136.996885 kJ/mol
# GULP energy per Si atom -5571.062305 kJ/mol
# Density = 2.251374 g / cm^3
# Si number density = 22.565100 Si / 1000 Ang^3
#
#
#
# Elastic Constant Matrix: (Units=GPa)
#
#
# Indices 1 2 3 4 5 6 
#
# 1 206.5066 13.7298 40.6423 0.0000 -32.5851 0.0000
# 2 13.7298 26.6256 -0.9359 0.0000 -2.4347 0.0000
# 3 40.6423 -0.9359 57.3308 0.0000 -21.0231 0.0000
# 4 0.0000 0.0000 0.0000 25.3675 0.0000 17.9906
# 5 -32.5851 -2.4347 -21.0231 0.0000 31.0810 0.0000
# 6 0.0000 0.0000 0.0000 17.9906 0.0000 34.8509
#
#
#
# Elastic Compliance Matrix: (Units=1/GPa)
#
#
# Indices 1 2 3 4 5 6 
#
# 1 0.006306 -0.002950 -0.002898 0.000000 0.004420 0.000000
# 2 -0.002950 0.039431 0.003635 0.000000 0.002455 0.000000
# 3 -0.002898 0.003635 0.024664 0.000000 0.013929 0.000000
# 4 0.000000 0.000000 0.000000 0.062187 0.000000 -0.032102
# 5 0.004420 0.002455 0.013929 0.000000 0.046423 0.000000
# 6 0.000000 0.000000 0.000000 -0.032102 0.000000 0.045265
#
#
# Mechanical properties :
#
#
# Convention : Reuss Voigt Hill
#
# Bulk Modulus (GPa) = 15.15683 44.14836 29.65260
# Shear Modulus (GPa) = 19.94462 34.06164 27.00313
#
# Velocity S-wave (km/s) = 2.97622 3.88942 3.46305
# Velocity P-wave (km/s) = 4.30605 6.30694 5.39998
#
# Compressibility (1/GPa) = 0.06597685
#
# Stress axis : x y z
#
# Youngs Moduli (GPa) = 158.56905 25.36066 40.54461
#
# Poissons Ratio (x) = 0.07480 0.11749
# Poissons Ratio (y) = 0.46772 -0.14738
# Poissons Ratio (z) = 0.45951 -0.09219
#
# Static dielectric constant tensor:
#      x y z
#    x 1.848910 0.000000 0.039030 
#    y 0.000000 1.914560 0.000000 
#    z 0.039030 0.000000 1.763800 
# 
# From -- ./inp_files/44497.got.cif
#   From: 2010.05.17/outbox.cif.g08.bks.cpg/sg5_23_cif.got.tgz:44497.got - 2010.06.03 18:56:24.
