data_PCOD9121413
_publ_section_title
;
Structure prediction by ZEFSAII (Michael W. Deem and Ramdas Pophale) SiO2 
 PCOD9121413
Probable space group: C 2
;
_chemical_formula_sum "Si O2"
_cell_formula_units_Z 26
_cell_length_a 14.958531
_cell_length_b 17.429285
_cell_length_c 10.345060
_cell_angle_alpha 90.000000
_cell_angle_beta 154.297420
_cell_angle_gamma 90.000000
_cell_volume 1169.743423
_symmetry_space_group_name_H-M "C 2"
_symmetry_group_IT_number 5
_symmetry_cell_setting 'monoclinic'
loop_
_space_group_symop_operation_xyz
x,y,z
-x,y,-z
1/2+x,1/2+y,z
1/2-x,1/2+y,-z
loop_
_atom_site_type_symbol
_atom_site_label
_atom_site_fract_x
_atom_site_fract_y
_atom_site_fract_z
Si Si1 0.673468 0.134840 0.993604
Si Si2 0.000000 0.537048 0.000000
Si Si3 0.283549 0.920480 0.541272
Si Si4 0.518537 0.634481 0.816450
Si Si5 0.838024 0.305104 0.948274
Si Si6 0.004165 0.801260 0.289270
Si Si7 0.790396 0.565581 0.396137
O O1 0.898826 0.124604 0.222293
O O2 0.591113 0.222934 0.894011
O O3 0.521443 0.095395 0.690899
O O4 0.622035 0.089017 0.056089
O O5 0.173023 0.480807 0.286742
O O6 0.083919 0.867127 0.297498
O O7 0.277782 0.975591 0.409807
O O8 0.485576 0.867998 0.814731
O O9 0.554211 0.724364 0.883921
O O10 0.664116 0.589401 0.107071
O O11 0.301545 0.610068 0.595919
O O12 0.705240 0.291112 0.644693
O O13 0.673780 0.326676 0.844241
#
# Coordination Sequence:
#
# PCOD9121413 Si02
#       7
#     4   2   4   4   4   4   4
#     4  10  20  38  59  85 115 154 197 242 287 342
#     4  10  22  36  56  84 122 154 182 240 306 340
#     4  11  21  36  54  88 121 150 183 247 297 344
#     4  10  20  38  62  86 111 152 203 246 275 345
#     4  10  19  33  60  87 110 145 205 244 277 335
#     4  10  19  34  59  83 109 155 199 236 283 340
#     4  10  21  33  57  89 118 147 190 239 301 336
#
# _framework density 22.227096
#
# number of rings (size 3 to 8) (size 9 to 14) (size 15 to 20)
#    0.000    1.846    3.077    1.385    2.154    2.462 
#    0.000    3.846    0.000    5.538    0.000    0.000 
#    0.000    0.000    0.000    0.000    0.000    0.000 
#
# Total GULP energy -72515.174702 kJ/mol
# GULP energy per Si atom -5578.090362 kJ/mol
# Density = 2.217651 g / cm^3
# Si number density = 22.227096 Si / 1000 Ang^3
#
#
#
# Elastic Constant Matrix: (Units=GPa)
#
#
# Indices 1 2 3 4 5 6 
#
# 1 99.6662 49.9605 24.4621 0.0000 21.6306 0.0000
# 2 49.9605 109.1378 27.4632 0.0000 5.4616 0.0000
# 3 24.4621 27.4632 45.2358 0.0000 21.2633 0.0000
# 4 0.0000 0.0000 0.0000 -24.9677 0.0000 18.9435
# 5 21.6306 5.4616 21.2633 0.0000 35.8958 0.0000
# 6 0.0000 0.0000 0.0000 18.9435 0.0000 -15.8905
#
#
#
# Elastic Compliance Matrix: (Units=1/GPa)
#
#
# Indices 1 2 3 4 5 6 
#
# 1 0.015045 -0.006333 -0.000668 0.000000 -0.007706 0.000000
# 2 -0.006333 0.013737 -0.007937 0.000000 0.006428 0.000000
# 3 -0.000668 -0.007937 0.036767 0.000000 -0.020169 0.000000
# 4 0.000000 0.000000 0.000000 -0.419332 0.000000 -0.499896
# 5 -0.007706 0.006428 -0.020169 0.000000 0.043472 0.000000
# 6 0.000000 0.000000 0.000000 -0.499896 0.000000 -0.658870
#
#
# Mechanical properties :
#
#
# Convention : Reuss Voigt Hill
#
# Bulk Modulus (GPa) = 28.03279 50.86793 39.45036
# Shear Modulus (GPa) = -5.39133 9.15112 1.87989
#
# Velocity S-wave (km/s) = -1.55911 2.03127 0.92065
# Velocity P-wave (km/s) = 3.06566 5.33260 4.34942
#
# Compressibility (1/GPa) = 0.03567250
#
# Stress axis : x y z
#
# Youngs Moduli (GPa) = 66.46821 72.79374 27.19852
#
# Poissons Ratio (x) = 0.46102 0.01818
# Poissons Ratio (y) = 0.42096 0.21587
# Poissons Ratio (z) = 0.04442 0.57774
#
# Static dielectric constant tensor:
#      x y z
#    x 3.570270 0.000000 0.419680 
#    y 0.000000 1.806200 0.000000 
#    z 0.419680 0.000000 1.941160 
# 
# From -- ./inp_files/43261.got.cif
#   From: 2010.05.17/outbox.cif.g08.bks.cpg/sg5_22_cif.got.tgz:43261.got - 2010.06.03 18:56:24.
