data_PCOD9121153
_publ_section_title
;
Structure prediction by ZEFSAII (Michael W. Deem and Ramdas Pophale) SiO2 
 PCOD9121153
Probable space group: C 2
;
_chemical_formula_sum "Si O2"
_cell_formula_units_Z 28
_cell_length_a 7.981251
_cell_length_b 16.269473
_cell_length_c 10.206091
_cell_angle_alpha 90.000000
_cell_angle_beta 74.422471
_cell_angle_gamma 90.000000
_cell_volume 1276.588731
_symmetry_space_group_name_H-M "C 2"
_symmetry_group_IT_number 5
_symmetry_cell_setting 'monoclinic'
loop_
_space_group_symop_operation_xyz
x,y,z
-x,y,-z
1/2+x,1/2+y,z
1/2-x,1/2+y,-z
loop_
_atom_site_type_symbol
_atom_site_label
_atom_site_fract_x
_atom_site_fract_y
_atom_site_fract_z
Si Si1 0.517333 0.906920 0.757686
Si Si2 0.650909 0.510371 0.254132
Si Si3 0.354015 0.203303 0.924740
Si Si4 0.994805 0.832755 0.695781
Si Si5 0.295044 0.791096 0.460805
Si Si6 0.000000 0.286780 0.000000
Si Si7 0.325102 0.026838 0.947294
Si Si8 0.000000 0.135580 0.500000
O O1 0.664323 0.978032 0.726222
O O2 0.552905 0.851257 0.623509
O O3 0.557220 0.844447 0.868672
O O4 0.339479 0.951734 0.841254
O O5 0.532024 0.429495 0.283929
O O6 0.579163 0.580026 0.366357
O O7 0.681513 0.530370 0.093438
O O8 0.439852 0.277349 0.828136
O O9 0.165324 0.233942 0.009608
O O10 0.324913 0.112932 0.869652
O O11 0.500000 0.184567 0.000000
O O12 0.190923 0.815528 0.612483
O O13 0.855608 0.802363 0.616137
O O14 0.362841 0.698953 0.464085
O O15 0.500000 0.015975 0.000000
#
# Coordination Sequence:
#
# PCOD9121153 Si02
#       8
#     4   4   4   4   4   2   4   2
#     4  10  18  40  66  90 124 186 217 262 356 407
#     4  10  19  39  63  92 123 181 221 265 346 410
#     4  11  24  38  71 105 135 176 233 291 335 412
#     4  10  21  46  65  88 133 183 221 268 352 412
#     4  10  23  38  67  92 125 176 222 275 335 410
#     4  12  20  40  72  92 138 180 218 280 344 402
#     4   9  19  34  64  97 124 171 224 278 337 400
#     4  12  26  36  68 100 128 170 236 284 328 418
#
# _framework density 21.933453
#
# number of rings (size 3 to 8) (size 9 to 14) (size 15 to 20)
#    0.000    1.714    5.000    1.714    8.000    0.000 
#    0.000    0.000   25.143    0.000    0.000    0.000 
#    0.000    0.000    0.000    0.000    0.000    0.000 
#
# Total GULP energy -78032.736722 kJ/mol
# GULP energy per Si atom -5573.766909 kJ/mol
# Density = 2.188353 g / cm^3
# Si number density = 21.933453 Si / 1000 Ang^3
#
#
#
# Elastic Constant Matrix: (Units=GPa)
#
#
# Indices 1 2 3 4 5 6 
#
# 1 67.5895 25.6993 29.2610 0.0000 -17.8570 0.0000
# 2 25.6993 166.5186 78.9312 0.0000 -21.4349 0.0000
# 3 29.2610 78.9312 134.7150 0.0000 -35.9719 0.0000
# 4 0.0000 0.0000 0.0000 30.7184 0.0000 -1.8271
# 5 -17.8570 -21.4349 -35.9719 0.0000 24.5320 0.0000
# 6 0.0000 0.0000 0.0000 -1.8271 0.0000 20.2162
#
#
#
# Elastic Compliance Matrix: (Units=1/GPa)
#
#
# Indices 1 2 3 4 5 6 
#
# 1 0.018553 -0.001283 0.000047 0.000000 0.012453 0.000000
# 2 -0.001283 0.008404 -0.004822 0.000000 -0.000661 0.000000
# 3 0.000047 -0.004822 0.014992 0.000000 0.017805 0.000000
# 4 0.000000 0.000000 0.000000 0.032730 0.000000 0.002958
# 5 0.012453 -0.000661 0.017805 0.000000 0.075357 0.000000
# 6 0.000000 0.000000 0.000000 0.002958 0.000000 0.049733
#
#
# Mechanical properties :
#
#
# Convention : Reuss Voigt Hill
#
# Bulk Modulus (GPa) = 33.51935 70.73402 52.12668
# Shear Modulus (GPa) = 22.54002 30.75541 26.64772
#
# Velocity S-wave (km/s) = 3.20918 3.74868 3.48937
# Velocity P-wave (km/s) = 5.38955 7.14536 6.32864
#
# Compressibility (1/GPa) = 0.02983352
#
# Stress axis : x y z
#
# Youngs Moduli (GPa) = 53.90098 118.99443 66.70089
#
# Poissons Ratio (x) = 0.15261 -0.00312
# Poissons Ratio (y) = 0.06913 0.32162
# Poissons Ratio (z) = -0.00252 0.57377
#
# Static dielectric constant tensor:
#      x y z
#    x 1.873780 0.000000 -0.003700 
#    y 0.000000 1.806370 0.000000 
#    z -0.003700 0.000000 1.857610 
# 
# From -- ./inp_files/36320.got.cif
#   From: 2010.05.17/outbox.cif.g08.bks.cpg/sg5_19_cif.got.tgz:36320.got - 2010.06.03 18:56:24.
