data_PCOD9121865
_publ_section_title
;
Structure prediction by ZEFSAII (Michael W. Deem and Ramdas Pophale) SiO2 
 PCOD9121865
Probable space group: C 2
;
_chemical_formula_sum "Si O2"
_cell_formula_units_Z 30
_cell_length_a 16.332793
_cell_length_b 14.711625
_cell_length_c 7.204314
_cell_angle_alpha 90.000000
_cell_angle_beta 132.547486
_cell_angle_gamma 90.000000
_cell_volume 1275.306359
_symmetry_space_group_name_H-M "C 2"
_symmetry_group_IT_number 5
_symmetry_cell_setting 'monoclinic'
loop_
_space_group_symop_operation_xyz
x,y,z
-x,y,-z
1/2+x,1/2+y,z
1/2-x,1/2+y,-z
loop_
_atom_site_type_symbol
_atom_site_label
_atom_site_fract_x
_atom_site_fract_y
_atom_site_fract_z
Si Si1 0.125743 0.875000 0.663024
Si Si2 0.372917 0.448127 0.754966
Si Si3 0.997191 0.413391 0.273680
Si Si4 0.669634 0.756974 0.940854
Si Si5 0.705429 0.809035 0.575789
Si Si6 0.244973 0.618180 0.442524
Si Si7 0.131327 0.070373 0.751504
Si Si8 0.500000 0.067682 0.000000
O O1 0.132430 0.914367 0.466138
O O2 0.000000 0.845625 0.500000
O O3 0.152812 0.964647 0.830075
O O4 0.210727 0.794188 0.821160
O O5 0.321404 0.360813 0.779228
O O6 0.297695 0.538658 0.647883
O O7 0.500000 0.467836 0.000000
O O8 0.920173 0.326329 0.115091
O O9 0.000000 0.429992 0.500000
O O10 0.118117 0.385374 0.382515
O O11 0.961501 0.502359 0.109330
O O12 0.660363 0.775265 0.704596
O O13 0.650974 0.649945 0.930129
O O14 0.713913 0.721018 0.459393
O O15 0.292054 0.594185 0.308428
O O16 0.111118 0.619282 0.233753
O O17 0.000000 0.074600 0.500000
#
# Coordination Sequence:
#
# PCOD9121865 Si02
#       8
#     4   4   4   4   4   4   4   2
#     4  10  21  38  60  90 122 164 215 258 326 390
#     4  11  22  40  61  87 126 172 210 260 316 384
#     4  10  21  38  67  97 128 165 219 270 326 386
#     4  10  19  36  65  91 120 164 211 269 326 377
#     4  10  21  40  61  90 128 167 213 261 327 386
#     4  10  22  39  63  94 124 177 211 261 340 382
#     4   9  18  37  64  93 121 164 217 265 318 390
#     4  12  22  42  70  92 140 172 212 276 330 404
#
# _framework density 23.523761
#
# number of rings (size 3 to 8) (size 9 to 14) (size 15 to 20)
#    0.000    1.867    1.333    4.400    0.933    0.000 
#    1.200    5.333    5.867    0.800    0.000    0.000 
#    0.000    0.000    0.000    0.000    0.000    0.000 
#
# Total GULP energy -83856.474022 kJ/mol
# GULP energy per Si atom -5590.431601 kJ/mol
# Density = 2.347022 g / cm^3
# Si number density = 23.523761 Si / 1000 Ang^3
#
#
#
# Elastic Constant Matrix: (Units=GPa)
#
#
# Indices 1 2 3 4 5 6 
#
# 1 58.5226 15.4940 4.3729 0.0000 12.5589 0.0000
# 2 15.4940 82.8436 24.2702 0.0000 7.3440 0.0000
# 3 4.3729 24.2702 37.9260 0.0000 13.7077 0.0000
# 4 0.0000 0.0000 0.0000 23.1178 0.0000 5.7995
# 5 12.5589 7.3440 13.7077 0.0000 42.3288 0.0000
# 6 0.0000 0.0000 0.0000 5.7995 0.0000 -8.0879
#
#
#
# Elastic Compliance Matrix: (Units=1/GPa)
#
#
# Indices 1 2 3 4 5 6 
#
# 1 0.019144 -0.003733 0.002266 0.000000 -0.005766 0.000000
# 2 -0.003733 0.015596 -0.010162 0.000000 0.001692 0.000000
# 3 0.002266 -0.010162 0.036485 0.000000 -0.010724 0.000000
# 4 0.000000 0.000000 0.000000 0.036662 0.000000 0.026289
# 5 -0.005766 0.001692 -0.010724 0.000000 0.028515 0.000000
# 6 0.000000 0.000000 0.000000 0.026289 0.000000 -0.104791
#
#
# Mechanical properties :
#
#
# Convention : Reuss Voigt Hill
#
# Bulk Modulus (GPa) = 20.84788 29.72957 25.28873
# Shear Modulus (GPa) = 70.56442 20.48207 45.52325
#
# Velocity S-wave (km/s) = 5.48290 2.95396 4.40387
# Velocity P-wave (km/s) = 6.99748 4.92951 6.05247
#
# Compressibility (1/GPa) = 0.04796650
#
# Stress axis : x y z
#
# Youngs Moduli (GPa) = 52.23616 64.11853 27.40857
#
# Poissons Ratio (x) = 0.23935 -0.06210
# Poissons Ratio (y) = 0.19500 0.27852
# Poissons Ratio (z) = -0.11835 0.65156
#
# Static dielectric constant tensor:
#      x y z
#    x 1.964560 0.000000 -0.073510 
#    y 0.000000 1.891990 0.000000 
#    z -0.073510 0.000000 1.921720 
# 
# From -- ./inp_files/27753.got.cif
#   From: 2010.05.17/outbox.cif.g08.bks.cpg/sg5_14_cif.got.tgz:27753.got - 2010.06.03 18:56:24.
