data_PCOD9121473
_publ_section_title
;
Structure prediction by ZEFSAII (Michael W. Deem and Ramdas Pophale) SiO2 
 PCOD9121473
Probable space group: C 2
;
_chemical_formula_sum "Si O2"
_cell_formula_units_Z 28
_cell_length_a 30.524159
_cell_length_b 8.912681
_cell_length_c 7.307230
_cell_angle_alpha 90.000000
_cell_angle_beta 43.325203
_cell_angle_gamma 90.000000
_cell_volume 1364.006948
_symmetry_space_group_name_H-M "C 2"
_symmetry_group_IT_number 5
_symmetry_cell_setting 'monoclinic'
loop_
_space_group_symop_operation_xyz
x,y,z
-x,y,-z
1/2+x,1/2+y,z
1/2-x,1/2+y,-z
loop_
_atom_site_type_symbol
_atom_site_label
_atom_site_fract_x
_atom_site_fract_y
_atom_site_fract_z
Si Si1 0.327098 0.505940 0.742003
Si Si2 0.080166 0.739772 0.553185
Si Si3 0.832810 0.982741 0.292344
Si Si4 0.705597 0.806362 0.663146
Si Si5 0.069161 0.758209 0.023180
Si Si6 0.224757 0.284084 0.208639
Si Si7 0.654466 0.075857 0.046323
O O1 0.383473 0.391417 0.627205
O O2 0.336757 0.514322 0.494635
O O3 0.315918 0.682879 0.809165
O O4 0.263171 0.418591 0.997928
O O5 0.083529 0.732112 0.763466
O O6 0.115679 0.599095 0.352246
O O7 0.006287 0.746928 0.723345
O O8 0.808508 0.131017 0.264787
O O9 0.779993 0.852440 0.441043
O O10 0.900733 0.920989 0.023603
O O11 0.687773 0.837316 0.503230
O O12 0.672567 0.916255 0.907050
O O13 0.108279 0.648589 0.034538
O O14 0.280717 0.171455 0.115171
#
# Coordination Sequence:
#
# PCOD9121473 Si02
#       7
#     4   4   4   4   4   4   4
#     4   9  19  35  53  84 121 149 201 244 293 369
#     4   9  21  36  62  87 115 163 206 244 294 352
#     4  10  19  34  56  86 118 156 194 250 305 354
#     4  11  19  34  56  87 120 153 195 247 312 361
#     4  10  19  39  63  85 117 160 208 248 293 366
#     4  10  20  34  54  86 120 158 192 247 314 355
#     4  11  20  36  58  86 120 156 201 251 296 365
#
# _framework density 20.527754000000002
#
# number of rings (size 3 to 8) (size 9 to 14) (size 15 to 20)
#    0.000    2.000    4.286    0.429    0.000    4.571 
#    0.000    0.000    0.000   18.857    0.000    0.000 
#    0.000    0.000    0.000    0.000    0.000    0.000 
#
# Total GULP energy -78030.970228 kJ/mol
# GULP energy per Si atom -5573.640731 kJ/mol
# Density = 2.048103 g / cm^3
# Si number density = 20.527754 Si / 1000 Ang^3
#
#
#
# Elastic Constant Matrix: (Units=GPa)
#
#
# Indices 1 2 3 4 5 6 
#
# 1 71.6714 22.7170 20.3348 0.0000 5.6719 0.0000
# 2 22.7170 67.6738 34.9597 0.0000 6.3160 0.0000
# 3 20.3348 34.9597 97.3532 0.0000 2.9500 0.0000
# 4 0.0000 0.0000 0.0000 27.7438 0.0000 4.7690
# 5 5.6719 6.3160 2.9500 0.0000 26.0263 0.0000
# 6 0.0000 0.0000 0.0000 4.7690 0.0000 28.8264
#
#
#
# Elastic Compliance Matrix: (Units=1/GPa)
#
#
# Indices 1 2 3 4 5 6 
#
# 1 0.015972 -0.004252 -0.001741 0.000000 -0.002252 0.000000
# 2 -0.004252 0.019632 -0.006066 0.000000 -0.003150 0.000000
# 3 -0.001741 -0.006066 0.012802 0.000000 0.000401 0.000000
# 4 0.000000 0.000000 0.000000 0.037099 0.000000 -0.006138
# 5 -0.002252 -0.003150 0.000401 0.000000 0.039632 0.000000
# 6 0.000000 0.000000 0.000000 -0.006138 0.000000 0.035706
#
#
# Mechanical properties :
#
#
# Convention : Reuss Voigt Hill
#
# Bulk Modulus (GPa) = 41.17381 43.63572 42.40477
# Shear Modulus (GPa) = 25.89892 27.09842 26.49867
#
# Velocity S-wave (km/s) = 3.55583 3.63724 3.59677
# Velocity P-wave (km/s) = 6.07945 6.24039 6.16045
#
# Compressibility (1/GPa) = 0.02428728
#
# Stress axis : x y z
#
# Youngs Moduli (GPa) = 62.60763 50.93752 78.11396
#
# Poissons Ratio (x) = 0.21659 0.13601
# Poissons Ratio (y) = 0.26621 0.47386
# Poissons Ratio (z) = 0.10901 0.30900
#
# Static dielectric constant tensor:
#      x y z
#    x 1.780620 0.000000 0.045610 
#    y 0.000000 1.799030 0.000000 
#    z 0.045610 0.000000 1.751500 
# 
# From -- ./inp_files/32466.got.cif
#   From: 2010.05.17/outbox.cif.g08.bks.cpg/sg5_17_cif.got.tgz:32466.got - 2010.06.03 18:56:24.
