data_PCOD9121224
_publ_section_title
;
Structure prediction by ZEFSAII (Michael W. Deem and Ramdas Pophale) SiO2 
 PCOD9121224
Probable space group: C 2
;
_chemical_formula_sum "Si O2"
_cell_formula_units_Z 30
_cell_length_a 9.749804
_cell_length_b 16.130105
_cell_length_c 8.517861
_cell_angle_alpha 90.000000
_cell_angle_beta 114.176812
_cell_angle_gamma 90.000000
_cell_volume 1222.065855
_symmetry_space_group_name_H-M "C 2"
_symmetry_group_IT_number 5
_symmetry_cell_setting 'monoclinic'
loop_
_space_group_symop_operation_xyz
x,y,z
-x,y,-z
1/2+x,1/2+y,z
1/2-x,1/2+y,-z
loop_
_atom_site_type_symbol
_atom_site_label
_atom_site_fract_x
_atom_site_fract_y
_atom_site_fract_z
Si Si1 0.817735 0.840790 0.001673
Si Si2 0.660479 0.150135 0.916492
Si Si3 0.287689 0.395985 0.652295
Si Si4 0.000000 0.274037 0.500000
Si Si5 0.182144 0.585438 0.595283
Si Si6 0.821978 0.584121 0.748997
Si Si7 0.990741 0.271541 0.829283
Si Si8 0.282811 0.398105 0.308244
O O1 0.864985 0.868425 0.850288
O O2 0.633510 0.834953 0.902787
O O3 0.862011 0.746841 0.061530
O O4 0.857215 0.895101 0.171751
O O5 0.725864 0.134816 0.773171
O O6 0.497428 0.107270 0.834848
O O7 0.739417 0.114782 0.111069
O O8 0.236337 0.491208 0.644936
O O9 0.361892 0.388900 0.514710
O O10 0.143720 0.335143 0.569572
O O11 0.996715 0.227559 0.332444
O O12 0.235114 0.617505 0.447663
O O13 0.000000 0.586184 0.500000
O O14 0.800427 0.486195 0.725435
O O15 0.838989 0.324453 0.755487
O O16 0.000000 0.225194 0.000000
#
# Coordination Sequence:
#
# PCOD9121224 Si02
#       8
#     4   4   4   2   4   4   4   4
#     4  10  19  26  39  67 104 126 143 192 247 281
#     4  10  20  28  41  68 101 130 148 188 249 292
#     4   9  15  25  43  64  89 120 159 197 226 270
#     4   8  12  20  36  60  82 106 146 186 220 256
#     4   9  16  28  47  67  89 126 164 192 227 283
#     4   9  19  31  49  65  91 129 164 189 230 287
#     4   8  15  23  39  60  87 114 147 184 221 263
#     4   9  17  29  49  70  85 124 167 196 221 272
#
# _framework density 24.548594999999999
#
# number of rings (size 3 to 8) (size 9 to 14) (size 15 to 20)
#    0.000    2.933    0.667    0.800   11.200    1.067 
#    0.000    0.000    0.000    0.000    0.000    0.000 
#   48.000    0.000  162.667    0.000    0.000    0.000 
#
# Total GULP energy -83684.498009 kJ/mol
# GULP energy per Si atom -5578.966534 kJ/mol
# Density = 2.449272 g / cm^3
# Si number density = 24.548595 Si / 1000 Ang^3
#
#
#
# Elastic Constant Matrix: (Units=GPa)
#
#
# Indices 1 2 3 4 5 6 
#
# 1 64.2986 13.6732 57.4628 0.0000 -17.0391 0.0000
# 2 13.6732 75.9406 76.1556 0.0000 -3.6444 0.0000
# 3 57.4628 76.1556 332.6920 0.0000 -53.4284 0.0000
# 4 0.0000 0.0000 0.0000 36.5126 0.0000 9.5300
# 5 -17.0391 -3.6444 -53.4284 0.0000 46.5109 0.0000
# 6 0.0000 0.0000 0.0000 9.5300 0.0000 -6.6186
#
#
#
# Elastic Compliance Matrix: (Units=1/GPa)
#
#
# Indices 1 2 3 4 5 6 
#
# 1 0.018985 -0.000768 -0.002448 0.000000 0.004083 0.000000
# 2 -0.000768 0.017710 -0.004590 0.000000 -0.004167 0.000000
# 3 -0.002448 -0.004590 0.005245 0.000000 0.004769 0.000000
# 4 0.000000 0.000000 0.000000 0.019907 0.000000 0.028663
# 5 0.004083 -0.004167 0.004769 0.000000 0.028148 0.000000
# 6 0.000000 0.000000 0.000000 0.028663 0.000000 -0.109818
#
#
# Mechanical properties :
#
#
# Convention : Reuss Voigt Hill
#
# Bulk Modulus (GPa) = 37.98161 85.27936 61.63048
# Shear Modulus (GPa) = 1095.20530 36.99029 566.09780
#
# Velocity S-wave (km/s) = 21.14489 3.88599 15.20209
# Velocity P-wave (km/s) = 24.73150 7.41276 18.25645
#
# Compressibility (1/GPa) = 0.02632853
#
# Stress axis : x y z
#
# Youngs Moduli (GPa) = 52.67261 56.46540 190.65053
#
# Poissons Ratio (x) = 0.04335 0.46664
# Poissons Ratio (y) = 0.04044 0.87518
# Poissons Ratio (z) = 0.12892 0.25920
#
# Static dielectric constant tensor:
#      x y z
#    x 1.975130 0.000000 -0.058560 
#    y 0.000000 1.829130 0.000000 
#    z -0.058560 0.000000 2.026900 
# 
# From -- ./inp_files/24428.got.cif
#   From: 2010.05.17/outbox.cif.g08.bks.cpg/sg5_13_cif.got.tgz:24428.got - 2010.06.03 18:56:24.
