data_PCOD9121493
_publ_section_title
;
Structure prediction by ZEFSAII (Michael W. Deem and Ramdas Pophale) SiO2 
 PCOD9121493
Probable space group: C 2
;
_chemical_formula_sum "Si O2"
_cell_formula_units_Z 32
_cell_length_a 15.401210
_cell_length_b 24.926737
_cell_length_c 8.973839
_cell_angle_alpha 90.000000
_cell_angle_beta 151.323497
_cell_angle_gamma 90.000000
_cell_volume 1653.166065
_symmetry_space_group_name_H-M "C 2"
_symmetry_group_IT_number 5
_symmetry_cell_setting 'monoclinic'
loop_
_space_group_symop_operation_xyz
x,y,z
-x,y,-z
1/2+x,1/2+y,z
1/2-x,1/2+y,-z
loop_
_atom_site_type_symbol
_atom_site_label
_atom_site_fract_x
_atom_site_fract_y
_atom_site_fract_z
Si Si1 0.469542 0.765430 0.628707
Si Si2 0.164163 0.035341 0.630034
Si Si3 0.826302 0.154855 0.348353
Si Si4 0.702396 0.747931 0.237515
Si Si5 0.679310 0.459022 0.369637
Si Si6 0.454320 0.148703 0.605322
Si Si7 0.468782 0.026644 0.629103
Si Si8 0.313991 0.334428 0.628572
O O1 0.500000 0.772576 0.500000
O O2 0.358300 0.709614 0.485766
O O3 0.350989 0.813117 0.518093
O O4 0.659929 0.758898 0.000271
O O5 0.169513 0.096101 0.571337
O O6 0.000000 0.031231 0.500000
O O7 0.156689 0.992923 0.486332
O O8 0.343270 0.027396 0.998434
O O9 0.000000 0.153837 0.500000
O O10 0.637575 0.157796 0.975444
O O11 0.805459 0.692688 0.418161
O O12 0.808977 0.795884 0.477621
O O13 0.500000 0.746811 0.000000
O O14 0.839259 0.484281 0.512269
O O15 0.712016 0.396418 0.451340
O O16 0.500000 0.462962 0.000000
O O17 0.500000 0.154671 0.500000
O O18 0.392176 0.087239 0.531377
O O19 0.500000 0.016940 0.500000
O O20 0.500000 0.328507 0.000000
#
# Coordination Sequence:
#
# PCOD9121493 Si02
#       8
#     4   4   4   4   4   4   4   4
#     4  10  20  36  59  86 114 149 187 230 286 342
#     4  10  21  39  62  88 119 153 191 239 290 343
#     4   9  18  33  56  86 119 150 184 232 287 341
#     4  10  22  37  57  85 117 152 187 233 289 339
#     4  11  24  41  61  84 114 154 198 244 291 339
#     4  10  19  34  57  87 119 152 190 231 278 341
#     4  10  22  38  60  89 120 155 193 234 287 345
#     4  10  23  42  58  79 112 149 194 243 286 336
#
# _framework density 19.356795999999999
#
# number of rings (size 3 to 8) (size 9 to 14) (size 15 to 20)
#    0.000    2.000    0.000    3.375    0.000    9.000 
#    0.000    5.625    0.000    0.000    0.000    0.000 
#    0.000    0.000    0.000    0.000    0.000    0.000 
#
# Total GULP energy -89343.603339 kJ/mol
# GULP energy per Si atom -5583.975209 kJ/mol
# Density = 1.931274 g / cm^3
# Si number density = 19.356796 Si / 1000 Ang^3
#
#
#
# Elastic Constant Matrix: (Units=GPa)
#
#
# Indices 1 2 3 4 5 6 
#
# 1 63.9465 43.3517 22.6481 0.0000 -18.0331 0.0000
# 2 43.3517 144.7108 58.0870 0.0000 -11.2586 0.0000
# 3 22.6481 58.0870 79.8491 0.0000 -6.7736 0.0000
# 4 0.0000 0.0000 0.0000 29.5635 0.0000 -1.7558
# 5 -18.0331 -11.2586 -6.7736 0.0000 35.1796 0.0000
# 6 0.0000 0.0000 0.0000 -1.7558 0.0000 30.3155
#
#
#
# Elastic Compliance Matrix: (Units=1/GPa)
#
#
# Indices 1 2 3 4 5 6 
#
# 1 0.022538 -0.005324 -0.001712 0.000000 0.009520 0.000000
# 2 -0.005324 0.011130 -0.006624 0.000000 -0.000443 0.000000
# 3 -0.001712 -0.006624 0.017865 0.000000 0.000442 0.000000
# 4 0.000000 0.000000 0.000000 0.033942 0.000000 0.001966
# 5 0.009520 -0.000443 0.000442 0.000000 0.033249 0.000000
# 6 0.000000 0.000000 0.000000 0.001966 0.000000 0.033100
#
#
# Mechanical properties :
#
#
# Convention : Reuss Voigt Hill
#
# Bulk Modulus (GPa) = 41.29945 59.63111 50.46528
# Shear Modulus (GPa) = 26.70713 29.97304 28.34009
#
# Velocity S-wave (km/s) = 3.71850 3.93930 3.83049
# Velocity P-wave (km/s) = 6.31019 7.18081 6.75953
#
# Compressibility (1/GPa) = 0.02421340
#
# Stress axis : x y z
#
# Youngs Moduli (GPa) = 44.36868 89.85010 55.97434
#
# Poissons Ratio (x) = 0.47837 0.09584
# Poissons Ratio (y) = 0.23622 0.37076
# Poissons Ratio (z) = 0.07596 0.59515
#
# Static dielectric constant tensor:
#      x y z
#    x 1.679780 0.000000 -0.031060 
#    y 0.000000 1.675050 0.000000 
#    z -0.031060 0.000000 1.659680 
# 
# From -- ./inp_files/25652.got.cif
#   From: 2010.05.17/outbox.cif.g08.bks.cpg/sg5_13_cif.got.tgz:25652.got - 2010.06.03 18:56:24.
