data_PCOD9121184
_publ_section_title
;
Structure prediction by ZEFSAII (Michael W. Deem and Ramdas Pophale) SiO2 
 PCOD9121184
Probable space group: C 2
;
_chemical_formula_sum "Si O2"
_cell_formula_units_Z 20
_cell_length_a 30.113119
_cell_length_b 5.272655
_cell_length_c 4.856026
_cell_angle_alpha 90.000000
_cell_angle_beta 88.343818
_cell_angle_gamma 90.000000
_cell_volume 770.698719
_symmetry_space_group_name_H-M "C 2"
_symmetry_group_IT_number 5
_symmetry_cell_setting 'monoclinic'
loop_
_space_group_symop_operation_xyz
x,y,z
-x,y,-z
1/2+x,1/2+y,z
1/2-x,1/2+y,-z
loop_
_atom_site_type_symbol
_atom_site_label
_atom_site_fract_x
_atom_site_fract_y
_atom_site_fract_z
Si Si1 0.880115 0.895280 0.539074
Si Si2 0.894027 0.564588 0.012425
Si Si3 0.324712 0.697210 0.950539
Si Si4 0.970557 0.818332 0.766770
Si Si5 0.253553 0.450151 0.315162
O O1 0.871881 0.644651 0.727926
O O2 0.928882 0.976544 0.649844
O O3 0.843439 0.083018 0.663118
O O4 0.886477 0.785143 0.236009
O O5 0.867207 0.316552 0.099361
O O6 0.945840 0.581847 0.924485
O O7 0.298276 0.492663 0.134558
O O8 0.286468 0.899584 0.889733
O O9 0.000000 0.745068 0.500000
O O10 0.000000 0.943415 0.000000
O O11 0.244179 0.700785 0.495575
#
# Coordination Sequence:
#
# PCOD9121184 Si02
#       5
#     4   4   4   4   4
#     4  10  25  44  76 110 155 204 259 332 390 482
#     4  10  25  44  76 110 155 204 259 332 390 482
#     4  12  30  49  74 120 150 216 270 333 414 472
#     4  10  18  41  72 110 156 206 260 327 396 476
#     4  12  32  50  82 112 164 214 276 340 406 494
#
# _framework density 25.950475999999998
#
# number of rings (size 3 to 8) (size 9 to 14) (size 15 to 20)
#    1.200    0.000    2.000    1.200   14.000    0.000 
#    0.000    2.000    0.000    0.000    0.000    0.000 
#    0.000    0.000    0.000    0.000    0.000    0.000 
#
# Total GULP energy -55888.351746 kJ/mol
# GULP energy per Si atom -5588.835175 kJ/mol
# Density = 2.589141 g / cm^3
# Si number density = 25.950476 Si / 1000 Ang^3
#
#
#
# Elastic Constant Matrix: (Units=GPa)
#
#
# Indices 1 2 3 4 5 6 
#
# 1 181.0179 37.5650 71.2913 0.0000 -40.3411 0.0000
# 2 37.5650 104.1108 46.5120 0.0000 -18.8738 0.0000
# 3 71.2913 46.5120 154.3569 0.0000 -39.5676 0.0000
# 4 0.0000 0.0000 0.0000 34.6193 0.0000 1.2776
# 5 -40.3411 -18.8738 -39.5676 0.0000 47.1977 0.0000
# 6 0.0000 0.0000 0.0000 1.2776 0.0000 24.2434
#
#
#
# Elastic Compliance Matrix: (Units=1/GPa)
#
#
# Indices 1 2 3 4 5 6 
#
# 1 0.007499 -0.001009 -0.002063 0.000000 0.004277 0.000000
# 2 -0.001009 0.011398 -0.002575 0.000000 0.001537 0.000000
# 3 -0.002063 -0.002575 0.009542 0.000000 0.005206 0.000000
# 4 0.000000 0.000000 0.000000 0.028942 0.000000 -0.001525
# 5 0.004277 0.001537 0.005206 0.000000 0.029822 0.000000
# 6 0.000000 0.000000 0.000000 -0.001525 0.000000 0.041329
#
#
# Mechanical properties :
#
#
# Convention : Reuss Voigt Hill
#
# Bulk Modulus (GPa) = 58.32341 83.35802 70.84071
# Shear Modulus (GPa) = 34.35464 40.15323 37.25394
#
# Velocity S-wave (km/s) = 3.64243 3.93784 3.79301
# Velocity P-wave (km/s) = 6.34140 7.27098 6.82204
#
# Compressibility (1/GPa) = 0.01714577
#
# Stress axis : x y z
#
# Youngs Moduli (GPa) = 133.34405 87.73452 104.80203
#
# Poissons Ratio (x) = 0.08850 0.21625
# Poissons Ratio (y) = 0.13451 0.26982
# Poissons Ratio (z) = 0.27514 0.22588
#
# Static dielectric constant tensor:
#      x y z
#    x 2.093970 0.000000 0.074660 
#    y 0.000000 2.081200 0.000000 
#    z 0.074660 0.000000 2.042370 
# 
# From -- ./inp_files/11013.got.cif
#   From: 2010.05.17/outbox.cif.g08.bks.cpg/sg5_6_cif.got.tgz:11013.got - 2010.06.03 18:56:24.
