data_PCOD9121772
_publ_section_title
;
Structure prediction by ZEFSAII (Michael W. Deem and Ramdas Pophale) SiO2 
 PCOD9121772
Probable space group: C 2
;
_chemical_formula_sum "Si O2"
_cell_formula_units_Z 30
_cell_length_a 8.555396
_cell_length_b 20.823250
_cell_length_c 12.170147
_cell_angle_alpha 90.000000
_cell_angle_beta 38.930895
_cell_angle_gamma 90.000000
_cell_volume 1362.412475
_symmetry_space_group_name_H-M "C 2"
_symmetry_group_IT_number 5
_symmetry_cell_setting 'monoclinic'
loop_
_space_group_symop_operation_xyz
x,y,z
-x,y,-z
1/2+x,1/2+y,z
1/2-x,1/2+y,-z
loop_
_atom_site_type_symbol
_atom_site_label
_atom_site_fract_x
_atom_site_fract_y
_atom_site_fract_z
Si Si1 0.749899 0.242100 0.195264
Si Si2 0.889953 0.993858 0.229606
Si Si3 0.995859 0.359363 0.843858
Si Si4 0.353638 0.871261 0.687320
Si Si5 0.136974 0.543931 0.572043
Si Si6 0.000000 0.656652 0.500000
Si Si7 0.946183 0.510036 0.907429
Si Si8 0.985110 0.762176 0.888307
O O1 0.693438 0.201602 0.332465
O O2 0.548846 0.229533 0.210344
O O3 0.797606 0.316366 0.206781
O O4 0.000000 0.219846 0.000000
O O5 0.872848 0.921822 0.190977
O O6 0.836923 0.002838 0.390264
O O7 0.642584 0.023238 0.311271
O O8 0.151879 0.022998 0.050706
O O9 0.030558 0.371678 0.695393
O O10 0.968729 0.431938 0.900456
O O11 0.749495 0.313098 0.981929
O O12 0.500000 0.889509 0.500000
O O13 0.235792 0.802127 0.743163
O O14 0.143024 0.613928 0.512882
O O15 0.121065 0.535307 0.712231
O O16 0.000000 0.535490 0.000000
O O17 0.000000 0.729002 0.000000
#
# Coordination Sequence:
#
# PCOD9121772 Si02
#       8
#     4   4   4   4   4   2   4   4
#     4  10  22  41  61  89 125 160 208 260 311 368
#     4  10  19  36  60  86 127 165 203 248 309 375
#     4  10  20  34  54  90 128 161 196 241 316 390
#     4  11  18  30  53  87 127 161 196 240 302 388
#     4  10  23  42  61  92 114 165 231 259 295 376
#     4  10  24  44  68  84 118 166 232 266 292 356
#     4  12  22  35  61  95 136 165 192 257 336 386
#     4   9  19  33  55  83 124 157 198 242 305 381
#
# _framework density 22.019763999999999
#
# number of rings (size 3 to 8) (size 9 to 14) (size 15 to 20)
#    0.000    1.867    4.000    1.600    1.867    2.667 
#    0.000    0.667    0.000   12.800    0.000    0.000 
#    0.000    0.000    0.000    0.000    0.000    0.000 
#
# Total GULP energy -83529.861512 kJ/mol
# GULP energy per Si atom -5568.657434 kJ/mol
# Density = 2.196965 g / cm^3
# Si number density = 22.019764 Si / 1000 Ang^3
#
#
#
# Elastic Constant Matrix: (Units=GPa)
#
#
# Indices 1 2 3 4 5 6 
#
# 1 94.8577 6.6483 26.7825 0.0000 40.0623 0.0000
# 2 6.6483 42.5396 28.2471 0.0000 11.1063 0.0000
# 3 26.7825 28.2471 107.9606 0.0000 41.6466 0.0000
# 4 0.0000 0.0000 0.0000 16.9353 0.0000 10.9979
# 5 40.0623 11.1063 41.6466 0.0000 39.3869 0.0000
# 6 0.0000 0.0000 0.0000 10.9979 0.0000 14.9306
#
#
#
# Elastic Compliance Matrix: (Units=1/GPa)
#
#
# Indices 1 2 3 4 5 6 
#
# 1 0.019880 0.000354 0.004753 0.000000 -0.025347 0.000000
# 2 0.000354 0.028458 -0.007261 0.000000 -0.000708 0.000000
# 3 0.004753 -0.007261 0.018676 0.000000 -0.022535 0.000000
# 4 0.000000 0.000000 0.000000 0.113197 0.000000 -0.083381
# 5 -0.025347 -0.000708 -0.022535 0.000000 0.075198 0.000000
# 6 0.000000 0.000000 0.000000 -0.083381 0.000000 0.128396
#
#
# Mechanical properties :
#
#
# Convention : Reuss Voigt Hill
#
# Bulk Modulus (GPa) = 15.94680 40.96818 28.45749
# Shear Modulus (GPa) = 12.22449 26.49589 19.36019
#
# Velocity S-wave (km/s) = 2.35874 3.47259 2.96838
# Velocity P-wave (km/s) = 3.83092 5.89272 4.96991
#
# Compressibility (1/GPa) = 0.06270851
#
# Stress axis : x y z
#
# Youngs Moduli (GPa) = 50.30099 35.13928 53.54387
#
# Poissons Ratio (x) = -0.01245 -0.25451
# Poissons Ratio (y) = -0.01783 0.38877
# Poissons Ratio (z) = -0.23909 0.25514
#
# Static dielectric constant tensor:
#      x y z
#    x 1.895240 0.000000 0.043410 
#    y 0.000000 1.879420 0.000000 
#    z 0.043410 0.000000 1.858340 
# 
# From -- ./inp_files/37527.got.cif
#   From: 2010.05.17/outbox.cif.g08.bks.cpg/sg5_19_cif.got.tgz:37527.got - 2010.06.03 18:56:24.
