data_PCOD9121959
_publ_section_title
;
Structure prediction by ZEFSAII (Michael W. Deem and Ramdas Pophale) SiO2 
 PCOD9121959
Probable space group: C 2
;
_chemical_formula_sum "Si O2"
_cell_formula_units_Z 18
_cell_length_a 10.116149
_cell_length_b 9.296961
_cell_length_c 10.069109
_cell_angle_alpha 90.000000
_cell_angle_beta 57.790830
_cell_angle_gamma 90.000000
_cell_volume 801.259153
_symmetry_space_group_name_H-M "C 2"
_symmetry_group_IT_number 5
_symmetry_cell_setting 'monoclinic'
loop_
_space_group_symop_operation_xyz
x,y,z
-x,y,-z
1/2+x,1/2+y,z
1/2-x,1/2+y,-z
loop_
_atom_site_type_symbol
_atom_site_label
_atom_site_fract_x
_atom_site_fract_y
_atom_site_fract_z
Si Si1 0.141495 0.328200 0.168575
Si Si2 0.814397 0.049482 0.399390
Si Si3 0.641725 0.494511 0.137765
Si Si4 0.000000 0.262750 0.500000
Si Si5 0.716668 0.839621 0.683317
O O1 0.109730 0.352295 0.342164
O O2 0.970368 0.342890 0.192090
O O3 0.186999 0.161690 0.126698
O O4 0.268393 0.427139 0.033396
O O5 0.725690 0.174802 0.366317
O O6 0.904293 0.155979 0.456367
O O7 0.740795 0.931614 0.535360
O O8 0.953990 0.985683 0.235475
O O9 0.696092 0.413178 0.241789
#
# Coordination Sequence:
#
# PCOD9121959 Si02
#       5
#     4   4   4   2   4
#     4  10  21  36  65  85 123 163 196 247 311 344
#     4  10  19  37  66  84 123 162 196 248 309 345
#     4  10  20  39  59  89 127 156 195 262 293 352
#     4   8  16  38  58  80 116 164 182 246 296 350
#     4  10  19  37  62  91 120 159 205 245 297 370
#
# _framework density 22.464641
#
# number of rings (size 3 to 8) (size 9 to 14) (size 15 to 20)
#    0.000    2.667    4.444    0.667    0.000    1.778 
#    8.000    0.000    0.000    0.000    0.000    0.000 
#    0.000    0.000    0.000    0.000    0.000    0.000 
#
# Total GULP energy -50261.441441 kJ/mol
# GULP energy per Si atom -5584.604605 kJ/mol
# Density = 2.241351 g / cm^3
# Si number density = 22.464641 Si / 1000 Ang^3
#
#
#
# Elastic Constant Matrix: (Units=GPa)
#
#
# Indices 1 2 3 4 5 6 
#
# 1 32.7335 26.0975 14.0366 0.0000 -0.0724 0.0000
# 2 26.0975 141.0871 96.2123 0.0000 -11.9068 0.0000
# 3 14.0366 96.2123 196.2378 0.0000 -4.9676 0.0000
# 4 0.0000 0.0000 0.0000 55.7699 0.0000 -4.7058
# 5 -0.0724 -11.9068 -4.9676 0.0000 21.1979 0.0000
# 6 0.0000 0.0000 0.0000 -4.7058 0.0000 25.3047
#
#
#
# Elastic Compliance Matrix: (Units=1/GPa)
#
#
# Indices 1 2 3 4 5 6 
#
# 1 0.036294 -0.007830 0.001141 0.000000 -0.004007 0.000000
# 2 -0.007830 0.012843 -0.005588 0.000000 0.005877 0.000000
# 3 0.001141 -0.005588 0.007720 0.000000 -0.001325 0.000000
# 4 0.000000 0.000000 0.000000 0.018217 0.000000 0.003388
# 5 -0.004007 0.005877 -0.001325 0.000000 0.050151 0.000000
# 6 0.000000 0.000000 0.000000 0.003388 0.000000 0.040148
#
#
# Mechanical properties :
#
#
# Convention : Reuss Voigt Hill
#
# Bulk Modulus (GPa) = 30.95554 71.41679 51.18616
# Shear Modulus (GPa) = 24.91356 36.03530 30.47443
#
# Velocity S-wave (km/s) = 3.33380 4.00945 3.68713
# Velocity P-wave (km/s) = 5.35056 7.30028 6.40010
#
# Compressibility (1/GPa) = 0.03230440
#
# Stress axis : x y z
#
# Youngs Moduli (GPa) = 27.55276 77.86580 129.53013
#
# Poissons Ratio (x) = 0.60969 -0.14785
# Poissons Ratio (y) = 0.21574 0.72377
# Poissons Ratio (z) = -0.03145 0.43509
#
# Static dielectric constant tensor:
#      x y z
#    x 1.902070 0.000000 0.008270 
#    y 0.000000 1.852690 0.000000 
#    z 0.008270 0.000000 1.855440 
# 
# From -- ./inp_files/38005.got.cif
#   From: 2010.05.17/outbox.cif.g08.bks.cpg/sg5_20_cif.got.tgz:38005.got - 2010.06.03 18:56:24.
