data_PCOD9121919
_publ_section_title
;
Structure prediction by ZEFSAII (Michael W. Deem and Ramdas Pophale) SiO2 
 PCOD9121919
Probable space group: C 2
;
_chemical_formula_sum "Si O2"
_cell_formula_units_Z 32
_cell_length_a 14.168981
_cell_length_b 27.252159
_cell_length_c 8.233511
_cell_angle_alpha 90.000000
_cell_angle_beta 149.382208
_cell_angle_gamma 90.000000
_cell_volume 1619.219320
_symmetry_space_group_name_H-M "C 2"
_symmetry_group_IT_number 5
_symmetry_cell_setting 'monoclinic'
loop_
_space_group_symop_operation_xyz
x,y,z
-x,y,-z
1/2+x,1/2+y,z
1/2-x,1/2+y,-z
loop_
_atom_site_type_symbol
_atom_site_label
_atom_site_fract_x
_atom_site_fract_y
_atom_site_fract_z
Si Si1 0.160332 0.383520 0.868987
Si Si2 0.298513 0.297623 0.288612
Si Si3 0.604551 0.696219 0.940000
Si Si4 0.550722 0.374699 0.260516
Si Si5 0.391403 0.144660 0.166602
Si Si6 0.240798 0.155743 0.462981
Si Si7 0.688440 0.457240 0.676588
Si Si8 0.298607 0.066386 0.775580
O O1 0.000000 0.382522 0.500000
O O2 0.171847 0.336010 0.001518
O O3 0.357408 0.380016 0.069979
O O4 0.159279 0.432176 0.979896
O O5 0.500000 0.290204 0.500000
O O6 0.191532 0.246660 0.132873
O O7 0.347662 0.325484 0.527656
O O8 0.717752 0.679901 0.948869
O O9 0.659983 0.656648 0.160757
O O10 0.381992 0.694571 0.616160
O O11 0.670383 0.421488 0.495096
O O12 0.500000 0.374050 0.000000
O O13 0.500000 0.138570 0.500000
O O14 0.541131 0.164054 0.254721
O O15 0.317681 0.094726 0.975791
O O16 0.214901 0.105415 0.523968
O O17 0.500000 0.452733 0.500000
O O18 0.708961 0.513656 0.662707
O O19 0.500000 0.056676 0.000000
#
# Coordination Sequence:
#
# PCOD9121919 Si02
#       8
#     4   4   4   4   4   4   4   4
#     4   9  19  38  59  86 120 147 192 246 289 361
#     4   9  18  37  62  81 117 159 193 233 298 357
#     4  10  19  37  60  78 115 163 191 234 295 345
#     4   9  19  39  59  87 117 148 190 248 296 353
#     4   9  19  36  56  77 115 158 189 243 293 338
#     4   9  20  36  52  83 118 141 200 245 276 344
#     4   9  20  37  60  83 115 157 193 236 300 358
#     4  10  21  37  56  84 116 151 194 248 292 342
#
# _framework density 19.762609999999999
#
# number of rings (size 3 to 8) (size 9 to 14) (size 15 to 20)
#    0.000    2.750    0.000    2.625    1.750    1.500 
#    9.000    8.125    0.000    0.000    0.000    0.000 
#    0.000    0.000    0.000    0.000    0.000    0.000 
#
# Total GULP energy -89082.758170 kJ/mol
# GULP energy per Si atom -5567.672386 kJ/mol
# Density = 1.971763 g / cm^3
# Si number density = 19.762610 Si / 1000 Ang^3
#
#
#
# Elastic Constant Matrix: (Units=GPa)
#
#
# Indices 1 2 3 4 5 6 
#
# 1 93.4536 65.3149 37.1974 0.0000 -10.5206 0.0000
# 2 65.3149 122.3826 57.8575 0.0000 -0.4691 0.0000
# 3 37.1974 57.8575 85.5964 0.0000 -13.6949 0.0000
# 4 0.0000 0.0000 0.0000 17.5168 0.0000 8.9179
# 5 -10.5206 -0.4691 -13.6949 0.0000 36.0750 0.0000
# 6 0.0000 0.0000 0.0000 8.9179 0.0000 15.0577
#
#
#
# Elastic Compliance Matrix: (Units=1/GPa)
#
#
# Indices 1 2 3 4 5 6 
#
# 1 0.018000 -0.009191 -0.000840 0.000000 0.004811 0.000000
# 2 -0.009191 0.017039 -0.008429 0.000000 -0.005659 0.000000
# 3 -0.000840 -0.008429 0.018832 0.000000 0.006795 0.000000
# 4 0.000000 0.000000 0.000000 0.081732 0.000000 -0.048406
# 5 0.004811 -0.005659 0.006795 0.000000 0.031629 0.000000
# 6 0.000000 0.000000 0.000000 -0.048406 0.000000 0.095080
#
#
# Mechanical properties :
#
#
# Convention : Reuss Voigt Hill
#
# Bulk Modulus (GPa) = 58.98974 69.13027 64.06000
# Shear Modulus (GPa) = 16.39981 23.13409 19.76695
#
# Velocity S-wave (km/s) = 2.88382 3.42511 3.16606
# Velocity P-wave (km/s) = 6.40332 7.12026 6.77129
#
# Compressibility (1/GPa) = 0.01695210
#
# Stress axis : x y z
#
# Youngs Moduli (GPa) = 55.55553 58.68785 53.10086
#
# Poissons Ratio (x) = 0.53940 0.04461
# Poissons Ratio (y) = 0.51061 0.44757
# Poissons Ratio (z) = 0.04667 0.49466
#
# Static dielectric constant tensor:
#      x y z
#    x 1.750960 0.000000 0.028140 
#    y 0.000000 1.684320 0.000000 
#    z 0.028140 0.000000 1.752810 
# 
# From -- ./inp_files/25706.got.cif
#   From: 2010.05.17/outbox.cif.g08.bks.cpg/sg5_13_cif.got.tgz:25706.got - 2010.06.03 18:56:24.
