data_PCOD9121922
_publ_section_title
;
Structure prediction by ZEFSAII (Michael W. Deem and Ramdas Pophale) SiO2 
 PCOD9121922
Probable space group: C 2
;
_chemical_formula_sum "Si O2"
_cell_formula_units_Z 20
_cell_length_a 13.587400
_cell_length_b 5.286896
_cell_length_c 24.404190
_cell_angle_alpha 90.000000
_cell_angle_beta 146.950579
_cell_angle_gamma 90.000000
_cell_volume 956.063166
_symmetry_space_group_name_H-M "C 2"
_symmetry_group_IT_number 5
_symmetry_cell_setting 'monoclinic'
loop_
_space_group_symop_operation_xyz
x,y,z
-x,y,-z
1/2+x,1/2+y,z
1/2-x,1/2+y,-z
loop_
_atom_site_type_symbol
_atom_site_label
_atom_site_fract_x
_atom_site_fract_y
_atom_site_fract_z
Si Si1 0.230441 0.621110 0.278153
Si Si2 0.667613 0.970245 0.892864
Si Si3 0.696528 0.121914 0.617095
Si Si4 0.067246 0.180565 0.741056
Si Si5 0.188289 0.467620 0.061315
O O1 0.299155 0.371659 0.342490
O O2 0.344777 0.675448 0.277018
O O3 0.020042 0.558164 0.168081
O O4 0.248089 0.872520 0.323089
O O5 0.813897 0.190101 0.964144
O O6 0.621119 0.911764 0.806622
O O7 0.742584 0.695295 0.944599
O O8 0.500000 0.089624 0.500000
O O9 0.852281 0.158280 0.644034
O O10 0.162285 0.959769 0.820762
O O11 0.000000 0.541440 0.000000
#
# Coordination Sequence:
#
# PCOD9121922 Si02
#       5
#     4   4   4   4   4
#     4  11  21  39  63  83 117 158 191 235 292 344
#     4   9  19  37  55  85 117 149 192 237 283 335
#     4  11  24  40  59  88 120 149 194 244 286 343
#     4   9  23  37  62  84 118 153 194 234 290 338
#     4  10  19  37  60  84 118 153 189 240 289 334
#
# _framework density 20.919118999999998
#
# number of rings (size 3 to 8) (size 9 to 14) (size 15 to 20)
#    1.200    0.800    2.000    1.200    2.800    1.600 
#    0.000    2.000    0.000    0.000    0.000    0.000 
#    0.000    0.000    0.000    0.000    0.000    0.000 
#
# Total GULP energy -55740.403899 kJ/mol
# GULP energy per Si atom -5574.040390 kJ/mol
# Density = 2.087151 g / cm^3
# Si number density = 20.919119 Si / 1000 Ang^3
#
#
#
# Elastic Constant Matrix: (Units=GPa)
#
#
# Indices 1 2 3 4 5 6 
#
# 1 172.9106 39.3229 40.5233 0.0001 19.9655 0.0005
# 2 39.3229 134.9211 11.3616 0.0005 7.5345 0.0017
# 3 40.5233 11.3616 65.6560 0.0002 20.5112 0.0001
# 4 0.0001 0.0005 0.0002 0.7362 -0.0003 50.3800
# 5 19.9655 7.5345 20.5112 -0.0003 22.0487 0.0000
# 6 0.0005 0.0017 0.0001 50.3800 0.0000 -74.4695
#
#
#
# Elastic Compliance Matrix: (Units=1/GPa)
#
#
# Indices 1 2 3 4 5 6 
#
# 1 0.007275 -0.001679 -0.003272 0.000000 -0.002970 0.000000
# 2 -0.001679 0.007967 0.000047 0.000000 -0.001246 0.000000
# 3 -0.003272 0.000047 0.023008 0.000000 -0.018457 0.000000
# 4 0.000000 0.000000 0.000000 0.028720 0.000001 0.019429
# 5 -0.002970 -0.001246 -0.018457 0.000001 0.065640 0.000000
# 6 0.000000 0.000000 0.000000 0.019429 0.000000 -0.000284
#
#
# Mechanical properties :
#
#
# Convention : Reuss Voigt Hill
#
# Bulk Modulus (GPa) = 35.15902 61.76703 48.46303
# Shear Modulus (GPa) = 32.97860 8.48175 20.73017
#
# Velocity S-wave (km/s) = 3.97480 2.01577 3.15138
# Velocity P-wave (km/s) = 6.15703 5.91680 6.03811
#
# Compressibility (1/GPa) = 0.02844220
#
# Stress axis : x y z
#
# Youngs Moduli (GPa) = 137.45969 125.52288 43.46275
#
# Poissons Ratio (x) = 0.21074 0.14219
# Poissons Ratio (y) = 0.23078 -0.00203
# Poissons Ratio (z) = 0.44972 -0.00587
#
# Static dielectric constant tensor:
#      x y z
#    x 1.794780 0.000000 -0.006240 
#    y 0.000000 1.778680 0.000000 
#    z -0.006240 0.000000 1.764680 
# 
# From -- ./inp_files/47784.got.cif
#   From: 2010.05.17/outbox.cif.g08.bks.cpg/sg5_24_cif.got.tgz:47784.got - 2010.06.03 18:56:24.
