data_PCOD9121223
_publ_section_title
;
Structure prediction by ZEFSAII (Michael W. Deem and Ramdas Pophale) SiO2 
 PCOD9121223
Probable space group: C 2
;
_chemical_formula_sum "Si O2"
_cell_formula_units_Z 20
_cell_length_a 10.780506
_cell_length_b 14.367441
_cell_length_c 8.813104
_cell_angle_alpha 90.000000
_cell_angle_beta 41.459582
_cell_angle_gamma 90.000000
_cell_volume 903.785789
_symmetry_space_group_name_H-M "C 2"
_symmetry_group_IT_number 5
_symmetry_cell_setting 'monoclinic'
loop_
_space_group_symop_operation_xyz
x,y,z
-x,y,-z
1/2+x,1/2+y,z
1/2-x,1/2+y,-z
loop_
_atom_site_type_symbol
_atom_site_label
_atom_site_fract_x
_atom_site_fract_y
_atom_site_fract_z
Si Si1 0.500000 0.402000 0.500000
Si Si2 0.000000 0.908114 0.000000
Si Si3 0.947899 0.614769 0.226515
Si Si4 0.742686 0.953353 0.479211
Si Si5 0.796315 0.780552 0.929069
Si Si6 0.405808 0.746861 0.421134
O O1 0.383109 0.463515 0.491161
O O2 0.356039 0.338218 0.726629
O O3 0.856088 0.972481 0.223132
O O4 0.118368 0.841882 0.007433
O O5 0.935163 0.515292 0.319460
O O6 0.747412 0.665263 0.440559
O O7 0.096391 0.683334 0.164050
O O8 0.000000 0.606755 0.000000
O O9 0.700932 0.844180 0.502188
O O10 0.579270 0.755781 0.147279
O O11 0.500000 0.743846 0.500000
#
# Coordination Sequence:
#
# PCOD9121223 Si02
#       6
#     2   2   4   4   4   4
#     4  10  24  44  66 102 138 176 220 292 332 388
#     4  10  18  48  68  90 132 182 222 266 332 412
#     4  12  24  44  68 105 134 174 234 277 327 411
#     4  11  25  42  70 103 135 178 228 281 338 397
#     4  11  21  45  72  93 137 178 223 274 335 406
#     4  12  22  45  75  94 128 192 225 266 347 405
#
# _framework density 22.129137
#
# number of rings (size 3 to 8) (size 9 to 14) (size 15 to 20)
#    0.000    0.800    9.000    0.000    4.200    0.000 
#    9.000    0.000    0.000    0.000    0.000    0.000 
#    0.000    0.000    0.000    0.000    0.000    0.000 
#
# Total GULP energy -55900.472293 kJ/mol
# GULP energy per Si atom -5590.047229 kJ/mol
# Density = 2.207877 g / cm^3
# Si number density = 22.129137 Si / 1000 Ang^3
#
#
#
# Elastic Constant Matrix: (Units=GPa)
#
#
# Indices 1 2 3 4 5 6 
#
# 1 21.3027 -19.2012 11.2910 -0.0009 -2.0871 0.0007
# 2 -19.2012 54.7707 31.9299 -0.0003 13.6371 0.0004
# 3 11.2910 31.9299 171.3359 -0.0006 -7.1490 0.0010
# 4 -0.0009 -0.0003 -0.0006 40.6802 0.0008 -9.4889
# 5 -2.0871 13.6371 -7.1490 0.0008 27.9329 -0.0008
# 6 0.0007 0.0004 0.0010 -9.4889 -0.0008 9.1887
#
#
#
# Elastic Compliance Matrix: (Units=1/GPa)
#
#
# Indices 1 2 3 4 5 6 
#
# 1 0.097926 0.049141 -0.016483 0.000000 -0.020893 -0.000010
# 2 0.049141 0.049223 -0.013404 0.000000 -0.023790 -0.000007
# 3 -0.016483 -0.013404 0.009746 0.000000 0.007807 0.000001
# 4 0.000000 0.000000 0.000000 0.032382 0.000000 0.033440
# 5 -0.020893 -0.023790 0.007807 0.000000 0.047852 0.000006
# 6 -0.000010 -0.000007 0.000001 0.033440 0.000006 0.143361
#
#
# Mechanical properties :
#
#
# Convention : Reuss Voigt Hill
#
# Bulk Modulus (GPa) = 5.11762 32.82763 18.97262
# Shear Modulus (GPa) = 12.28149 30.45301 21.36725
#
# Velocity S-wave (km/s) = 2.35838 3.71367 3.11073
# Velocity P-wave (km/s) = 3.11987 5.76674 4.63621
#
# Compressibility (1/GPa) = 0.19540350
#
# Stress axis : x y z
#
# Youngs Moduli (GPa) = 10.21184 20.31560 102.60150
#
# Poissons Ratio (x) = -0.99833 1.69117
# Poissons Ratio (y) = -0.50182 1.37529
# Poissons Ratio (z) = 0.16832 0.27231
#
# Static dielectric constant tensor:
#      x y z
#    x 1.808770 0.000000 -0.004300 
#    y 0.000000 1.781890 0.000000 
#    z -0.004300 0.000000 1.893130 
# 
# From -- ./inp_files/20873.got.cif
#   From: 2010.05.17/outbox.cif.g08.bks.cpg/sg5_11_cif.got.tgz:20873.got - 2010.06.03 18:56:24.
