data_PCOD9121004
_publ_section_title
;
Structure prediction by ZEFSAII (Michael W. Deem and Ramdas Pophale) SiO2 
 PCOD9121004
Probable space group: C 2
;
_chemical_formula_sum "Si O2"
_cell_formula_units_Z 30
_cell_length_a 7.536272
_cell_length_b 11.956537
_cell_length_c 19.334389
_cell_angle_alpha 90.000000
_cell_angle_beta 133.002924
_cell_angle_gamma 90.000000
_cell_volume 1274.087409
_symmetry_space_group_name_H-M "C 2"
_symmetry_group_IT_number 5
_symmetry_cell_setting 'monoclinic'
loop_
_space_group_symop_operation_xyz
x,y,z
-x,y,-z
1/2+x,1/2+y,z
1/2-x,1/2+y,-z
loop_
_atom_site_type_symbol
_atom_site_label
_atom_site_fract_x
_atom_site_fract_y
_atom_site_fract_z
Si Si1 0.000000 0.455770 0.000000
Si Si2 0.804036 0.777148 0.157645
Si Si3 0.969668 0.868931 0.415660
Si Si4 0.949570 0.107974 0.276279
Si Si5 0.413886 0.039584 0.125274
Si Si6 0.724294 0.407626 0.340182
Si Si7 0.889641 0.227699 0.542892
Si Si8 0.986110 0.322565 0.207272
O O1 0.788568 0.372757 0.918375
O O2 0.096511 0.524820 0.959991
O O3 0.622056 0.782745 0.174075
O O4 0.810874 0.655396 0.125706
O O5 0.061937 0.816793 0.256512
O O6 0.116657 0.916970 0.389458
O O7 0.104593 0.748571 0.458846
O O8 0.000000 0.920971 0.500000
O O9 0.693710 0.856197 0.318290
O O10 0.040784 0.153863 0.373723
O O11 0.867992 0.213461 0.208557
O O12 0.703480 0.037954 0.218391
O O13 0.157554 0.031273 0.295779
O O14 0.325097 0.928775 0.142427
O O15 0.985668 0.350838 0.412395
O O16 0.000000 0.186746 0.500000
#
# Coordination Sequence:
#
# PCOD9121004 Si02
#       8
#     2   4   4   4   4   4   4   4
#     4  10  22  42  66 102 122 152 204 262 318 384
#     4  10  21  44  67  90 131 156 202 262 315 379
#     4  10  18  38  56  86 133 162 220 263 292 365
#     4  12  21  40  66  89 127 174 210 256 313 369
#     4  11  23  44  70  91 124 170 199 256 324 376
#     4  10  21  39  61  89 124 172 207 260 317 361
#     4  10  22  37  58  91 131 168 224 258 301 365
#     4  10  23  41  61  94 127 167 216 253 312 367
#
# _framework density 23.546264999999998
#
# number of rings (size 3 to 8) (size 9 to 14) (size 15 to 20)
#    0.000    1.600    6.667    0.000    0.000    3.733 
#    7.200    0.000    0.000    0.000    0.000    0.000 
#    0.000    0.000    0.000    0.000    0.000    0.000 
#
# Total GULP energy -83786.192478 kJ/mol
# GULP energy per Si atom -5585.746165 kJ/mol
# Density = 2.349267 g / cm^3
# Si number density = 23.546265 Si / 1000 Ang^3
#
#
#
# Elastic Constant Matrix: (Units=GPa)
#
#
# Indices 1 2 3 4 5 6 
#
# 1 34.3700 27.9291 18.5365 0.0000 -19.7948 0.0000
# 2 27.9291 135.0139 33.5402 0.0000 -36.4996 0.0000
# 3 18.5365 33.5402 98.0431 0.0000 -33.1182 0.0000
# 4 0.0000 0.0000 0.0000 40.5166 0.0000 -4.9316
# 5 -19.7948 -36.4996 -33.1182 0.0000 32.5979 0.0000
# 6 0.0000 0.0000 0.0000 -4.9316 0.0000 29.7532
#
#
#
# Elastic Compliance Matrix: (Units=1/GPa)
#
#
# Indices 1 2 3 4 5 6 
#
# 1 0.045521 -0.002751 0.000962 0.000000 0.025538 0.000000
# 2 -0.002751 0.010810 0.000527 0.000000 0.010969 0.000000
# 3 0.000962 0.000527 0.015581 0.000000 0.017004 0.000000
# 4 0.000000 0.000000 0.000000 0.025189 0.000000 0.004175
# 5 0.025538 0.010969 0.017004 0.000000 0.075742 0.000000
# 6 0.000000 0.000000 0.000000 0.004175 0.000000 0.034302
#
#
# Mechanical properties :
#
#
# Convention : Reuss Voigt Hill
#
# Bulk Modulus (GPa) = 14.41189 47.49317 30.95253
# Shear Modulus (GPa) = 21.47769 33.06830 27.27300
#
# Velocity S-wave (km/s) = 3.02346 3.75159 3.40703
# Velocity P-wave (km/s) = 4.28046 6.24339 5.35267
#
# Compressibility (1/GPa) = 0.06938715
#
# Stress axis : x y z
#
# Youngs Moduli (GPa) = 21.96810 92.50561 64.17920
#
# Poissons Ratio (x) = 0.25451 -0.06171
# Poissons Ratio (y) = 0.06044 -0.03384
# Poissons Ratio (z) = -0.02112 -0.04878
#
# Static dielectric constant tensor:
#      x y z
#    x 1.908350 0.000000 0.011270 
#    y 0.000000 1.944430 0.000000 
#    z 0.011270 0.000000 1.945400 
# 
# From -- ./inp_files/59593.got.cif
#   From: 2010.05.17/outbox.cif.g08.bks.cpg/sg5_30_cif.got.tgz:59593.got - 2010.06.03 18:56:24.
