data_PCOD9121133
_publ_section_title
;
Structure prediction by ZEFSAII (Michael W. Deem and Ramdas Pophale) SiO2 
 PCOD9121133
Probable space group: C 2
;
_chemical_formula_sum "Si O2"
_cell_formula_units_Z 26
_cell_length_a 11.370839
_cell_length_b 13.505561
_cell_length_c 7.193029
_cell_angle_alpha 90.000000
_cell_angle_beta 95.069455
_cell_angle_gamma 90.000000
_cell_volume 1100.309330
_symmetry_space_group_name_H-M "C 2"
_symmetry_group_IT_number 5
_symmetry_cell_setting 'monoclinic'
loop_
_space_group_symop_operation_xyz
x,y,z
-x,y,-z
1/2+x,1/2+y,z
1/2-x,1/2+y,-z
loop_
_atom_site_type_symbol
_atom_site_label
_atom_site_fract_x
_atom_site_fract_y
_atom_site_fract_z
Si Si1 0.795937 0.387070 0.930734
Si Si2 0.758499 0.776016 0.465475
Si Si3 0.500000 0.256196 0.000000
Si Si4 0.500000 0.147577 0.500000
Si Si5 0.132024 0.582188 0.869575
Si Si6 0.619812 0.609954 0.312804
Si Si7 0.000000 0.235687 0.000000
Si Si8 0.874749 0.898255 0.763880
O O1 0.861801 0.491170 0.985732
O O2 0.677686 0.404290 0.034799
O O3 0.765025 0.342687 0.722566
O O4 0.886618 0.304245 0.016896
O O5 0.882749 0.716142 0.490768
O O6 0.660339 0.689850 0.470052
O O7 0.767826 0.853133 0.632559
O O8 0.392065 0.182255 0.020288
O O9 0.522300 0.320405 0.185495
O O10 0.533205 0.082175 0.689251
O O11 0.258436 0.593870 0.787605
O O12 0.583014 0.496888 0.332012
O O13 0.525118 0.664924 0.175462
#
# Coordination Sequence:
#
# PCOD9121133 Si02
#       8
#     4   4   2   2   4   4   2   4
#     4  10  23  41  61  89 122 165 199 249 306 365
#     4  10  21  40  64  86 128 157 202 255 309 359
#     4  12  20  34  64  96 116 154 214 252 300 368
#     4  10  18  40  62  92 126 156 200 266 308 352
#     4  10  21  38  60  94 122 155 202 259 303 359
#     4   9  21  39  58  84 121 162 191 249 307 355
#     4  10  18  42  60  78 128 162 192 240 310 356
#     4  11  22  38  63  91 117 159 207 250 301 370
#
# _framework density 23.629719000000001
#
# number of rings (size 3 to 8) (size 9 to 14) (size 15 to 20)
#    0.000    1.846    1.538    3.692    0.000    1.231 
#   19.385    0.000    0.000    0.000    0.000    0.000 
#    0.000    0.000    0.000    0.000    0.000    0.000 
#
# Total GULP energy -72471.728158 kJ/mol
# GULP energy per Si atom -5574.748320 kJ/mol
# Density = 2.357594 g / cm^3
# Si number density = 23.629719 Si / 1000 Ang^3
#
#
#
# Elastic Constant Matrix: (Units=GPa)
#
#
# Indices 1 2 3 4 5 6 
#
# 1 45.2001 -4.2193 21.8133 0.0000 5.5979 0.0000
# 2 -4.2193 167.4936 71.1348 0.0000 19.1549 0.0000
# 3 21.8133 71.1348 131.2735 0.0000 32.3286 0.0000
# 4 0.0000 0.0000 0.0000 19.4629 0.0000 11.4446
# 5 5.5979 19.1549 32.3286 0.0000 36.1588 0.0000
# 6 0.0000 0.0000 0.0000 11.4446 0.0000 10.5883
#
#
#
# Elastic Compliance Matrix: (Units=1/GPa)
#
#
# Indices 1 2 3 4 5 6 
#
# 1 0.025269 0.003148 -0.005810 0.000000 -0.000385 0.000000
# 2 0.003148 0.008153 -0.004818 0.000000 -0.000498 0.000000
# 3 -0.005810 -0.004818 0.013265 0.000000 -0.008408 0.000000
# 4 0.000000 0.000000 0.000000 0.140989 0.000000 -0.152391
# 5 -0.000385 -0.000498 -0.008408 0.000000 0.035497 0.000000
# 6 0.000000 0.000000 0.000000 -0.152391 0.000000 0.259160
#
#
# Mechanical properties :
#
#
# Convention : Reuss Voigt Hill
#
# Bulk Modulus (GPa) = 31.51941 57.93610 44.72775
# Shear Modulus (GPa) = 9.84507 30.25788 20.05148
#
# Velocity S-wave (km/s) = 2.04339 3.58229 2.91618
# Velocity P-wave (km/s) = 4.35145 6.45616 5.50532
#
# Compressibility (1/GPa) = 0.03172648
#
# Stress axis : x y z
#
# Youngs Moduli (GPa) = 39.57381 122.65360 75.38855
#
# Poissons Ratio (x) = -0.38613 0.43800
# Poissons Ratio (y) = -0.12458 0.36325
# Poissons Ratio (z) = 0.22992 0.59099
#
# Static dielectric constant tensor:
#      x y z
#    x 1.935630 0.000000 -0.018020 
#    y 0.000000 2.005300 0.000000 
#    z -0.018020 0.000000 1.924480 
# 
# From -- ./inp_files/23731.got.cif
#   From: 2010.05.17/outbox.cif.g08.bks.cpg/sg5_12_cif.got.tgz:23731.got - 2010.06.03 18:56:24.
