data_PCOD9121604
_publ_section_title
;
Structure prediction by ZEFSAII (Michael W. Deem and Ramdas Pophale) SiO2 
 PCOD9121604
Probable space group: C 2
;
_chemical_formula_sum "Si O2"
_cell_formula_units_Z 28
_cell_length_a 8.943274
_cell_length_b 10.595271
_cell_length_c 13.634736
_cell_angle_alpha 90.000000
_cell_angle_beta 118.911669
_cell_angle_gamma 90.000000
_cell_volume 1130.954296
_symmetry_space_group_name_H-M "C 2"
_symmetry_group_IT_number 5
_symmetry_cell_setting 'monoclinic'
loop_
_space_group_symop_operation_xyz
x,y,z
-x,y,-z
1/2+x,1/2+y,z
1/2-x,1/2+y,-z
loop_
_atom_site_type_symbol
_atom_site_label
_atom_site_fract_x
_atom_site_fract_y
_atom_site_fract_z
Si Si1 0.333215 0.739580 0.169416
Si Si2 0.727221 0.544718 0.564011
Si Si3 0.687172 0.329829 0.702052
Si Si4 0.065734 0.401705 0.618791
Si Si5 0.445898 0.195918 0.774197
Si Si6 0.630798 0.583950 0.319285
Si Si7 0.974850 0.450414 0.103518
O O1 0.434407 0.819412 0.284481
O O2 0.143309 0.731141 0.151311
O O3 0.447770 0.611173 0.208215
O O4 0.349204 0.830867 0.080621
O O5 0.657020 0.425311 0.602593
O O6 0.781712 0.651736 0.657981
O O7 0.621173 0.582083 0.434577
O O8 0.915580 0.505012 0.582939
O O9 0.546636 0.293919 0.738598
O O10 0.748705 0.198526 0.676178
O O11 0.842582 0.395804 0.806953
O O12 0.253396 0.462562 0.670305
O O13 0.000000 0.333931 0.500000
O O14 0.559611 0.072267 0.838563
O O15 0.000000 0.488715 0.000000
#
# Coordination Sequence:
#
# PCOD9121604 Si02
#       7
#     4   4   4   4   4   4   4
#     4  11  23  40  62  93 127 170 212 263 323 387
#     4  10  20  36  59  92 126 173 220 256 304 374
#     4  10  20  41  65  93 126 171 215 261 327 386
#     4  10  19  35  57  88 124 167 213 260 306 369
#     4  11  23  39  65  92 128 165 212 266 329 387
#     4  10  20  36  62  86 131 174 216 254 312 372
#     4  10  23  46  68  91 123 158 216 281 329 388
#
# _framework density 24.757850999999999
#
# number of rings (size 3 to 8) (size 9 to 14) (size 15 to 20)
#    0.000    1.714    5.714    0.000    2.000    3.429 
#    0.000    5.714    0.000    0.000    0.000    0.000 
#    0.000    0.000    0.000    0.000    0.000    0.000 
#
# Total GULP energy -78225.169322 kJ/mol
# GULP energy per Si atom -5587.512094 kJ/mol
# Density = 2.470150 g / cm^3
# Si number density = 24.757851 Si / 1000 Ang^3
#
#
#
# Elastic Constant Matrix: (Units=GPa)
#
#
# Indices 1 2 3 4 5 6 
#
# 1 153.6190 61.5943 11.1815 0.0000 -12.4275 0.0000
# 2 61.5943 65.6979 9.1481 0.0000 -0.6799 0.0000
# 3 11.1815 9.1481 49.2076 0.0000 -26.2065 0.0000
# 4 0.0000 0.0000 0.0000 24.2169 0.0000 -13.2154
# 5 -12.4275 -0.6799 -26.2065 0.0000 24.5383 0.0000
# 6 0.0000 0.0000 0.0000 -13.2154 0.0000 61.3664
#
#
#
# Elastic Compliance Matrix: (Units=1/GPa)
#
#
# Indices 1 2 3 4 5 6 
#
# 1 0.011724 -0.011676 0.005789 0.000000 0.011797 0.000000
# 2 -0.011676 0.027670 -0.012132 0.000000 -0.018104 0.000000
# 3 0.005789 -0.012132 0.052512 0.000000 0.058678 0.000000
# 4 0.000000 0.000000 0.000000 0.046792 0.000000 0.010077
# 5 0.011797 -0.018104 0.058678 0.000000 0.108893 0.000000
# 6 0.000000 0.000000 0.000000 0.010077 0.000000 0.018466
#
#
# Mechanical properties :
#
#
# Convention : Reuss Voigt Hill
#
# Bulk Modulus (GPa) = 17.89933 48.04137 32.97035
# Shear Modulus (GPa) = 15.59005 34.46435 25.02720
#
# Velocity S-wave (km/s) = 2.51211 3.73508 3.18288
# Velocity P-wave (km/s) = 3.95723 6.16828 5.18205
#
# Compressibility (1/GPa) = 0.05586801
#
# Stress axis : x y z
#
# Youngs Moduli (GPa) = 85.29483 36.14061 19.04322
#
# Poissons Ratio (x) = 0.42197 -0.11025
# Poissons Ratio (y) = 0.99588 0.23104
# Poissons Ratio (z) = -0.49379 0.43847
#
# Static dielectric constant tensor:
#      x y z
#    x 2.041200 0.000000 -0.033760 
#    y 0.000000 2.065670 0.000000 
#    z -0.033760 0.000000 1.980510 
# 
# From -- ./inp_files/50558.got.cif
#   From: 2010.05.17/outbox.cif.g08.bks.cpg/sg5_26_cif.got.tgz:50558.got - 2010.06.03 18:56:24.
