data_PCOD9121806
_publ_section_title
;
Structure prediction by ZEFSAII (Michael W. Deem and Ramdas Pophale) SiO2 
 PCOD9121806
Probable space group: C 2
;
_chemical_formula_sum "Si O2"
_cell_formula_units_Z 24
_cell_length_a 25.459322
_cell_length_b 8.031023
_cell_length_c 10.237928
_cell_angle_alpha 90.000000
_cell_angle_beta 149.786952
_cell_angle_gamma 90.000000
_cell_volume 1053.379513
_symmetry_space_group_name_H-M "C 2"
_symmetry_group_IT_number 5
_symmetry_cell_setting 'monoclinic'
loop_
_space_group_symop_operation_xyz
x,y,z
-x,y,-z
1/2+x,1/2+y,z
1/2-x,1/2+y,-z
loop_
_atom_site_type_symbol
_atom_site_label
_atom_site_fract_x
_atom_site_fract_y
_atom_site_fract_z
Si Si1 0.120380 0.853040 0.064295
Si Si2 0.296391 0.008449 0.754352
Si Si3 0.616533 0.963618 0.769457
Si Si4 0.671650 0.336767 0.869641
Si Si5 0.583448 0.695849 0.063663
Si Si6 0.576648 0.510222 0.424127
O O1 0.155406 0.868648 0.988016
O O2 0.994550 0.859268 0.785134
O O3 0.147454 0.021923 0.199247
O O4 0.164837 0.684446 0.216813
O O5 0.178326 0.024468 0.552633
O O6 0.358342 0.982914 0.024499
O O7 0.338771 0.849466 0.768490
O O8 0.500000 0.905578 0.500000
O O9 0.630644 0.152720 0.746816
O O10 0.705915 0.850987 0.898197
O O11 0.613037 0.465428 0.647807
O O12 0.504714 0.662626 0.770402
O O13 0.500000 0.705159 0.000000
#
# Coordination Sequence:
#
# PCOD9121806 Si02
#       6
#     4   4   4   4   4   4
#     4   9  21  40  63  89 127 155 198 256 307 359
#     4  10  21  43  60  91 123 159 207 250 300 369
#     4  10  22  35  58  93 125 160 197 236 309 377
#     4  10  19  36  61  90 127 160 192 247 308 374
#     4  10  24  45  61  89 121 162 218 254 297 359
#     4   9  21  40  62  91 124 156 207 245 306 377
#
# _framework density 22.783811
#
# number of rings (size 3 to 8) (size 9 to 14) (size 15 to 20)
#    1.000    1.333    0.000    2.500    4.667    4.667 
#    6.000    0.833    0.000    0.000    0.000    0.000 
#    0.000    0.000    0.000    0.000    0.000    0.000 
#
# Total GULP energy -66975.047110 kJ/mol
# GULP energy per Si atom -5581.253926 kJ/mol
# Density = 2.273195 g / cm^3
# Si number density = 22.783811 Si / 1000 Ang^3
#
#
#
# Elastic Constant Matrix: (Units=GPa)
#
#
# Indices 1 2 3 4 5 6 
#
# 1 25.3725 45.8439 9.9503 0.0000 8.2191 0.0000
# 2 45.8439 144.4269 29.9444 0.0000 22.7538 0.0000
# 3 9.9503 29.9444 111.6104 0.0000 22.2974 0.0000
# 4 0.0000 0.0000 0.0000 22.9947 0.0000 7.7798
# 5 8.2191 22.7538 22.2974 0.0000 38.7489 0.0000
# 6 0.0000 0.0000 0.0000 7.7798 0.0000 21.6809
#
#
#
# Elastic Compliance Matrix: (Units=1/GPa)
#
#
# Indices 1 2 3 4 5 6 
#
# 1 0.092657 -0.029004 0.000051 0.000000 -0.002651 0.000000
# 2 -0.029004 0.016880 -0.001347 0.000000 -0.002985 0.000000
# 3 0.000051 -0.001347 0.010351 0.000000 -0.005176 0.000000
# 4 0.000000 0.000000 0.000000 0.049497 0.000000 -0.017761
# 5 -0.002651 -0.002985 -0.005176 0.000000 0.031101 0.000000
# 6 0.000000 0.000000 0.000000 -0.017761 0.000000 0.052497
#
#
# Mechanical properties :
#
#
# Convention : Reuss Voigt Hill
#
# Bulk Modulus (GPa) = 16.86689 50.32077 33.59383
# Shear Modulus (GPa) = 14.99947 29.72966 22.36456
#
# Velocity S-wave (km/s) = 2.56859 3.61620 3.13645
# Velocity P-wave (km/s) = 4.02691 6.29047 5.28138
#
# Compressibility (1/GPa) = 0.05928774
#
# Stress axis : x y z
#
# Youngs Moduli (GPa) = 10.79247 59.24229 96.61295
#
# Poissons Ratio (x) = 1.71826 -0.00490
# Poissons Ratio (y) = 0.31302 0.13010
# Poissons Ratio (z) = -0.00055 0.07978
#
# Static dielectric constant tensor:
#      x y z
#    x 1.868400 0.000000 -0.032010 
#    y 0.000000 1.928800 0.000000 
#    z -0.032010 0.000000 1.903700 
# 
# From -- ./inp_files/47893.got.cif
#   From: 2010.05.17/outbox.cif.g08.bks.cpg/sg5_24_cif.got.tgz:47893.got - 2010.06.03 18:56:24.
