data_PCOD9121480
_publ_section_title
;
Structure prediction by ZEFSAII (Michael W. Deem and Ramdas Pophale) SiO2 
 PCOD9121480
Probable space group: C 2
;
_chemical_formula_sum "Si O2"
_cell_formula_units_Z 32
_cell_length_a 23.178299
_cell_length_b 8.430488
_cell_length_c 11.797950
_cell_angle_alpha 90.000000
_cell_angle_beta 50.539834
_cell_angle_gamma 90.000000
_cell_volume 1779.900001
_symmetry_space_group_name_H-M "C 2"
_symmetry_group_IT_number 5
_symmetry_cell_setting 'monoclinic'
loop_
_space_group_symop_operation_xyz
x,y,z
-x,y,-z
1/2+x,1/2+y,z
1/2-x,1/2+y,-z
loop_
_atom_site_type_symbol
_atom_site_label
_atom_site_fract_x
_atom_site_fract_y
_atom_site_fract_z
Si Si1 0.234273 0.389360 0.120652
Si Si2 0.500712 0.105321 0.362219
Si Si3 0.926650 0.896654 0.515461
Si Si4 0.282080 0.190573 0.699164
Si Si5 0.177285 0.478545 0.783712
Si Si6 0.364004 0.975104 0.418359
Si Si7 0.673800 0.688422 0.392103
Si Si8 0.154883 0.596562 0.044622
O O1 0.242805 0.549946 0.185067
O O2 0.176068 0.286493 0.270361
O O3 0.207509 0.460405 0.034416
O O4 0.302107 0.265441 0.017742
O O5 0.500000 0.087372 0.500000
O O6 0.461952 0.274407 0.381700
O O7 0.446098 0.981466 0.371416
O O8 0.583542 0.103659 0.213612
O O9 0.853867 0.796312 0.653039
O O10 0.000000 0.926566 0.500000
O O11 0.892285 0.061752 0.521329
O O12 0.213600 0.305933 0.757959
O O13 0.313874 0.106424 0.546119
O O14 0.137062 0.492280 0.714222
O O15 0.249204 0.593683 0.695134
O O16 0.131662 0.536403 0.949512
O O17 0.329997 0.809114 0.500098
#
# Coordination Sequence:
#
# PCOD9121480 Si02
#       8
#     4   4   4   4   4   4   4   4
#     4  10  20  35  55  79 109 139 173 226 270 312
#     4  10  21  37  56  76 105 143 179 220 269 324
#     4   9  17  31  54  80 109 138 174 222 268 315
#     4   9  18  35  56  81 109 141 181 222 266 313
#     4  10  20  34  54  81 110 142 179 224 268 317
#     4  10  19  34  57  79 109 144 178 221 266 318
#     4   9  19  33  54  84 106 136 184 224 266 312
#     4  11  22  35  55  82 109 141 180 217 270 321
#
# _framework density 17.978538
#
# number of rings (size 3 to 8) (size 9 to 14) (size 15 to 20)
#    0.000    2.250    0.000    4.500    0.000    6.000 
#    0.000    3.125    0.000    0.000    0.000    0.000 
#    0.000    0.000    0.000    0.000    0.000    0.000 
#
# Total GULP energy -89086.586486 kJ/mol
# GULP energy per Si atom -5567.911655 kJ/mol
# Density = 1.793762 g / cm^3
# Si number density = 17.978538 Si / 1000 Ang^3
#
#
#
# Elastic Constant Matrix: (Units=GPa)
#
#
# Indices 1 2 3 4 5 6 
#
# 1 70.6930 23.4802 36.8446 0.0000 19.7775 0.0000
# 2 23.4802 87.3437 26.2846 0.0000 6.8686 0.0000
# 3 36.8446 26.2846 99.8498 0.0000 13.2083 0.0000
# 4 0.0000 0.0000 0.0000 19.0413 0.0000 -2.1850
# 5 19.7775 6.8686 13.2083 0.0000 33.7699 0.0000
# 6 0.0000 0.0000 0.0000 -2.1850 0.0000 15.7246
#
#
#
# Elastic Compliance Matrix: (Units=1/GPa)
#
#
# Indices 1 2 3 4 5 6 
#
# 1 0.020703 -0.003155 -0.005579 0.000000 -0.009301 0.000000
# 2 -0.003155 0.012971 -0.002263 0.000000 0.000095 0.000000
# 3 -0.005579 -0.002263 0.012840 0.000000 -0.001295 0.000000
# 4 0.000000 0.000000 0.000000 0.053368 0.000000 0.007416
# 5 -0.009301 0.000095 -0.001295 0.000000 0.035547 0.000000
# 6 0.000000 0.000000 0.000000 0.007416 0.000000 0.064625
#
#
# Mechanical properties :
#
#
# Convention : Reuss Voigt Hill
#
# Bulk Modulus (GPa) = 40.78058 47.90058 44.34058
# Shear Modulus (GPa) = 21.71820 25.12564 23.42192
#
# Velocity S-wave (km/s) = 3.47941 3.74242 3.61331
# Velocity P-wave (km/s) = 6.23489 6.73612 6.49035
#
# Compressibility (1/GPa) = 0.02452147
#
# Stress axis : x y z
#
# Youngs Moduli (GPa) = 48.30131 77.09679 77.87901
#
# Poissons Ratio (x) = 0.24327 0.43445
# Poissons Ratio (y) = 0.15241 0.17621
# Poissons Ratio (z) = 0.26945 0.17444
#
# Static dielectric constant tensor:
#      x y z
#    x 1.632510 0.000000 0.008160 
#    y 0.000000 1.641280 0.000000 
#    z 0.008160 0.000000 1.631270 
# 
# From -- ./inp_files/46016.got.cif
#   From: 2010.05.17/outbox.cif.g08.bks.cpg/sg5_24_cif.got.tgz:46016.got - 2010.06.03 18:56:24.
