data_PCOD9121313
_publ_section_title
;
Structure prediction by ZEFSAII (Michael W. Deem and Ramdas Pophale) SiO2 
 PCOD9121313
Probable space group: C 2
;
_chemical_formula_sum "Si O2"
_cell_formula_units_Z 30
_cell_length_a 20.077351
_cell_length_b 8.340896
_cell_length_c 12.465063
_cell_angle_alpha 90.000000
_cell_angle_beta 57.941476
_cell_angle_gamma 90.000000
_cell_volume 1769.117055
_symmetry_space_group_name_H-M "C 2"
_symmetry_group_IT_number 5
_symmetry_cell_setting 'monoclinic'
loop_
_space_group_symop_operation_xyz
x,y,z
-x,y,-z
1/2+x,1/2+y,z
1/2-x,1/2+y,-z
loop_
_atom_site_type_symbol
_atom_site_label
_atom_site_fract_x
_atom_site_fract_y
_atom_site_fract_z
Si Si1 0.482656 0.158720 0.339566
Si Si2 0.452806 0.503620 0.741434
Si Si3 0.389758 0.019780 0.599846
Si Si4 0.176327 0.789879 0.060952
Si Si5 0.236906 0.046160 0.858123
Si Si6 0.044593 0.561877 0.072980
Si Si7 0.928926 0.195829 0.978799
Si Si8 0.000000 0.222007 0.500000
O O1 0.491838 0.346878 0.308914
O O2 0.485094 0.065616 0.225064
O O3 0.409436 0.122143 0.477840
O O4 0.557490 0.095209 0.347213
O O5 0.366706 0.420351 0.825461
O O6 0.454398 0.610561 0.846726
O O7 0.475063 0.611592 0.621095
O O8 0.299594 0.024288 0.710346
O O9 0.426860 0.844499 0.545955
O O10 0.226080 0.672141 0.090606
O O11 0.109318 0.691846 0.053668
O O12 0.228161 0.881164 0.929965
O O13 0.149660 0.111326 0.909592
O O14 0.082370 0.385681 0.030951
O O15 0.000000 0.599301 0.000000
O O16 0.000000 0.178706 0.000000
#
# Coordination Sequence:
#
# PCOD9121313 Si02
#       8
#     4   4   4   4   4   4   4   2
#     4   9  18  33  53  80 110 144 182 219 276 328
#     4  10  19  32  54  83 110 143 179 231 264 333
#     4  10  19  33  53  77 116 148 177 230 274 325
#     4  10  22  32  54  83 114 141 187 228 283 320
#     4  11  21  34  55  82 114 146 176 242 275 323
#     4  10  19  37  59  79 110 148 186 228 274 334
#     4  10  22  37  57  80 107 146 187 232 282 331
#     4  10  20  30  54  82 112 146 186 216 276 334
#
# _framework density 16.957612999999998
#
# number of rings (size 3 to 8) (size 9 to 14) (size 15 to 20)
#    0.000    2.133    2.667    3.200    3.733    4.800 
#    0.000    0.000    0.000    9.600    0.000    0.000 
#    0.000    0.000    0.000    0.000    0.000    0.000 
#
# Total GULP energy -83585.883795 kJ/mol
# GULP energy per Si atom -5572.392253 kJ/mol
# Density = 1.691902 g / cm^3
# Si number density = 16.957613 Si / 1000 Ang^3
#
#
#
# Elastic Constant Matrix: (Units=GPa)
#
#
# Indices 1 2 3 4 5 6 
#
# 1 48.7878 20.6935 39.8388 0.0000 -5.0710 0.0000
# 2 20.6935 66.5567 26.7010 0.0000 -5.9557 0.0000
# 3 39.8388 26.7010 135.7310 0.0000 -22.4016 0.0000
# 4 0.0000 0.0000 0.0000 31.3793 0.0000 -2.4470
# 5 -5.0710 -5.9557 -22.4016 0.0000 27.8687 0.0000
# 6 0.0000 0.0000 0.0000 -2.4470 0.0000 21.1613
#
#
#
# Elastic Compliance Matrix: (Units=1/GPa)
#
#
# Indices 1 2 3 4 5 6 
#
# 1 0.029189 -0.006177 -0.007717 0.000000 -0.002212 0.000000
# 2 -0.006177 0.017646 -0.001408 0.000000 0.001515 0.000000
# 3 -0.007717 -0.001408 0.011101 0.000000 0.007218 0.000000
# 4 0.000000 0.000000 0.000000 0.032158 0.000000 0.003719
# 5 -0.002212 0.001515 0.007218 0.000000 0.041606 0.000000
# 6 0.000000 0.000000 0.000000 0.003719 0.000000 0.047686
#
#
# Mechanical properties :
#
#
# Convention : Reuss Voigt Hill
#
# Bulk Modulus (GPa) = 36.58929 47.28245 41.93587
# Shear Modulus (GPa) = 22.82053 27.00467 24.91260
#
# Velocity S-wave (km/s) = 3.67241 3.99492 3.83706
# Velocity P-wave (km/s) = 6.29332 7.01587 6.66440
#
# Compressibility (1/GPa) = 0.02733040
#
# Stress axis : x y z
#
# Youngs Moduli (GPa) = 34.25975 56.67047 90.08252
#
# Poissons Ratio (x) = 0.35007 0.69519
# Poissons Ratio (y) = 0.21163 0.12685
# Poissons Ratio (z) = 0.26439 0.07980
#
# Static dielectric constant tensor:
#      x y z
#    x 1.560700 0.000000 -0.018130 
#    y 0.000000 1.600700 0.000000 
#    z -0.018130 0.000000 1.589740 
# 
# From -- ./inp_files/44144.got.cif
#   From: 2010.05.17/outbox.cif.g08.bks.cpg/sg5_23_cif.got.tgz:44144.got - 2010.06.03 18:56:24.
