data_PCOD9121952
_publ_section_title
;
Structure prediction by ZEFSAII (Michael W. Deem and Ramdas Pophale) SiO2 
 PCOD9121952
Probable space group: C 2
;
_chemical_formula_sum "Si O2"
_cell_formula_units_Z 32
_cell_length_a 8.376262
_cell_length_b 11.615504
_cell_length_c 18.255343
_cell_angle_alpha 90.000000
_cell_angle_beta 46.320162
_cell_angle_gamma 90.000000
_cell_volume 1284.525892
_symmetry_space_group_name_H-M "C 2"
_symmetry_group_IT_number 5
_symmetry_cell_setting 'monoclinic'
loop_
_space_group_symop_operation_xyz
x,y,z
-x,y,-z
1/2+x,1/2+y,z
1/2-x,1/2+y,-z
loop_
_atom_site_type_symbol
_atom_site_label
_atom_site_fract_x
_atom_site_fract_y
_atom_site_fract_z
Si Si1 0.909948 0.551690 0.679100
Si Si2 0.332673 0.632272 0.742210
Si Si3 0.839757 0.941005 0.374019
Si Si4 0.026346 0.202168 0.876807
Si Si5 0.452300 0.268166 0.431639
Si Si6 0.755895 0.010644 0.923603
Si Si7 0.562111 0.287307 0.177012
Si Si8 0.555589 0.849555 0.736312
O O1 0.837384 0.493617 0.625694
O O2 0.693094 0.620034 0.776434
O O3 0.079262 0.651702 0.603585
O O4 0.987969 0.466578 0.718134
O O5 0.498550 0.543979 0.650656
O O6 0.295014 0.566517 0.830837
O O7 0.466572 0.749003 0.712492
O O8 0.098996 0.681580 0.789259
O O9 0.774203 0.863212 0.464496
O O10 0.963659 0.850172 0.280168
O O11 0.191298 0.244476 0.886231
O O12 0.823883 0.116026 0.955321
O O13 0.963216 0.311987 0.845732
O O14 0.500000 0.238680 0.500000
O O15 0.683915 0.332480 0.339567
O O16 0.905031 0.896425 0.887960
O O17 0.500000 0.980729 0.000000
#
# Coordination Sequence:
#
# PCOD9121952 Si02
#       8
#     4   4   4   4   4   4   4   4
#     4  11  20  38  64  84 115 153 203 253 300 353
#     4  10  20  38  65  89 115 157 208 248 293 357
#     4  11  20  38  61  88 116 150 205 253 296 357
#     4  10  20  36  58  92 114 151 207 243 296 360
#     4  11  25  40  56  87 127 160 194 251 310 362
#     4  10  22  39  56  86 131 160 192 251 302 351
#     4  11  20  36  63  90 113 156 203 254 297 351
#     4  10  19  37  62  85 114 155 199 249 292 361
#
# _framework density 24.911915
#
# number of rings (size 3 to 8) (size 9 to 14) (size 15 to 20)
#    0.000    1.500    8.750    0.000    1.750    2.000 
#    0.000    0.000    0.000    0.000    0.000    0.000 
#    0.000    0.000    0.000    0.000    0.000    0.000 
#
# Total GULP energy -89311.547407 kJ/mol
# GULP energy per Si atom -5581.971713 kJ/mol
# Density = 2.485521 g / cm^3
# Si number density = 24.911915 Si / 1000 Ang^3
#
#
#
# Elastic Constant Matrix: (Units=GPa)
#
#
# Indices 1 2 3 4 5 6 
#
# 1 100.5687 83.1676 8.1976 0.0000 2.3369 -0.0002
# 2 83.1676 170.4672 24.0062 -0.0001 16.3363 0.0001
# 3 8.1976 24.0062 26.7571 -0.0002 -0.6889 0.0003
# 4 0.0000 -0.0001 -0.0002 20.8996 0.0001 4.8343
# 5 2.3369 16.3363 -0.6889 0.0001 22.9820 -0.0002
# 6 -0.0002 0.0001 0.0003 4.8343 -0.0002 55.8208
#
#
#
# Elastic Compliance Matrix: (Units=1/GPa)
#
#
# Indices 1 2 3 4 5 6 
#
# 1 0.017329 -0.009392 0.003246 0.000000 0.005011 0.000000
# 2 -0.009392 0.012421 -0.008476 0.000000 -0.008128 0.000000
# 3 0.003246 -0.008476 0.044164 0.000000 0.007019 0.000000
# 4 0.000000 0.000000 0.000000 0.048826 0.000000 -0.004228
# 5 0.005011 -0.008128 0.007019 0.000000 0.048991 0.000000
# 6 0.000000 0.000000 0.000000 -0.004228 0.000000 0.018281
#
#
# Mechanical properties :
#
#
# Convention : Reuss Voigt Hill
#
# Bulk Modulus (GPa) = 22.38588 58.72619 40.55604
# Shear Modulus (GPa) = 21.35425 32.10191 26.72808
#
# Velocity S-wave (km/s) = 2.93096 3.59363 3.27907
# Velocity P-wave (km/s) = 4.52322 6.39090 5.53638
#
# Compressibility (1/GPa) = 0.04467101
#
# Stress axis : x y z
#
# Youngs Moduli (GPa) = 57.70536 80.50860 22.64297
#
# Poissons Ratio (x) = 0.75615 -0.07351
# Poissons Ratio (y) = 0.54197 0.19192
# Poissons Ratio (z) = -0.18733 0.68238
#
# Static dielectric constant tensor:
#      x y z
#    x 2.054950 0.000000 0.006400 
#    y 0.000000 2.007420 0.000000 
#    z 0.006400 0.000000 2.086110 
# 
# From -- ./inp_files/59571.got.cif
#   From: 2010.05.17/outbox.cif.g08.bks.cpg/sg5_30_cif.got.tgz:59571.got - 2010.06.03 18:56:24.
