data_PCOD9121784
_publ_section_title
;
Structure prediction by ZEFSAII (Michael W. Deem and Ramdas Pophale) SiO2 
 PCOD9121784
Probable space group: C 2
;
_chemical_formula_sum "Si O2"
_cell_formula_units_Z 28
_cell_length_a 16.141416
_cell_length_b 7.476057
_cell_length_c 12.370813
_cell_angle_alpha 90.000000
_cell_angle_beta 120.885509
_cell_angle_gamma 90.000000
_cell_volume 1281.145145
_symmetry_space_group_name_H-M "C 2"
_symmetry_group_IT_number 5
_symmetry_cell_setting 'monoclinic'
loop_
_space_group_symop_operation_xyz
x,y,z
-x,y,-z
1/2+x,1/2+y,z
1/2-x,1/2+y,-z
loop_
_atom_site_type_symbol
_atom_site_label
_atom_site_fract_x
_atom_site_fract_y
_atom_site_fract_z
Si Si1 0.787485 0.728510 0.418890
Si Si2 0.796607 0.543912 0.193487
Si Si3 0.465579 0.402010 0.578892
Si Si4 0.430995 0.738819 0.277152
Si Si5 0.530962 0.194985 0.832713
Si Si6 0.110888 0.456145 0.347303
Si Si7 0.921597 0.059661 0.033349
O O1 0.804239 0.653440 0.310018
O O2 0.851591 0.906756 0.485240
O O3 0.827005 0.585396 0.532941
O O4 0.677506 0.789900 0.358753
O O5 0.832225 0.340310 0.238195
O O6 0.870459 0.609685 0.148705
O O7 0.687591 0.566232 0.081421
O O8 0.500000 0.286569 0.500000
O O9 0.535022 0.572399 0.628975
O O10 0.486636 0.303952 0.702913
O O11 0.517934 0.880142 0.347890
O O12 0.428219 0.665214 0.151788
O O13 0.554992 0.349266 0.932534
O O14 0.443457 0.054094 0.790391
O O15 0.000000 0.129558 0.000000
#
# Coordination Sequence:
#
# PCOD9121784 Si02
#       7
#     4   4   4   4   4   4   4
#     4  11  22  38  63  95 127 170 197 260 306 371
#     4  11  22  40  66  89 126 158 216 253 313 362
#     4  10  19  36  60  91 125 157 204 246 306 359
#     4  10  23  39  64  92 120 166 206 260 302 369
#     4   9  21  41  61  87 123 164 207 257 300 367
#     4  10  22  39  61  89 132 156 211 247 315 367
#     4  11  23  43  63  87 125 162 211 259 313 363
#
# _framework density 21.855446000000001
#
# number of rings (size 3 to 8) (size 9 to 14) (size 15 to 20)
#    0.000    1.714    1.429    2.571    2.000    2.286 
#    2.571    7.143    0.000    0.000    0.000    0.000 
#    0.000    0.000    0.000    0.000    0.000    0.000 
#
# Total GULP energy -78023.523271 kJ/mol
# GULP energy per Si atom -5573.108805 kJ/mol
# Density = 2.180570 g / cm^3
# Si number density = 21.855446 Si / 1000 Ang^3
#
#
#
# Elastic Constant Matrix: (Units=GPa)
#
#
# Indices 1 2 3 4 5 6 
#
# 1 100.1077 24.0492 60.7415 0.0000 23.7982 0.0000
# 2 24.0492 78.6314 39.0739 0.0000 10.3326 0.0000
# 3 60.7415 39.0739 119.6972 0.0000 24.2173 0.0000
# 4 0.0000 0.0000 0.0000 -31.2081 0.0000 -2.2331
# 5 23.7982 10.3326 24.2173 0.0000 31.6212 0.0000
# 6 0.0000 0.0000 0.0000 -2.2331 0.0000 35.7362
#
#
#
# Elastic Compliance Matrix: (Units=1/GPa)
#
#
# Indices 1 2 3 4 5 6 
#
# 1 0.015583 -0.000754 -0.006318 0.000000 -0.006643 0.000000
# 2 -0.000754 0.015267 -0.004387 0.000000 -0.001062 0.000000
# 3 -0.006318 -0.004387 0.013893 0.000000 -0.004452 0.000000
# 4 0.000000 0.000000 0.000000 -0.031900 0.000000 -0.001993
# 5 -0.006643 -0.001062 -0.004452 0.000000 0.040381 0.000000
# 6 0.000000 0.000000 0.000000 -0.001993 0.000000 0.027858
#
#
# Mechanical properties :
#
#
# Convention : Reuss Voigt Hill
#
# Bulk Modulus (GPa) = 45.81348 60.68507 53.24927
# Shear Modulus (GPa) = 44.93446 18.86799 31.90122
#
# Velocity S-wave (km/s) = 4.53922 2.94140 3.82468
# Velocity P-wave (km/s) = 6.96277 6.27396 6.62732
#
# Compressibility (1/GPa) = 0.02182764
#
# Stress axis : x y z
#
# Youngs Moduli (GPa) = 64.17351 65.49890 71.97857
#
# Poissons Ratio (x) = 0.04936 0.45473
# Poissons Ratio (y) = 0.04837 0.31574
# Poissons Ratio (z) = 0.40542 0.28731
#
# Static dielectric constant tensor:
#      x y z
#    x 1.842900 0.000000 -0.012340 
#    y 0.000000 1.908470 0.000000 
#    z -0.012340 0.000000 1.862230 
# 
# From -- ./inp_files/42015.got.cif
#   From: 2010.05.17/outbox.cif.g08.bks.cpg/sg5_22_cif.got.tgz:42015.got - 2010.06.03 18:56:24.
