data_PCOD9121177
_publ_section_title
;
Structure prediction by ZEFSAII (Michael W. Deem and Ramdas Pophale) SiO2 
 PCOD9121177
Probable space group: C 2
;
_chemical_formula_sum "Si O2"
_cell_formula_units_Z 30
_cell_length_a 34.741460
_cell_length_b 7.099015
_cell_length_c 8.540377
_cell_angle_alpha 90.000000
_cell_angle_beta 145.078532
_cell_angle_gamma 90.000000
_cell_volume 1205.766292
_symmetry_space_group_name_H-M "C 2"
_symmetry_group_IT_number 5
_symmetry_cell_setting 'monoclinic'
loop_
_space_group_symop_operation_xyz
x,y,z
-x,y,-z
1/2+x,1/2+y,z
1/2-x,1/2+y,-z
loop_
_atom_site_type_symbol
_atom_site_label
_atom_site_fract_x
_atom_site_fract_y
_atom_site_fract_z
Si Si1 0.500000 0.734390 0.500000
Si Si2 0.132753 0.109079 0.081409
Si Si3 0.026383 0.635751 0.940839
Si Si4 0.317932 0.768849 0.242355
Si Si5 0.245280 0.026267 0.241554
Si Si6 0.351373 0.032222 0.851075
Si Si7 0.091063 0.546416 0.636131
Si Si8 0.577664 0.528819 0.232686
O O1 0.556481 0.607699 0.766685
O O2 0.543360 0.872636 0.533578
O O3 0.164667 0.315893 0.164594
O O4 0.181015 0.983873 0.136785
O O5 0.121407 0.083133 0.226122
O O6 0.961939 0.687691 0.619942
O O7 0.078816 0.529338 0.009954
O O8 0.064539 0.808911 0.149929
O O9 0.000000 0.517125 0.000000
O O10 0.275055 0.846103 0.246878
O O11 0.129818 0.616660 0.918265
O O12 0.356934 0.954159 0.310353
O O13 0.374342 0.611445 0.472663
O O14 0.298615 0.102313 0.547867
O O15 0.226011 0.177964 0.043390
O O16 0.500000 0.596165 0.000000
#
# Coordination Sequence:
#
# PCOD9121177 Si02
#       8
#     2   4   4   4   4   4   4   4
#     4  10  18  40  76 106 136 188 254 314 388 452
#     4  11  23  48  75 108 149 206 260 322 394 474
#     4  11  24  44  75 118 154 194 263 335 407 471
#     4  12  27  50  76 113 163 217 266 328 402 477
#     4  12  28  47  74 114 161 225 269 322 392 490
#     4  11  23  46  75 110 153 209 265 321 391 478
#     4  11  21  46  82 112 149 204 266 332 407 467
#     4  11  27  48  77 115 158 199 265 336 404 470
#
# _framework density 24.880441999999999
#
# number of rings (size 3 to 8) (size 9 to 14) (size 15 to 20)
#    0.000    0.800    6.667    1.600    1.867    2.133 
#    4.800    0.000    0.000    0.000    0.000    0.000 
#    0.000    0.000    0.000    0.000    0.000    0.000 
#
# Total GULP energy -83776.757183 kJ/mol
# GULP energy per Si atom -5585.117146 kJ/mol
# Density = 2.482381 g / cm^3
# Si number density = 24.880442 Si / 1000 Ang^3
#
#
#
# Elastic Constant Matrix: (Units=GPa)
#
#
# Indices 1 2 3 4 5 6 
#
# 1 136.3389 30.4215 67.1465 0.0000 -3.3811 0.0000
# 2 30.4215 65.1544 46.6755 0.0000 7.0521 0.0000
# 3 67.1465 46.6755 187.3315 0.0000 -23.9486 0.0000
# 4 0.0000 0.0000 0.0000 41.6114 0.0000 -7.8046
# 5 -3.3811 7.0521 -23.9486 0.0000 36.2786 0.0000
# 6 0.0000 0.0000 0.0000 -7.8046 0.0000 40.2163
#
#
#
# Elastic Compliance Matrix: (Units=1/GPa)
#
#
# Indices 1 2 3 4 5 6 
#
# 1 0.009204 -0.002215 -0.002820 0.000000 -0.000574 0.000000
# 2 -0.002215 0.021185 -0.005502 0.000000 -0.007956 0.000000
# 3 -0.002820 -0.005502 0.008544 0.000000 0.006447 0.000000
# 4 0.000000 0.000000 0.000000 0.024940 0.000000 0.004840
# 5 -0.000574 -0.007956 0.006447 0.000000 0.033313 0.000000
# 6 0.000000 0.000000 0.000000 0.004840 0.000000 0.025805
#
#
# Mechanical properties :
#
#
# Convention : Reuss Voigt Hill
#
# Bulk Modulus (GPa) = 55.99503 75.25688 65.62596
# Shear Modulus (GPa) = 33.32960 39.92669 36.62815
#
# Velocity S-wave (km/s) = 3.66401 4.01027 3.84104
# Velocity P-wave (km/s) = 6.36038 7.19417 6.79009
#
# Compressibility (1/GPa) = 0.01785873
#
# Stress axis : x y z
#
# Youngs Moduli (GPa) = 108.65225 47.20385 117.04060
#
# Poissons Ratio (x) = 0.10454 0.33011
# Poissons Ratio (y) = 0.24063 0.64392
# Poissons Ratio (z) = 0.30645 0.25970
#
# Static dielectric constant tensor:
#      x y z
#    x 1.913270 0.000000 -0.057870 
#    y 0.000000 2.037090 0.000000 
#    z -0.057870 0.000000 1.993930 
# 
# From -- ./inp_files/31797.got.cif
#   From: 2010.05.17/outbox.cif.g08.bks.cpg/sg5_16_cif.got.tgz:31797.got - 2010.06.03 18:56:24.
