data_PCOD9121195
_publ_section_title
;
Structure prediction by ZEFSAII (Michael W. Deem and Ramdas Pophale) SiO2 
 PCOD9121195
Probable space group: C 2
;
_chemical_formula_sum "Si O2"
_cell_formula_units_Z 20
_cell_length_a 12.663167
_cell_length_b 12.230203
_cell_length_c 8.794125
_cell_angle_alpha 90.000000
_cell_angle_beta 32.281629
_cell_angle_gamma 90.000000
_cell_volume 727.404541
_symmetry_space_group_name_H-M "C 2"
_symmetry_group_IT_number 5
_symmetry_cell_setting 'monoclinic'
loop_
_space_group_symop_operation_xyz
x,y,z
-x,y,-z
1/2+x,1/2+y,z
1/2-x,1/2+y,-z
loop_
_atom_site_type_symbol
_atom_site_label
_atom_site_fract_x
_atom_site_fract_y
_atom_site_fract_z
Si Si1 0.926536 0.428160 0.347244
Si Si2 0.414418 0.233330 0.845647
Si Si3 0.485628 0.697287 0.837247
Si Si4 0.411119 0.465902 0.777939
Si Si5 0.500000 0.063272 0.500000
Si Si6 0.000000 0.580883 0.000000
O O1 0.885061 0.300194 0.376846
O O2 0.851944 0.473836 0.598907
O O3 0.167174 0.461795 0.067920
O O4 0.878568 0.498454 0.255830
O O5 0.480220 0.357030 0.780690
O O6 0.539499 0.151877 0.587942
O O7 0.378712 0.165267 0.042168
O O8 0.222890 0.239483 0.972787
O O9 0.482704 0.577177 0.769503
O O10 0.500000 0.693496 0.000000
O O11 0.500000 0.460654 0.500000
#
# Coordination Sequence:
#
# PCOD9121195 Si02
#       6
#     4   4   4   4   2   2
#     4  10  22  41  68  86 122 166 210 241 302 371
#     4  10  22  41  68  86 122 166 210 241 302 371
#     4  11  23  42  60  93 131 156 200 259 310 354
#     4  11  23  42  60  93 131 156 200 259 310 354
#     4  10  18  42  68  86 114 166 212 248 278 390
#     4  10  18  42  68  86 114 166 212 248 278 390
#
# _framework density 27.495017000000001
#
# number of rings (size 3 to 8) (size 9 to 14) (size 15 to 20)
#    0.000    1.600    6.000    0.000    2.800    0.000 
#    7.200    0.000    0.000    0.000    0.000    0.000 
#    0.000    0.000    0.000    0.000    0.000    0.000 
#
# Total GULP energy -55739.245452 kJ/mol
# GULP energy per Si atom -5573.924545 kJ/mol
# Density = 2.743244 g / cm^3
# Si number density = 27.495017 Si / 1000 Ang^3
#
#
#
# Elastic Constant Matrix: (Units=GPa)
#
#
# Indices 1 2 3 4 5 6 
#
# 1 110.5083 48.8943 32.9134 -0.0017 11.6533 0.0005
# 2 48.8943 320.2583 49.1883 -0.0005 40.3407 -0.0004
# 3 32.9134 49.1883 78.5837 -0.0009 13.6693 0.0002
# 4 -0.0017 -0.0005 -0.0009 5.4139 0.0011 0.7221
# 5 11.6533 40.3407 13.6693 0.0011 53.5000 -0.0003
# 6 0.0005 -0.0004 0.0002 0.7221 -0.0003 -1.6522
#
#
#
# Elastic Compliance Matrix: (Units=1/GPa)
#
#
# Indices 1 2 3 4 5 6 
#
# 1 0.010662 -0.000973 -0.003747 0.000002 -0.000632 0.000004
# 2 -0.000973 0.003796 -0.001578 0.000000 -0.002248 -0.000001
# 3 -0.003747 -0.001578 0.015628 0.000002 -0.001987 0.000002
# 4 0.000002 0.000000 0.000002 0.174536 -0.000004 0.076282
# 5 -0.000632 -0.002248 -0.001987 -0.000004 0.021032 -0.000005
# 6 0.000004 -0.000001 0.000002 0.076282 -0.000005 -0.571898
#
#
# Mechanical properties :
#
#
# Convention : Reuss Voigt Hill
#
# Bulk Modulus (GPa) = 57.17136 85.70470 71.43803
# Shear Modulus (GPa) = -15.25232 36.67594 10.71181
#
# Velocity S-wave (km/s) = -2.35783 3.65624 1.97595
# Velocity P-wave (km/s) = 3.66416 7.00448 5.58967
#
# Compressibility (1/GPa) = 0.01749128
#
# Stress axis : x y z
#
# Youngs Moduli (GPa) = 93.79069 263.40297 63.98804
#
# Poissons Ratio (x) = 0.25623 0.23975
# Poissons Ratio (y) = 0.09124 0.10097
# Poissons Ratio (z) = 0.35142 0.41564
#
# Static dielectric constant tensor:
#      x y z
#    x 2.408090 0.000000 0.184150 
#    y 0.000000 2.166020 0.000000 
#    z 0.184150 0.000000 3.030370 
# 
# From -- ./inp_files/20226.got.cif
#   From: 2010.05.17/outbox.cif.g08.bks.cpg/sg5_11_cif.got.tgz:20226.got - 2010.06.03 18:56:24.
