data_PCOD9121094
_publ_section_title
;
Structure prediction by ZEFSAII (Michael W. Deem and Ramdas Pophale) SiO2 
 PCOD9121094
Probable space group: C 2
;
_chemical_formula_sum "Si O2"
_cell_formula_units_Z 30
_cell_length_a 28.161023
_cell_length_b 7.863830
_cell_length_c 22.409548
_cell_angle_alpha 90.000000
_cell_angle_beta 163.112982
_cell_angle_gamma 90.000000
_cell_volume 1441.583951
_symmetry_space_group_name_H-M "C 2"
_symmetry_group_IT_number 5
_symmetry_cell_setting 'monoclinic'
loop_
_space_group_symop_operation_xyz
x,y,z
-x,y,-z
1/2+x,1/2+y,z
1/2-x,1/2+y,-z
loop_
_atom_site_type_symbol
_atom_site_label
_atom_site_fract_x
_atom_site_fract_y
_atom_site_fract_z
Si Si1 0.791540 0.842000 0.520628
Si Si2 0.500000 0.962304 0.000000
Si Si3 0.697251 0.667378 0.108518
Si Si4 0.651584 0.258942 0.945885
Si Si5 0.381036 0.070701 0.214712
Si Si6 0.367054 0.501237 0.723681
Si Si7 0.520721 0.031640 0.896241
Si Si8 0.247569 0.648787 0.690238
O O1 0.724635 0.668254 0.412477
O O2 0.662526 0.982634 0.344261
O O3 0.980508 0.861515 0.728434
O O4 0.793632 0.851437 0.595616
O O5 0.521349 0.077257 0.966926
O O6 0.347232 0.829377 0.804481
O O7 0.804637 0.667180 0.179146
O O8 0.775635 0.629434 0.266904
O O9 0.554671 0.527926 0.931877
O O10 0.613096 0.850605 0.009353
O O11 0.673194 0.134201 0.915503
O O12 0.610189 0.151305 0.955909
O O13 0.808978 0.380894 0.137192
O O14 0.571791 0.113306 0.449813
O O15 0.353378 0.515919 0.778152
#
# Coordination Sequence:
#
# PCOD9121094 Si02
#       8
#     4   2   4   4   4   4   4   4
#     4  11  19  35  62  91 127 160 210 261 313 371
#     4  10  18  38  72  96 126 160 220 270 308 382
#     4  10  21  37  65  92 123 163 218 259 313 383
#     4  12  24  40  59  93 135 166 218 260 325 382
#     4  12  24  39  62  90 131 175 205 266 321 381
#     4  11  19  36  63  94 122 163 210 268 309 368
#     4  10  20  38  63  96 125 165 214 264 318 377
#     4  11  19  39  64  95 121 162 213 258 315 382
#
# _framework density 20.810441999999998
#
# number of rings (size 3 to 8) (size 9 to 14) (size 15 to 20)
#    0.000    1.067    8.000    1.200    0.000    1.067 
#    0.000    1.333    0.000   14.400    0.000    0.000 
#    0.000    0.000    0.000    0.000    0.000    0.000 
#
# Total GULP energy -83568.649183 kJ/mol
# GULP energy per Si atom -5571.243279 kJ/mol
# Density = 2.076308 g / cm^3
# Si number density = 20.810442 Si / 1000 Ang^3
#
#
#
# Elastic Constant Matrix: (Units=GPa)
#
#
# Indices 1 2 3 4 5 6 
#
# 1 175.3170 40.6076 30.2847 0.0000 -17.8060 0.0000
# 2 40.6076 69.3389 26.9386 0.0000 -14.7141 0.0000
# 3 30.2847 26.9386 83.6304 0.0000 -7.6791 0.0000
# 4 0.0000 0.0000 0.0000 19.1359 0.0000 -1.4615
# 5 -17.8060 -14.7141 -7.6791 0.0000 36.2246 0.0000
# 6 0.0000 0.0000 0.0000 -1.4615 0.0000 34.3858
#
#
#
# Elastic Compliance Matrix: (Units=1/GPa)
#
#
# Indices 1 2 3 4 5 6 
#
# 1 0.006835 -0.003109 -0.001306 0.000000 0.001820 0.000000
# 2 -0.003109 0.019131 -0.004552 0.000000 0.005278 0.000000
# 3 -0.001306 -0.004552 0.013939 0.000000 0.000464 0.000000
# 4 0.000000 0.000000 0.000000 0.052428 0.000000 0.002228
# 5 0.001820 0.005278 0.000464 0.000000 0.030742 0.000000
# 6 0.000000 0.000000 0.000000 0.002228 0.000000 0.029177
#
#
# Mechanical properties :
#
#
# Convention : Reuss Voigt Hill
#
# Bulk Modulus (GPa) = 45.51598 58.21643 51.86620
# Shear Modulus (GPa) = 28.16749 33.31294 30.74021
#
# Velocity S-wave (km/s) = 3.68302 4.00532 3.84754
# Velocity P-wave (km/s) = 6.32498 7.03032 6.68696
#
# Compressibility (1/GPa) = 0.02197031
#
# Stress axis : x y z
#
# Youngs Moduli (GPa) = 146.31560 52.27115 71.73948
#
# Poissons Ratio (x) = 0.16250 0.09373
# Poissons Ratio (y) = 0.45487 0.32656
# Poissons Ratio (z) = 0.19116 0.23794
#
# Static dielectric constant tensor:
#      x y z
#    x 1.813120 0.000000 -0.007660 
#    y 0.000000 1.785580 0.000000 
#    z -0.007660 0.000000 1.785440 
# 
# From -- ./inp_files/67543.got.cif
#   From: 2010.05.17/outbox.cif.g08.bks.cpg/sg5_34_cif.got.tgz:67543.got - 2010.06.03 18:56:24.
