data_PCOD9121647
_publ_section_title
;
Structure prediction by ZEFSAII (Michael W. Deem and Ramdas Pophale) SiO2 
 PCOD9121647
Probable space group: C 2
;
_chemical_formula_sum "Si O2"
_cell_formula_units_Z 32
_cell_length_a 25.278429
_cell_length_b 5.574677
_cell_length_c 11.089879
_cell_angle_alpha 90.000000
_cell_angle_beta 88.894665
_cell_angle_gamma 90.000000
_cell_volume 1562.484709
_symmetry_space_group_name_H-M "C 2"
_symmetry_group_IT_number 5
_symmetry_cell_setting 'monoclinic'
loop_
_space_group_symop_operation_xyz
x,y,z
-x,y,-z
1/2+x,1/2+y,z
1/2-x,1/2+y,-z
loop_
_atom_site_type_symbol
_atom_site_label
_atom_site_fract_x
_atom_site_fract_y
_atom_site_fract_z
Si Si1 0.519431 0.314780 0.139073
Si Si2 0.307357 0.933005 0.410009
Si Si3 0.522424 0.813122 0.861875
Si Si4 0.854613 0.836578 0.857015
Si Si5 0.691246 0.834552 0.037517
Si Si6 0.706348 0.172833 0.362540
Si Si7 0.857543 0.206069 0.193315
Si Si8 0.217244 0.819916 0.792437
O O1 0.499900 0.567517 0.194123
O O2 0.582445 0.310583 0.142733
O O3 0.495450 0.067651 0.191993
O O4 0.500000 0.320202 0.000000
O O5 0.327142 0.031079 0.536286
O O6 0.292648 0.125351 0.308635
O O7 0.250675 0.811699 0.437078
O O8 0.347454 0.766093 0.333555
O O9 0.585500 0.783437 0.854698
O O10 0.500000 0.818263 0.000000
O O11 0.832676 0.587023 0.916004
O O12 0.828981 0.832312 0.724202
O O13 0.839917 0.095495 0.914954
O O14 0.749959 0.786040 0.085911
O O15 0.685188 0.831469 0.893722
O O16 0.742887 0.006350 0.276269
O O17 0.840429 0.930629 0.178517
#
# Coordination Sequence:
#
# PCOD9121647 Si02
#       8
#     4   4   4   4   4   4   4   4
#     4  10  19  35  60  87 121 154 207 262 323 379
#     4  11  21  40  59  90 125 172 216 263 314 384
#     4  10  21  39  59  87 121 166 207 262 316 395
#     4  11  22  39  65  97 121 172 214 274 320 392
#     4  11  23  38  59  92 139 163 207 253 333 401
#     4  10  21  39  63  89 122 168 224 259 311 380
#     4  11  26  36  61  93 129 175 210 266 336 398
#     4  10  23  36  58  87 125 165 206 256 312 385
#
# _framework density 20.480202999999999
#
# number of rings (size 3 to 8) (size 9 to 14) (size 15 to 20)
#    0.000    1.500    2.500    3.750    5.250    0.000 
#    0.000    0.000    0.000    0.750    0.000    0.000 
#    0.000    0.000    0.000    0.000    0.000    0.000 
#
# Total GULP energy -89228.260061 kJ/mol
# GULP energy per Si atom -5576.766254 kJ/mol
# Density = 2.043359 g / cm^3
# Si number density = 20.480203 Si / 1000 Ang^3
#
#
#
# Elastic Constant Matrix: (Units=GPa)
#
#
# Indices 1 2 3 4 5 6 
#
# 1 87.8638 23.9805 16.4607 0.0000 -3.9843 0.0000
# 2 23.9805 114.1801 7.7567 0.0000 -0.7224 0.0000
# 3 16.4607 7.7567 84.1750 0.0000 -7.5358 0.0000
# 4 0.0000 0.0000 0.0000 28.7316 0.0000 -0.2597
# 5 -3.9843 -0.7224 -7.5358 0.0000 12.7690 0.0000
# 6 0.0000 0.0000 0.0000 -0.2597 0.0000 29.9338
#
#
#
# Elastic Compliance Matrix: (Units=1/GPa)
#
#
# Indices 1 2 3 4 5 6 
#
# 1 0.012550 -0.002484 -0.001993 0.000000 0.002600 0.000000
# 2 -0.002484 0.009305 -0.000416 0.000000 -0.000494 0.000000
# 3 -0.001993 -0.000416 0.012934 0.000000 0.006988 0.000000
# 4 0.000000 0.000000 0.000000 0.034808 0.000000 0.000302
# 5 0.002600 -0.000494 0.006988 0.000000 0.083221 0.000000
# 6 0.000000 0.000000 0.000000 0.000302 0.000000 0.033410
#
#
# Mechanical properties :
#
#
# Convention : Reuss Voigt Hill
#
# Bulk Modulus (GPa) = 39.99413 42.51274 41.25344
# Shear Modulus (GPa) = 24.46813 30.15496 27.31154
#
# Velocity S-wave (km/s) = 3.46022 3.84134 3.65575
# Velocity P-wave (km/s) = 5.96111 6.36220 6.16492
#
# Compressibility (1/GPa) = 0.02500367
#
# Stress axis : x y z
#
# Youngs Moduli (GPa) = 79.67871 107.46991 77.31819
#
# Poissons Ratio (x) = 0.26696 0.15407
# Poissons Ratio (y) = 0.19793 0.03216
# Poissons Ratio (z) = 0.15877 0.04470
#
# Static dielectric constant tensor:
#      x y z
#    x 1.709010 0.000000 -0.014040 
#    y 0.000000 1.898870 0.000000 
#    z -0.014040 0.000000 1.742100 
# 
# From -- ./inp_files/46952.got.cif
#   From: 2010.05.17/outbox.cif.g08.bks.cpg/sg5_24_cif.got.tgz:46952.got - 2010.06.03 18:56:24.
