data_PCOD9121833
_publ_section_title
;
Structure prediction by ZEFSAII (Michael W. Deem and Ramdas Pophale) SiO2 
 PCOD9121833
Probable space group: C 2
;
_chemical_formula_sum "Si O2"
_cell_formula_units_Z 16
_cell_length_a 10.886483
_cell_length_b 10.886497
_cell_length_c 8.102921
_cell_angle_alpha 90.000000
_cell_angle_beta 43.068077
_cell_angle_gamma 90.000000
_cell_volume 655.772787
_symmetry_space_group_name_H-M "C 2"
_symmetry_group_IT_number 5
_symmetry_cell_setting 'monoclinic'
loop_
_space_group_symop_operation_xyz
x,y,z
-x,y,-z
1/2+x,1/2+y,z
1/2-x,1/2+y,-z
loop_
_atom_site_type_symbol
_atom_site_label
_atom_site_fract_x
_atom_site_fract_y
_atom_site_fract_z
Si Si1 0.723135 0.349770 0.463789
Si Si2 0.500000 0.548325 0.500000
Si Si3 0.685460 0.464894 0.859461
Si Si4 0.000000 0.648366 0.500000
Si Si5 0.084615 0.282537 0.238402
O O1 0.655472 0.464054 0.422412
O O2 0.684616 0.386656 0.689647
O O3 0.605975 0.233668 0.524122
O O4 0.934924 0.319196 0.253300
O O5 0.584271 0.637110 0.275696
O O6 0.731141 0.359694 0.952287
O O7 0.844800 0.561907 0.724590
O O8 0.500000 0.534197 0.000000
O O9 0.000000 0.323763 0.500000
#
# Coordination Sequence:
#
# PCOD9121833 Si02
#       5
#     4   2   4   2   4
#     4  10  19  36  63  81 113 150 193 228 290 338
#     4   9  17  32  62  82 103 157 186 230 282 337
#     4  11  22  39  59  87 118 151 190 238 287 336
#     4  11  21  40  62  84 113 159 184 240 286 337
#     4   8  17  32  56  80 108 148 182 224 281 330
#
# _framework density 24.398696000000001
#
# number of rings (size 3 to 8) (size 9 to 14) (size 15 to 20)
#    0.750    1.500    3.750    1.500    0.000    0.000 
#    9.000    0.000    0.000    0.000    0.000    0.000 
#    0.000    0.000    0.000    0.000    0.000    0.000 
#
# Total GULP energy -44571.807218 kJ/mol
# GULP energy per Si atom -5571.475902 kJ/mol
# Density = 2.434316 g / cm^3
# Si number density = 24.398696 Si / 1000 Ang^3
#
#
#
# Elastic Constant Matrix: (Units=GPa)
#
#
# Indices 1 2 3 4 5 6 
#
# 1 169.2484 71.4342 35.1704 0.0000 -57.8522 0.0000
# 2 71.4342 152.1660 17.3552 0.0000 -37.1852 0.0000
# 3 35.1704 17.3552 48.2503 0.0000 -31.6215 0.0000
# 4 0.0000 0.0000 0.0000 6.4436 0.0000 -10.9201
# 5 -57.8522 -37.1852 -31.6215 0.0000 52.6355 0.0000
# 6 0.0000 0.0000 0.0000 -10.9201 0.0000 27.3465
#
#
#
# Elastic Compliance Matrix: (Units=1/GPa)
#
#
# Indices 1 2 3 4 5 6 
#
# 1 0.010188 -0.002496 -0.000570 0.000000 0.009092 0.000000
# 2 -0.002496 0.008608 0.001502 0.000000 0.004241 0.000000
# 3 -0.000570 0.001502 0.034448 0.000000 0.021130 0.000000
# 4 0.000000 0.000000 0.000000 0.480092 0.000000 0.191712
# 5 0.009092 0.004241 0.021130 0.000000 0.044682 0.000000
# 6 0.000000 0.000000 0.000000 0.191712 0.000000 0.113123
#
#
# Mechanical properties :
#
#
# Convention : Reuss Voigt Hill
#
# Bulk Modulus (GPa) = 19.95293 68.62047 44.28670
# Shear Modulus (GPa) = 7.03259 33.66545 20.34902
#
# Velocity S-wave (km/s) = 1.69959 3.71860 2.89107
# Velocity P-wave (km/s) = 3.47090 6.82811 5.41619
#
# Compressibility (1/GPa) = 0.05011794
#
# Stress axis : x y z
#
# Youngs Moduli (GPa) = 98.15183 116.16452 29.02901
#
# Poissons Ratio (x) = 0.28994 0.01654
# Poissons Ratio (y) = 0.24498 -0.04361
# Poissons Ratio (z) = 0.05592 -0.17450
#
# Static dielectric constant tensor:
#      x y z
#    x 1.958910 0.000000 -0.043760 
#    y 0.000000 1.973890 0.000000 
#    z -0.043760 0.000000 2.201240 
# 
# From -- ./inp_files/35303.got.cif
#   From: 2010.05.17/outbox.cif.g08.bks.cpg/sg5_18_cif.got.tgz:35303.got - 2010.06.03 18:56:24.
