data_PCOD9121997
_publ_section_title
;
Structure prediction by ZEFSAII (Michael W. Deem and Ramdas Pophale) SiO2 
 PCOD9121997
Probable space group: C 2
;
_chemical_formula_sum "Si O2"
_cell_formula_units_Z 30
_cell_length_a 8.399083
_cell_length_b 16.327210
_cell_length_c 9.212512
_cell_angle_alpha 90.000000
_cell_angle_beta 84.270076
_cell_angle_gamma 90.000000
_cell_volume 1257.032638
_symmetry_space_group_name_H-M "C 2"
_symmetry_group_IT_number 5
_symmetry_cell_setting 'monoclinic'
loop_
_space_group_symop_operation_xyz
x,y,z
-x,y,-z
1/2+x,1/2+y,z
1/2-x,1/2+y,-z
loop_
_atom_site_type_symbol
_atom_site_label
_atom_site_fract_x
_atom_site_fract_y
_atom_site_fract_z
Si Si1 0.671554 0.422840 0.223469
Si Si2 0.500000 0.619650 0.500000
Si Si3 0.679308 0.014266 0.528669
Si Si4 0.456032 0.591523 0.830790
Si Si5 0.833221 0.320578 0.958176
Si Si6 0.032892 0.767462 0.650900
Si Si7 0.358337 0.857876 0.629747
Si Si8 0.876929 0.666103 0.109255
O O1 0.800480 0.460493 0.325023
O O2 0.541540 0.493881 0.200936
O O3 0.576944 0.346190 0.304739
O O4 0.757653 0.387437 0.072718
O O5 0.327360 0.575591 0.522188
O O6 0.514718 0.642718 0.678778
O O7 0.500000 0.042071 0.500000
O O8 0.711873 0.945776 0.404217
O O9 0.269387 0.611086 0.841747
O O10 0.500000 0.604443 0.000000
O O11 0.886838 0.355330 0.797815
O O12 0.700855 0.249267 0.950612
O O13 0.000000 0.284691 0.000000
O O14 0.218346 0.792384 0.625779
O O15 0.016964 0.698221 0.769908
O O16 0.000000 0.731742 0.500000
O O17 0.500000 0.840903 0.500000
O O18 0.000000 0.618778 0.000000
#
# Coordination Sequence:
#
# PCOD9121997 Si02
#       8
#     4   2   4   4   4   4   4   4
#     4  11  23  41  73 111 138 188 258 299 371 449
#     4  10  24  48  70 104 144 202 258 294 368 476
#     4  10  19  37  65 102 153 176 231 320 372 417
#     4  11  27  49  74 105 153 200 242 312 389 443
#     4  11  23  38  67  97 138 179 240 298 358 436
#     4  11  22  42  74 102 140 192 242 311 368 436
#     4  10  20  32  56  96 137 171 222 297 360 413
#     4  11  25  49  68 100 147 190 247 298 370 465
#
# _framework density 23.865727
#
# number of rings (size 3 to 8) (size 9 to 14) (size 15 to 20)
#    0.000    1.333    2.667    3.600    6.533    0.533 
#   12.000    0.667    0.000    0.000    0.000    0.000 
#    0.000    0.000    0.000    0.000    0.000    0.000 
#
# Total GULP energy -83549.133471 kJ/mol
# GULP energy per Si atom -5569.942231 kJ/mol
# Density = 2.381141 g / cm^3
# Si number density = 23.865727 Si / 1000 Ang^3
#
#
#
# Elastic Constant Matrix: (Units=GPa)
#
#
# Indices 1 2 3 4 5 6 
#
# 1 75.0754 -0.4569 64.9774 0.0000 -9.1396 0.0000
# 2 -0.4569 42.2247 28.5121 0.0000 4.9803 0.0000
# 3 64.9774 28.5121 181.2165 0.0000 0.6064 0.0000
# 4 0.0000 0.0000 0.0000 32.5328 0.0000 17.2181
# 5 -9.1396 4.9803 0.6064 0.0000 54.9987 0.0000
# 6 0.0000 0.0000 0.0000 17.2181 0.0000 28.4251
#
#
#
# Elastic Compliance Matrix: (Units=1/GPa)
#
#
# Indices 1 2 3 4 5 6 
#
# 1 0.021015 0.005548 -0.008419 0.000000 0.003083 0.000000
# 2 0.005548 0.028271 -0.006432 0.000000 -0.001567 0.000000
# 3 -0.008419 -0.006432 0.009552 0.000000 -0.000922 0.000000
# 4 0.000000 0.000000 0.000000 0.045242 0.000000 -0.027405
# 5 0.003083 -0.001567 -0.000922 0.000000 0.018847 0.000000
# 6 0.000000 0.000000 0.000000 -0.027405 0.000000 0.051780
#
#
# Mechanical properties :
#
#
# Convention : Reuss Voigt Hill
#
# Bulk Modulus (GPa) = 24.85502 53.84243 39.34873
# Shear Modulus (GPa) = 24.18687 36.89025 30.53856
#
# Velocity S-wave (km/s) = 3.18694 3.93586 3.58103
# Velocity P-wave (km/s) = 4.89686 6.57755 5.79842
#
# Compressibility (1/GPa) = 0.04023331
#
# Stress axis : x y z
#
# Youngs Moduli (GPa) = 47.58460 35.37190 104.69066
#
# Poissons Ratio (x) = -0.19626 0.88134
# Poissons Ratio (y) = -0.26402 0.67340
# Poissons Ratio (z) = 0.40059 0.22752
#
# Static dielectric constant tensor:
#      x y z
#    x 1.853510 0.000000 0.014250 
#    y 0.000000 1.932960 0.000000 
#    z 0.014250 0.000000 1.955080 
# 
# From -- ./inp_files/16798.got.cif
#   From: 2010.05.17/outbox.cif.g08.bks.cpg/sg5_9_cif.got.tgz:16798.got - 2010.06.03 18:56:24.
