data_PCOD9121942
_publ_section_title
;
Structure prediction by ZEFSAII (Michael W. Deem and Ramdas Pophale) SiO2 
 PCOD9121942
Probable space group: C 2
;
_chemical_formula_sum "Si O2"
_cell_formula_units_Z 30
_cell_length_a 8.177827
_cell_length_b 13.061306
_cell_length_c 15.223002
_cell_angle_alpha 90.000000
_cell_angle_beta 124.999391
_cell_angle_gamma 90.000000
_cell_volume 1331.964283
_symmetry_space_group_name_H-M "C 2"
_symmetry_group_IT_number 5
_symmetry_cell_setting 'monoclinic'
loop_
_space_group_symop_operation_xyz
x,y,z
-x,y,-z
1/2+x,1/2+y,z
1/2-x,1/2+y,-z
loop_
_atom_site_type_symbol
_atom_site_label
_atom_site_fract_x
_atom_site_fract_y
_atom_site_fract_z
Si Si1 0.543147 0.390390 0.810232
Si Si2 0.815015 0.772380 0.873423
Si Si3 0.284854 0.043490 0.796354
Si Si4 0.399915 0.876237 0.047495
Si Si5 0.500000 0.662921 0.500000
Si Si6 0.833128 0.312092 0.569679
Si Si7 0.884339 0.541887 0.621639
Si Si8 0.423658 0.250815 0.344073
O O1 0.352638 0.349894 0.804067
O O2 0.576002 0.490395 0.760552
O O3 0.605043 0.300393 0.760832
O O4 0.692663 0.408215 0.938760
O O5 0.792744 0.658254 0.832231
O O6 0.634221 0.813776 0.875560
O O7 0.000000 0.770533 0.000000
O O8 0.335466 0.038291 0.709867
O O9 0.458709 0.972556 0.891448
O O10 0.500000 0.811355 0.000000
O O11 0.507611 0.739913 0.585224
O O12 0.678637 0.590903 0.524838
O O13 0.905886 0.428648 0.591995
O O14 0.637025 0.295068 0.446486
O O15 0.744760 0.282334 0.637837
O O16 0.050056 0.627996 0.653472
#
# Coordination Sequence:
#
# PCOD9121942 Si02
#       8
#     4   4   4   4   2   4   4   4
#     4  10  19  37  61  90 117 156 198 242 294 356
#     4  10  20  38  62  85 120 159 195 246 300 350
#     4  11  21  38  62  89 121 159 198 244 302 351
#     4   9  21  39  59  88 123 154 199 247 293 351
#     4  10  24  40  60  92 118 154 206 246 298 364
#     4  10  22  40  62  84 124 155 194 255 301 350
#     4  11  22  39  64  89 120 158 201 245 302 356
#     4  10  20  39  62  90 118 158 197 243 303 357
#
# _framework density 22.523126000000001
#
# number of rings (size 3 to 8) (size 9 to 14) (size 15 to 20)
#    0.000    1.867    2.667    2.000    0.000    3.200 
#    0.000    8.667    0.000    0.000    0.000    0.000 
#    0.000    0.000    0.000    0.000    0.000    0.000 
#
# Total GULP energy -83674.765706 kJ/mol
# GULP energy per Si atom -5578.317714 kJ/mol
# Density = 2.247186 g / cm^3
# Si number density = 22.523126 Si / 1000 Ang^3
#
#
#
# Elastic Constant Matrix: (Units=GPa)
#
#
# Indices 1 2 3 4 5 6 
#
# 1 70.3392 34.6455 15.9074 0.0000 -22.7743 0.0000
# 2 34.6455 116.0389 38.5302 0.0000 -5.9956 0.0000
# 3 15.9074 38.5302 77.4478 0.0000 -12.4150 0.0000
# 4 0.0000 0.0000 0.0000 32.9609 0.0000 -18.9296
# 5 -22.7743 -5.9956 -12.4150 0.0000 29.7272 0.0000
# 6 0.0000 0.0000 0.0000 -18.9296 0.0000 17.7757
#
#
#
# Elastic Compliance Matrix: (Units=1/GPa)
#
#
# Indices 1 2 3 4 5 6 
#
# 1 0.022284 -0.006180 0.001108 0.000000 0.016288 0.000000
# 2 -0.006180 0.012037 -0.005454 0.000000 -0.004584 0.000000
# 3 0.001108 -0.005454 0.016459 0.000000 0.006623 0.000000
# 4 0.000000 0.000000 0.000000 0.078110 0.000000 0.083180
# 5 0.016288 -0.004584 0.006623 0.000000 0.047959 0.000000
# 6 0.000000 0.000000 0.000000 0.083180 0.000000 0.144836
#
#
# Mechanical properties :
#
#
# Convention : Reuss Voigt Hill
#
# Bulk Modulus (GPa) = 33.63645 49.11022 41.37334
# Shear Modulus (GPa) = 14.17854 27.74226 20.96040
#
# Velocity S-wave (km/s) = 2.51173 3.51340 3.05391
# Velocity P-wave (km/s) = 4.83511 6.18953 5.55377
#
# Compressibility (1/GPa) = 0.02972965
#
# Stress axis : x y z
#
# Youngs Moduli (GPa) = 44.87571 83.07746 60.75587
#
# Poissons Ratio (x) = 0.51339 -0.06735
# Poissons Ratio (y) = 0.27732 0.33136
# Poissons Ratio (z) = -0.04974 0.45310
#
# Static dielectric constant tensor:
#      x y z
#    x 1.884610 0.000000 0.046290 
#    y 0.000000 1.823260 0.000000 
#    z 0.046290 0.000000 1.947090 
# 
# From -- ./inp_files/50537.got.cif
#   From: 2010.05.17/outbox.cif.g08.bks.cpg/sg5_26_cif.got.tgz:50537.got - 2010.06.03 18:56:24.
