data_PCOD9121306
_publ_section_title
;
Structure prediction by ZEFSAII (Michael W. Deem and Ramdas Pophale) SiO2 
 PCOD9121306
Probable space group: C 2
;
_chemical_formula_sum "Si O2"
_cell_formula_units_Z 32
_cell_length_a 14.984071
_cell_length_b 5.042463
_cell_length_c 17.962313
_cell_angle_alpha 90.000000
_cell_angle_beta 82.043810
_cell_angle_gamma 90.000000
_cell_volume 1344.107852
_symmetry_space_group_name_H-M "C 2"
_symmetry_group_IT_number 5
_symmetry_cell_setting 'monoclinic'
loop_
_space_group_symop_operation_xyz
x,y,z
-x,y,-z
1/2+x,1/2+y,z
1/2-x,1/2+y,-z
loop_
_atom_site_type_symbol
_atom_site_label
_atom_site_fract_x
_atom_site_fract_y
_atom_site_fract_z
Si Si1 0.780262 0.359050 0.160965
Si Si2 0.694566 0.876619 0.525007
Si Si3 0.664062 0.526528 0.305408
Si Si4 0.581242 0.015643 0.675496
Si Si5 0.105680 0.524719 0.391909
Si Si6 0.020647 0.015303 0.765108
Si Si7 0.108841 0.859801 0.893985
Si Si8 0.194398 0.979815 0.026887
O O1 0.747400 0.438665 0.245951
O O2 0.857469 0.561644 0.123735
O O3 0.814318 0.060206 0.147518
O O4 0.697526 0.406158 0.112811
O O5 0.727320 0.576887 0.511393
O O6 0.662551 0.946493 0.611375
O O7 0.614802 0.938891 0.475771
O O8 0.667224 0.820192 0.337753
O O9 0.577239 0.509249 0.260772
O O10 0.641531 0.319233 0.373187
O O11 0.492846 0.004381 0.632288
O O12 0.561550 0.801201 0.741812
O O13 0.580941 0.302198 0.713159
O O14 0.025626 0.935424 0.851004
O O15 0.111218 0.920805 0.981767
O O16 0.272879 0.782041 0.986008
#
# Coordination Sequence:
#
# PCOD9121306 Si02
#       8
#     4   4   4   4   4   4   4   4
#     4  10  19  32  53  77 104 138 174 214 257 304
#     4  12  25  38  57  84 108 130 170 224 259 294
#     4  10  21  36  55  79 105 136 175 214 254 306
#     4  10  22  40  57  74 105 144 172 202 258 322
#     4  10  22  40  57  74 105 144 172 202 258 322
#     4  10  21  36  55  79 105 136 175 214 254 306
#     4  10  19  32  53  77 104 138 174 214 257 304
#     4   8  16  30  47  72 103 136 172 206 252 310
#
# _framework density 23.807615999999999
#
# number of rings (size 3 to 8) (size 9 to 14) (size 15 to 20)
#    0.000    2.000    0.000    3.375    0.000    6.000 
#    0.000    5.625    0.000    0.000    0.000   15.750 
#    0.000    0.000    0.000    0.000    0.000    0.000 
#
# Total GULP energy -89492.131434 kJ/mol
# GULP energy per Si atom -5593.258215 kJ/mol
# Density = 2.375343 g / cm^3
# Si number density = 23.807616 Si / 1000 Ang^3
#
#
#
# Elastic Constant Matrix: (Units=GPa)
#
#
# Indices 1 2 3 4 5 6 
#
# 1 59.0101 6.3018 6.5016 0.0000 19.1725 0.0000
# 2 6.3018 90.1069 -3.5184 0.0000 4.3061 0.0000
# 3 6.5016 -3.5184 99.6842 0.0000 28.4524 0.0000
# 4 0.0000 0.0000 0.0000 27.9888 0.0000 15.1698
# 5 19.1725 4.3061 28.4524 0.0000 47.0666 0.0000
# 6 0.0000 0.0000 0.0000 15.1698 0.0000 20.5259
#
#
#
# Elastic Compliance Matrix: (Units=1/GPa)
#
#
# Indices 1 2 3 4 5 6 
#
# 1 0.019727 -0.000922 0.001149 0.000000 -0.008646 0.000000
# 2 -0.000922 0.011246 0.000778 0.000000 -0.001124 0.000000
# 3 0.001149 0.000778 0.012252 0.000000 -0.007946 0.000000
# 4 0.000000 0.000000 0.000000 0.059604 0.000000 -0.044050
# 5 -0.008646 -0.001124 -0.007946 0.000000 0.029674 0.000000
# 6 0.000000 0.000000 0.000000 -0.044050 0.000000 0.081275
#
#
# Mechanical properties :
#
#
# Convention : Reuss Voigt Hill
#
# Bulk Modulus (GPa) = 22.10668 29.70790 25.90729
# Shear Modulus (GPa) = 22.04126 35.08402 28.56264
#
# Velocity S-wave (km/s) = 3.04601 3.84298 3.46747
# Velocity P-wave (km/s) = 4.65581 5.67421 5.19005
#
# Compressibility (1/GPa) = 0.04523520
#
# Stress axis : x y z
#
# Youngs Moduli (GPa) = 50.69149 88.91689 81.61865
#
# Poissons Ratio (x) = 0.08195 -0.09374
# Poissons Ratio (y) = 0.04672 -0.06348
# Poissons Ratio (z) = -0.05822 -0.06916
#
# Static dielectric constant tensor:
#      x y z
#    x 1.953040 0.000000 0.087380 
#    y 0.000000 1.799160 0.000000 
#    z 0.087380 0.000000 1.916960 
# 
# From -- ./inp_files/61218.got.cif
#   From: 2010.05.17/outbox.cif.g08.bks.cpg/sg5_31_cif.got.tgz:61218.got - 2010.06.03 18:56:24.
