data_PCOD9121117
_publ_section_title
;
Structure prediction by ZEFSAII (Michael W. Deem and Ramdas Pophale) SiO2 
 PCOD9121117
Probable space group: C 2
;
_chemical_formula_sum "Si O2"
_cell_formula_units_Z 28
_cell_length_a 18.866975
_cell_length_b 15.962668
_cell_length_c 8.149993
_cell_angle_alpha 90.000000
_cell_angle_beta 31.710929
_cell_angle_gamma 90.000000
_cell_volume 1290.174290
_symmetry_space_group_name_H-M "C 2"
_symmetry_group_IT_number 5
_symmetry_cell_setting 'monoclinic'
loop_
_space_group_symop_operation_xyz
x,y,z
-x,y,-z
1/2+x,1/2+y,z
1/2-x,1/2+y,-z
loop_
_atom_site_type_symbol
_atom_site_label
_atom_site_fract_x
_atom_site_fract_y
_atom_site_fract_z
Si Si1 0.875122 0.194980 0.852846
Si Si2 0.746171 0.529323 0.823092
Si Si3 0.804217 0.016279 0.687196
Si Si4 0.166527 0.736724 0.981716
Si Si5 0.418943 0.694350 0.323769
Si Si6 0.466654 0.397151 0.876597
Si Si7 0.969105 0.569762 0.872512
O O1 0.761753 0.231431 0.956157
O O2 0.000000 0.156832 0.500000
O O3 0.972263 0.247054 0.780541
O O4 0.808073 0.123786 0.095935
O O5 0.900797 0.529091 0.466453
O O6 0.724499 0.519282 0.061525
O O7 0.655901 0.463347 0.902861
O O8 0.873410 0.101812 0.480600
O O9 0.660948 0.010346 0.879784
O O10 0.903816 0.941708 0.454056
O O11 0.275752 0.740486 0.617336
O O12 0.073038 0.816062 0.148889
O O13 0.079447 0.652463 0.131394
O O14 0.500000 0.681801 0.000000
O O15 0.500000 0.377688 0.000000
O O16 0.000000 0.592220 0.000000
#
# Coordination Sequence:
#
# PCOD9121117 Si02
#       7
#     4   4   4   4   4   4   4
#     4  10  18  39  69  96 134 175 231 277 330 412
#     4  12  22  42  69  99 135 179 234 284 338 408
#     4  11  22  42  65 101 133 180 235 282 338 414
#     4  10  24  44  64  99 142 177 226 285 346 412
#     4  10  20  39  71 101 133 181 236 282 336 409
#     4  12  25  45  69  99 141 179 228 285 352 414
#     4  11  24  41  68 100 135 179 235 288 337 399
#
# _framework density 21.702494000000002
#
# number of rings (size 3 to 8) (size 9 to 14) (size 15 to 20)
#    0.000    1.143    5.714    2.571    4.000    0.000 
#    5.143    6.429    0.000    0.000    0.000    0.000 
#    0.000    0.000    0.000    0.000    0.000    0.000 
#
# Total GULP energy -78092.076780 kJ/mol
# GULP energy per Si atom -5578.005484 kJ/mol
# Density = 2.165310 g / cm^3
# Si number density = 21.702494 Si / 1000 Ang^3
#
#
#
# Elastic Constant Matrix: (Units=GPa)
#
#
# Indices 1 2 3 4 5 6 
#
# 1 114.2567 23.3761 45.1909 0.0000 -31.3515 0.0000
# 2 23.3761 67.8380 32.9628 0.0000 -28.4128 0.0000
# 3 45.1909 32.9628 120.8985 0.0000 -26.4683 0.0000
# 4 0.0000 0.0000 0.0000 19.6774 0.0000 -10.4301
# 5 -31.3515 -28.4128 -26.4683 0.0000 39.4348 0.0000
# 6 0.0000 0.0000 0.0000 -10.4301 0.0000 23.3741
#
#
#
# Elastic Compliance Matrix: (Units=1/GPa)
#
#
# Indices 1 2 3 4 5 6 
#
# 1 0.011970 0.000649 -0.002890 0.000000 0.008044 0.000000
# 2 0.000649 0.022016 -0.003117 0.000000 0.014286 0.000000
# 3 -0.002890 -0.003117 0.010793 0.000000 0.002700 0.000000
# 4 0.000000 0.000000 0.000000 0.066564 0.000000 0.029702
# 5 0.008044 0.014286 0.002700 0.000000 0.043858 0.000000
# 6 0.000000 0.000000 0.000000 0.029702 0.000000 0.056037
#
#
# Mechanical properties :
#
#
# Convention : Reuss Voigt Hill
#
# Bulk Modulus (GPa) = 29.35955 56.22808 42.79381
# Shear Modulus (GPa) = 21.43094 29.92817 25.67956
#
# Velocity S-wave (km/s) = 3.14584 3.71754 3.44358
# Velocity P-wave (km/s) = 5.17230 6.66271 5.96424
#
# Compressibility (1/GPa) = 0.03406047
#
# Stress axis : x y z
#
# Youngs Moduli (GPa) = 83.54394 45.42253 92.65435
#
# Poissons Ratio (x) = -0.02946 0.26777
# Poissons Ratio (y) = -0.05419 0.28885
# Poissons Ratio (z) = 0.24144 0.14160
#
# Static dielectric constant tensor:
#      x y z
#    x 1.928800 0.000000 0.031420 
#    y 0.000000 1.821250 0.000000 
#    z 0.031420 0.000000 1.798510 
# 
# From -- ./inp_files/30007.got.cif
#   From: 2010.05.17/outbox.cif.g08.bks.cpg/sg5_16_cif.got.tgz:30007.got - 2010.06.03 18:56:24.
