data_PCOD9121606
_publ_section_title
;
Structure prediction by ZEFSAII (Michael W. Deem and Ramdas Pophale) SiO2 
 PCOD9121606
Probable space group: C 2
;
_chemical_formula_sum "Si O2"
_cell_formula_units_Z 18
_cell_length_a 12.018602
_cell_length_b 13.085104
_cell_length_c 11.101338
_cell_angle_alpha 90.000000
_cell_angle_beta 29.109934
_cell_angle_gamma 90.000000
_cell_volume 849.332182
_symmetry_space_group_name_H-M "C 2"
_symmetry_group_IT_number 5
_symmetry_cell_setting 'monoclinic'
loop_
_space_group_symop_operation_xyz
x,y,z
-x,y,-z
1/2+x,1/2+y,z
1/2-x,1/2+y,-z
loop_
_atom_site_type_symbol
_atom_site_label
_atom_site_fract_x
_atom_site_fract_y
_atom_site_fract_z
Si Si1 0.235082 0.452910 0.738743
Si Si2 0.631392 0.244742 0.255885
Si Si3 0.673898 0.380228 0.604279
Si Si4 0.000000 0.415614 0.500000
Si Si5 0.848512 0.043826 0.024915
O O1 0.500000 0.494698 0.500000
O O2 0.251813 0.347881 0.802516
O O3 0.197181 0.421678 0.635631
O O4 0.000000 0.508691 0.000000
O O5 0.500000 0.203013 0.500000
O O6 0.452862 0.280866 0.325121
O O7 0.788128 0.159029 0.048156
O O8 0.814375 0.359016 0.593004
O O9 0.489529 0.469402 0.806293
O O10 0.125502 0.484866 0.281988
O O11 0.000000 0.056376 0.000000
#
# Coordination Sequence:
#
# PCOD9121606 Si02
#       5
#     4   4   4   2   4
#     4   9  19  34  58  91 121 158 207 258 310 360
#     4   9  18  36  60  94 119 157 212 262 304 362
#     4   9  21  34  57  96 124 163 198 261 323 364
#     4  10  20  34  56  88 132 154 202 256 312 382
#     4  10  19  35  57  94 121 155 209 259 307 365
#
# _framework density 21.193121999999999
#
# number of rings (size 3 to 8) (size 9 to 14) (size 15 to 20)
#    0.000    3.111    1.111    0.667    6.222    0.000 
#    0.000    0.000    0.000    0.000   92.444    0.000 
#    0.000    0.000    0.000    0.000    0.000    0.000 
#
# Total GULP energy -50103.010041 kJ/mol
# GULP energy per Si atom -5567.001116 kJ/mol
# Density = 2.114489 g / cm^3
# Si number density = 21.193122 Si / 1000 Ang^3
#
#
#
# Elastic Constant Matrix: (Units=GPa)
#
#
# Indices 1 2 3 4 5 6 
#
# 1 117.1847 34.3050 15.4762 -0.0026 -2.7184 0.0006
# 2 34.3050 40.7593 19.6432 0.0018 -1.0527 -0.0026
# 3 15.4762 19.6432 103.7978 -0.0054 -2.9316 -0.0005
# 4 -0.0026 0.0018 -0.0054 -4.6019 0.0035 0.2530
# 5 -2.7184 -1.0527 -2.9316 0.0035 24.0875 -0.0005
# 6 0.0006 -0.0026 -0.0005 0.2530 -0.0005 4.7593
#
#
#
# Elastic Compliance Matrix: (Units=1/GPa)
#
#
# Indices 1 2 3 4 5 6 
#
# 1 0.011344 -0.009597 0.000150 -0.000010 0.000879 -0.000006
# 2 -0.009597 0.035123 -0.005221 0.000026 -0.000183 0.000019
# 3 0.000150 -0.005221 0.010630 -0.000014 0.001082 -0.000001
# 4 -0.000010 0.000026 -0.000014 -0.216667 0.000030 0.011518
# 5 0.000879 -0.000183 0.001082 0.000030 0.041738 0.000003
# 6 -0.000006 0.000019 -0.000001 0.011518 0.000003 0.209501
#
#
# Mechanical properties :
#
#
# Convention : Reuss Voigt Hill
#
# Bulk Modulus (GPa) = 36.02247 44.51004 40.26625
# Shear Modulus (GPa) = 38.38495 17.67014 28.02755
#
# Velocity S-wave (km/s) = 4.26043 2.89064 3.64054
# Velocity P-wave (km/s) = 6.42152 5.67351 6.05907
#
# Compressibility (1/GPa) = 0.02776045
#
# Stress axis : x y z
#
# Youngs Moduli (GPa) = 88.15609 28.47156 94.06945
#
# Poissons Ratio (x) = 0.27323 -0.01408
# Poissons Ratio (y) = 0.84600 0.49115
# Poissons Ratio (z) = -0.01319 0.14865
#
# Static dielectric constant tensor:
#      x y z
#    x 1.782800 0.000000 -0.094770 
#    y 0.000000 1.754840 0.000000 
#    z -0.094770 0.000000 2.050000 
# 
# From -- ./inp_files/39023.got.cif
#   From: 2010.05.17/outbox.cif.g08.bks.cpg/sg5_20_cif.got.tgz:39023.got - 2010.06.03 18:56:24.
