data_PCOD9121664
_publ_section_title
;
Structure prediction by ZEFSAII (Michael W. Deem and Ramdas Pophale) SiO2 
 PCOD9121664
Probable space group: C 2
;
_chemical_formula_sum "Si O2"
_cell_formula_units_Z 20
_cell_length_a 22.663096
_cell_length_b 4.784225
_cell_length_c 7.022473
_cell_angle_alpha 90.000000
_cell_angle_beta 69.251540
_cell_angle_gamma 90.000000
_cell_volume 712.032381
_symmetry_space_group_name_H-M "C 2"
_symmetry_group_IT_number 5
_symmetry_cell_setting 'monoclinic'
loop_
_space_group_symop_operation_xyz
x,y,z
-x,y,-z
1/2+x,1/2+y,z
1/2-x,1/2+y,-z
loop_
_atom_site_type_symbol
_atom_site_label
_atom_site_fract_x
_atom_site_fract_y
_atom_site_fract_z
Si Si1 0.500000 0.412130 0.500000
Si Si2 0.596524 0.438283 0.663772
Si Si3 0.098091 0.509367 0.172781
Si Si4 0.726392 0.224587 0.409309
Si Si5 0.168480 0.043429 0.952640
Si Si6 0.000000 0.539851 0.000000
O O1 0.547721 0.590990 0.577606
O O2 0.550986 0.203160 0.347154
O O3 0.651675 0.271585 0.489655
O O4 0.635324 0.600768 0.782035
O O5 0.548246 0.232767 0.826633
O O6 0.142444 0.241059 0.150613
O O7 0.045876 0.377987 0.087071
O O8 0.145994 0.732342 0.023148
O O9 0.757844 0.515441 0.435605
O O10 0.759414 0.107092 0.182614
#
# Coordination Sequence:
#
# PCOD9121664 Si02
#       6
#     2   4   4   4   4   2
#     4  10  22  42  62  96 134 162 200 262 326 376
#     4   9  19  36  61  90 123 160 203 254 310 364
#     4  10  21  37  59  86 120 159 203 249 305 364
#     4  10  19  35  61  90 117 155 212 261 296 355
#     4  10  20  38  61  86 116 161 210 250 294 365
#     4   8  16  32  54  78 110 154 196 234 280 356
#
# _framework density 28.088609999999999
#
# number of rings (size 3 to 8) (size 9 to 14) (size 15 to 20)
#    0.000    2.400    0.000    3.600    0.000    5.600 
#    0.000   16.000    0.000    0.000    0.000    0.000 
#    0.000    0.000    0.000    0.000    0.000    0.000 
#
# Total GULP energy -55866.636128 kJ/mol
# GULP energy per Si atom -5586.663613 kJ/mol
# Density = 2.802468 g / cm^3
# Si number density = 28.088610 Si / 1000 Ang^3
#
#
#
# Elastic Constant Matrix: (Units=GPa)
#
#
# Indices 1 2 3 4 5 6 
#
# 1 181.0353 9.5739 35.8047 0.0000 -26.0927 0.0000
# 2 9.5739 84.4803 36.8002 0.0000 -27.6262 0.0000
# 3 35.8047 36.8002 175.8106 0.0000 -77.6501 0.0000
# 4 0.0000 0.0000 0.0000 53.7693 0.0000 -20.7625
# 5 -26.0927 -27.6262 -77.6501 0.0000 53.7134 0.0000
# 6 0.0000 0.0000 0.0000 -20.7625 0.0000 19.3212
#
#
#
# Elastic Compliance Matrix: (Units=1/GPa)
#
#
# Indices 1 2 3 4 5 6 
#
# 1 0.005950 0.000334 0.000196 0.000000 0.003345 0.000000
# 2 0.000334 0.014281 0.000715 0.000000 0.008541 0.000000
# 3 0.000196 0.000715 0.015775 0.000000 0.023268 0.000000
# 4 0.000000 0.000000 0.000000 0.031788 0.000000 0.034160
# 5 0.003345 0.008541 0.023268 0.000000 0.058272 0.000000
# 6 0.000000 0.000000 0.000000 0.034160 0.000000 0.088464
#
#
# Mechanical properties :
#
#
# Convention : Reuss Voigt Hill
#
# Bulk Modulus (GPa) = 25.97680 67.29821 46.63750
# Shear Modulus (GPa) = 22.23487 49.30394 35.76940
#
# Velocity S-wave (km/s) = 2.81659 4.19418 3.57241
# Velocity P-wave (km/s) = 4.45486 6.88956 5.80137
#
# Compressibility (1/GPa) = 0.03849589
#
# Stress axis : x y z
#
# Youngs Moduli (GPa) = 168.08082 70.02432 63.39081
#
# Poissons Ratio (x) = -0.02342 -0.01242
# Poissons Ratio (y) = -0.05620 -0.04532
# Poissons Ratio (z) = -0.03292 -0.05007
#
# Static dielectric constant tensor:
#      x y z
#    x 2.281470 0.000000 0.164500 
#    y 0.000000 2.036320 0.000000 
#    z 0.164500 0.000000 2.357200 
# 
# From -- ./inp_files/28160.got.cif
#   From: 2010.05.17/outbox.cif.g08.bks.cpg/sg5_15_cif.got.tgz:28160.got - 2010.06.03 18:56:24.
