data_PCOD9121085
_publ_section_title
;
Structure prediction by ZEFSAII (Michael W. Deem and Ramdas Pophale) SiO2 
 PCOD9121085
Probable space group: C 2
;
_chemical_formula_sum "Si O2"
_cell_formula_units_Z 22
_cell_length_a 21.267394
_cell_length_b 8.459365
_cell_length_c 5.942563
_cell_angle_alpha 90.000000
_cell_angle_beta 72.602461
_cell_angle_gamma 90.000000
_cell_volume 1020.209699
_symmetry_space_group_name_H-M "C 2"
_symmetry_group_IT_number 5
_symmetry_cell_setting 'monoclinic'
loop_
_space_group_symop_operation_xyz
x,y,z
-x,y,-z
1/2+x,1/2+y,z
1/2-x,1/2+y,-z
loop_
_atom_site_type_symbol
_atom_site_label
_atom_site_fract_x
_atom_site_fract_y
_atom_site_fract_z
Si Si1 0.291558 0.497880 0.807223
Si Si2 0.000000 0.933362 0.500000
Si Si3 0.887617 0.921703 0.321425
Si Si4 0.163868 0.688563 0.993873
Si Si5 0.409670 0.649364 0.911837
Si Si6 0.035038 0.500811 0.211182
O O1 0.329161 0.495328 0.530830
O O2 0.216890 0.553969 0.883843
O O3 0.334357 0.616852 0.917725
O O4 0.302634 0.321278 0.886490
O O5 0.952345 0.041830 0.698671
O O6 0.948873 0.847858 0.392421
O O7 0.857164 0.786675 0.201761
O O8 0.916620 0.067368 0.146396
O O9 0.096766 0.619358 0.165168
O O10 0.434542 0.825984 0.862774
O O11 0.000000 0.498148 0.500000
O O12 0.000000 0.535294 0.000000
#
# Coordination Sequence:
#
# PCOD9121085 Si02
#       6
#     4   2   4   4   4   4
#     4  10  24  46  73  98 139 183 239 302 362 427
#     4  10  18  38  68  98 144 176 230 286 346 430
#     4  10  23  40  69 106 133 186 236 293 358 430
#     4  11  26  47  68 103 139 185 240 299 361 431
#     4  10  21  43  69 105 136 185 237 286 356 432
#     4  12  28  47  72 107 151 192 240 298 362 429
#
# _framework density 21.564191999999998
#
# number of rings (size 3 to 8) (size 9 to 14) (size 15 to 20)
#    0.000    1.455    0.909    2.727    5.091    8.727 
#    6.545    0.000    0.000    0.000    0.000    0.000 
#    0.000    0.000    0.000    0.000    0.000    0.000 
#
# Total GULP energy -61420.475698 kJ/mol
# GULP energy per Si atom -5583.679609 kJ/mol
# Density = 2.151511 g / cm^3
# Si number density = 21.564192 Si / 1000 Ang^3
#
#
#
# Elastic Constant Matrix: (Units=GPa)
#
#
# Indices 1 2 3 4 5 6 
#
# 1 101.0875 55.6285 63.5008 0.0000 -18.7057 0.0000
# 2 55.6285 110.8178 52.9217 0.0000 0.8529 0.0000
# 3 63.5008 52.9217 131.3333 0.0000 -5.5834 0.0000
# 4 0.0000 0.0000 0.0000 5.2604 0.0000 -28.6597
# 5 -18.7057 0.8529 -5.5834 0.0000 23.6637 0.0000
# 6 0.0000 0.0000 0.0000 -28.6597 0.0000 9.5955
#
#
#
# Elastic Compliance Matrix: (Units=1/GPa)
#
#
# Indices 1 2 3 4 5 6 
#
# 1 0.020904 -0.007547 -0.006417 0.000000 0.015282 0.000000
# 2 -0.007547 0.013950 -0.002270 0.000000 -0.007004 0.000000
# 3 -0.006417 -0.002270 0.011535 0.000000 -0.002269 0.000000
# 4 0.000000 0.000000 0.000000 -0.012447 0.000000 -0.037177
# 5 0.015282 -0.007004 -0.002269 0.000000 0.054056 0.000000
# 6 0.000000 0.000000 0.000000 -0.037177 0.000000 -0.006824
#
#
# Mechanical properties :
#
#
# Convention : Reuss Voigt Hill
#
# Bulk Modulus (GPa) = 71.82752 76.37118 74.09935
# Shear Modulus (GPa) = 42.27153 19.11642 30.69397
#
# Velocity S-wave (km/s) = 4.43229 2.98063 3.77686
# Velocity P-wave (km/s) = 7.71846 6.88027 7.31139
#
# Compressibility (1/GPa) = 0.01392224
#
# Stress axis : x y z
#
# Youngs Moduli (GPa) = 47.83748 71.68343 86.69268
#
# Poissons Ratio (x) = 0.54098 0.55627
# Poissons Ratio (y) = 0.36102 0.19681
# Poissons Ratio (z) = 0.30695 0.16273
#
# Static dielectric constant tensor:
#      x y z
#    x 1.829010 0.000000 0.035370 
#    y 0.000000 1.787780 0.000000 
#    z 0.035370 0.000000 1.821120 
# 
# From -- ./inp_files/9234.got.cif
#   From: 2010.05.17/outbox.cif.g08.bks.cpg/sg5_5_cif.got.tgz:9234.got - 2010.06.03 18:56:24.
