data_PCOD9121281
_publ_section_title
;
Structure prediction by ZEFSAII (Michael W. Deem and Ramdas Pophale) SiO2 
 PCOD9121281
Probable space group: C 2
;
_chemical_formula_sum "Si O2"
_cell_formula_units_Z 30
_cell_length_a 22.903958
_cell_length_b 14.596630
_cell_length_c 5.602052
_cell_angle_alpha 90.000000
_cell_angle_beta 50.627553
_cell_angle_gamma 90.000000
_cell_volume 1447.809831
_symmetry_space_group_name_H-M "C 2"
_symmetry_group_IT_number 5
_symmetry_cell_setting 'monoclinic'
loop_
_space_group_symop_operation_xyz
x,y,z
-x,y,-z
1/2+x,1/2+y,z
1/2-x,1/2+y,-z
loop_
_atom_site_type_symbol
_atom_site_label
_atom_site_fract_x
_atom_site_fract_y
_atom_site_fract_z
Si Si1 0.134377 0.358860 0.382261
Si Si2 0.127510 0.625710 0.891451
Si Si3 0.500000 0.232311 0.500000
Si Si4 0.613220 0.269696 0.561619
Si Si5 0.804276 0.921154 0.424087
Si Si6 0.727132 0.502763 0.990701
Si Si7 0.246693 0.702044 0.913866
Si Si8 0.627107 0.907150 0.896651
O O1 0.091613 0.374437 0.740695
O O2 0.195069 0.443805 0.214399
O O3 0.179627 0.263857 0.292116
O O4 0.096232 0.365995 0.222704
O O5 0.107246 0.668836 0.689948
O O6 0.125634 0.517199 0.904700
O O7 0.065869 0.667830 0.229277
O O8 0.208605 0.663731 0.770242
O O9 0.538014 0.290011 0.611663
O O10 0.636217 0.339230 0.708716
O O11 0.684204 0.267261 0.198648
O O12 0.811033 0.977048 0.655857
O O13 0.717597 0.883058 0.650421
O O14 0.812698 0.974498 0.153408
O O15 0.741622 0.610893 0.960549
#
# Coordination Sequence:
#
# PCOD9121281 Si02
#       8
#     4   4   2   4   4   4   4   4
#     4  10  19  32  46  81 105 146 191 218 285 346
#     4  11  21  36  54  75 113 162 195 240 283 348
#     4  10  26  36  52  86 104 166 220 234 286 346
#     4  11  21  36  54  75 113 162 195 240 283 348
#     4  10  19  33  51  75 109 144 192 228 282 344
#     4  10  19  32  46  81 105 146 191 218 285 346
#     4  11  20  31  56  76 116 157 185 236 286 355
#     4  10  19  33  51  75 109 144 192 228 282 344
#
# _framework density 20.720955
#
# number of rings (size 3 to 8) (size 9 to 14) (size 15 to 20)
#    0.000    1.600    5.333    3.600    3.733    0.000 
#    0.000    0.000    0.000    0.000    0.000    0.000 
#    0.000    1.067    2.133    0.000    0.000    0.000 
#
# Total GULP energy -83725.166206 kJ/mol
# GULP energy per Si atom -5581.677747 kJ/mol
# Density = 2.067379 g / cm^3
# Si number density = 20.720955 Si / 1000 Ang^3
#
#
#
# Elastic Constant Matrix: (Units=GPa)
#
#
# Indices 1 2 3 4 5 6 
#
# 1 86.6546 35.8286 45.2238 0.0000 32.9152 0.0000
# 2 35.8286 78.5081 14.6051 0.0000 2.5849 0.0000
# 3 45.2238 14.6051 72.4714 0.0000 36.4819 0.0000
# 4 0.0000 0.0000 0.0000 23.0226 0.0000 12.0668
# 5 32.9152 2.5849 36.4819 0.0000 44.7018 0.0000
# 6 0.0000 0.0000 0.0000 12.0668 0.0000 14.3146
#
#
#
# Elastic Compliance Matrix: (Units=1/GPa)
#
#
# Indices 1 2 3 4 5 6 
#
# 1 0.022931 -0.008764 -0.007296 0.000000 -0.010423 0.000000
# 2 -0.008764 0.016736 -0.001129 0.000000 0.006407 0.000000
# 3 -0.007296 -0.001129 0.026888 0.000000 -0.016506 0.000000
# 4 0.000000 0.000000 0.000000 0.077817 0.000000 -0.065598
# 5 -0.010423 0.006407 -0.016506 0.000000 0.043146 0.000000
# 6 0.000000 0.000000 0.000000 -0.065598 0.000000 0.125156
#
#
# Mechanical properties :
#
#
# Convention : Reuss Voigt Hill
#
# Bulk Modulus (GPa) = 31.07834 47.66100 39.36967
# Shear Modulus (GPa) = 13.97512 25.87292 19.92402
#
# Velocity S-wave (km/s) = 2.59982 3.53744 3.10423
# Velocity P-wave (km/s) = 4.90338 6.30364 5.64708
#
# Compressibility (1/GPa) = 0.03217675
#
# Stress axis : x y z
#
# Youngs Moduli (GPa) = 43.60962 59.75010 37.19113
#
# Poissons Ratio (x) = 0.52367 0.27134
# Poissons Ratio (y) = 0.38221 0.04199
# Poissons Ratio (z) = 0.31817 0.06746
#
# Static dielectric constant tensor:
#      x y z
#    x 1.780250 0.000000 0.062940 
#    y 0.000000 1.739670 0.000000 
#    z 0.062940 0.000000 1.819670 
# 
# From -- ./inp_files/8640.got.cif
#   From: 2010.05.17/outbox.cif.g08.bks.cpg/sg5_5_cif.got.tgz:8640.got - 2010.06.03 18:56:24.
