data_PCOD9121734
_publ_section_title
;
Structure prediction by ZEFSAII (Michael W. Deem and Ramdas Pophale) SiO2 
 PCOD9121734
Probable space group: C 2
;
_chemical_formula_sum "Si O2"
_cell_formula_units_Z 28
_cell_length_a 12.421559
_cell_length_b 12.810389
_cell_length_c 7.557645
_cell_angle_alpha 90.000000
_cell_angle_beta 83.578882
_cell_angle_gamma 90.000000
_cell_volume 1195.066027
_symmetry_space_group_name_H-M "C 2"
_symmetry_group_IT_number 5
_symmetry_cell_setting 'monoclinic'
loop_
_space_group_symop_operation_xyz
x,y,z
-x,y,-z
1/2+x,1/2+y,z
1/2-x,1/2+y,-z
loop_
_atom_site_type_symbol
_atom_site_label
_atom_site_fract_x
_atom_site_fract_y
_atom_site_fract_z
Si Si1 0.122357 0.638410 0.121584
Si Si2 0.056036 0.406310 0.157792
Si Si3 0.158204 0.932859 0.657979
Si Si4 0.735027 0.341632 0.978056
Si Si5 0.213161 0.143385 0.572304
Si Si6 0.079517 0.702022 0.641883
Si Si7 0.336046 0.875137 0.348411
O O1 0.106373 0.516384 0.083207
O O2 0.203955 0.635131 0.275795
O O3 0.000176 0.675573 0.184922
O O4 0.177974 0.729928 0.998715
O O5 0.158780 0.333901 0.166811
O O6 0.956354 0.421833 0.306767
O O7 0.000000 0.353909 0.000000
O O8 0.166554 0.921779 0.869766
O O9 0.096433 0.826814 0.618107
O O10 0.268529 0.926066 0.519229
O O11 0.128003 0.049247 0.605232
O O12 0.769136 0.376187 0.171909
O O13 0.301560 0.151009 0.396358
O O14 0.154777 0.253682 0.604094
O O15 0.000000 0.665816 0.500000
#
# Coordination Sequence:
#
# PCOD9121734 Si02
#       7
#     4   4   4   4   4   4   4
#     4  10  19  36  57  84 122 148 199 245 289 344
#     4  10  20  36  59  84 117 156 193 243 292 348
#     4  11  20  37  63  88 117 155 200 239 300 350
#     4  10  22  37  57  90 117 151 197 250 288 350
#     4   9  18  37  60  86 118 156 192 242 301 352
#     4   9  20  35  59  85 117 155 190 246 291 345
#     4   9  21  39  58  86 126 152 193 250 294 345
#
# _framework density 23.429669000000001
#
# number of rings (size 3 to 8) (size 9 to 14) (size 15 to 20)
#    0.000    2.286    1.429    1.714    2.000    0.571 
#    2.571    1.429   12.571    0.000    0.000    0.000 
#    0.000    0.000    0.000    0.000    0.000    0.000 
#
# Total GULP energy -77938.854357 kJ/mol
# GULP energy per Si atom -5567.061026 kJ/mol
# Density = 2.337634 g / cm^3
# Si number density = 23.429669 Si / 1000 Ang^3
#
#
#
# Elastic Constant Matrix: (Units=GPa)
#
#
# Indices 1 2 3 4 5 6 
#
# 1 51.8128 21.1944 21.2983 0.0000 -9.8412 0.0000
# 2 21.1944 132.0048 25.8516 0.0000 -25.4686 0.0000
# 3 21.2983 25.8516 114.1607 0.0000 -2.0253 0.0000
# 4 0.0000 0.0000 0.0000 26.0086 0.0000 -4.7994
# 5 -9.8412 -25.4686 -2.0253 0.0000 26.3275 0.0000
# 6 0.0000 0.0000 0.0000 -4.7994 0.0000 26.3609
#
#
#
# Elastic Compliance Matrix: (Units=1/GPa)
#
#
# Indices 1 2 3 4 5 6 
#
# 1 0.022778 -0.001640 -0.003760 0.000000 0.006639 0.000000
# 2 -0.001640 0.009888 -0.001777 0.000000 0.008815 0.000000
# 3 -0.003760 -0.001777 0.009821 0.000000 -0.002369 0.000000
# 4 0.000000 0.000000 0.000000 0.039786 0.000000 0.007244
# 5 0.006639 0.008815 -0.002369 0.000000 0.048810 0.000000
# 6 0.000000 0.000000 0.000000 0.007244 0.000000 0.039254
#
#
# Mechanical properties :
#
#
# Convention : Reuss Voigt Hill
#
# Bulk Modulus (GPa) = 35.54571 48.29632 41.92102
# Shear Modulus (GPa) = 25.76421 31.04831 28.40626
#
# Velocity S-wave (km/s) = 3.31968 3.64424 3.48574
# Velocity P-wave (km/s) = 5.46789 6.19398 5.84223
#
# Compressibility (1/GPa) = 0.02813279
#
# Stress axis : x y z
#
# Youngs Moduli (GPa) = 43.90250 101.13766 101.81799
#
# Poissons Ratio (x) = 0.16585 0.38288
# Poissons Ratio (y) = 0.07199 0.18090
# Poissons Ratio (z) = 0.16509 0.17969
#
# Static dielectric constant tensor:
#      x y z
#    x 1.931790 0.000000 0.010850 
#    y 0.000000 1.914020 0.000000 
#    z 0.010850 0.000000 2.020220 
# 
# From -- ./inp_files/23594.got.cif
#   From: 2010.05.17/outbox.cif.g08.bks.cpg/sg5_12_cif.got.tgz:23594.got - 2010.06.03 18:56:24.
