data_PCOD9121383
_publ_section_title
;
Structure prediction by ZEFSAII (Michael W. Deem and Ramdas Pophale) SiO2 
 PCOD9121383
Probable space group: C 2
;
_chemical_formula_sum "Si O2"
_cell_formula_units_Z 32
_cell_length_a 8.667716
_cell_length_b 25.071156
_cell_length_c 8.965887
_cell_angle_alpha 90.000000
_cell_angle_beta 122.395280
_cell_angle_gamma 90.000000
_cell_volume 1645.152453
_symmetry_space_group_name_H-M "C 2"
_symmetry_group_IT_number 5
_symmetry_cell_setting 'monoclinic'
loop_
_space_group_symop_operation_xyz
x,y,z
-x,y,-z
1/2+x,1/2+y,z
1/2-x,1/2+y,-z
loop_
_atom_site_type_symbol
_atom_site_label
_atom_site_fract_x
_atom_site_fract_y
_atom_site_fract_z
Si Si1 0.792268 0.056580 0.328246
Si Si2 0.322363 0.944888 0.803410
Si Si3 0.826979 0.842274 0.798372
Si Si4 0.181882 0.640336 0.497261
Si Si5 0.525258 0.571299 0.188135
Si Si6 0.048647 0.952818 0.199645
Si Si7 0.463187 0.833314 0.804434
Si Si8 0.323079 0.264810 0.513790
O O1 0.682834 0.102785 0.352922
O O2 0.831506 0.067923 0.174226
O O3 0.000000 0.056029 0.500000
O O4 0.702514 0.998898 0.302188
O O5 0.354988 0.889539 0.736125
O O6 0.500000 0.951162 0.000000
O O7 0.136344 0.941728 0.803512
O O8 0.826661 0.900926 0.721689
O O9 0.649984 0.837184 0.809834
O O10 0.837615 0.798575 0.673501
O O11 0.000000 0.838682 0.000000
O O12 0.351218 0.618021 0.681696
O O13 0.201848 0.702213 0.467731
O O14 0.000000 0.633770 0.500000
O O15 0.500000 0.577474 0.000000
O O16 0.615119 0.512774 0.267760
O O17 0.000000 0.955329 0.000000
O O18 0.344164 0.787341 0.669107
O O19 0.500000 0.825206 0.000000
O O20 0.500000 0.271589 0.500000
#
# Coordination Sequence:
#
# PCOD9121383 Si02
#       8
#     4   4   4   4   4   4   4   4
#     4   9  20  37  56  80 115 153 184 227 284 336
#     4  10  19  33  55  86 118 150 186 229 278 339
#     4  11  22  39  62  89 118 152 191 240 292 345
#     4  10  23  40  58  81 111 145 190 241 285 331
#     4   9  19  36  59  84 112 150 187 223 280 340
#     4   9  17  32  55  84 118 150 182 229 285 339
#     4  11  23  38  60  90 119 154 193 235 289 347
#     4  11  24  43  61  82 114 154 198 246 291 339
#
# _framework density 19.451084999999999
#
# number of rings (size 3 to 8) (size 9 to 14) (size 15 to 20)
#    0.000    2.000    0.000    4.875    0.000   11.000 
#    0.000    3.125    0.000    0.000    0.000    0.000 
#    0.000    0.000    0.000    0.000    0.000    0.000 
#
# Total GULP energy -89301.487756 kJ/mol
# GULP energy per Si atom -5581.342985 kJ/mol
# Density = 1.940681 g / cm^3
# Si number density = 19.451085 Si / 1000 Ang^3
#
#
#
# Elastic Constant Matrix: (Units=GPa)
#
#
# Indices 1 2 3 4 5 6 
#
# 1 75.2953 33.8059 11.0267 0.0000 -19.6095 0.0000
# 2 33.8059 110.2421 17.2262 0.0000 -27.4828 0.0000
# 3 11.0267 17.2262 50.8173 0.0000 -27.5834 0.0000
# 4 0.0000 0.0000 0.0000 -60.5924 0.0000 -30.8456
# 5 -19.6095 -27.4828 -27.5834 0.0000 33.5676 0.0000
# 6 0.0000 0.0000 0.0000 -30.8456 0.0000 24.9085
#
#
#
# Elastic Compliance Matrix: (Units=1/GPa)
#
#
# Indices 1 2 3 4 5 6 
#
# 1 0.016758 -0.003243 0.002411 0.000000 0.009116 0.000000
# 2 -0.003243 0.012159 0.001728 0.000000 0.009480 0.000000
# 3 0.002411 0.001728 0.036287 0.000000 0.032641 0.000000
# 4 0.000000 0.000000 0.000000 -0.010122 0.000000 -0.012535
# 5 0.009116 0.009480 0.032641 0.000000 0.069699 0.000000
# 6 0.000000 0.000000 0.000000 -0.012535 0.000000 0.024624
#
#
# Mechanical properties :
#
#
# Convention : Reuss Voigt Hill
#
# Bulk Modulus (GPa) = 14.92645 40.05247 27.48946
# Shear Modulus (GPa) = 29.42128 11.19646 20.30887
#
# Velocity S-wave (km/s) = 3.89341 2.40181 3.23476
# Velocity P-wave (km/s) = 5.28223 5.32238 5.30234
#
# Compressibility (1/GPa) = 0.06699517
#
# Stress axis : x y z
#
# Youngs Moduli (GPa) = 59.67257 82.24507 27.55815
#
# Poissons Ratio (x) = 0.26673 -0.06645
# Poissons Ratio (y) = 0.19353 -0.04761
# Poissons Ratio (z) = -0.14388 -0.14210
#
# Static dielectric constant tensor:
#      x y z
#    x 1.684160 0.000000 -0.009900 
#    y 0.000000 1.687480 0.000000 
#    z -0.009900 0.000000 1.692950 
# 
# From -- ./inp_files/17321.got.cif
#   From: 2010.05.17/outbox.cif.g08.bks.cpg/sg5_9_cif.got.tgz:17321.got - 2010.06.03 18:56:24.
