data_PCOD9121215
_publ_section_title
;
Structure prediction by ZEFSAII (Michael W. Deem and Ramdas Pophale) SiO2 
 PCOD9121215
Probable space group: C 2
;
_chemical_formula_sum "Si O2"
_cell_formula_units_Z 26
_cell_length_a 12.481586
_cell_length_b 8.678616
_cell_length_c 10.464530
_cell_angle_alpha 90.000000
_cell_angle_beta 66.438065
_cell_angle_gamma 90.000000
_cell_volume 1039.042546
_symmetry_space_group_name_H-M "C 2"
_symmetry_group_IT_number 5
_symmetry_cell_setting 'monoclinic'
loop_
_space_group_symop_operation_xyz
x,y,z
-x,y,-z
1/2+x,1/2+y,z
1/2-x,1/2+y,-z
loop_
_atom_site_type_symbol
_atom_site_label
_atom_site_fract_x
_atom_site_fract_y
_atom_site_fract_z
Si Si1 0.885517 0.192290 0.856893
Si Si2 0.000000 0.996024 0.500000
Si Si3 0.113214 0.749023 0.265992
Si Si4 0.000000 0.983376 0.000000
Si Si5 0.814787 0.446023 0.073483
Si Si6 0.166787 0.245105 0.419047
Si Si7 0.094328 0.719625 0.812611
Si Si8 0.000000 0.500998 0.500000
O O1 0.983213 0.094218 0.885455
O O2 0.877060 0.227183 0.709349
O O3 0.777162 0.074372 0.931704
O O4 0.877357 0.355693 0.930963
O O5 0.894150 0.096177 0.492382
O O6 0.944350 0.892619 0.634367
O O7 0.243224 0.807542 0.177506
O O8 0.036446 0.727967 0.176756
O O9 0.077741 0.604803 0.369232
O O10 0.102060 0.863473 0.907125
O O11 0.886503 0.552234 0.136054
O O12 0.305890 0.243280 0.342790
O O13 0.099877 0.389687 0.510950
#
# Coordination Sequence:
#
# PCOD9121215 Si02
#       8
#     4   2   4   2   4   4   4   2
#     4  11  23  42  66  99 137 178 227 283 348 411
#     4  10  18  44  68  90 132 180 232 270 346 404
#     4  11  23  43  67  98 132 178 233 279 341 409
#     4  12  24  40  66 106 134 176 230 284 340 434
#     4  11  24  43  69  97 139 185 220 290 353 403
#     4  10  22  42  65  96 133 181 220 280 346 397
#     4  11  24  42  67  98 139 176 229 283 345 414
#     4  10  26  40  68  94 134 178 226 280 336 412
#
# _framework density 25.023035
#
# number of rings (size 3 to 8) (size 9 to 14) (size 15 to 20)
#    0.000    1.231    4.615    1.846    4.308    3.077 
#    0.000    0.000    0.000    0.000    0.000    0.000 
#    0.000    0.000    0.000    0.000    0.000    0.000 
#
# Total GULP energy -72624.705794 kJ/mol
# GULP energy per Si atom -5586.515830 kJ/mol
# Density = 2.496608 g / cm^3
# Si number density = 25.023035 Si / 1000 Ang^3
#
#
#
# Elastic Constant Matrix: (Units=GPa)
#
#
# Indices 1 2 3 4 5 6 
#
# 1 50.3436 18.3568 -1.6310 0.0000 -3.8903 0.0000
# 2 18.3568 122.0162 9.6742 0.0000 -0.7416 0.0000
# 3 -1.6310 9.6742 34.8314 0.0000 -7.8133 0.0000
# 4 0.0000 0.0000 0.0000 -67.9379 0.0000 -124.0146
# 5 -3.8903 -0.7416 -7.8133 0.0000 36.7939 0.0000
# 6 0.0000 0.0000 0.0000 -124.0146 0.0000 -78.8138
#
#
#
# Elastic Compliance Matrix: (Units=1/GPa)
#
#
# Indices 1 2 3 4 5 6 
#
# 1 0.021400 -0.003406 0.002562 0.000000 0.002738 0.000000
# 2 -0.003406 0.008926 -0.002813 0.000000 -0.000778 0.000000
# 3 0.002562 -0.002813 0.031143 0.000000 0.006827 0.000000
# 4 0.000000 0.000000 0.000000 0.007862 0.000000 -0.012370
# 5 0.002738 -0.000778 0.006827 0.000000 0.028902 0.000000
# 6 0.000000 0.000000 0.000000 -0.012370 0.000000 0.006777
#
#
# Mechanical properties :
#
#
# Convention : Reuss Voigt Hill
#
# Bulk Modulus (GPa) = 18.46549 28.88791 23.67670
# Shear Modulus (GPa) = 38.35093 -9.93880 14.20606
#
# Velocity S-wave (km/s) = 3.91912 -1.99511 2.38527
# Velocity P-wave (km/s) = 5.27966 2.50245 4.13141
#
# Compressibility (1/GPa) = 0.05415509
#
# Stress axis : x y z
#
# Youngs Moduli (GPa) = 46.72883 112.02749 32.11043
#
# Poissons Ratio (x) = 0.38157 -0.08228
# Poissons Ratio (y) = 0.15916 0.09033
# Poissons Ratio (z) = -0.11973 0.31515
#
# Static dielectric constant tensor:
#      x y z
#    x 2.138960 0.000000 -0.120220 
#    y 0.000000 1.999240 0.000000 
#    z -0.120220 0.000000 2.226620 
# 
# From -- ./inp_files/41650.got.cif
#   From: 2010.05.17/outbox.cif.g08.bks.cpg/sg5_21_cif.got.tgz:41650.got - 2010.06.03 18:56:24.
