data_PCOD9121581
_publ_section_title
;
Structure prediction by ZEFSAII (Michael W. Deem and Ramdas Pophale) SiO2 
 PCOD9121581
Probable space group: C 2
;
_chemical_formula_sum "Si O2"
_cell_formula_units_Z 32
_cell_length_a 5.553758
_cell_length_b 20.694651
_cell_length_c 12.897794
_cell_angle_alpha 90.000000
_cell_angle_beta 108.093050
_cell_angle_gamma 90.000000
_cell_volume 1409.084439
_symmetry_space_group_name_H-M "C 2"
_symmetry_group_IT_number 5
_symmetry_cell_setting 'monoclinic'
loop_
_space_group_symop_operation_xyz
x,y,z
-x,y,-z
1/2+x,1/2+y,z
1/2-x,1/2+y,-z
loop_
_atom_site_type_symbol
_atom_site_label
_atom_site_fract_x
_atom_site_fract_y
_atom_site_fract_z
Si Si1 0.265361 0.810470 0.590068
Si Si2 0.528137 0.420786 0.810704
Si Si3 0.613206 0.703053 0.647898
Si Si4 0.937234 0.438481 0.676461
Si Si5 0.244963 0.048929 0.902289
Si Si6 0.882473 0.578571 0.680124
Si Si7 0.594089 0.278485 0.789201
Si Si8 0.636224 0.654024 0.180082
O O1 0.379423 0.742322 0.570009
O O2 0.415648 0.876983 0.598688
O O3 0.259793 0.799720 0.712908
O O4 0.000000 0.819836 0.500000
O O5 0.228791 0.436249 0.755987
O O6 0.640848 0.476108 0.899937
O O7 0.550895 0.345003 0.845210
O O8 0.707781 0.429172 0.731089
O O9 0.705592 0.635384 0.613292
O O10 0.539873 0.684217 0.755553
O O11 0.841199 0.753293 0.697712
O O12 0.894560 0.510068 0.624796
O O13 0.304431 0.060301 0.788006
O O14 0.034998 0.102141 0.900096
O O15 0.500000 0.058205 0.000000
O O16 0.152171 0.612972 0.730406
O O17 0.723705 0.214751 0.856514
#
# Coordination Sequence:
#
# PCOD9121581 Si02
#       8
#     4   4   4   4   4   4   4   4
#     4  10  20  33  55  84 112 143 187 243 290 331
#     4  10  19  35  56  82 108 151 190 230 277 346
#     4   9  17  32  54  78 103 144 191 228 277 343
#     4  10  19  35  56  82 108 151 190 230 277 346
#     4  10  20  33  55  84 112 143 187 243 290 331
#     4   9  18  33  56  78 105 148 191 230 275 343
#     4   9  18  33  56  78 105 148 191 230 275 343
#     4   9  17  32  54  78 103 144 191 228 277 343
#
# _framework density 22.709785
#
# number of rings (size 3 to 8) (size 9 to 14) (size 15 to 20)
#    0.000    2.500    2.500    0.000    0.000    1.000 
#    0.000    0.000   16.500    0.000    0.000    0.000 
#    0.000    0.000    0.000    0.000    0.000    0.000 
#
# Total GULP energy -89124.738927 kJ/mol
# GULP energy per Si atom -5570.296183 kJ/mol
# Density = 2.265810 g / cm^3
# Si number density = 22.709785 Si / 1000 Ang^3
#
#
#
# Elastic Constant Matrix: (Units=GPa)
#
#
# Indices 1 2 3 4 5 6 
#
# 1 37.6333 7.6431 4.8452 0.0000 10.6761 0.0000
# 2 7.6431 217.8585 32.9484 0.0000 36.8133 0.0000
# 3 4.8452 32.9484 56.7425 0.0000 28.4487 0.0000
# 4 0.0000 0.0000 0.0000 16.8866 0.0000 28.5991
# 5 10.6761 36.8133 28.4487 0.0000 43.6607 0.0000
# 6 0.0000 0.0000 0.0000 28.5991 0.0000 16.9597
#
#
#
# Elastic Compliance Matrix: (Units=1/GPa)
#
#
# Indices 1 2 3 4 5 6 
#
# 1 0.028652 0.000134 0.001552 0.000000 -0.008130 0.000000
# 2 0.000134 0.005414 -0.001263 0.000000 -0.003775 0.000000
# 3 0.001552 -0.001263 0.026556 0.000000 -0.016618 0.000000
# 4 0.000000 0.000000 0.000000 -0.031908 0.000000 0.053807
# 5 -0.008130 -0.003775 -0.016618 0.000000 0.038903 0.000000
# 6 0.000000 0.000000 0.000000 0.053807 0.000000 -0.031771
#
#
# Mechanical properties :
#
#
# Convention : Reuss Voigt Hill
#
# Bulk Modulus (GPa) = 16.26856 44.78977 30.52916
# Shear Modulus (GPa) = 90.10751 33.28791 61.69771
#
# Velocity S-wave (km/s) = 6.30587 3.83273 5.21794
# Velocity P-wave (km/s) = 7.75873 6.27311 7.05513
#
# Compressibility (1/GPa) = 0.06146826
#
# Stress axis : x y z
#
# Youngs Moduli (GPa) = 34.90211 184.69546 37.65624
#
# Poissons Ratio (x) = -0.02473 -0.05844
# Poissons Ratio (y) = -0.00467 0.04754
# Poissons Ratio (z) = -0.05416 0.23319
#
# Static dielectric constant tensor:
#      x y z
#    x 1.993390 0.000000 -0.035920 
#    y 0.000000 1.913760 0.000000 
#    z -0.035920 0.000000 1.800780 
# 
# From -- ./inp_files/49523.got.cif
#   From: 2010.05.17/outbox.cif.g08.bks.cpg/sg5_25_cif.got.tgz:49523.got - 2010.06.03 18:56:24.
