data_PCOD9121783
_publ_section_title
;
Structure prediction by ZEFSAII (Michael W. Deem and Ramdas Pophale) SiO2 
 PCOD9121783
Probable space group: C 2
;
_chemical_formula_sum "Si O2"
_cell_formula_units_Z 26
_cell_length_a 9.339435
_cell_length_b 15.482393
_cell_length_c 14.452507
_cell_angle_alpha 90.000000
_cell_angle_beta 141.289657
_cell_angle_gamma 90.000000
_cell_volume 1306.917936
_symmetry_space_group_name_H-M "C 2"
_symmetry_group_IT_number 5
_symmetry_cell_setting 'monoclinic'
loop_
_space_group_symop_operation_xyz
x,y,z
-x,y,-z
1/2+x,1/2+y,z
1/2-x,1/2+y,-z
loop_
_atom_site_type_symbol
_atom_site_label
_atom_site_fract_x
_atom_site_fract_y
_atom_site_fract_z
Si Si1 0.513885 0.385920 0.198354
Si Si2 0.000000 0.580755 0.500000
Si Si3 0.207071 0.705862 0.932951
Si Si4 0.708940 0.716698 0.244801
Si Si5 0.028832 0.879411 0.418720
Si Si6 0.496596 0.936892 0.358185
Si Si7 0.266702 0.517523 0.941688
O O1 0.462351 0.286687 0.144200
O O2 0.468252 0.405407 0.283313
O O3 0.774770 0.404825 0.301743
O O4 0.351589 0.449118 0.059072
O O5 0.800498 0.638425 0.353743
O O6 0.088377 0.519072 0.462536
O O7 0.241390 0.701146 0.838816
O O8 0.164178 0.605211 0.933019
O O9 0.436830 0.729672 0.105886
O O10 0.862124 0.798254 0.349441
O O11 0.000000 0.933235 0.500000
O O12 0.302885 0.867325 0.549054
O O13 0.408373 0.971826 0.215951
O O14 0.500000 0.538768 0.000000
#
# Coordination Sequence:
#
# PCOD9121783 Si02
#       7
#     4   2   4   4   4   4   4
#     4  10  22  38  64  94 123 164 201 259 305 358
#     4  12  18  36  64  92 118 160 206 258 292 372
#     4  10  19  36  60  91 122 154 215 252 293 358
#     4  10  20  34  59  92 118 158 208 253 296 361
#     4  11  23  38  60  92 124 161 199 250 310 366
#     4  11  22  39  63  92 123 158 205 252 310 366
#     4  10  19  37  63  92 120 164 210 250 296 368
#
# _framework density 19.894133
#
# number of rings (size 3 to 8) (size 9 to 14) (size 15 to 20)
#    0.000    1.538    5.385    0.923    2.154    0.000 
#    0.000    0.000    3.385    3.692    0.000    0.000 
#    0.000    0.000    0.000    0.000    0.000    0.000 
#
# Total GULP energy -72405.876263 kJ/mol
# GULP energy per Si atom -5569.682789 kJ/mol
# Density = 1.984885 g / cm^3
# Si number density = 19.894133 Si / 1000 Ang^3
#
#
#
# Elastic Constant Matrix: (Units=GPa)
#
#
# Indices 1 2 3 4 5 6 
#
# 1 57.7338 31.6971 41.1195 0.0000 -20.1842 0.0000
# 2 31.6971 95.4872 49.0818 0.0000 -10.5160 0.0000
# 3 41.1195 49.0818 143.1394 0.0001 -19.2575 0.0001
# 4 0.0000 0.0000 0.0001 43.8879 0.0000 -7.6176
# 5 -20.1842 -10.5160 -19.2575 0.0000 19.5250 0.0000
# 6 0.0000 0.0000 0.0001 -7.6176 0.0000 11.3730
#
#
#
# Elastic Compliance Matrix: (Units=1/GPa)
#
#
# Indices 1 2 3 4 5 6 
#
# 1 0.032631 -0.005964 -0.003716 0.000000 0.026855 0.000000
# 2 -0.005964 0.013951 -0.003331 0.000000 -0.001937 0.000000
# 3 -0.003716 -0.003331 0.009729 0.000000 0.003960 0.000000
# 4 0.000000 0.000000 0.000000 0.025783 0.000000 0.017269
# 5 0.026855 -0.001937 0.003960 0.000000 0.081841 0.000000
# 6 0.000000 0.000000 0.000000 0.017269 0.000000 0.099495
#
#
# Mechanical properties :
#
#
# Convention : Reuss Voigt Hill
#
# Bulk Modulus (GPa) = 33.01588 60.01747 46.51668
# Shear Modulus (GPa) = 16.69187 26.58798 21.63992
#
# Velocity S-wave (km/s) = 2.89975 3.65975 3.30169
# Velocity P-wave (km/s) = 5.27667 6.93486 6.16180
#
# Compressibility (1/GPa) = 0.03028846
#
# Stress axis : x y z
#
# Youngs Moduli (GPa) = 30.64617 71.67750 102.78999
#
# Poissons Ratio (x) = 0.42751 0.38193
# Poissons Ratio (y) = 0.18278 0.34240
# Poissons Ratio (z) = 0.11387 0.23877
#
# Static dielectric constant tensor:
#      x y z
#    x 1.720770 0.000000 -0.024080 
#    y 0.000000 1.750300 0.000000 
#    z -0.024080 0.000000 1.725040 
# 
# From -- ./inp_files/51116.got.cif
#   From: 2010.05.17/outbox.cif.g08.bks.cpg/sg5_26_cif.got.tgz:51116.got - 2010.06.03 18:56:24.
