data_PCOD9121025
_publ_section_title
;
Structure prediction by ZEFSAII (Michael W. Deem and Ramdas Pophale) SiO2 
 PCOD9121025
Probable space group: C 2
;
_chemical_formula_sum "Si O2"
_cell_formula_units_Z 26
_cell_length_a 14.457282
_cell_length_b 14.101887
_cell_length_c 9.744478
_cell_angle_alpha 90.000000
_cell_angle_beta 138.524469
_cell_angle_gamma 90.000000
_cell_volume 1315.761898
_symmetry_space_group_name_H-M "C 2"
_symmetry_group_IT_number 5
_symmetry_cell_setting 'monoclinic'
loop_
_space_group_symop_operation_xyz
x,y,z
-x,y,-z
1/2+x,1/2+y,z
1/2-x,1/2+y,-z
loop_
_atom_site_type_symbol
_atom_site_label
_atom_site_fract_x
_atom_site_fract_y
_atom_site_fract_z
Si Si1 0.281483 0.872170 0.259129
Si Si2 0.664027 0.952417 0.392010
Si Si3 0.000000 0.790117 0.000000
Si Si4 0.608660 0.837515 0.901433
Si Si5 0.444569 0.689977 0.570736
Si Si6 0.153220 0.832814 0.605137
Si Si7 0.664875 0.165378 0.403145
O O1 0.296542 0.940920 0.404081
O O2 0.347924 0.895708 0.187269
O O3 0.363508 0.778936 0.407588
O O4 0.119224 0.850011 0.057913
O O5 0.535925 0.883279 0.209897
O O6 0.792958 0.913095 0.443710
O O7 0.609284 0.059267 0.325479
O O8 0.917795 0.727407 0.799638
O O9 0.568022 0.733145 0.799813
O O10 0.731486 0.834329 0.146456
O O11 0.500000 0.632612 0.500000
O O12 0.326309 0.650168 0.537781
O O13 0.157016 0.730678 0.530168
O O14 0.000000 0.848060 0.500000
#
# Coordination Sequence:
#
# PCOD9121025 Si02
#       7
#     4   4   2   4   4   4   4
#     4   9  18  37  63  88 121 166 208 257 316 381
#     4  11  23  41  66  94 130 170 218 263 321 390
#     4  10  18  38  62  88 124 164 212 254 330 374
#     4  10  20  38  70  88 121 168 217 253 324 385
#     4   8  16  35  62  89 115 161 210 255 308 381
#     4  12  25  42  64  98 136 167 211 278 328 374
#     4  11  23  38  66  93 129 170 219 268 316 387
#
# _framework density 19.760415999999999
#
# number of rings (size 3 to 8) (size 9 to 14) (size 15 to 20)
#    0.000    1.846    4.615    2.769    2.154    1.846 
#    0.000    1.538    6.769    0.000    0.000    0.000 
#    0.000    0.000    0.000    0.000    0.000    0.000 
#
# Total GULP energy -72392.853006 kJ/mol
# GULP energy per Si atom -5568.681000 kJ/mol
# Density = 1.971544 g / cm^3
# Si number density = 19.760416 Si / 1000 Ang^3
#
#
#
# Elastic Constant Matrix: (Units=GPa)
#
#
# Indices 1 2 3 4 5 6 
#
# 1 127.9744 8.8242 42.7043 0.0000 11.3914 0.0000
# 2 8.8242 26.3734 7.1379 0.0000 2.9775 0.0000
# 3 42.7043 7.1379 109.2942 0.0000 -1.6368 0.0000
# 4 0.0000 0.0000 0.0000 8.3599 0.0000 0.6286
# 5 11.3914 2.9775 -1.6368 0.0000 32.3142 0.0000
# 6 0.0000 0.0000 0.0000 0.6286 0.0000 1.0900
#
#
#
# Elastic Compliance Matrix: (Units=1/GPa)
#
#
# Indices 1 2 3 4 5 6 
#
# 1 0.009445 -0.001802 -0.003623 0.000000 -0.003347 0.000000
# 2 -0.001802 0.039387 -0.001915 0.000000 -0.003091 0.000000
# 3 -0.003623 -0.001915 0.010720 0.000000 0.001997 0.000000
# 4 0.000000 0.000000 0.000000 0.125042 0.000000 -0.072113
# 5 -0.003347 -0.003091 0.001997 0.000000 0.032512 0.000000
# 6 0.000000 0.000000 0.000000 -0.072113 0.000000 0.959002
#
#
# Mechanical properties :
#
#
# Convention : Reuss Voigt Hill
#
# Bulk Modulus (GPa) = 22.28484 42.33052 32.30768
# Shear Modulus (GPa) = 4.14681 22.01785 13.08233
#
# Velocity S-wave (km/s) = 1.45021 3.34165 2.57582
# Velocity P-wave (km/s) = 3.75581 6.02969 5.02311
#
# Compressibility (1/GPa) = 0.04487356
#
# Stress axis : x y z
#
# Youngs Moduli (GPa) = 105.87384 25.38914 93.28233
#
# Poissons Ratio (x) = 0.04575 0.33796
# Poissons Ratio (y) = 0.19077 0.17860
# Poissons Ratio (z) = 0.38358 0.04861
#
# Static dielectric constant tensor:
#      x y z
#    x 1.884240 0.000000 -0.018170 
#    y 0.000000 1.722770 0.000000 
#    z -0.018170 0.000000 1.675160 
# 
# From -- ./inp_files/24824.got.cif
#   From: 2010.05.17/outbox.cif.g08.bks.cpg/sg5_13_cif.got.tgz:24824.got - 2010.06.03 18:56:24.
