data_PCOD9121284
_publ_section_title
;
Structure prediction by ZEFSAII (Michael W. Deem and Ramdas Pophale) SiO2 
 PCOD9121284
Probable space group: C 2
;
_chemical_formula_sum "Si O2"
_cell_formula_units_Z 32
_cell_length_a 19.495456
_cell_length_b 7.433485
_cell_length_c 15.565480
_cell_angle_alpha 90.000000
_cell_angle_beta 150.585907
_cell_angle_gamma 90.000000
_cell_volume 1107.832913
_symmetry_space_group_name_H-M "C 2"
_symmetry_group_IT_number 5
_symmetry_cell_setting 'monoclinic'
loop_
_space_group_symop_operation_xyz
x,y,z
-x,y,-z
1/2+x,1/2+y,z
1/2-x,1/2+y,-z
loop_
_atom_site_type_symbol
_atom_site_label
_atom_site_fract_x
_atom_site_fract_y
_atom_site_fract_z
Si Si1 0.153778 0.832280 0.346230
Si Si2 0.657391 0.738274 0.603122
Si Si3 0.601150 0.290392 0.027343
Si Si4 0.417428 0.670312 0.229852
Si Si5 0.596472 0.159414 0.527966
Si Si6 0.835170 0.220158 0.897556
Si Si7 0.137513 0.768876 0.848679
Si Si8 0.895958 0.254590 0.723617
O O1 0.247809 0.728225 0.379128
O O2 0.245989 0.834577 0.533155
O O3 0.137937 0.041237 0.302892
O O4 0.000226 0.745156 0.163746
O O5 0.760408 0.683691 0.792287
O O6 0.507401 0.660626 0.414720
O O7 0.624115 0.949965 0.575470
O O8 0.639502 0.503555 0.066593
O O9 0.500000 0.275396 0.000000
O O10 0.413232 0.469241 0.192184
O O11 0.509136 0.777688 0.259953
O O12 0.256974 0.731322 0.050796
O O13 0.500000 0.229704 0.500000
O O14 0.746299 0.251490 0.713236
O O15 0.500043 0.167284 0.338145
O O16 0.737820 0.266552 0.872625
O O17 0.987534 0.306330 0.078781
#
# Coordination Sequence:
#
# PCOD9121284 Si02
#       8
#     4   4   4   4   4   4   4   4
#     4   9  17  30  49  72  99 127 157 198 241 288
#     4   9  17  31  51  73  95 124 164 203 242 287
#     4   8  14  28  52  76  96 125 163 198 239 291
#     4  10  20  33  50  73 100 129 162 203 242 288
#     4   9  17  31  51  71  95 130 166 202 242 287
#     4   8  16  31  49  69  96 126 158 198 240 284
#     4  10  19  32  49  69  99 131 162 201 245 286
#     4   9  18  32  49  71  98 126 160 199 241 287
#
# _framework density 28.885221000000001
#
# number of rings (size 3 to 8) (size 9 to 14) (size 15 to 20)
#    0.000    3.000    0.000    0.750    0.000    1.000 
#    0.000    3.125    0.000    0.000    0.000    0.000 
#    0.000    0.000    0.000    0.000    0.000    0.000 
#
# Total GULP energy -89432.433851 kJ/mol
# GULP energy per Si atom -5589.527116 kJ/mol
# Density = 2.881948 g / cm^3
# Si number density = 28.885221 Si / 1000 Ang^3
#
#
#
# Elastic Constant Matrix: (Units=GPa)
#
#
# Indices 1 2 3 4 5 6 
#
# 1 71.3707 -6.3095 99.0646 0.0000 -18.1479 0.0000
# 2 -6.3095 48.0877 38.8366 0.0000 -5.5845 0.0000
# 3 99.0646 38.8366 358.5080 0.0000 -39.8554 0.0000
# 4 0.0000 0.0000 0.0000 36.0426 0.0000 -7.7271
# 5 -18.1479 -5.5845 -39.8554 0.0000 83.8180 0.0000
# 6 0.0000 0.0000 0.0000 -7.7271 0.0000 0.5518
#
#
#
# Elastic Compliance Matrix: (Units=1/GPa)
#
#
# Indices 1 2 3 4 5 6 
#
# 1 0.027288 0.010673 -0.008405 0.000000 0.002623 0.000000
# 2 0.010673 0.026974 -0.005717 0.000000 0.001390 0.000000
# 3 -0.008405 -0.005717 0.005793 0.000000 0.000554 0.000000
# 4 0.000000 0.000000 0.000000 -0.013856 0.000000 -0.194044
# 5 0.002623 0.001390 0.000554 0.000000 0.012854 0.000000
# 6 0.000000 0.000000 0.000000 -0.194044 0.000000 -0.905107
#
#
# Mechanical properties :
#
#
# Convention : Reuss Voigt Hill
#
# Bulk Modulus (GPa) = 18.81195 82.34998 50.58096
# Shear Modulus (GPa) = -6.08690 47.17411 20.54361
#
# Velocity S-wave (km/s) = -1.45322 4.04562 2.66976
# Velocity P-wave (km/s) = 1.92640 7.09887 5.20120
#
# Compressibility (1/GPa) = 0.05315771
#
# Stress axis : x y z
#
# Youngs Moduli (GPa) = 36.64574 37.07250 172.63075
#
# Poissons Ratio (x) = -0.39568 1.45097
# Poissons Ratio (y) = -0.39113 0.98690
# Poissons Ratio (z) = 0.30801 0.21194
#
# Static dielectric constant tensor:
#      x y z
#    x 2.522140 0.000000 -0.039840 
#    y 0.000000 2.337100 0.000000 
#    z -0.039840 0.000000 2.481090 
# 
# From -- ./inp_files/67602.got.cif
#   From: 2010.05.17/outbox.cif.g08.bks.cpg/sg5_34_cif.got.tgz:67602.got - 2010.06.03 18:56:24.
