data_PCOD9121903
_publ_section_title
;
Structure prediction by ZEFSAII (Michael W. Deem and Ramdas Pophale) SiO2 
 PCOD9121903
Probable space group: C 2
;
_chemical_formula_sum "Si O2"
_cell_formula_units_Z 24
_cell_length_a 15.958206
_cell_length_b 14.231781
_cell_length_c 8.010024
_cell_angle_alpha 90.000000
_cell_angle_beta 146.054834
_cell_angle_gamma 90.000000
_cell_volume 1015.832136
_symmetry_space_group_name_H-M "C 2"
_symmetry_group_IT_number 5
_symmetry_cell_setting 'monoclinic'
loop_
_space_group_symop_operation_xyz
x,y,z
-x,y,-z
1/2+x,1/2+y,z
1/2-x,1/2+y,-z
loop_
_atom_site_type_symbol
_atom_site_label
_atom_site_fract_x
_atom_site_fract_y
_atom_site_fract_z
Si Si1 0.181330 0.887390 0.391226
Si Si2 0.772160 0.870981 0.896697
Si Si3 0.059450 0.284435 0.314899
Si Si4 0.381660 0.583654 0.543363
Si Si5 0.731220 0.575803 0.008990
Si Si6 0.798100 0.768962 0.262535
O O1 0.130645 0.877731 0.113602
O O2 0.359594 0.865812 0.655226
O O3 0.140722 0.810276 0.464031
O O4 0.157276 0.991848 0.416641
O O5 0.637856 0.801323 0.623532
O O6 0.848482 0.830162 0.186577
O O7 0.712193 0.973835 0.843050
O O8 0.121767 0.182115 0.363450
O O9 0.882641 0.284704 0.027890
O O10 0.555375 0.576475 0.773021
O O11 0.277627 0.586682 0.205991
O O12 0.815001 0.660204 0.241454
#
# Coordination Sequence:
#
# PCOD9121903 Si02
#       6
#     4   4   4   4   4   4
#     4  10  22  32  55  87 112 138 178 231 274 318
#     4  10  21  33  54  88 110 140 178 229 276 315
#     4   9  21  36  57  84 108 141 185 226 267 321
#     4  10  19  37  58  84 110 141 189 226 265 329
#     4  10  20  35  61  82 107 149 182 226 274 316
#     4  11  19  39  59  79 111 143 184 228 266 323
#
# _framework density 23.62595
#
# number of rings (size 3 to 8) (size 9 to 14) (size 15 to 20)
#    1.000    1.000    3.333    1.000    2.333    0.667 
#    0.000    0.000    0.000   12.000    0.000    0.000 
#    0.000    0.000    0.000    0.000    0.000    0.000 
#
# Total GULP energy -66993.969030 kJ/mol
# GULP energy per Si atom -5582.830752 kJ/mol
# Density = 2.357218 g / cm^3
# Si number density = 23.625950 Si / 1000 Ang^3
#
#
#
# Elastic Constant Matrix: (Units=GPa)
#
#
# Indices 1 2 3 4 5 6 
#
# 1 95.5602 43.5934 29.8248 0.0000 -25.1755 0.0000
# 2 43.5934 179.4327 51.7350 0.0000 -14.0218 0.0000
# 3 29.8248 51.7350 116.4522 0.0000 -23.1757 0.0000
# 4 0.0000 0.0000 0.0000 20.4510 0.0000 -13.8508
# 5 -25.1755 -14.0218 -23.1757 0.0000 38.1367 0.0000
# 6 0.0000 0.0000 0.0000 -13.8508 0.0000 28.6668
#
#
#
# Elastic Compliance Matrix: (Units=1/GPa)
#
#
# Indices 1 2 3 4 5 6 
#
# 1 0.013931 -0.002518 -0.000914 0.000000 0.007715 0.000000
# 2 -0.002518 0.006864 -0.002540 0.000000 -0.000682 0.000000
# 3 -0.000914 -0.002540 0.010971 0.000000 0.005130 0.000000
# 4 0.000000 0.000000 0.000000 0.072681 0.000000 0.035117
# 5 0.007715 -0.000682 0.005130 0.000000 0.034181 0.000000
# 6 0.000000 0.000000 0.000000 0.035117 0.000000 0.051851
#
#
# Mechanical properties :
#
#
# Convention : Reuss Voigt Hill
#
# Bulk Modulus (GPa) = 50.45045 71.30572 60.87808
# Shear Modulus (GPa) = 23.91996 35.20368 29.56182
#
# Velocity S-wave (km/s) = 3.18534 3.86430 3.54113
# Velocity P-wave (km/s) = 5.91005 7.08216 6.52249
#
# Compressibility (1/GPa) = 0.01982143
#
# Stress axis : x y z
#
# Youngs Moduli (GPa) = 71.78132 145.68713 91.15232
#
# Poissons Ratio (x) = 0.36687 0.08329
# Poissons Ratio (y) = 0.18076 0.23155
# Poissons Ratio (z) = 0.06559 0.37008
#
# Static dielectric constant tensor:
#      x y z
#    x 1.978350 0.000000 -0.002070 
#    y 0.000000 1.854990 0.000000 
#    z -0.002070 0.000000 1.959610 
# 
# From -- ./inp_files/19779.got.cif
#   From: 2010.05.17/outbox.cif.g08.bks.cpg/sg5_10_cif.got.tgz:19779.got - 2010.06.03 18:56:24.
