data_PCOD9121736
_publ_section_title
;
Structure prediction by ZEFSAII (Michael W. Deem and Ramdas Pophale) SiO2 
 PCOD9121736
Probable space group: C 2
;
_chemical_formula_sum "Si O2"
_cell_formula_units_Z 32
_cell_length_a 16.362867
_cell_length_b 13.731437
_cell_length_c 11.086900
_cell_angle_alpha 90.000000
_cell_angle_beta 32.575115
_cell_angle_gamma 90.000000
_cell_volume 1341.202862
_symmetry_space_group_name_H-M "C 2"
_symmetry_group_IT_number 5
_symmetry_cell_setting 'monoclinic'
loop_
_space_group_symop_operation_xyz
x,y,z
-x,y,-z
1/2+x,1/2+y,z
1/2-x,1/2+y,-z
loop_
_atom_site_type_symbol
_atom_site_label
_atom_site_fract_x
_atom_site_fract_y
_atom_site_fract_z
Si Si1 0.246754 0.990690 0.650393
Si Si2 0.663008 0.638713 0.936941
Si Si3 0.416423 0.349045 0.783529
Si Si4 0.334991 0.842241 0.719719
Si Si5 0.655862 0.032927 0.862723
Si Si6 0.926500 0.052089 0.371815
Si Si7 0.769478 0.822104 0.702374
Si Si8 0.911102 0.540920 0.773900
O O1 0.278758 0.882150 0.659583
O O2 0.173162 0.007756 0.613499
O O3 0.407718 0.047182 0.452584
O O4 0.147549 0.041451 0.877141
O O5 0.669720 0.727170 0.837748
O O6 0.819439 0.623352 0.816305
O O7 0.525365 0.641232 0.200655
O O8 0.456084 0.465065 0.742540
O O9 0.335429 0.336460 0.755822
O O10 0.586131 0.305859 0.563238
O O11 0.309549 0.306637 0.022420
O O12 0.500000 0.791605 0.500000
O O13 0.375826 0.939530 0.748660
O O14 0.810682 0.080025 0.621200
O O15 0.679157 0.920758 0.789913
O O16 0.500000 0.071735 0.000000
O O17 0.641490 0.036600 0.023480
#
# Coordination Sequence:
#
# PCOD9121736 Si02
#       8
#     4   4   4   4   4   4   4   4
#     4  10  20  33  59  91 120 152 205 256 305 355
#     4  11  22  37  61  94 121 160 204 262 310 363
#     4  10  19  36  57  89 120 158 206 253 303 364
#     4   9  17  32  58  86 118 155 203 259 292 348
#     4  11  21  38  61  91 122 163 204 262 312 368
#     4  11  21  36  61  94 122 160 209 261 306 366
#     4  10  23  36  60  88 129 157 205 258 315 366
#     4  10  19  36  58  87 120 159 215 246 300 367
#
# _framework density 23.859179999999999
#
# number of rings (size 3 to 8) (size 9 to 14) (size 15 to 20)
#    0.000    1.750    5.000    1.500    3.500    1.500 
#    0.000    0.000    2.750    0.000    6.500    0.000 
#    0.000    0.000    0.000    0.000    0.000    0.000 
#
# Total GULP energy -89405.480023 kJ/mol
# GULP energy per Si atom -5587.842501 kJ/mol
# Density = 2.380488 g / cm^3
# Si number density = 23.859180 Si / 1000 Ang^3
#
#
#
# Elastic Constant Matrix: (Units=GPa)
#
#
# Indices 1 2 3 4 5 6 
#
# 1 82.5298 -16.7158 19.0044 0.0000 -5.2314 0.0000
# 2 -16.7158 27.5296 9.2360 0.0000 -6.1249 0.0000
# 3 19.0044 9.2360 210.3667 0.0000 6.6283 0.0000
# 4 0.0000 0.0000 0.0000 23.0962 0.0000 9.8209
# 5 -5.2314 -6.1249 6.6283 0.0000 39.3510 0.0000
# 6 0.0000 0.0000 0.0000 9.8209 0.0000 6.9841
#
#
#
# Elastic Compliance Matrix: (Units=1/GPa)
#
#
# Indices 1 2 3 4 5 6 
#
# 1 0.014968 0.010624 -0.001944 0.000000 0.003971 0.000000
# 2 0.010624 0.045895 -0.003262 0.000000 0.009105 0.000000
# 3 -0.001944 -0.003262 0.005124 0.000000 -0.001629 0.000000
# 4 0.000000 0.000000 0.000000 0.107689 0.000000 -0.151431
# 5 0.003971 0.009105 -0.001629 0.000000 0.027632 0.000000
# 6 0.000000 0.000000 0.000000 -0.151431 0.000000 0.356124
#
#
# Mechanical properties :
#
#
# Convention : Reuss Voigt Hill
#
# Bulk Modulus (GPa) = 13.01672 38.16392 25.59032
# Shear Modulus (GPa) = 8.73817 34.47967 21.60892
#
# Velocity S-wave (km/s) = 1.91581 3.80561 3.01273
# Velocity P-wave (km/s) = 3.21889 5.94479 4.78026
#
# Compressibility (1/GPa) = 0.07682429
#
# Stress axis : x y z
#
# Youngs Moduli (GPa) = 66.80940 21.78866 195.17016
#
# Poissons Ratio (x) = -0.23148 0.37936
# Poissons Ratio (y) = -0.70978 0.63658
# Poissons Ratio (z) = 0.12986 0.07107
#
# Static dielectric constant tensor:
#      x y z
#    x 1.888500 0.000000 -0.021490 
#    y 0.000000 1.968840 0.000000 
#    z -0.021490 0.000000 1.965500 
# 
# From -- ./inp_files/45091.got.cif
#   From: 2010.05.17/outbox.cif.g08.bks.cpg/sg5_23_cif.got.tgz:45091.got - 2010.06.03 18:56:24.
