data_PCOD9121544
_publ_section_title
;
Structure prediction by ZEFSAII (Michael W. Deem and Ramdas Pophale) SiO2 
 PCOD9121544
Probable space group: C 2
;
_chemical_formula_sum "Si O2"
_cell_formula_units_Z 26
_cell_length_a 7.864757
_cell_length_b 20.495333
_cell_length_c 10.815364
_cell_angle_alpha 90.000000
_cell_angle_beta 44.159688
_cell_angle_gamma 90.000000
_cell_volume 1214.514301
_symmetry_space_group_name_H-M "C 2"
_symmetry_group_IT_number 5
_symmetry_cell_setting 'monoclinic'
loop_
_space_group_symop_operation_xyz
x,y,z
-x,y,-z
1/2+x,1/2+y,z
1/2-x,1/2+y,-z
loop_
_atom_site_type_symbol
_atom_site_label
_atom_site_fract_x
_atom_site_fract_y
_atom_site_fract_z
Si Si1 0.537176 0.968360 0.308935
Si Si2 0.191940 0.927738 0.285930
Si Si3 0.357893 0.785183 0.194226
Si Si4 0.500000 0.727635 0.500000
Si Si5 0.761936 0.328949 0.796942
Si Si6 0.394904 0.521421 0.285178
Si Si7 0.263619 0.657960 0.391036
O O1 0.436113 0.955618 0.224111
O O2 0.636302 0.897990 0.303095
O O3 0.773660 0.011297 0.214559
O O4 0.315400 0.998717 0.504998
O O5 0.207754 0.851142 0.242590
O O6 0.000000 0.929549 0.500000
O O7 0.108987 0.972811 0.215904
O O8 0.549766 0.808479 0.195604
O O9 0.245599 0.720781 0.311335
O O10 0.500000 0.764367 0.000000
O O11 0.302281 0.774327 0.671355
O O12 0.348857 0.685422 0.479274
O O13 0.500000 0.333623 0.000000
O O14 0.447705 0.597942 0.270915
O O15 0.000000 0.626622 0.500000
#
# Coordination Sequence:
#
# PCOD9121544 Si02
#       7
#     4   4   4   2   4   4   4
#     4   9  18  34  55  88 117 145 204 250 308 380
#     4   9  19  35  62  86 116 154 201 263 315 368
#     4  10  23  40  59  92 126 161 218 264 322 387
#     4  10  24  40  62  94 128 164 216 258 318 400
#     4  10  22  40  64  94 124 163 207 270 329 371
#     4  10  19  34  62  90 118 160 206 258 316 379
#     4  11  23  38  64  92 122 172 213 257 329 388
#
# _framework density 21.407734000000001
#
# number of rings (size 3 to 8) (size 9 to 14) (size 15 to 20)
#    0.000    2.154    1.538    1.385    7.538    2.462 
#    0.000    0.769    0.000    0.923    0.000    0.000 
#    0.000    0.000    0.000    0.000    0.000    0.000 
#
# Total GULP energy -72415.181970 kJ/mol
# GULP energy per Si atom -5570.398613 kJ/mol
# Density = 2.135901 g / cm^3
# Si number density = 21.407734 Si / 1000 Ang^3
#
#
#
# Elastic Constant Matrix: (Units=GPa)
#
#
# Indices 1 2 3 4 5 6 
#
# 1 84.8466 53.0235 9.3545 0.0000 0.4342 0.0000
# 2 53.0235 135.9444 22.7245 0.0000 -0.8414 0.0000
# 3 9.3545 22.7245 70.8073 0.0000 -0.2860 0.0000
# 4 0.0000 0.0000 0.0000 -52.6857 0.0000 -13.3629
# 5 0.4342 -0.8414 -0.2860 0.0000 16.0643 0.0000
# 6 0.0000 0.0000 0.0000 -13.3629 0.0000 35.4865
#
#
#
# Elastic Compliance Matrix: (Units=1/GPa)
#
#
# Indices 1 2 3 4 5 6 
#
# 1 0.015594 -0.006068 -0.000116 0.000000 -0.000741 0.000000
# 2 -0.006068 0.010136 -0.002449 0.000000 0.000651 0.000000
# 3 -0.000116 -0.002449 0.014925 0.000000 0.000141 0.000000
# 4 0.000000 0.000000 0.000000 -0.017326 0.000000 -0.006524
# 5 -0.000741 0.000651 0.000141 0.000000 0.062306 0.000000
# 6 0.000000 0.000000 0.000000 -0.006524 0.000000 0.025723
#
#
# Mechanical properties :
#
#
# Convention : Reuss Voigt Hill
#
# Bulk Modulus (GPa) = 42.75257 51.31149 47.03203
# Shear Modulus (GPa) = 36.65156 13.53941 25.09549
#
# Velocity S-wave (km/s) = 4.14221 2.51759 3.42755
# Velocity P-wave (km/s) = 6.54913 5.69840 6.13852
#
# Compressibility (1/GPa) = 0.02339041
#
# Stress axis : x y z
#
# Youngs Moduli (GPa) = 64.12554 98.65903 67.00354
#
# Poissons Ratio (x) = 0.59863 0.00777
# Poissons Ratio (y) = 0.38909 0.16407
# Poissons Ratio (z) = 0.00743 0.24159
#
# Static dielectric constant tensor:
#      x y z
#    x 1.781630 0.000000 -0.057250 
#    y 0.000000 1.823550 0.000000 
#    z -0.057250 0.000000 1.756350 
# 
# From -- ./inp_files/37303.got.cif
#   From: 2010.05.17/outbox.cif.g08.bks.cpg/sg5_19_cif.got.tgz:37303.got - 2010.06.03 18:56:24.
