data_PCOD9121120
_publ_section_title
;
Structure prediction by ZEFSAII (Michael W. Deem and Ramdas Pophale) SiO2 
 PCOD9121120
Probable space group: C 2
;
_chemical_formula_sum "Si O2"
_cell_formula_units_Z 24
_cell_length_a 11.929556
_cell_length_b 8.533495
_cell_length_c 20.576097
_cell_angle_alpha 90.000000
_cell_angle_beta 30.254610
_cell_angle_gamma 90.000000
_cell_volume 1055.382429
_symmetry_space_group_name_H-M "C 2"
_symmetry_group_IT_number 5
_symmetry_cell_setting 'monoclinic'
loop_
_space_group_symop_operation_xyz
x,y,z
-x,y,-z
1/2+x,1/2+y,z
1/2-x,1/2+y,-z
loop_
_atom_site_type_symbol
_atom_site_label
_atom_site_fract_x
_atom_site_fract_y
_atom_site_fract_z
Si Si1 0.904198 0.075670 0.424548
Si Si2 0.766755 0.235186 0.122976
Si Si3 0.893688 0.070819 0.273104
Si Si4 0.863035 0.574719 0.008975
Si Si5 0.143941 0.710329 0.750356
Si Si6 0.453162 0.243032 0.632712
O O1 0.936722 0.066264 0.329237
O O2 0.654417 0.135015 0.555690
O O3 0.098133 0.170151 0.364806
O O4 0.928730 0.904720 0.441858
O O5 0.814268 0.391869 0.054606
O O6 0.533805 0.160892 0.216646
O O7 0.718553 0.273935 0.222078
O O8 0.000000 0.142862 0.000000
O O9 0.684287 0.171945 0.357268
O O10 0.114969 0.140543 0.129126
O O11 0.853833 0.897984 0.262862
O O12 0.000000 0.643205 0.000000
O O13 0.014012 0.624464 0.873924
#
# Coordination Sequence:
#
# PCOD9121120 Si02
#       6
#     4   4   4   4   4   4
#     4  12  25  48  70 104 146 186 245 290 352 428
#     4  10  21  43  70 104 142 182 232 291 355 416
#     4  11  24  47  69 105 146 185 238 299 352 420
#     4  10  18  39  73 100 136 181 228 287 354 413
#     4  11  22  43  77 102 141 193 230 298 361 416
#     4  12  25  47  76 100 146 194 232 299 359 418
#
# _framework density 22.740570999999999
#
# number of rings (size 3 to 8) (size 9 to 14) (size 15 to 20)
#    0.000    1.000    5.000    3.500    0.000    2.000 
#    9.000    4.167    0.000    0.000    0.000    0.000 
#    0.000    0.000    0.000    0.000    0.000    0.000 
#
# Total GULP energy -66854.746518 kJ/mol
# GULP energy per Si atom -5571.228876 kJ/mol
# Density = 2.268881 g / cm^3
# Si number density = 22.740571 Si / 1000 Ang^3
#
#
#
# Elastic Constant Matrix: (Units=GPa)
#
#
# Indices 1 2 3 4 5 6 
#
# 1 130.6246 38.2997 21.8794 0.0002 -43.6514 -0.0001
# 2 38.2997 56.6665 4.9698 0.0002 -18.5340 0.0000
# 3 21.8794 4.9698 61.9184 -0.0001 -27.6746 -0.0003
# 4 0.0002 0.0002 -0.0001 25.9427 -0.0002 -3.3108
# 5 -43.6514 -18.5340 -27.6746 -0.0002 64.5463 0.0003
# 6 -0.0001 0.0000 -0.0003 -3.3108 0.0003 15.6935
#
#
#
# Elastic Compliance Matrix: (Units=1/GPa)
#
#
# Indices 1 2 3 4 5 6 
#
# 1 0.011397 -0.005781 -0.001064 0.000000 0.005592 0.000000
# 2 -0.005781 0.022476 0.001702 0.000000 0.003274 0.000000
# 3 -0.001064 0.001702 0.020147 0.000000 0.008407 0.000000
# 4 0.000000 0.000000 0.000000 0.039613 0.000000 0.008357
# 5 0.005592 0.003274 0.008407 0.000000 0.023819 0.000000
# 6 0.000000 0.000000 0.000000 0.008357 0.000000 0.065484
#
#
# Mechanical properties :
#
#
# Convention : Reuss Voigt Hill
#
# Bulk Modulus (GPa) = 22.86531 42.16747 32.51639
# Shear Modulus (GPa) = 24.06147 33.50720 28.78433
#
# Velocity S-wave (km/s) = 3.25635 3.84272 3.56163
# Velocity P-wave (km/s) = 4.92089 6.18642 5.58958
#
# Compressibility (1/GPa) = 0.04373438
#
# Stress axis : x y z
#
# Youngs Moduli (GPa) = 87.73968 44.49196 49.63419
#
# Poissons Ratio (x) = 0.25721 0.05282
# Poissons Ratio (y) = 0.50723 -0.08448
# Poissons Ratio (z) = 0.09337 -0.07573
#
# Static dielectric constant tensor:
#      x y z
#    x 1.951800 0.000000 0.007700 
#    y 0.000000 1.892200 0.000000 
#    z 0.007700 0.000000 1.981360 
# 
# From -- ./inp_files/65215.got.cif
#   From: 2010.05.17/outbox.cif.g08.bks.cpg/sg5_33_cif.got.tgz:65215.got - 2010.06.03 18:56:24.
