data_PCOD9121268
_publ_section_title
;
Structure prediction by ZEFSAII (Michael W. Deem and Ramdas Pophale) SiO2 
 PCOD9121268
Probable space group: C 2
;
_chemical_formula_sum "Si O2"
_cell_formula_units_Z 32
_cell_length_a 9.217714
_cell_length_b 19.456666
_cell_length_c 9.548964
_cell_angle_alpha 90.000000
_cell_angle_beta 48.278255
_cell_angle_gamma 90.000000
_cell_volume 1278.236443
_symmetry_space_group_name_H-M "C 2"
_symmetry_group_IT_number 5
_symmetry_cell_setting 'monoclinic'
loop_
_space_group_symop_operation_xyz
x,y,z
-x,y,-z
1/2+x,1/2+y,z
1/2-x,1/2+y,-z
loop_
_atom_site_type_symbol
_atom_site_label
_atom_site_fract_x
_atom_site_fract_y
_atom_site_fract_z
Si Si1 0.695322 0.295610 0.179421
Si Si2 0.188920 0.173322 0.476087
Si Si3 0.204370 0.021134 0.955072
Si Si4 0.737243 0.415959 0.349060
Si Si5 0.270128 0.363495 0.106106
Si Si6 0.207391 0.058921 0.279801
Si Si7 0.791288 0.147091 0.213493
Si Si8 0.749526 0.329528 0.581353
O O1 0.789876 0.349715 0.223780
O O2 0.685287 0.218715 0.243154
O O3 0.485756 0.328688 0.282989
O O4 0.789095 0.305564 0.967762
O O5 0.308016 0.125189 0.288271
O O6 0.185894 0.139886 0.633132
O O7 0.222934 0.252520 0.488344
O O8 0.000000 0.180966 0.500000
O O9 0.183713 0.052303 0.126623
O O10 0.305912 0.079746 0.794134
O O11 0.000000 0.014784 0.000000
O O12 0.272045 0.941491 0.916455
O O13 0.500000 0.419636 0.500000
O O14 0.814052 0.488531 0.249879
O O15 0.806493 0.395827 0.456969
O O16 0.178436 0.339540 0.309246
O O17 0.500000 0.361577 0.000000
O O18 0.000000 0.055229 0.500000
O O19 0.000000 0.155070 0.000000
#
# Coordination Sequence:
#
# PCOD9121268 Si02
#       8
#     4   4   4   4   4   4   4   4
#     4  10  19  37  56  82 105 138 181 219 274 315
#     4  11  23  36  53  80 111 146 180 217 269 321
#     4  10  19  32  50  78 109 139 178 221 271 314
#     4   9  17  31  54  79 103 132 177 226 266 304
#     4   9  19  31  54  83 108 134 176 228 269 308
#     4  10  19  31  52  76 109 140 178 225 264 314
#     4  11  23  35  55  78 112 147 176 220 270 324
#     4  10  21  35  58  82 107 140 178 226 265 318
#
# _framework density 25.034490999999999
#
# number of rings (size 3 to 8) (size 9 to 14) (size 15 to 20)
#    0.000    2.000    2.500    3.000   10.500    0.000 
#    0.000    0.000    0.000    3.000    0.000    0.000 
#    0.000    0.000    0.000    0.000    0.000    0.000 
#
# Total GULP energy -89130.575362 kJ/mol
# GULP energy per Si atom -5570.660960 kJ/mol
# Density = 2.497751 g / cm^3
# Si number density = 25.034491 Si / 1000 Ang^3
#
#
#
# Elastic Constant Matrix: (Units=GPa)
#
#
# Indices 1 2 3 4 5 6 
#
# 1 60.0266 -7.2814 19.7162 0.0000 7.8278 0.0000
# 2 -7.2814 121.4748 29.0759 0.0000 27.8862 0.0000
# 3 19.7162 29.0759 115.3774 0.0000 49.9922 0.0000
# 4 0.0000 0.0000 0.0000 33.2135 0.0000 24.4117
# 5 7.8278 27.8862 49.9922 0.0000 46.7284 0.0000
# 6 0.0000 0.0000 0.0000 24.4117 0.0000 24.0903
#
#
#
# Elastic Compliance Matrix: (Units=1/GPa)
#
#
# Indices 1 2 3 4 5 6 
#
# 1 0.018081 0.002038 -0.003288 0.000000 -0.000727 0.000000
# 2 0.002038 0.009769 -0.000254 0.000000 -0.005900 0.000000
# 3 -0.003288 -0.000254 0.016756 0.000000 -0.017224 0.000000
# 4 0.000000 0.000000 0.000000 0.117980 0.000000 -0.119554
# 5 -0.000727 -0.005900 -0.017224 0.000000 0.043470 0.000000
# 6 0.000000 0.000000 0.000000 -0.119554 0.000000 0.162660
#
#
# Mechanical properties :
#
#
# Convention : Reuss Voigt Hill
#
# Bulk Modulus (GPa) = 24.03938 42.21115 33.12527
# Shear Modulus (GPa) = 12.96709 37.83096 25.39902
#
# Velocity S-wave (km/s) = 2.27836 3.89157 3.18867
# Velocity P-wave (km/s) = 4.06750 6.09018 5.17855
#
# Compressibility (1/GPa) = 0.04159840
#
# Stress axis : x y z
#
# Youngs Moduli (GPa) = 55.30560 102.35964 59.67917
#
# Poissons Ratio (x) = -0.20859 0.19625
# Poissons Ratio (y) = -0.11270 0.01514
# Poissons Ratio (z) = 0.18187 0.02598
#
# Static dielectric constant tensor:
#      x y z
#    x 1.988190 0.000000 -0.082260 
#    y 0.000000 2.029380 0.000000 
#    z -0.082260 0.000000 2.303410 
# 
# From -- ./inp_files/21787.got.cif
#   From: 2010.05.17/outbox.cif.g08.bks.cpg/sg5_11_cif.got.tgz:21787.got - 2010.06.03 18:56:24.
