data_PCOD9121010
_publ_section_title
;
Structure prediction by ZEFSAII (Michael W. Deem and Ramdas Pophale) SiO2 
 PCOD9121010
Probable space group: C 2
;
_chemical_formula_sum "Si O2"
_cell_formula_units_Z 28
_cell_length_a 8.889078
_cell_length_b 14.575146
_cell_length_c 14.307370
_cell_angle_alpha 90.000000
_cell_angle_beta 131.141488
_cell_angle_gamma 90.000000
_cell_volume 1395.965543
_symmetry_space_group_name_H-M "C 2"
_symmetry_group_IT_number 5
_symmetry_cell_setting 'monoclinic'
loop_
_space_group_symop_operation_xyz
x,y,z
-x,y,-z
1/2+x,1/2+y,z
1/2-x,1/2+y,-z
loop_
_atom_site_type_symbol
_atom_site_label
_atom_site_fract_x
_atom_site_fract_y
_atom_site_fract_z
Si Si1 0.975116 0.941360 0.227892
Si Si2 0.357498 0.281705 0.032899
Si Si3 0.854427 0.047520 0.857335
Si Si4 0.010714 0.650040 0.246598
Si Si5 0.792938 0.308539 0.368114
Si Si6 0.096072 0.361172 0.786573
Si Si7 0.704867 0.472672 0.645374
O O1 0.895459 0.862238 0.124770
O O2 0.850315 0.954823 0.269256
O O3 0.196254 0.907094 0.347485
O O4 0.012112 0.028771 0.178474
O O5 0.413602 0.187981 0.109594
O O6 0.500000 0.290068 0.000000
O O7 0.142671 0.303751 0.899213
O O8 0.676318 0.118028 0.769304
O O9 0.738674 0.952855 0.841640
O O10 0.000000 0.075109 0.000000
O O11 0.132698 0.735237 0.335853
O O12 0.170279 0.567873 0.305051
O O13 0.834010 0.302903 0.274228
O O14 0.000000 0.294540 0.500000
O O15 0.869463 0.396272 0.683245
O O16 0.500000 0.474359 0.500000
#
# Coordination Sequence:
#
# PCOD9121010 Si02
#       7
#     4   4   4   4   4   4   4
#     4  10  20  37  64  88 119 162 208 259 311 364
#     4  11  18  41  61  92 125 157 211 251 321 381
#     4  10  18  38  59  87 119 153 199 251 308 374
#     4  10  23  36  61  86 124 164 198 259 318 367
#     4  10  19  38  63  85 117 170 212 244 308 376
#     4  10  19  38  65  83 121 165 203 261 294 372
#     4  11  24  41  60  95 127 160 216 262 304 369
#
# _framework density 20.057801000000001
#
# number of rings (size 3 to 8) (size 9 to 14) (size 15 to 20)
#    0.000    1.714    5.714    1.286    0.000    1.714 
#    5.143    0.000    0.000    3.429    0.000    0.000 
#    0.000    0.000    0.000    0.000    0.000    0.000 
#
# Total GULP energy -78017.323541 kJ/mol
# GULP energy per Si atom -5572.665967 kJ/mol
# Density = 2.001215 g / cm^3
# Si number density = 20.057801 Si / 1000 Ang^3
#
#
#
# Elastic Constant Matrix: (Units=GPa)
#
#
# Indices 1 2 3 4 5 6 
#
# 1 60.2006 -5.1821 -0.1767 0.0000 -1.3907 0.0000
# 2 -5.1821 23.5276 12.0509 0.0000 8.2399 0.0000
# 3 -0.1767 12.0509 87.4726 0.0000 22.8102 0.0000
# 4 0.0000 0.0000 0.0000 26.2387 0.0000 10.7279
# 5 -1.3907 8.2399 22.8102 0.0000 30.6503 0.0000
# 6 0.0000 0.0000 0.0000 10.7279 0.0000 23.4452
#
#
#
# Elastic Compliance Matrix: (Units=1/GPa)
#
#
# Indices 1 2 3 4 5 6 
#
# 1 0.016954 0.003975 -0.000540 0.000000 0.000103 0.000000
# 2 0.003975 0.048973 -0.004160 0.000000 -0.009889 0.000000
# 3 -0.000540 -0.004160 0.014541 0.000000 -0.009727 0.000000
# 4 0.000000 0.000000 0.000000 0.046882 0.000000 -0.021452
# 5 0.000103 -0.009889 -0.009727 0.000000 0.042529 0.000000
# 6 0.000000 0.000000 0.000000 -0.021452 0.000000 0.052469
#
#
# Mechanical properties :
#
#
# Convention : Reuss Voigt Hill
#
# Bulk Modulus (GPa) = 12.65542 20.50947 16.58244
# Shear Modulus (GPa) = 19.98903 27.03410 23.51157
#
# Velocity S-wave (km/s) = 3.16028 3.67524 3.42744
# Velocity P-wave (km/s) = 4.43166 5.31575 4.89371
#
# Compressibility (1/GPa) = 0.07901751
#
# Stress axis : x y z
#
# Youngs Moduli (GPa) = 58.98283 20.41939 68.77198
#
# Poissons Ratio (x) = -0.08117 0.03715
# Poissons Ratio (y) = -0.23445 0.28609
# Poissons Ratio (z) = 0.03186 0.08494
#
# Static dielectric constant tensor:
#      x y z
#    x 1.705310 0.000000 0.015820 
#    y 0.000000 1.742430 0.000000 
#    z 0.015820 0.000000 1.755120 
# 
# From -- ./inp_files/50881.got.cif
#   From: 2010.05.17/outbox.cif.g08.bks.cpg/sg5_26_cif.got.tgz:50881.got - 2010.06.03 18:56:24.
