data_PCOD9121023
_publ_section_title
;
Structure prediction by ZEFSAII (Michael W. Deem and Ramdas Pophale) SiO2 
 PCOD9121023
Probable space group: C 2
;
_chemical_formula_sum "Si O2"
_cell_formula_units_Z 22
_cell_length_a 10.028579
_cell_length_b 11.997577
_cell_length_c 7.036715
_cell_angle_alpha 90.000000
_cell_angle_beta 104.848269
_cell_angle_gamma 90.000000
_cell_volume 818.376637
_symmetry_space_group_name_H-M "C 2"
_symmetry_group_IT_number 5
_symmetry_cell_setting 'monoclinic'
loop_
_space_group_symop_operation_xyz
x,y,z
-x,y,-z
1/2+x,1/2+y,z
1/2-x,1/2+y,-z
loop_
_atom_site_type_symbol
_atom_site_label
_atom_site_fract_x
_atom_site_fract_y
_atom_site_fract_z
Si Si1 0.251471 0.272840 0.828361
Si Si2 0.000000 0.929442 0.000000
Si Si3 0.213414 0.090652 0.263687
Si Si4 0.536614 0.939914 0.737169
Si Si5 0.156931 0.800733 0.578420
Si Si6 0.750515 0.029711 0.285242
O O1 0.375191 0.338669 0.976538
O O2 0.104802 0.325305 0.823693
O O3 0.283717 0.304522 0.615715
O O4 0.236904 0.139823 0.836128
O O5 0.922628 0.021497 0.837984
O O6 0.242037 0.222383 0.261210
O O7 0.236787 0.074415 0.496542
O O8 0.340935 0.029185 0.209190
O O9 0.500000 0.929980 0.500000
O O10 0.401122 0.979191 0.792952
O O11 0.000000 0.755748 0.500000
O O12 0.150036 0.923003 0.670416
#
# Coordination Sequence:
#
# PCOD9121023 Si02
#       6
#     4   2   4   4   4   4
#     4  10  20  35  63  87 117 160 205 248 307 375
#     4  10  18  38  62  86 118 160 196 250 314 374
#     4   9  18  33  60  81 111 157 197 244 305 362
#     4   9  15  33  57  82 109 151 201 246 298 349
#     4  11  20  35  60  89 120 153 208 262 297 359
#     4  10  19  35  59  90 115 151 209 255 293 362
#
# _framework density 26.882489
#
# number of rings (size 3 to 8) (size 9 to 14) (size 15 to 20)
#    0.000    2.182    5.455    2.727    0.000    0.727 
#    0.000    0.909   36.000    0.000    0.000    0.000 
#    0.000    0.000    0.000    0.000    0.000    0.000 
#
# Total GULP energy -61520.466638 kJ/mol
# GULP energy per Si atom -5592.769694 kJ/mol
# Density = 2.682130 g / cm^3
# Si number density = 26.882489 Si / 1000 Ang^3
#
#
#
# Elastic Constant Matrix: (Units=GPa)
#
#
# Indices 1 2 3 4 5 6 
#
# 1 61.1922 42.8509 48.0173 0.0000 10.0442 0.0000
# 2 42.8509 215.2911 67.8871 0.0000 17.2514 0.0000
# 3 48.0173 67.8871 128.1737 0.0000 17.8944 0.0000
# 4 0.0000 0.0000 0.0000 50.7308 0.0000 3.0171
# 5 10.0442 17.2514 17.8944 0.0000 32.3480 0.0000
# 6 0.0000 0.0000 0.0000 3.0171 0.0000 28.3664
#
#
#
# Elastic Compliance Matrix: (Units=1/GPa)
#
#
# Indices 1 2 3 4 5 6 
#
# 1 0.024222 -0.002261 -0.007580 0.000000 -0.002122 0.000000
# 2 -0.002261 0.005851 -0.002075 0.000000 -0.001271 0.000000
# 3 -0.007580 -0.002075 0.012200 0.000000 -0.003289 0.000000
# 4 0.000000 0.000000 0.000000 0.019837 0.000000 -0.002110
# 5 -0.002122 -0.001271 -0.003289 0.000000 0.034069 0.000000
# 6 0.000000 0.000000 0.000000 -0.002110 0.000000 0.035477
#
#
# Mechanical properties :
#
#
# Convention : Reuss Voigt Hill
#
# Bulk Modulus (GPa) = 54.22778 80.24084 67.23431
# Shear Modulus (GPa) = 30.93395 38.68251 34.80823
#
# Velocity S-wave (km/s) = 3.39589 3.79746 3.60228
# Velocity P-wave (km/s) = 5.96591 7.01008 6.50896
#
# Compressibility (1/GPa) = 0.01844073
#
# Stress axis : x y z
#
# Youngs Moduli (GPa) = 41.28534 170.91625 81.96935
#
# Poissons Ratio (x) = 0.38638 0.62137
# Poissons Ratio (y) = 0.09333 0.17005
# Poissons Ratio (z) = 0.31296 0.35458
#
# Static dielectric constant tensor:
#      x y z
#    x 2.093990 0.000000 -0.086710 
#    y 0.000000 2.133680 0.000000 
#    z -0.086710 0.000000 2.104570 
# 
# From -- ./inp_files/38951.got.cif
#   From: 2010.05.17/outbox.cif.g08.bks.cpg/sg5_20_cif.got.tgz:38951.got - 2010.06.03 18:56:24.
