data_PCOD9121251
_publ_section_title
;
Structure prediction by ZEFSAII (Michael W. Deem and Ramdas Pophale) SiO2 
 PCOD9121251
Probable space group: C 2
;
_chemical_formula_sum "Si O2"
_cell_formula_units_Z 20
_cell_length_a 9.795020
_cell_length_b 16.033957
_cell_length_c 5.621913
_cell_angle_alpha 90.000000
_cell_angle_beta 66.271165
_cell_angle_gamma 90.000000
_cell_volume 808.294504
_symmetry_space_group_name_H-M "C 2"
_symmetry_group_IT_number 5
_symmetry_cell_setting 'monoclinic'
loop_
_space_group_symop_operation_xyz
x,y,z
-x,y,-z
1/2+x,1/2+y,z
1/2-x,1/2+y,-z
loop_
_atom_site_type_symbol
_atom_site_label
_atom_site_fract_x
_atom_site_fract_y
_atom_site_fract_z
Si Si1 0.504000 0.262000 0.246942
Si Si2 0.281956 0.636237 0.022653
Si Si3 0.343387 0.886035 0.373192
Si Si4 0.179828 0.448553 0.109585
Si Si5 0.174760 0.194207 0.510783
O O1 0.500000 0.308945 0.500000
O O2 0.648294 0.203429 0.137674
O O3 0.356564 0.203459 0.358842
O O4 0.500000 0.309164 0.000000
O O5 0.218931 0.543932 0.036516
O O6 0.354888 0.640597 0.232933
O O7 0.368495 0.662808 0.721908
O O8 0.501699 0.933340 0.249208
O O9 0.264512 0.919389 0.668271
O O10 0.373523 0.788676 0.397434
O O11 0.272829 0.898426 0.161259
#
# Coordination Sequence:
#
# PCOD9121251 Si02
#       5
#     4   4   4   4   4
#     4   8  16  25  44  68  98 124 169 199 252 283
#     4  10  19  31  53  76 106 138 176 215 259 314
#     4  10  21  32  49  76 116 140 164 219 280 311
#     4  10  21  33  53  75 112 140 169 217 284 303
#     4  10  19  31  47  75 114 134 176 208 265 315
#
# _framework density 24.743456999999999
#
# number of rings (size 3 to 8) (size 9 to 14) (size 15 to 20)
#    0.000    2.400    0.000    2.400   16.800    0.000 
#    0.000    0.000    0.000    0.000    0.000    0.000 
#  360.000    0.000    0.000    0.000    0.000    0.000 
#
# Total GULP energy -55846.294449 kJ/mol
# GULP energy per Si atom -5584.629445 kJ/mol
# Density = 2.468714 g / cm^3
# Si number density = 24.743457 Si / 1000 Ang^3
#
#
#
# Elastic Constant Matrix: (Units=GPa)
#
#
# Indices 1 2 3 4 5 6 
#
# 1 65.6640 11.5778 53.2419 0.0000 8.7442 0.0000
# 2 11.5778 154.4057 76.2898 0.0000 -3.8715 0.0000
# 3 53.2419 76.2898 321.1121 0.0000 43.2910 0.0000
# 4 0.0000 0.0000 0.0000 38.8294 0.0000 3.7435
# 5 8.7442 -3.8715 43.2910 0.0000 42.6086 0.0000
# 6 0.0000 0.0000 0.0000 3.7435 0.0000 13.1572
#
#
#
# Elastic Compliance Matrix: (Units=1/GPa)
#
#
# Indices 1 2 3 4 5 6 
#
# 1 0.017616 0.000063 -0.002838 0.000000 -0.000726 0.000000
# 2 0.000063 0.007644 -0.002223 0.000000 0.002940 0.000000
# 3 -0.002838 -0.002223 0.004706 0.000000 -0.004401 0.000000
# 4 0.000000 0.000000 0.000000 0.026480 0.000000 -0.007534
# 5 -0.000726 0.002940 -0.004401 0.000000 0.028357 0.000000
# 6 0.000000 0.000000 0.000000 -0.007534 0.000000 0.078147
#
#
# Mechanical properties :
#
#
# Convention : Reuss Voigt Hill
#
# Bulk Modulus (GPa) = 50.07445 91.48896 70.78171
# Shear Modulus (GPa) = 27.83936 45.59054 36.71495
#
# Velocity S-wave (km/s) = 3.35792 4.29713 3.85622
# Velocity P-wave (km/s) = 5.94269 7.85339 6.96388
#
# Compressibility (1/GPa) = 0.01997026
#
# Stress axis : x y z
#
# Youngs Moduli (GPa) = 56.76790 130.82691 212.48865
#
# Poissons Ratio (x) = -0.00825 0.60301
# Poissons Ratio (y) = -0.00358 0.47232
# Poissons Ratio (z) = 0.16110 0.29080
#
# Static dielectric constant tensor:
#      x y z
#    x 1.982520 0.000000 0.035250 
#    y 0.000000 1.827270 0.000000 
#    z 0.035250 0.000000 2.025460 
# 
# From -- ./inp_files/4699.got.cif
#   From: 2010.05.17/outbox.cif.g08.bks.cpg/sg5_3_cif.got.tgz:4699.got - 2010.06.03 18:56:24.
