data_PCOD9121346
_publ_section_title
;
Structure prediction by ZEFSAII (Michael W. Deem and Ramdas Pophale) SiO2 
 PCOD9121346
Probable space group: C 2
;
_chemical_formula_sum "Si O2"
_cell_formula_units_Z 22
_cell_length_a 24.511348
_cell_length_b 7.445005
_cell_length_c 5.809944
_cell_angle_alpha 90.000000
_cell_angle_beta 111.199049
_cell_angle_gamma 90.000000
_cell_volume 988.493239
_symmetry_space_group_name_H-M "C 2"
_symmetry_group_IT_number 5
_symmetry_cell_setting 'monoclinic'
loop_
_space_group_symop_operation_xyz
x,y,z
-x,y,-z
1/2+x,1/2+y,z
1/2-x,1/2+y,-z
loop_
_atom_site_type_symbol
_atom_site_label
_atom_site_fract_x
_atom_site_fract_y
_atom_site_fract_z
Si Si1 0.500000 0.097031 0.000000
Si Si2 0.348997 0.364488 0.504779
Si Si3 0.373047 0.986847 0.804850
Si Si4 0.199510 0.648896 0.937837
Si Si5 0.234763 0.383112 0.614891
Si Si6 0.977329 0.957700 0.719483
O O1 0.557586 0.974243 0.077915
O O2 0.505385 0.243797 0.217581
O O3 0.364277 0.181463 0.668460
O O4 0.337959 0.312073 0.223251
O O5 0.287200 0.419073 0.517925
O O6 0.407224 0.479435 0.615020
O O7 0.328540 0.859932 0.598319
O O8 0.344295 0.009075 0.011237
O O9 0.230617 0.555787 0.772772
O O10 0.244825 0.723409 0.190028
O O11 0.000000 0.013983 0.500000
O O12 0.000000 0.036371 0.000000
#
# Coordination Sequence:
#
# PCOD9121346 Si02
#       6
#     2   4   4   4   4   4
#     4   8  16  28  48  72 112 144 176 232 280 334
#     4   9  18  30  49  72 112 143 181 222 284 334
#     4   9  17  31  47  78 109 139 181 223 284 333
#     4  10  19  33  53  75 117 143 178 231 279 332
#     4  10  20  32  50  79 115 145 182 228 271 343
#     4   9  17  28  47  76 108 148 173 225 287 339
#
# _framework density 22.256093
#
# number of rings (size 3 to 8) (size 9 to 14) (size 15 to 20)
#    0.545    2.182    0.000    2.182    2.545    0.000 
#    0.000    0.000    0.000    0.000    0.000    0.000 
#  111.818    0.000    0.000    0.000    0.000    0.000 
#
# Total GULP energy -61290.329224 kJ/mol
# GULP energy per Si atom -5571.848111 kJ/mol
# Density = 2.220544 g / cm^3
# Si number density = 22.256093 Si / 1000 Ang^3
#
#
#
# Elastic Constant Matrix: (Units=GPa)
#
#
# Indices 1 2 3 4 5 6 
#
# 1 149.9230 28.5070 71.1762 0.0000 34.1841 0.0000
# 2 28.5070 21.4362 22.1155 0.0000 11.1999 0.0000
# 3 71.1762 22.1155 127.1271 0.0000 8.3247 0.0000
# 4 0.0000 0.0000 0.0000 23.3202 0.0000 -3.7538
# 5 34.1841 11.1999 8.3247 0.0000 41.0145 0.0000
# 6 0.0000 0.0000 0.0000 -3.7538 0.0000 20.7597
#
#
#
# Elastic Compliance Matrix: (Units=1/GPa)
#
#
# Indices 1 2 3 4 5 6 
#
# 1 0.012018 -0.007106 -0.005031 0.000000 -0.007055 0.000000
# 2 -0.007106 0.069823 -0.007406 0.000000 -0.011641 0.000000
# 3 -0.005031 -0.007406 0.011720 0.000000 0.003836 0.000000
# 4 0.000000 0.000000 0.000000 0.044167 0.000000 0.007986
# 5 -0.007055 -0.011641 0.003836 0.000000 0.032662 0.000000
# 6 0.000000 0.000000 0.000000 0.007986 0.000000 0.049614
#
#
# Mechanical properties :
#
#
# Convention : Reuss Voigt Hill
#
# Bulk Modulus (GPa) = 18.35683 60.23154 39.29418
# Shear Modulus (GPa) = 18.03443 28.79806 23.41624
#
# Velocity S-wave (km/s) = 2.84969 3.60104 3.24717
# Velocity P-wave (km/s) = 4.36962 6.66421 5.63495
#
# Compressibility (1/GPa) = 0.05447564
#
# Stress axis : x y z
#
# Youngs Moduli (GPa) = 83.20681 14.32199 85.32596
#
# Poissons Ratio (x) = 0.10178 0.42924
# Poissons Ratio (y) = 0.59130 0.63189
# Poissons Ratio (z) = 0.41858 0.10606
#
# Static dielectric constant tensor:
#      x y z
#    x 1.836560 0.000000 0.009310 
#    y 0.000000 1.896440 0.000000 
#    z 0.009310 0.000000 1.864200 
# 
# From -- ./inp_files/10099.got.cif
#   From: 2010.05.17/outbox.cif.g08.bks.cpg/sg5_6_cif.got.tgz:10099.got - 2010.06.03 18:56:24.
