data_PCOD9121289
_publ_section_title
;
Structure prediction by ZEFSAII (Michael W. Deem and Ramdas Pophale) SiO2 
 PCOD9121289
Probable space group: C 2
;
_chemical_formula_sum "Si O2"
_cell_formula_units_Z 30
_cell_length_a 18.202593
_cell_length_b 7.456167
_cell_length_c 16.172086
_cell_angle_alpha 90.000000
_cell_angle_beta 144.702339
_cell_angle_gamma 90.000000
_cell_volume 1268.267122
_symmetry_space_group_name_H-M "C 2"
_symmetry_group_IT_number 5
_symmetry_cell_setting 'monoclinic'
loop_
_space_group_symop_operation_xyz
x,y,z
-x,y,-z
1/2+x,1/2+y,z
1/2-x,1/2+y,-z
loop_
_atom_site_type_symbol
_atom_site_label
_atom_site_fract_x
_atom_site_fract_y
_atom_site_fract_z
Si Si1 0.853410 0.153610 0.180265
Si Si2 0.613054 0.588125 0.431714
Si Si3 0.675037 0.870967 0.058085
Si Si4 0.500000 0.692364 0.000000
Si Si5 0.631782 0.060486 0.790352
Si Si6 0.854239 0.514942 0.541241
Si Si7 0.746691 0.983254 0.725482
Si Si8 0.802582 0.076479 0.313105
O O1 0.841600 0.361694 0.149435
O O2 0.885183 0.131979 0.308419
O O3 0.978407 0.053190 0.261094
O O4 0.719021 0.051043 0.051869
O O5 0.739817 0.535959 0.499575
O O6 0.611218 0.804892 0.433438
O O7 0.633596 0.516216 0.543737
O O8 0.533771 0.806351 0.947734
O O9 0.761194 0.711830 0.100270
O O10 0.718774 0.923120 0.192779
O O11 0.620895 0.566391 0.124783
O O12 0.488163 0.111901 0.682217
O O13 0.643845 0.024634 0.702413
O O14 0.801115 0.566245 0.403256
O O15 0.764580 0.768010 0.731122
#
# Coordination Sequence:
#
# PCOD9121289 Si02
#       8
#     4   4   4   2   4   4   4   4
#     4   8  17  33  51  75 112 139 169 218 266 321
#     4  10  19  32  50  81 118 145 171 214 275 338
#     4   9  19  32  55  81 101 137 184 221 262 318
#     4  10  20  34  52  86  98 134 198 230 260 308
#     4   9  17  34  51  78 108 139 172 217 277 326
#     4  10  21  31  51  82 115 147 175 215 277 333
#     4   9  18  36  53  75 108 145 177 230 267 311
#     4   8  17  33  52  78 108 142 170 220 275 317
#
# _framework density 23.654323999999999
#
# number of rings (size 3 to 8) (size 9 to 14) (size 15 to 20)
#    0.800    2.133    0.000    0.800    1.867    5.867 
#    4.800    0.000    0.000    0.000   24.267    0.000 
#    0.000    0.000    0.000    0.000    0.000    0.000 
#
# Total GULP energy -83539.404545 kJ/mol
# GULP energy per Si atom -5569.293636 kJ/mol
# Density = 2.360049 g / cm^3
# Si number density = 23.654324 Si / 1000 Ang^3
#
#
#
# Elastic Constant Matrix: (Units=GPa)
#
#
# Indices 1 2 3 4 5 6 
#
# 1 79.6335 7.8454 36.9160 0.0000 14.8928 0.0000
# 2 7.8454 81.1740 15.4457 0.0000 8.5281 0.0000
# 3 36.9160 15.4457 37.2311 0.0000 11.4436 0.0000
# 4 0.0000 0.0000 0.0000 18.3353 0.0000 -0.3745
# 5 14.8928 8.5281 11.4436 0.0000 43.8595 0.0000
# 6 0.0000 0.0000 0.0000 -0.3745 0.0000 36.7804
#
#
#
# Elastic Compliance Matrix: (Units=1/GPa)
#
#
# Indices 1 2 3 4 5 6 
#
# 1 0.023866 0.002502 -0.023985 0.000000 -0.002332 0.000000
# 2 0.002502 0.013701 -0.007703 0.000000 -0.001504 0.000000
# 3 -0.023985 -0.007703 0.055309 0.000000 -0.004789 0.000000
# 4 0.000000 0.000000 0.000000 0.054551 0.000000 0.000555
# 5 -0.002332 -0.001504 -0.004789 0.000000 0.025134 0.000000
# 6 0.000000 0.000000 0.000000 0.000555 0.000000 0.027194
#
#
# Mechanical properties :
#
#
# Convention : Reuss Voigt Hill
#
# Bulk Modulus (GPa) = 28.98174 35.38364 32.18269
# Shear Modulus (GPa) = 18.54399 28.98381 23.76390
#
# Velocity S-wave (km/s) = 2.80296 3.50424 3.17303
# Velocity P-wave (km/s) = 4.77014 5.60036 5.20184
#
# Compressibility (1/GPa) = 0.03450449
#
# Stress axis : x y z
#
# Youngs Moduli (GPa) = 41.90024 72.98701 18.08014
#
# Poissons Ratio (x) = -0.18264 0.43366
# Poissons Ratio (y) = -0.10485 0.13927
# Poissons Ratio (z) = 1.00500 0.56221
#
# Static dielectric constant tensor:
#      x y z
#    x 1.964060 0.000000 -0.028350 
#    y 0.000000 1.911080 0.000000 
#    z -0.028350 0.000000 1.966890 
# 
# From -- ./inp_files/62182.got.cif
#   From: 2010.05.17/outbox.cif.g08.bks.cpg/sg5_32_cif.got.tgz:62182.got - 2010.06.03 18:56:24.
