data_PCOD9121895
_publ_section_title
;
Structure prediction by ZEFSAII (Michael W. Deem and Ramdas Pophale) SiO2 
 PCOD9121895
Probable space group: C 2
;
_chemical_formula_sum "Si O2"
_cell_formula_units_Z 28
_cell_length_a 21.151753
_cell_length_b 8.885743
_cell_length_c 14.981304
_cell_angle_alpha 90.000000
_cell_angle_beta 152.041193
_cell_angle_gamma 90.000000
_cell_volume 1320.113521
_symmetry_space_group_name_H-M "C 2"
_symmetry_group_IT_number 5
_symmetry_cell_setting 'monoclinic'
loop_
_space_group_symop_operation_xyz
x,y,z
-x,y,-z
1/2+x,1/2+y,z
1/2-x,1/2+y,-z
loop_
_atom_site_type_symbol
_atom_site_label
_atom_site_fract_x
_atom_site_fract_y
_atom_site_fract_z
Si Si1 0.462401 0.388690 0.085792
Si Si2 0.595187 0.184572 0.540223
Si Si3 0.542565 0.044230 0.156772
Si Si4 0.310057 0.613360 0.423374
Si Si5 0.281515 0.447575 0.686283
Si Si6 0.773868 0.437686 0.855201
Si Si7 0.578442 0.443153 0.770538
O O1 0.508002 0.213975 0.143250
O O2 0.601789 0.478651 0.240830
O O3 0.388466 0.423263 0.085244
O O4 0.365546 0.422082 0.882533
O O5 0.500000 0.117276 0.500000
O O6 0.708777 0.287731 0.730937
O O7 0.500349 0.297071 0.365976
O O8 0.670345 0.071805 0.567935
O O9 0.703135 0.022466 0.353013
O O10 0.500000 0.035368 0.000000
O O11 0.435003 0.934812 0.068249
O O12 0.285913 0.786650 0.414542
O O13 0.266831 0.566633 0.268081
O O14 0.464215 0.570128 0.624174
O O15 0.700945 0.470910 0.857072
#
# Coordination Sequence:
#
# PCOD9121895 Si02
#       7
#     4   4   4   4   4   4   4
#     4  10  19  37  57  79 113 146 181 229 276 323
#     4   9  20  37  56  81 115 147 177 230 283 327
#     4   9  15  34  62  79  98 147 195 222 260 333
#     4   9  17  34  61  84 102 146 196 224 267 333
#     4  10  19  37  59  78 110 150 185 221 279 335
#     4   9  17  36  57  79 109 149 185 218 277 336
#     4  10  21  35  57  84 115 142 181 237 275 319
#
# _framework density 21.210297000000001
#
# number of rings (size 3 to 8) (size 9 to 14) (size 15 to 20)
#    0.000    2.571    4.286    1.286    0.000    3.429 
#   18.000    0.000    3.143    0.000    0.000    0.000 
#    0.000    0.000    0.000    0.000    0.000    0.000 
#
# Total GULP energy -78084.498264 kJ/mol
# GULP energy per Si atom -5577.464162 kJ/mol
# Density = 2.116202 g / cm^3
# Si number density = 21.210297 Si / 1000 Ang^3
#
#
#
# Elastic Constant Matrix: (Units=GPa)
#
#
# Indices 1 2 3 4 5 6 
#
# 1 77.5287 -7.7298 54.0859 0.0000 33.3660 0.0000
# 2 -7.7298 21.9413 14.4272 0.0000 24.6068 0.0000
# 3 54.0859 14.4272 34.2060 0.0000 14.5511 0.0000
# 4 0.0000 0.0000 0.0000 11.0861 0.0000 9.3297
# 5 33.3660 24.6068 14.5511 0.0000 37.0021 0.0000
# 6 0.0000 0.0000 0.0000 9.3297 0.0000 9.6948
#
#
#
# Elastic Compliance Matrix: (Units=1/GPa)
#
#
# Indices 1 2 3 4 5 6 
#
# 1 -0.003404 -0.026147 0.009257 0.000000 0.016818 0.000000
# 2 -0.026147 0.008163 0.036243 0.000000 0.003897 0.000000
# 3 0.009257 0.036243 0.015749 0.000000 -0.038643 0.000000
# 4 0.000000 0.000000 0.000000 0.474436 0.000000 -0.456568
# 5 0.016818 0.003897 -0.038643 0.000000 0.024465 0.000000
# 6 0.000000 0.000000 0.000000 -0.456568 0.000000 0.542520
#
#
# Mechanical properties :
#
#
# Convention : Reuss Voigt Hill
#
# Bulk Modulus (GPa) = 16.88791 28.36029 22.62410
# Shear Modulus (GPa) = 4.79404 16.41610 10.60507
#
# Velocity S-wave (km/s) = 1.50504 2.78505 2.23849
# Velocity P-wave (km/s) = 3.31657 4.87258 4.16783
#
# Compressibility (1/GPa) = 0.05921396
#
# Stress axis : x y z
#
# Youngs Moduli (GPa) = -293.72940 122.50556 63.49411
#
# Poissons Ratio (x) = 3.20321 -0.58778
# Poissons Ratio (y) = -7.68027 -2.30123
# Poissons Ratio (z) = 2.71911 -4.44000
#
# Static dielectric constant tensor:
#      x y z
#    x 1.785660 0.000000 -0.012730 
#    y 0.000000 1.766780 0.000000 
#    z -0.012730 0.000000 1.809890 
# 
# From -- ./inp_files/62745.got.cif
#   From: 2010.05.17/outbox.cif.g08.bks.cpg/sg5_32_cif.got.tgz:62745.got - 2010.06.03 18:56:24.
