data_PCOD9121534
_publ_section_title
;
Structure prediction by ZEFSAII (Michael W. Deem and Ramdas Pophale) SiO2 
 PCOD9121534
Probable space group: C 2
;
_chemical_formula_sum "Si O2"
_cell_formula_units_Z 28
_cell_length_a 14.416838
_cell_length_b 18.555674
_cell_length_c 9.584515
_cell_angle_alpha 90.000000
_cell_angle_beta 28.142990
_cell_angle_gamma 90.000000
_cell_volume 1209.368032
_symmetry_space_group_name_H-M "C 2"
_symmetry_group_IT_number 5
_symmetry_cell_setting 'monoclinic'
loop_
_space_group_symop_operation_xyz
x,y,z
-x,y,-z
1/2+x,1/2+y,z
1/2-x,1/2+y,-z
loop_
_atom_site_type_symbol
_atom_site_label
_atom_site_fract_x
_atom_site_fract_y
_atom_site_fract_z
Si Si1 0.266257 0.201840 0.775110
Si Si2 0.021625 0.409345 0.634200
Si Si3 0.283092 0.364526 0.737927
Si Si4 0.195700 0.485817 0.646362
Si Si5 0.205771 0.158894 0.160173
Si Si6 0.662301 0.134411 0.603094
Si Si7 0.787340 0.773959 0.269219
O O1 0.500000 0.203452 0.500000
O O2 0.201392 0.283612 0.823628
O O3 0.248171 0.150986 0.665916
O O4 0.173298 0.171013 0.039306
O O5 0.153268 0.466215 0.542554
O O6 0.123169 0.331810 0.514821
O O7 0.000000 0.425723 0.500000
O O8 0.829144 0.403148 0.985609
O O9 0.500000 0.352991 0.500000
O O10 0.294184 0.417128 0.589645
O O11 0.263439 0.567890 0.547500
O O12 0.000000 0.489487 0.000000
O O13 0.244017 0.237860 0.177430
O O14 0.000000 0.130920 0.500000
O O15 0.421909 0.122244 0.903231
O O16 0.693876 0.206537 0.651220
O O17 0.000000 0.810840 0.000000
#
# Coordination Sequence:
#
# PCOD9121534 Si02
#       7
#     4   4   4   4   4   4   4
#     4   9  18  33  60  93 118 148 200 257 303 353
#     4  11  23  38  63  95 126 163 208 258 308 370
#     4  10  21  41  68  92 120 163 211 260 314 370
#     4  10  22  41  61  86 127 169 204 248 310 377
#     4  10  19  34  60  92 122 153 200 262 315 362
#     4  10  21  39  61  87 121 163 205 251 309 369
#     4  10  20  36  62  91 123 161 204 258 315 369
#
# _framework density 23.152587
#
# number of rings (size 3 to 8) (size 9 to 14) (size 15 to 20)
#    0.000    2.000    0.000    4.286    0.000    5.143 
#    0.000    9.286    0.000   15.429    0.000    0.000 
#    0.000    0.000    0.000    0.000    0.000    0.000 
#
# Total GULP energy -78162.060495 kJ/mol
# GULP energy per Si atom -5583.004321 kJ/mol
# Density = 2.309989 g / cm^3
# Si number density = 23.152587 Si / 1000 Ang^3
#
#
#
# Elastic Constant Matrix: (Units=GPa)
#
#
# Indices 1 2 3 4 5 6 
#
# 1 117.1739 38.7736 53.8349 -0.0400 30.5633 0.0438
# 2 38.7736 73.9764 12.8908 -0.0511 15.6830 0.0325
# 3 53.8349 12.8908 88.0043 -0.0397 21.7778 0.0433
# 4 -0.0400 -0.0511 -0.0397 19.8425 0.0305 5.7802
# 5 30.5633 15.6830 21.7778 0.0305 36.6335 -0.0405
# 6 0.0438 0.0325 0.0433 5.7802 -0.0405 26.2135
#
#
#
# Elastic Compliance Matrix: (Units=1/GPa)
#
#
# Indices 1 2 3 4 5 6 
#
# 1 0.015118 -0.005407 -0.006927 0.000018 -0.006181 -0.000021
# 2 -0.005407 0.016838 0.001769 0.000051 -0.003749 -0.000032
# 3 -0.006927 0.001769 0.016530 0.000041 -0.004805 -0.000034
# 4 0.000018 0.000051 0.000041 0.053857 -0.000119 -0.011876
# 5 -0.006181 -0.003749 -0.004805 -0.000119 0.036916 0.000106
# 6 -0.000021 -0.000032 -0.000034 -0.011876 0.000106 0.040767
#
#
# Mechanical properties :
#
#
# Convention : Reuss Voigt Hill
#
# Bulk Modulus (GPa) = 36.55264 54.46145 45.50704
# Shear Modulus (GPa) = 23.77842 28.11494 25.94668
#
# Velocity S-wave (km/s) = 3.20821 3.48851 3.35129
# Velocity P-wave (km/s) = 5.43557 6.30874 5.88836
#
# Compressibility (1/GPa) = 0.02735781
#
# Stress axis : x y z
#
# Youngs Moduli (GPa) = 66.14655 59.38853 60.49447
#
# Poissons Ratio (x) = 0.32108 0.41903
# Poissons Ratio (y) = 0.35762 -0.10700
# Poissons Ratio (z) = 0.45818 -0.10504
#
# Static dielectric constant tensor:
#      x y z
#    x 1.981360 0.000070 -0.051730 
#    y 0.000070 1.926730 -0.000030 
#    z -0.051730 -0.000030 1.919320 
# 
# From -- ./inp_files/25479.got.cif
#   From: 2010.05.17/outbox.cif.g08.bks.cpg/sg5_13_cif.got.tgz:25479.got - 2010.06.03 18:56:24.
