data_PCOD9121292
_publ_section_title
;
Structure prediction by ZEFSAII (Michael W. Deem and Ramdas Pophale) SiO2 
 PCOD9121292
Probable space group: C 2
;
_chemical_formula_sum "Si O2"
_cell_formula_units_Z 32
_cell_length_a 25.268360
_cell_length_b 5.314025
_cell_length_c 13.915842
_cell_angle_alpha 90.000000
_cell_angle_beta 100.264311
_cell_angle_gamma 90.000000
_cell_volume 1838.669063
_symmetry_space_group_name_H-M "C 2"
_symmetry_group_IT_number 5
_symmetry_cell_setting 'monoclinic'
loop_
_space_group_symop_operation_xyz
x,y,z
-x,y,-z
1/2+x,1/2+y,z
1/2-x,1/2+y,-z
loop_
_atom_site_type_symbol
_atom_site_label
_atom_site_fract_x
_atom_site_fract_y
_atom_site_fract_z
Si Si1 0.852752 0.916310 0.828819
Si Si2 0.475946 0.999826 0.099633
Si Si3 0.675328 0.412696 0.793133
Si Si4 0.355868 0.911748 0.112225
Si Si5 0.209992 0.944162 0.381834
Si Si6 0.479030 0.499216 0.883360
Si Si7 0.717295 0.444732 0.602850
Si Si8 0.299248 0.915859 0.900017
O O1 0.836529 0.928886 0.711784
O O2 0.829583 0.658112 0.865452
O O3 0.916346 0.937519 0.863710
O O4 0.824983 0.156138 0.870399
O O5 0.488551 0.267311 0.151037
O O6 0.412984 0.941713 0.077573
O O7 0.506989 0.767505 0.157627
O O8 0.500000 0.026072 0.000000
O O9 0.646383 0.648404 0.833255
O O10 0.676985 0.434754 0.678796
O O11 0.737462 0.425228 0.848525
O O12 0.652051 0.147712 0.820410
O O13 0.309033 0.921266 0.017235
O O14 0.248168 0.701371 0.378305
O O15 0.192924 0.939575 0.487853
O O16 0.243762 0.200934 0.376799
O O17 0.500000 0.526480 0.000000
#
# Coordination Sequence:
#
# PCOD9121292 Si02
#       8
#     4   4   4   4   4   4   4   4
#     4  12  20  34  58  83 110 145 182 222 282 317
#     4  10  20  37  52  72  98 136 182 234 268 297
#     4  12  22  37  52  79 111 153 180 218 263 326
#     4  12  24  36  54  76 110 151 191 214 267 329
#     4  10  19  35  56  83 104 146 178 226 271 314
#     4  10  19  32  51  76 104 134 174 225 273 311
#     4  10  20  36  56  76 114 140 184 223 264 313
#     4  12  22  35  50  79 117 151 180 216 251 329
#
# _framework density 17.403891999999999
#
# number of rings (size 3 to 8) (size 9 to 14) (size 15 to 20)
#    0.000    1.000    2.500    7.500    0.000    0.000 
#    0.000    0.000    0.000    0.000    0.000    5.250 
#    0.000    0.000    0.000    0.000    0.000    0.000 
#
# Total GULP energy -89360.287210 kJ/mol
# GULP energy per Si atom -5585.017951 kJ/mol
# Density = 1.736428 g / cm^3
# Si number density = 17.403892 Si / 1000 Ang^3
#
#
#
# Elastic Constant Matrix: (Units=GPa)
#
#
# Indices 1 2 3 4 5 6 
#
# 1 42.0068 -6.4846 4.6055 0.0000 1.6170 0.0000
# 2 -6.4846 88.4546 -2.9866 0.0000 -1.0780 0.0000
# 3 4.6055 -2.9866 85.6144 0.0000 -2.5620 0.0000
# 4 0.0000 0.0000 0.0000 8.1671 0.0000 -10.8956
# 5 1.6170 -1.0780 -2.5620 0.0000 17.5921 0.0000
# 6 0.0000 0.0000 0.0000 -10.8956 0.0000 24.9443
#
#
#
# Elastic Compliance Matrix: (Units=1/GPa)
#
#
# Indices 1 2 3 4 5 6 
#
# 1 0.024303 0.001709 -0.001317 0.000000 -0.002321 0.000000
# 2 0.001709 0.011449 0.000325 0.000000 0.000592 0.000000
# 3 -0.001317 0.000325 0.011818 0.000000 0.001862 0.000000
# 4 0.000000 0.000000 0.000000 0.293437 0.000000 0.128173
# 5 -0.002321 0.000592 0.001862 0.000000 0.057365 0.000000
# 6 0.000000 0.000000 0.000000 0.128173 0.000000 0.096075
#
#
# Mechanical properties :
#
#
# Convention : Reuss Voigt Hill
#
# Bulk Modulus (GPa) = 20.40652 22.92714 21.66683
# Shear Modulus (GPa) = 9.81647 24.87012 17.34329
#
# Velocity S-wave (km/s) = 2.37753 3.78431 3.16019
# Velocity P-wave (km/s) = 4.39176 5.68303 5.07860
#
# Compressibility (1/GPa) = 0.04900394
#
# Stress axis : x y z
#
# Youngs Moduli (GPa) = 41.14676 87.34610 84.61526
#
# Poissons Ratio (x) = -0.14927 0.11145
# Poissons Ratio (y) = -0.07032 -0.02751
# Poissons Ratio (z) = 0.05420 -0.02840
#
# Static dielectric constant tensor:
#      x y z
#    x 1.573940 0.000000 -0.014070 
#    y 0.000000 1.658030 0.000000 
#    z -0.014070 0.000000 1.564660 
# 
# From -- ./inp_files/46949.got.cif
#   From: 2010.05.17/outbox.cif.g08.bks.cpg/sg5_24_cif.got.tgz:46949.got - 2010.06.03 18:56:24.
