data_PCOD9121396
_publ_section_title
;
Structure prediction by ZEFSAII (Michael W. Deem and Ramdas Pophale) SiO2 
 PCOD9121396
Probable space group: C 2
;
_chemical_formula_sum "Si O2"
_cell_formula_units_Z 30
_cell_length_a 7.728407
_cell_length_b 14.347347
_cell_length_c 12.045470
_cell_angle_alpha 90.000000
_cell_angle_beta 97.854208
_cell_angle_gamma 90.000000
_cell_volume 1323.097927
_symmetry_space_group_name_H-M "C 2"
_symmetry_group_IT_number 5
_symmetry_cell_setting 'monoclinic'
loop_
_space_group_symop_operation_xyz
x,y,z
-x,y,-z
1/2+x,1/2+y,z
1/2-x,1/2+y,-z
loop_
_atom_site_type_symbol
_atom_site_label
_atom_site_fract_x
_atom_site_fract_y
_atom_site_fract_z
Si Si1 0.144973 0.458070 0.181977
Si Si2 0.770112 0.513450 0.171675
Si Si3 0.246415 0.548660 0.396831
Si Si4 0.464664 0.187875 0.296919
Si Si5 0.638292 0.303592 0.924788
Si Si6 0.000000 0.805228 0.500000
Si Si7 0.871769 0.978070 0.618635
Si Si8 0.787395 0.618054 0.966769
O O1 0.166483 0.464437 0.316127
O O2 0.240059 0.377313 0.125015
O O3 0.937418 0.455409 0.145701
O O4 0.227762 0.556656 0.145096
O O5 0.656127 0.464145 0.253590
O O6 0.694622 0.559420 0.055462
O O7 0.846658 0.601082 0.248761
O O8 0.148065 0.642388 0.351920
O O9 0.232140 0.529738 0.527018
O O10 0.450410 0.537145 0.383419
O O11 0.462113 0.250822 0.185624
O O12 0.401366 0.243977 0.399218
O O13 0.744614 0.225882 0.006830
O O14 0.500000 0.344904 0.000000
O O15 0.888384 0.876731 0.564266
O O16 0.000000 0.614265 0.000000
#
# Coordination Sequence:
#
# PCOD9121396 Si02
#       8
#     4   4   4   4   4   2   4   4
#     4  10  19  34  58  86 114 152 198 241 293 352
#     4   9  19  36  58  78 111 155 193 234 288 349
#     4   9  19  34  55  81 110 145 190 235 288 348
#     4  10  19  36  59  80 108 150 195 238 288 346
#     4  10  19  33  57  86 114 150 197 245 293 349
#     4  10  20  32  52  82 112 140 186 238 288 348
#     4  10  20  35  54  82 115 148 188 239 296 352
#     4   8  17  34  54  79 109 148 193 237 287 344
#
# _framework density 22.674057999999999
#
# number of rings (size 3 to 8) (size 9 to 14) (size 15 to 20)
#    0.000    2.667    0.000    4.800    0.000    3.733 
#    0.000    2.667    0.000   23.200    0.000    0.000 
#    0.000    0.000    0.000    0.000    0.000    0.000 
#
# Total GULP energy -83579.623625 kJ/mol
# GULP energy per Si atom -5571.974908 kJ/mol
# Density = 2.262245 g / cm^3
# Si number density = 22.674058 Si / 1000 Ang^3
#
#
#
# Elastic Constant Matrix: (Units=GPa)
#
#
# Indices 1 2 3 4 5 6 
#
# 1 38.6485 24.1556 9.6226 0.0000 -5.1468 0.0000
# 2 24.1556 78.8004 11.9323 0.0000 -7.6590 0.0000
# 3 9.6226 11.9323 90.9338 0.0000 -22.7632 0.0000
# 4 0.0000 0.0000 0.0000 40.1147 0.0000 -5.6148
# 5 -5.1468 -7.6590 -22.7632 0.0000 39.3905 0.0000
# 6 0.0000 0.0000 0.0000 -5.6148 0.0000 14.3328
#
#
#
# Elastic Compliance Matrix: (Units=1/GPa)
#
#
# Indices 1 2 3 4 5 6 
#
# 1 0.032478 -0.009547 -0.001855 0.000000 0.001315 0.000000
# 2 -0.009547 0.015864 -0.000715 0.000000 0.001424 0.000000
# 3 -0.001855 -0.000715 0.013084 0.000000 0.007180 0.000000
# 4 0.000000 0.000000 0.000000 0.026375 0.000000 0.010332
# 5 0.001315 0.001424 0.007180 0.000000 0.029985 0.000000
# 6 0.000000 0.000000 0.000000 0.010332 0.000000 0.073818
#
#
# Mechanical properties :
#
#
# Convention : Reuss Voigt Hill
#
# Bulk Modulus (GPa) = 26.88713 33.31152 30.09932
# Shear Modulus (GPa) = 21.90730 29.61243 25.75986
#
# Velocity S-wave (km/s) = 3.11172 3.61779 3.37426
# Velocity P-wave (km/s) = 4.97938 5.67226 5.33708
#
# Compressibility (1/GPa) = 0.03719252
#
# Stress axis : x y z
#
# Youngs Moduli (GPa) = 30.78980 63.03756 76.42678
#
# Poissons Ratio (x) = 0.60183 0.14175
# Poissons Ratio (y) = 0.29396 0.05464
# Poissons Ratio (z) = 0.05711 0.04506
#
# Static dielectric constant tensor:
#      x y z
#    x 1.942000 0.000000 0.029690 
#    y 0.000000 1.910160 0.000000 
#    z 0.029690 0.000000 1.917790 
# 
# From -- ./inp_files/36138.got.cif
#   From: 2010.05.17/outbox.cif.g08.bks.cpg/sg5_19_cif.got.tgz:36138.got - 2010.06.03 18:56:24.
