data_PCOD9121041
_publ_section_title
;
Structure prediction by ZEFSAII (Michael W. Deem and Ramdas Pophale) SiO2 
 PCOD9121041
Probable space group: C 2
;
_chemical_formula_sum "Si O2"
_cell_formula_units_Z 24
_cell_length_a 15.963547
_cell_length_b 11.751731
_cell_length_c 14.024310
_cell_angle_alpha 90.000000
_cell_angle_beta 26.378798
_cell_angle_gamma 90.000000
_cell_volume 1168.941199
_symmetry_space_group_name_H-M "C 2"
_symmetry_group_IT_number 5
_symmetry_cell_setting 'monoclinic'
loop_
_space_group_symop_operation_xyz
x,y,z
-x,y,-z
1/2+x,1/2+y,z
1/2-x,1/2+y,-z
loop_
_atom_site_type_symbol
_atom_site_label
_atom_site_fract_x
_atom_site_fract_y
_atom_site_fract_z
Si Si1 0.858234 0.279410 0.033201
Si Si2 0.288326 0.317489 0.620185
Si Si3 0.182848 0.604083 0.548578
Si Si4 0.519321 0.518452 0.090376
Si Si5 0.214740 0.476964 0.025641
Si Si6 0.041032 0.068049 0.568141
O O1 0.709820 0.281938 0.270819
O O2 0.913032 0.149125 0.968198
O O3 0.784675 0.353237 0.022472
O O4 0.062763 0.337112 0.840347
O O5 0.341092 0.217843 0.491984
O O6 0.387414 0.437397 0.507704
O O7 0.321569 0.519447 0.347686
O O8 0.299118 0.628792 0.528574
O O9 0.986163 0.539196 0.762989
O O10 0.500000 0.489691 0.000000
O O11 0.683794 0.455421 0.977437
O O12 0.348451 0.558750 0.824901
O O13 0.000000 0.104522 0.500000
#
# Coordination Sequence:
#
# PCOD9121041 Si02
#       6
#     4   4   4   4   4   4
#     4  10  18  38  63  94 122 160 204 258 304 367
#     4  10  19  37  64  90 125 158 208 256 302 366
#     4  10  22  38  57  96 130 159 205 260 311 364
#     4  10  21  40  60  91 127 161 207 258 306 373
#     4  11  23  34  60  96 129 159 207 258 316 359
#     4  11  22  36  61  93 125 163 207 260 306 368
#
# _framework density 20.531400000000001
#
# number of rings (size 3 to 8) (size 9 to 14) (size 15 to 20)
#    0.000    1.667    6.667    0.000    2.333    1.333 
#    0.000    0.000    0.000   12.000    4.333    0.000 
#    0.000    0.000    0.000    0.000    0.000    0.000 
#
# Total GULP energy -66899.579129 kJ/mol
# GULP energy per Si atom -5574.964927 kJ/mol
# Density = 2.048467 g / cm^3
# Si number density = 20.531400 Si / 1000 Ang^3
#
#
#
# Elastic Constant Matrix: (Units=GPa)
#
#
# Indices 1 2 3 4 5 6 
#
# 1 181.2757 30.1083 60.3136 -0.0001 22.8611 0.0000
# 2 30.1083 31.1501 25.1058 -0.0001 2.1891 0.0000
# 3 60.3136 25.1058 129.6188 -0.0001 -2.4830 0.0000
# 4 -0.0001 -0.0001 -0.0001 9.2741 0.0001 -11.0887
# 5 22.8611 2.1891 -2.4830 0.0001 30.4030 0.0000
# 6 0.0000 0.0000 0.0000 -11.0887 0.0000 26.7579
#
#
#
# Elastic Compliance Matrix: (Units=1/GPa)
#
#
# Indices 1 2 3 4 5 6 
#
# 1 0.008065 -0.005050 -0.002888 0.000000 -0.005937 0.000000
# 2 -0.005050 0.041546 -0.005691 0.000000 0.000341 0.000000
# 3 -0.002888 -0.005691 0.010227 0.000000 0.003417 0.000000
# 4 0.000000 0.000000 0.000000 0.213725 -0.000001 0.088569
# 5 -0.005937 0.000341 0.003417 -0.000001 0.037610 0.000000
# 6 0.000000 0.000000 0.000000 0.088569 0.000000 0.074076
#
#
# Mechanical properties :
#
#
# Convention : Reuss Voigt Hill
#
# Bulk Modulus (GPa) = 30.69398 63.67777 47.18587
# Shear Modulus (GPa) = 11.81012 28.38816 20.09914
#
# Velocity S-wave (km/s) = 2.40098 3.72246 3.13221
# Velocity P-wave (km/s) = 4.76115 7.03973 6.00942
#
# Compressibility (1/GPa) = 0.03257968
#
# Stress axis : x y z
#
# Youngs Moduli (GPa) = 123.99425 24.06951 97.78465
#
# Poissons Ratio (x) = 0.12155 0.28243
# Poissons Ratio (y) = 0.62619 0.55646
# Poissons Ratio (z) = 0.35813 0.13697
#
# Static dielectric constant tensor:
#      x y z
#    x 1.869380 0.000000 -0.017630 
#    y 0.000000 1.756550 0.000000 
#    z -0.017630 0.000000 1.793700 
# 
# From -- ./inp_files/43025.got.cif
#   From: 2010.05.17/outbox.cif.g08.bks.cpg/sg5_22_cif.got.tgz:43025.got - 2010.06.03 18:56:24.
