data_PCOD9121708
_publ_section_title
;
Structure prediction by ZEFSAII (Michael W. Deem and Ramdas Pophale) SiO2 
 PCOD9121708
Probable space group: C 2
;
_chemical_formula_sum "Si O2"
_cell_formula_units_Z 24
_cell_length_a 9.963690
_cell_length_b 17.362610
_cell_length_c 15.694916
_cell_angle_alpha 90.000000
_cell_angle_beta 25.871116
_cell_angle_gamma 90.000000
_cell_volume 1184.751994
_symmetry_space_group_name_H-M "C 2"
_symmetry_group_IT_number 5
_symmetry_cell_setting 'monoclinic'
loop_
_space_group_symop_operation_xyz
x,y,z
-x,y,-z
1/2+x,1/2+y,z
1/2-x,1/2+y,-z
loop_
_atom_site_type_symbol
_atom_site_label
_atom_site_fract_x
_atom_site_fract_y
_atom_site_fract_z
Si Si1 0.668377 0.188160 0.736149
Si Si2 0.079176 0.527309 0.055366
Si Si3 0.330192 0.610164 0.268694
Si Si4 0.116709 0.736394 0.266707
Si Si5 0.167524 0.366584 0.736701
Si Si6 0.948830 0.245724 0.738182
O O1 0.577322 0.100959 0.810104
O O2 0.433013 0.227183 0.804949
O O3 0.701572 0.233656 0.805757
O O4 0.000000 0.187327 0.500000
O O5 0.955001 0.448492 0.164936
O O6 0.443520 0.538223 0.864338
O O7 0.000000 0.529438 0.000000
O O8 0.257754 0.657570 0.224384
O O9 0.516778 0.671334 0.220875
O O10 0.000000 0.593415 0.500000
O O11 0.290512 0.809622 0.206350
O O12 0.779146 0.744695 0.501454
O O13 0.500000 0.373845 0.500000
O O14 0.949382 0.321745 0.794752
#
# Coordination Sequence:
#
# PCOD9121708 Si02
#       6
#     4   4   4   4   4   4
#     4  10  19  35  65  99 123 153 204 261 304 362
#     4  12  23  36  60  98 126 163 204 254 314 359
#     4   9  18  37  62  89 121 164 205 251 299 362
#     4   8  17  35  66  90 115 158 211 247 301 361
#     4   9  19  39  63  90 124 165 202 249 311 371
#     4   8  15  35  65  91 116 160 202 249 302 358
#
# _framework density 20.257404999999999
#
# number of rings (size 3 to 8) (size 9 to 14) (size 15 to 20)
#    0.000    2.667    1.667    2.500    0.000    0.667 
#    6.000    0.000    7.333    1.000    8.667    0.000 
#    0.000    0.000    0.000    0.000    0.000    0.000 
#
# Total GULP energy -67019.789573 kJ/mol
# GULP energy per Si atom -5584.982464 kJ/mol
# Density = 2.021130 g / cm^3
# Si number density = 20.257405 Si / 1000 Ang^3
#
#
#
# Elastic Constant Matrix: (Units=GPa)
#
#
# Indices 1 2 3 4 5 6 
#
# 1 187.7557 84.2836 42.0253 -0.0767 1.1434 0.0529
# 2 84.2836 144.8940 51.1041 -0.0047 -0.3686 -0.0003
# 3 42.0253 51.1041 99.3806 -0.0599 -7.5078 0.0445
# 4 -0.0767 -0.0047 -0.0599 39.1862 0.0401 2.3085
# 5 1.1434 -0.3686 -7.5078 0.0401 26.2223 -0.0037
# 6 0.0529 -0.0003 0.0445 2.3085 -0.0037 20.0420
#
#
#
# Elastic Compliance Matrix: (Units=1/GPa)
#
#
# Indices 1 2 3 4 5 6 
#
# 1 0.007319 -0.003846 -0.001171 0.000014 -0.000708 -0.000019
# 2 -0.003846 0.010486 -0.003825 -0.000013 -0.000780 0.000020
# 3 -0.001171 -0.003825 0.012801 0.000015 0.003662 -0.000026
# 4 0.000014 -0.000013 0.000015 0.025694 -0.000036 -0.002960
# 5 -0.000708 -0.000780 0.003662 -0.000036 0.039204 0.000005
# 6 -0.000019 0.000020 -0.000026 -0.002960 0.000005 0.050236
#
#
# Mechanical properties :
#
#
# Convention : Reuss Voigt Hill
#
# Bulk Modulus (GPa) = 77.38363 87.42848 82.40605
# Shear Modulus (GPa) = 29.80982 34.06461 31.93721
#
# Velocity S-wave (km/s) = 3.84024 4.10517 3.97491
# Velocity P-wave (km/s) = 7.61225 8.10693 7.86348
#
# Compressibility (1/GPa) = 0.01292263
#
# Stress axis : x y z
#
# Youngs Moduli (GPa) = 136.62987 95.36596 78.12056
#
# Poissons Ratio (x) = 0.36681 0.09145
# Poissons Ratio (y) = 0.52553 0.29878
# Poissons Ratio (z) = 0.15994 0.36473
#
# Static dielectric constant tensor:
#      x y z
#    x 1.727860 0.000000 -0.006370 
#    y 0.000000 1.652190 0.000200 
#    z -0.006370 0.000200 1.794750 
# 
# From -- ./inp_files/51314.got.cif
#   From: 2010.05.17/outbox.cif.g08.bks.cpg/sg5_26_cif.got.tgz:51314.got - 2010.06.03 18:56:24.
