data_PCOD9121019
_publ_section_title
;
Structure prediction by ZEFSAII (Michael W. Deem and Ramdas Pophale) SiO2 
 PCOD9121019
Probable space group: C 2
;
_chemical_formula_sum "Si O2"
_cell_formula_units_Z 20
_cell_length_a 11.248404
_cell_length_b 9.487858
_cell_length_c 12.089356
_cell_angle_alpha 90.000000
_cell_angle_beta 37.375708
_cell_angle_gamma 90.000000
_cell_volume 783.211081
_symmetry_space_group_name_H-M "C 2"
_symmetry_group_IT_number 5
_symmetry_cell_setting 'monoclinic'
loop_
_space_group_symop_operation_xyz
x,y,z
-x,y,-z
1/2+x,1/2+y,z
1/2-x,1/2+y,-z
loop_
_atom_site_type_symbol
_atom_site_label
_atom_site_fract_x
_atom_site_fract_y
_atom_site_fract_z
Si Si1 0.960370 0.185570 0.767693
Si Si2 0.237259 0.030922 0.701383
Si Si3 0.204707 0.287200 0.893601
Si Si4 0.187649 0.710179 0.783723
Si Si5 0.618955 0.216717 0.586509
O O1 0.860124 0.142586 0.728184
O O2 0.161733 0.273372 0.599802
O O3 0.824251 0.269489 0.953826
O O4 0.033991 0.051918 0.783363
O O5 0.257246 0.871660 0.719933
O O6 0.208736 0.138521 0.823546
O O7 0.386165 0.088484 0.497357
O O8 0.435206 0.319177 0.703805
O O9 0.000000 0.357342 0.000000
O O10 0.131669 0.661566 0.702513
O O11 0.000000 0.704536 0.000000
#
# Coordination Sequence:
#
# PCOD9121019 Si02
#       5
#     4   4   4   4   4
#     4   9  21  37  61  96 136 164 227 286 324 399
#     4   9  23  39  67  97 134 170 229 276 336 404
#     4  10  18  38  61  89 134 175 214 286 333 386
#     4  12  21  41  72  98 129 185 226 273 346 407
#     4  10  22  36  62 100 132 171 226 286 327 402
#
# _framework density 25.535900000000002
#
# number of rings (size 3 to 8) (size 9 to 14) (size 15 to 20)
#    1.200    0.800    2.000    3.000    0.000    3.200 
#    0.000    0.000    8.800    1.200    0.000    0.000 
#    0.000    0.000    0.000    0.000    0.000    0.000 
#
# Total GULP energy -55730.695903 kJ/mol
# GULP energy per Si atom -5573.069590 kJ/mol
# Density = 2.547778 g / cm^3
# Si number density = 25.535900 Si / 1000 Ang^3
#
#
#
# Elastic Constant Matrix: (Units=GPa)
#
#
# Indices 1 2 3 4 5 6 
#
# 1 153.5368 20.8288 46.4127 -0.0003 9.3868 0.0001
# 2 20.8288 61.1544 22.5613 -0.0002 8.3767 0.0002
# 3 46.4127 22.5613 180.2131 -0.0005 -5.1482 0.0005
# 4 -0.0003 -0.0002 -0.0005 8.4896 0.0003 7.8810
# 5 9.3868 8.3767 -5.1482 0.0003 66.2843 -0.0001
# 6 0.0001 0.0002 0.0005 7.8810 -0.0001 15.6483
#
#
#
# Elastic Compliance Matrix: (Units=1/GPa)
#
#
# Indices 1 2 3 4 5 6 
#
# 1 0.007319 -0.001738 -0.001695 0.000000 -0.000948 0.000000
# 2 -0.001738 0.017926 -0.001858 0.000001 -0.002164 -0.000001
# 3 -0.001695 -0.001858 0.006245 0.000001 0.000960 -0.000001
# 4 0.000000 0.000001 0.000001 0.221213 -0.000001 -0.111410
# 5 -0.000948 -0.002164 0.000960 -0.000001 0.015569 0.000001
# 6 0.000000 -0.000001 -0.000001 -0.111410 0.000001 0.120014
#
#
# Mechanical properties :
#
#
# Convention : Reuss Voigt Hill
#
# Bulk Modulus (GPa) = 47.82624 63.83443 55.83034
# Shear Modulus (GPa) = 12.32020 38.42454 25.37237
#
# Velocity S-wave (km/s) = 2.19889 3.88329 3.15556
# Velocity P-wave (km/s) = 5.02161 6.72003 5.93192
#
# Compressibility (1/GPa) = 0.02090902
#
# Stress axis : x y z
#
# Youngs Moduli (GPa) = 136.62946 55.78514 160.11573
#
# Poissons Ratio (x) = 0.09694 0.27132
# Poissons Ratio (y) = 0.23743 0.29757
# Poissons Ratio (z) = 0.23152 0.10367
#
# Static dielectric constant tensor:
#      x y z
#    x 2.139940 0.000000 -0.107940 
#    y 0.000000 2.020310 0.000000 
#    z -0.107940 0.000000 2.043780 
# 
# From -- ./inp_files/39533.got.cif
#   From: 2010.05.17/outbox.cif.g08.bks.cpg/sg5_20_cif.got.tgz:39533.got - 2010.06.03 18:56:24.
