data_PCOD9121022
_publ_section_title
;
Structure prediction by ZEFSAII (Michael W. Deem and Ramdas Pophale) SiO2 
 PCOD9121022
Probable space group: C 2
;
_chemical_formula_sum "Si O2"
_cell_formula_units_Z 24
_cell_length_a 7.618002
_cell_length_b 12.698909
_cell_length_c 10.960625
_cell_angle_alpha 90.000000
_cell_angle_beta 122.764404
_cell_angle_gamma 90.000000
_cell_volume 891.638285
_symmetry_space_group_name_H-M "C 2"
_symmetry_group_IT_number 5
_symmetry_cell_setting 'monoclinic'
loop_
_space_group_symop_operation_xyz
x,y,z
-x,y,-z
1/2+x,1/2+y,z
1/2-x,1/2+y,-z
loop_
_atom_site_type_symbol
_atom_site_label
_atom_site_fract_x
_atom_site_fract_y
_atom_site_fract_z
Si Si1 0.290755 0.254160 0.595240
Si Si2 0.631995 0.469296 0.237411
Si Si3 0.729300 0.037883 0.971836
Si Si4 0.259940 0.305046 0.317893
Si Si5 0.191156 0.531924 0.307682
Si Si6 0.500000 0.045999 0.500000
Si Si7 0.500000 0.731204 0.000000
O O1 0.300650 0.358533 0.679473
O O2 0.184000 0.276053 0.424972
O O3 0.533215 0.239040 0.641740
O O4 0.222596 0.149303 0.639214
O O5 0.705661 0.473824 0.125472
O O6 0.753142 0.559308 0.359590
O O7 0.384465 0.491936 0.132493
O O8 0.480605 0.039321 0.864942
O O9 0.816827 0.155438 0.980640
O O10 0.327584 0.427520 0.347008
O O11 0.090311 0.293436 0.148467
O O12 0.073266 0.509909 0.392467
#
# Coordination Sequence:
#
# PCOD9121022 Si02
#       7
#     4   4   4   4   4   2   2
#     4  11  23  41  63  91 129 169 209 270 327 373
#     4   9  19  37  62  88 119 159 208 265 308 383
#     4   9  21  38  68  89 118 172 211 255 323 385
#     4  11  24  38  65  94 127 167 215 267 321 384
#     4  11  22  38  65  94 120 167 215 258 322 388
#     4  10  18  38  62  84 116 154 212 254 310 376
#     4  10  20  40  58  96 120 166 216 254 326 382
#
# _framework density 26.916744000000001
#
# number of rings (size 3 to 8) (size 9 to 14) (size 15 to 20)
#    0.000    2.000    3.333    1.000    7.000    0.000 
#    0.000    3.333   14.667    0.000    0.000    0.000 
#    0.000    0.000    0.000    0.000    0.000    0.000 
#
# Total GULP energy -66924.276521 kJ/mol
# GULP energy per Si atom -5577.023043 kJ/mol
# Density = 2.685548 g / cm^3
# Si number density = 26.916744 Si / 1000 Ang^3
#
#
#
# Elastic Constant Matrix: (Units=GPa)
#
#
# Indices 1 2 3 4 5 6 
#
# 1 64.5427 19.3371 29.1945 0.0000 27.9590 0.0000
# 2 19.3371 194.2130 54.0432 0.0000 0.7518 0.0000
# 3 29.1945 54.0432 266.0041 0.0000 25.7835 0.0000
# 4 0.0000 0.0000 0.0000 132.6212 0.0000 -19.3856
# 5 27.9590 0.7518 25.7835 0.0000 41.5457 0.0000
# 6 0.0000 0.0000 0.0000 -19.3856 0.0000 17.1309
#
#
#
# Elastic Compliance Matrix: (Units=1/GPa)
#
#
# Indices 1 2 3 4 5 6 
#
# 1 0.022876 -0.002040 -0.000647 0.000000 -0.014957 0.000000
# 2 -0.002040 0.005655 -0.001115 0.000000 0.001963 0.000000
# 3 -0.000647 -0.001115 0.004270 0.000000 -0.002194 0.000000
# 4 0.000000 0.000000 0.000000 0.009035 0.000000 0.010224
# 5 -0.014957 0.001963 -0.002194 0.000000 0.035462 0.000000
# 6 0.000000 0.000000 0.000000 0.010224 0.000000 0.069944
#
#
# Mechanical properties :
#
#
# Convention : Reuss Voigt Hill
#
# Bulk Modulus (GPa) = 39.68657 81.10107 60.39382
# Shear Modulus (GPa) = 30.62912 66.40523 48.51717
#
# Velocity S-wave (km/s) = 3.37697 4.97234 4.25018
# Velocity P-wave (km/s) = 5.47553 7.94741 6.82432
#
# Compressibility (1/GPa) = 0.02519744
#
# Stress axis : x y z
#
# Youngs Moduli (GPa) = 43.71326 176.84014 234.21514
#
# Poissons Ratio (x) = 0.36074 0.15143
# Poissons Ratio (y) = 0.08917 0.26120
# Poissons Ratio (z) = 0.02826 0.19722
#
# Static dielectric constant tensor:
#      x y z
#    x 2.099060 0.000000 0.021470 
#    y 0.000000 2.202410 0.000000 
#    z 0.021470 0.000000 2.083090 
# 
# From -- ./inp_files/39299.got.cif
#   From: 2010.05.17/outbox.cif.g08.bks.cpg/sg5_20_cif.got.tgz:39299.got - 2010.06.03 18:56:24.
