data_PCOD9121569
_publ_section_title
;
Structure prediction by ZEFSAII (Michael W. Deem and Ramdas Pophale) SiO2 
 PCOD9121569
Probable space group: C 2
;
_chemical_formula_sum "Si O2"
_cell_formula_units_Z 28
_cell_length_a 15.596770
_cell_length_b 14.106366
_cell_length_c 16.846289
_cell_angle_alpha 90.000000
_cell_angle_beta 25.085361
_cell_angle_gamma 90.000000
_cell_volume 1571.401556
_symmetry_space_group_name_H-M "C 2"
_symmetry_group_IT_number 5
_symmetry_cell_setting 'monoclinic'
loop_
_space_group_symop_operation_xyz
x,y,z
-x,y,-z
1/2+x,1/2+y,z
1/2-x,1/2+y,-z
loop_
_atom_site_type_symbol
_atom_site_label
_atom_site_fract_x
_atom_site_fract_y
_atom_site_fract_z
Si Si1 0.830859 0.236770 0.201353
Si Si2 0.442306 0.546989 0.456790
Si Si3 0.502615 0.052770 0.762557
Si Si4 0.310070 0.148240 0.533791
Si Si5 0.128092 0.150563 0.163489
Si Si6 0.037992 0.836879 0.322006
Si Si7 0.609625 0.841624 0.097720
O O1 0.710229 0.160911 0.354884
O O2 0.680136 0.298885 0.274640
O O3 0.952323 0.301441 0.163189
O O4 0.000000 0.196030 0.000000
O O5 0.500000 0.549484 0.500000
O O6 0.213230 0.579378 0.629954
O O7 0.603396 0.609397 0.272068
O O8 0.454098 0.438664 0.416208
O O9 0.536319 0.080730 0.642060
O O10 0.459606 0.942409 0.812348
O O11 0.316706 0.108564 0.957659
O O12 0.374039 0.253602 0.449108
O O13 0.084607 0.119240 0.697464
O O14 0.130000 0.263201 0.149074
O O15 0.179165 0.848157 0.126845
#
# Coordination Sequence:
#
# PCOD9121569 Si02
#       7
#     4   4   4   4   4   4   4
#     4   9  19  32  55  86 117 146 167 222 287 323
#     4  11  22  34  56  86 109 139 179 222 280 333
#     4  11  21  36  56  79 111 148 180 224 271 320
#     4  10  20  33  53  80 114 147 181 211 271 334
#     4  10  21  37  51  78 111 146 183 223 264 321
#     4  11  18  33  57  85 118 139 169 226 279 327
#     4  10  19  35  55  81 115 145 181 219 268 323
#
# _framework density 17.818489
#
# number of rings (size 3 to 8) (size 9 to 14) (size 15 to 20)
#    0.000    1.714    2.857    3.857    0.000    0.571 
#    0.000    0.000    0.000    1.714    0.000    2.000 
#    0.000    0.000    0.000    0.000    0.000    0.000 
#
# Total GULP energy -78060.812004 kJ/mol
# GULP energy per Si atom -5575.772286 kJ/mol
# Density = 1.777793 g / cm^3
# Si number density = 17.818489 Si / 1000 Ang^3
#
#
#
# Elastic Constant Matrix: (Units=GPa)
#
#
# Indices 1 2 3 4 5 6 
#
# 1 38.5572 33.9753 37.8374 -0.0061 7.2134 0.0005
# 2 33.9753 73.3599 50.4504 -0.0129 20.8620 0.0058
# 3 37.8374 50.4504 161.7373 -0.0080 13.2843 0.0042
# 4 -0.0061 -0.0129 -0.0080 39.8532 0.0058 7.6218
# 5 7.2134 20.8620 13.2843 0.0058 33.8567 -0.0023
# 6 0.0005 0.0058 0.0042 7.6218 -0.0023 20.0174
#
#
#
# Elastic Compliance Matrix: (Units=1/GPa)
#
#
# Indices 1 2 3 4 5 6 
#
# 1 0.047666 -0.019494 -0.005397 -0.000002 0.003974 0.000007
# 2 -0.019494 0.028342 -0.003293 0.000010 -0.012019 -0.000012
# 3 -0.005397 -0.003293 0.008485 0.000000 -0.000150 -0.000001
# 4 -0.000002 0.000010 0.000000 0.027063 -0.000011 -0.010304
# 5 0.003974 -0.012019 -0.000150 -0.000011 0.036154 0.000012
# 6 0.000007 -0.000012 -0.000001 -0.010304 0.000012 0.053880
#
#
# Mechanical properties :
#
#
# Convention : Reuss Voigt Hill
#
# Bulk Modulus (GPa) = 35.55566 57.57561 46.56564
# Shear Modulus (GPa) = 18.70327 28.83821 23.77074
#
# Velocity S-wave (km/s) = 3.24335 4.02735 3.65643
# Velocity P-wave (km/s) = 5.83296 7.34905 6.63446
#
# Compressibility (1/GPa) = 0.02812491
#
# Stress axis : x y z
#
# Youngs Moduli (GPa) = 20.97951 35.28280 117.85603
#
# Poissons Ratio (x) = 0.68781 0.63603
# Poissons Ratio (y) = 0.40898 0.38811
# Poissons Ratio (z) = 0.11322 0.11619
#
# Static dielectric constant tensor:
#      x y z
#    x 1.629890 0.000000 -0.009920 
#    y 0.000000 1.598990 0.000000 
#    z -0.009920 0.000000 1.663630 
# 
# From -- ./inp_files/54742.got.cif
#   From: 2010.05.17/outbox.cif.g08.bks.cpg/sg5_28_cif.got.tgz:54742.got - 2010.06.03 18:56:24.
