data_PCOD9121574
_publ_section_title
;
Structure prediction by ZEFSAII (Michael W. Deem and Ramdas Pophale) SiO2 
 PCOD9121574
Probable space group: C 2
;
_chemical_formula_sum "Si O2"
_cell_formula_units_Z 32
_cell_length_a 30.818567
_cell_length_b 7.500289
_cell_length_c 21.919513
_cell_angle_alpha 90.000000
_cell_angle_beta 17.597862
_cell_angle_gamma 90.000000
_cell_volume 1531.823728
_symmetry_space_group_name_H-M "C 2"
_symmetry_group_IT_number 5
_symmetry_cell_setting 'monoclinic'
loop_
_space_group_symop_operation_xyz
x,y,z
-x,y,-z
1/2+x,1/2+y,z
1/2-x,1/2+y,-z
loop_
_atom_site_type_symbol
_atom_site_label
_atom_site_fract_x
_atom_site_fract_y
_atom_site_fract_z
Si Si1 0.029088 0.467010 0.524887
Si Si2 0.874810 0.506285 0.209652
Si Si3 0.042737 0.610417 0.104899
Si Si4 0.435930 0.334021 0.360408
Si Si5 0.070366 0.834980 0.491447
Si Si6 0.745976 0.695328 0.274452
Si Si7 0.255314 0.393534 0.040527
Si Si8 0.762530 0.980795 0.894665
O O1 0.109923 0.652944 0.404772
O O2 0.119522 0.337571 0.446420
O O3 0.000000 0.370005 0.500000
O O4 0.871205 0.507700 0.761444
O O5 0.722497 0.414743 0.427392
O O6 0.831810 0.671914 0.222597
O O7 0.943333 0.544615 0.183296
O O8 0.000000 0.413401 0.000000
O O9 0.957584 0.703861 0.274084
O O10 0.153263 0.736942 0.918709
O O11 0.142347 0.462379 0.004184
O O12 0.449116 0.263734 0.412265
O O13 0.581729 0.454556 0.163760
O O14 0.179830 0.998934 0.349853
O O15 0.922017 0.917320 0.665714
O O16 0.238513 0.193249 0.089062
O O17 0.227824 0.389771 0.005355
#
# Coordination Sequence:
#
# PCOD9121574 Si02
#       8
#     4   4   4   4   4   4   4   4
#     4  12  23  34  59  97 130 161 210 252 318 399
#     4   9  20  42  66  87 121 178 226 263 330 383
#     4  10  20  37  66  91 122 171 223 269 316 381
#     4   9  19  39  61  87 125 164 215 266 316 388
#     4  10  22  39  59  90 132 169 204 254 328 392
#     4  10  22  41  65  87 132 173 207 262 325 375
#     4  10  19  35  55  89 128 164 198 258 324 383
#     4  10  19  35  59  86 127 166 205 259 317 382
#
# _framework density 20.890132999999999
#
# number of rings (size 3 to 8) (size 9 to 14) (size 15 to 20)
#    0.000    2.000    1.250    3.750    1.750    0.000 
#    4.500    0.000    8.250    3.750    0.000    0.000 
#    0.000    0.000    0.000    0.000    0.000    0.000 
#
# Total GULP energy -89127.635901 kJ/mol
# GULP energy per Si atom -5570.477244 kJ/mol
# Density = 2.084259 g / cm^3
# Si number density = 20.890133 Si / 1000 Ang^3
#
#
#
# Elastic Constant Matrix: (Units=GPa)
#
#
# Indices 1 2 3 4 5 6 
#
# 1 167.4533 25.7241 62.6531 0.0002 -19.3802 0.0000
# 2 25.7241 61.5682 20.1003 -0.0001 -8.5934 -0.0002
# 3 62.6531 20.1003 129.5087 -0.0003 -7.1364 -0.0003
# 4 0.0002 -0.0001 -0.0003 14.7062 0.0001 3.5155
# 5 -19.3802 -8.5934 -7.1364 0.0001 44.1986 0.0000
# 6 0.0000 -0.0002 -0.0003 3.5155 0.0000 18.4393
#
#
#
# Elastic Compliance Matrix: (Units=1/GPa)
#
#
# Indices 1 2 3 4 5 6 
#
# 1 0.007796 -0.001811 -0.003351 0.000000 0.002525 0.000000
# 2 -0.001811 0.017912 -0.001772 0.000000 0.002403 0.000000
# 3 -0.003351 -0.001772 0.009603 0.000000 -0.000263 0.000000
# 4 0.000000 0.000000 0.000000 0.071246 0.000000 -0.013583
# 5 0.002525 0.002403 -0.000263 0.000000 0.024157 0.000000
# 6 0.000000 0.000000 0.000000 -0.013583 0.000000 0.056822
#
#
# Mechanical properties :
#
#
# Convention : Reuss Voigt Hill
#
# Bulk Modulus (GPa) = 46.63264 63.94280 55.28772
# Shear Modulus (GPa) = 23.97481 32.13900 28.05690
#
# Velocity S-wave (km/s) = 3.39139 3.92660 3.66877
# Velocity P-wave (km/s) = 6.14057 7.15773 6.66857
#
# Compressibility (1/GPa) = 0.02144421
#
# Stress axis : x y z
#
# Youngs Moduli (GPa) = 128.26796 55.82699 104.13108
#
# Poissons Ratio (x) = 0.10109 0.34899
# Poissons Ratio (y) = 0.23226 0.18449
# Poissons Ratio (z) = 0.42988 0.09891
#
# Static dielectric constant tensor:
#      x y z
#    x 1.776900 0.000000 0.021600 
#    y 0.000000 1.770380 0.000000 
#    z 0.021600 0.000000 1.811980 
# 
# From -- ./inp_files/67716.got.cif
#   From: 2010.05.17/outbox.cif.g08.bks.cpg/sg5_34_cif.got.tgz:67716.got - 2010.06.03 18:56:24.
