data_PCOD9121675
_publ_section_title
;
Structure prediction by ZEFSAII (Michael W. Deem and Ramdas Pophale) SiO2 
 PCOD9121675
Probable space group: C 2
;
_chemical_formula_sum "Si O2"
_cell_formula_units_Z 28
_cell_length_a 22.670247
_cell_length_b 14.630450
_cell_length_c 9.525956
_cell_angle_alpha 90.000000
_cell_angle_beta 27.636566
_cell_angle_gamma 90.000000
_cell_volume 1465.584448
_symmetry_space_group_name_H-M "C 2"
_symmetry_group_IT_number 5
_symmetry_cell_setting 'monoclinic'
loop_
_space_group_symop_operation_xyz
x,y,z
-x,y,-z
1/2+x,1/2+y,z
1/2-x,1/2+y,-z
loop_
_atom_site_type_symbol
_atom_site_label
_atom_site_fract_x
_atom_site_fract_y
_atom_site_fract_z
Si Si1 0.694322 0.521020 0.848232
Si Si2 0.040465 0.577413 0.754397
Si Si3 0.032368 0.852183 0.268598
Si Si4 0.697393 0.264421 0.367093
Si Si5 0.312795 0.165354 0.107700
Si Si6 0.352579 0.664448 0.813959
Si Si7 0.855257 0.186241 0.260414
O O1 0.846679 0.508526 0.521929
O O2 0.655027 0.590859 0.805974
O O3 0.618758 0.427965 0.014026
O O4 0.660694 0.575351 0.061083
O O5 0.110722 0.676152 0.591367
O O6 0.000000 0.564669 0.000000
O O7 0.917034 0.586139 0.916565
O O8 0.000000 0.871385 0.500000
O O9 0.901537 0.843401 0.456685
O O10 0.107424 0.755741 0.102712
O O11 0.801089 0.265227 0.271483
O O12 0.770186 0.239822 0.070390
O O13 0.210942 0.146691 0.201504
O O14 0.236905 0.180844 0.411818
O O15 0.500000 0.690302 0.500000
O O16 0.000000 0.201131 0.000000
#
# Coordination Sequence:
#
# PCOD9121675 Si02
#       7
#     4   4   4   4   4   4   4
#     4  10  22  37  58  91 133 160 200 270 314 363
#     4   9  16  34  60  86 118 153 210 245 296 376
#     4  11  22  38  61  94 131 161 209 262 320 368
#     4   9  19  34  57  90 116 165 205 253 302 375
#     4  11  19  35  68  89 115 170 216 253 304 374
#     4  10  19  35  62  89 120 163 215 254 295 377
#     4  10  20  38  62  91 123 164 214 254 301 379
#
# _framework density 19.105004999999998
#
# number of rings (size 3 to 8) (size 9 to 14) (size 15 to 20)
#    0.000    2.286    4.286    2.143    0.000    0.000 
#    2.571    0.714    3.143    0.000    0.000    0.000 
#    0.000    0.000    0.000    0.000    0.000    0.000 
#
# Total GULP energy -78059.319403 kJ/mol
# GULP energy per Si atom -5575.665672 kJ/mol
# Density = 1.906152 g / cm^3
# Si number density = 19.105005 Si / 1000 Ang^3
#
#
#
# Elastic Constant Matrix: (Units=GPa)
#
#
# Indices 1 2 3 4 5 6 
#
# 1 146.4037 19.0742 52.9278 0.0000 -18.3482 0.0000
# 2 19.0742 30.2310 38.6567 0.0000 -7.0808 0.0000
# 3 52.9278 38.6567 115.1532 0.0000 -12.8798 0.0000
# 4 0.0000 0.0000 0.0000 25.9810 0.0000 -13.5760
# 5 -18.3482 -7.0808 -12.8798 0.0000 46.0507 0.0000
# 6 0.0000 0.0000 0.0000 -13.5760 0.0000 8.2193
#
#
#
# Elastic Compliance Matrix: (Units=1/GPa)
#
#
# Indices 1 2 3 4 5 6 
#
# 1 0.008432 -0.000266 -0.003525 0.000000 0.002333 0.000000
# 2 -0.000266 0.058544 -0.019134 0.000000 0.003544 0.000000
# 3 -0.003525 -0.019134 0.016766 0.000000 0.000343 0.000000
# 4 0.000000 0.000000 0.000000 0.281110 0.000000 0.464313
# 5 0.002333 0.003544 0.000343 0.000000 0.023285 0.000000
# 6 0.000000 0.000000 0.000000 0.464313 0.000000 0.888578
#
#
# Mechanical properties :
#
#
# Convention : Reuss Voigt Hill
#
# Bulk Modulus (GPa) = 26.39174 57.01170 41.70172
# Shear Modulus (GPa) = 3.74477 28.12550 15.93514
#
# Velocity S-wave (km/s) = 1.40155 3.84103 2.89118
# Velocity P-wave (km/s) = 4.05748 7.04112 5.74633
#
# Compressibility (1/GPa) = 0.03789064
#
# Stress axis : x y z
#
# Youngs Moduli (GPa) = 118.59706 17.08124 59.64389
#
# Poissons Ratio (x) = 0.00454 0.21027
# Poissons Ratio (y) = 0.03151 1.14125
# Poissons Ratio (z) = 0.41811 0.32684
#
# Static dielectric constant tensor:
#      x y z
#    x 1.703740 0.000000 -0.033920 
#    y 0.000000 1.664020 0.000000 
#    z -0.033920 0.000000 1.674790 
# 
# From -- ./inp_files/30003.got.cif
#   From: 2010.05.17/outbox.cif.g08.bks.cpg/sg5_16_cif.got.tgz:30003.got - 2010.06.03 18:56:24.
