data_PCOD9121732
_publ_section_title
;
Structure prediction by ZEFSAII (Michael W. Deem and Ramdas Pophale) SiO2 
 PCOD9121732
Probable space group: C 2
;
_chemical_formula_sum "Si O2"
_cell_formula_units_Z 32
_cell_length_a 21.740787
_cell_length_b 8.286640
_cell_length_c 27.858183
_cell_angle_alpha 90.000000
_cell_angle_beta 161.332527
_cell_angle_gamma 90.000000
_cell_volume 1606.417963
_symmetry_space_group_name_H-M "C 2"
_symmetry_group_IT_number 5
_symmetry_cell_setting 'monoclinic'
loop_
_space_group_symop_operation_xyz
x,y,z
-x,y,-z
1/2+x,1/2+y,z
1/2-x,1/2+y,-z
loop_
_atom_site_type_symbol
_atom_site_label
_atom_site_fract_x
_atom_site_fract_y
_atom_site_fract_z
Si Si1 0.673449 0.578930 0.504561
Si Si2 0.413837 0.704275 0.987264
Si Si3 0.055181 0.837731 0.110475
Si Si4 0.308312 0.745615 0.206696
Si Si5 0.723641 0.837767 0.278927
Si Si6 0.997911 0.578934 0.666784
Si Si7 0.707553 0.704301 0.634122
Si Si8 0.901838 0.745656 0.503450
O O1 0.459010 0.604823 0.326058
O O2 0.704698 0.690637 0.574675
O O3 0.683995 0.396287 0.530846
O O4 0.830430 0.612653 0.580422
O O5 0.490928 0.521156 0.053217
O O6 0.514741 0.809984 0.102631
O O7 0.500000 0.758154 0.000000
O O8 0.184626 0.690611 0.814638
O O9 0.217511 0.794043 0.191179
O O10 0.133692 0.810006 0.221587
O O11 0.873431 0.725483 0.962528
O O12 0.428619 0.896280 0.275487
O O13 0.770220 0.725491 0.359292
O O14 0.887841 0.794150 0.361494
O O15 0.759873 0.021185 0.322175
O O16 0.927216 0.604850 0.560151
O O17 0.500000 0.758145 0.500000
#
# Coordination Sequence:
#
# PCOD9121732 Si02
#       8
#     4   4   4   4   4   4   4   4
#     4  11  22  37  57  84 117 152 183 226 285 338
#     4  11  20  38  57  84 116 145 188 235 275 331
#     4  10  19  36  59  86 109 142 192 236 277 315
#     4  10  19  36  57  83 113 143 188 235 274 330
#     4  10  19  36  59  86 109 142 192 236 277 315
#     4  11  22  37  57  84 117 152 183 226 285 338
#     4  11  20  38  57  84 116 145 188 235 275 331
#     4  10  19  36  57  83 113 143 188 235 274 330
#
# _framework density 19.920096999999998
#
# number of rings (size 3 to 8) (size 9 to 14) (size 15 to 20)
#    0.000    1.500    7.500    0.750    0.000    2.000 
#    4.500    6.250    0.000    0.000    0.000    0.000 
#    0.000    0.000    0.000    0.000    0.000    0.000 
#
# Total GULP energy -89364.817569 kJ/mol
# GULP energy per Si atom -5585.301098 kJ/mol
# Density = 1.987476 g / cm^3
# Si number density = 19.920097 Si / 1000 Ang^3
#
#
#
# Elastic Constant Matrix: (Units=GPa)
#
#
# Indices 1 2 3 4 5 6 
#
# 1 85.4626 11.7844 34.7827 0.0031 8.0904 -0.0062
# 2 11.7844 8.8652 12.9570 -0.0012 -0.8220 -0.0015
# 3 34.7827 12.9570 89.7359 -0.0005 -11.0251 -0.0066
# 4 0.0031 -0.0012 -0.0005 30.6442 0.0013 -8.9272
# 5 8.0904 -0.8220 -11.0251 0.0013 32.8699 0.0032
# 6 -0.0062 -0.0015 -0.0066 -8.9272 0.0032 17.8244
#
#
#
# Elastic Compliance Matrix: (Units=1/GPa)
#
#
# Indices 1 2 3 4 5 6 
#
# 1 0.016354 -0.015145 -0.004895 -0.000001 -0.006046 0.000003
# 2 -0.015145 0.157385 -0.016597 0.000009 0.002097 0.000006
# 3 -0.004895 -0.016597 0.016202 0.000000 0.006224 0.000002
# 4 -0.000001 0.000009 0.000000 0.038207 -0.000003 0.019136
# 5 -0.006046 0.002097 0.006224 -0.000003 0.034051 -0.000007
# 6 0.000003 0.000006 0.000002 0.019136 -0.000007 0.065687
#
#
# Mechanical properties :
#
#
# Convention : Reuss Voigt Hill
#
# Bulk Modulus (GPa) = 8.57139 33.67908 21.12523
# Shear Modulus (GPa) = 11.36234 24.57034 17.96634
#
# Velocity S-wave (km/s) = 2.39089 3.51585 3.00646
# Velocity P-wave (km/s) = 3.45456 5.78147 4.76232
#
# Compressibility (1/GPa) = 0.11666726
#
# Stress axis : x y z
#
# Youngs Moduli (GPa) = 61.14732 6.35384 61.71967
#
# Poissons Ratio (x) = 0.09623 0.30211
# Poissons Ratio (y) = 0.92610 1.02435
# Poissons Ratio (z) = 0.29931 0.10545
#
# Static dielectric constant tensor:
#      x y z
#    x 1.684290 0.000000 -0.032950 
#    y 0.000000 1.754920 -0.000020 
#    z -0.032950 -0.000020 1.731460 
# 
# From -- ./inp_files/71111.got.cif
#   From: 2010.05.17/outbox.cif.g08.bks.cpg/sg5_36_cif.got.tgz:71111.got - 2010.06.03 18:56:24.
