data_PCOD9121126
_publ_section_title
;
Structure prediction by ZEFSAII (Michael W. Deem and Ramdas Pophale) SiO2 
 PCOD9121126
Probable space group: C 2
;
_chemical_formula_sum "Si O2"
_cell_formula_units_Z 24
_cell_length_a 9.134416
_cell_length_b 15.462772
_cell_length_c 16.724835
_cell_angle_alpha 90.000000
_cell_angle_beta 147.126627
_cell_angle_gamma 90.000000
_cell_volume 1282.204139
_symmetry_space_group_name_H-M "C 2"
_symmetry_group_IT_number 5
_symmetry_cell_setting 'monoclinic'
loop_
_space_group_symop_operation_xyz
x,y,z
-x,y,-z
1/2+x,1/2+y,z
1/2-x,1/2+y,-z
loop_
_atom_site_type_symbol
_atom_site_label
_atom_site_fract_x
_atom_site_fract_y
_atom_site_fract_z
Si Si1 0.747405 0.341750 0.334022
Si Si2 0.775069 0.427344 0.843619
Si Si3 0.300369 0.841951 0.169726
Si Si4 0.562356 0.177182 0.779331
Si Si5 0.977842 0.243031 0.104048
Si Si6 0.220586 0.495056 0.324898
O O1 0.488940 0.403096 0.227822
O O2 0.796042 0.326676 0.262555
O O3 0.661447 0.250776 0.334110
O O4 0.000000 0.376118 0.500000
O O5 0.710764 0.481585 0.736375
O O6 0.916668 0.337037 0.879305
O O7 0.000000 0.472975 0.000000
O O8 0.391828 0.761575 0.155307
O O9 0.511882 0.919194 0.252492
O O10 0.000000 0.865117 0.000000
O O11 0.771486 0.180964 0.801266
O O12 0.428130 0.085346 0.729155
O O13 0.735843 0.208537 0.936830
O O14 0.500000 0.488609 0.500000
#
# Coordination Sequence:
#
# PCOD9121126 Si02
#       6
#     4   4   4   4   4   4
#     4  11  20  35  62  87 118 157 197 247 298 354
#     4  10  18  40  60  82 114 160 201 240 287 356
#     4  11  21  38  62  93 116 152 213 248 289 364
#     4  10  19  38  58  83 121 158 193 245 311 348
#     4   9  18  37  63  84 110 154 208 253 282 347
#     4  11  24  38  58  91 126 158 192 246 310 364
#
# _framework density 18.717769000000001
#
# number of rings (size 3 to 8) (size 9 to 14) (size 15 to 20)
#    0.000    1.667    5.000    2.500    2.333    0.000 
#    3.000    0.000    0.000    2.000    0.000    0.000 
#    0.000    0.000    0.000    0.000    0.000    0.000 
#
# Total GULP energy -66930.264018 kJ/mol
# GULP energy per Si atom -5577.522001 kJ/mol
# Density = 1.867517 g / cm^3
# Si number density = 18.717769 Si / 1000 Ang^3
#
#
#
# Elastic Constant Matrix: (Units=GPa)
#
#
# Indices 1 2 3 4 5 6 
#
# 1 142.8800 22.6706 66.5059 0.0006 -3.2560 0.0002
# 2 22.6706 55.9485 32.9796 0.0002 8.9674 -0.0001
# 3 66.5059 32.9796 135.3834 -0.0002 -8.9383 -0.0002
# 4 0.0006 0.0002 -0.0002 8.7009 0.0001 0.5193
# 5 -3.2560 8.9674 -8.9383 0.0001 28.2244 0.0000
# 6 0.0002 -0.0001 -0.0002 0.5193 0.0000 13.9072
#
#
#
# Elastic Compliance Matrix: (Units=1/GPa)
#
#
# Indices 1 2 3 4 5 6 
#
# 1 0.009147 -0.001266 -0.004176 -0.000001 0.000135 0.000000
# 2 -0.001266 0.023206 -0.005645 -0.000001 -0.009307 0.000000
# 3 -0.004176 -0.005645 0.011132 0.000001 0.004837 0.000000
# 4 -0.000001 -0.000001 0.000001 0.115187 0.000000 -0.004301
# 5 0.000135 -0.009307 0.004837 0.000000 0.039935 0.000000
# 6 0.000000 0.000000 0.000000 -0.004301 0.000000 0.072066
#
#
# Mechanical properties :
#
#
# Convention : Reuss Voigt Hill
#
# Bulk Modulus (GPa) = 46.92647 64.28047 55.60347
# Shear Modulus (GPa) = 16.66939 24.30358 20.48648
#
# Velocity S-wave (km/s) = 2.98747 3.60727 3.31190
# Velocity P-wave (km/s) = 6.08481 7.19489 6.66301
#
# Compressibility (1/GPa) = 0.02130993
#
# Stress axis : x y z
#
# Youngs Moduli (GPa) = 109.33061 43.09188 89.82841
#
# Poissons Ratio (x) = 0.05457 0.37510
# Poissons Ratio (y) = 0.13846 0.50712
# Poissons Ratio (z) = 0.45654 0.24327
#
# Static dielectric constant tensor:
#      x y z
#    x 1.679300 0.000000 0.010370 
#    y 0.000000 1.631510 0.000000 
#    z 0.010370 0.000000 1.662810 
# 
# From -- ./inp_files/15827.got.cif
#   From: 2010.05.17/outbox.cif.g08.bks.cpg/sg5_8_cif.got.tgz:15827.got - 2010.06.03 18:56:24.
