data_PCOD9121135
_publ_section_title
;
Structure prediction by ZEFSAII (Michael W. Deem and Ramdas Pophale) SiO2 
 PCOD9121135
Probable space group: C 2
;
_chemical_formula_sum "Si O2"
_cell_formula_units_Z 30
_cell_length_a 18.234142
_cell_length_b 6.797626
_cell_length_c 21.986002
_cell_angle_alpha 90.000000
_cell_angle_beta 148.265570
_cell_angle_gamma 90.000000
_cell_volume 1433.376974
_symmetry_space_group_name_H-M "C 2"
_symmetry_group_IT_number 5
_symmetry_cell_setting 'monoclinic'
loop_
_space_group_symop_operation_xyz
x,y,z
-x,y,-z
1/2+x,1/2+y,z
1/2-x,1/2+y,-z
loop_
_atom_site_type_symbol
_atom_site_label
_atom_site_fract_x
_atom_site_fract_y
_atom_site_fract_z
Si Si1 0.095915 0.860570 0.977894
Si Si2 0.731959 0.493988 0.546856
Si Si3 0.362003 0.693539 0.840271
Si Si4 0.422540 0.860572 0.571498
Si Si5 0.964757 0.791332 0.758002
Si Si6 0.500000 0.048674 0.000000
Si Si7 0.238402 0.603417 0.625439
Si Si8 0.161754 0.587407 0.808057
O O1 0.044068 0.771054 0.877840
O O2 0.100299 0.695340 0.033429
O O3 0.980837 0.026110 0.915685
O O4 0.245296 0.965222 0.078587
O O5 0.595947 0.627503 0.443561
O O6 0.799545 0.435608 0.530235
O O7 0.706406 0.296767 0.564842
O O8 0.846065 0.625976 0.663172
O O9 0.264043 0.665585 0.712658
O O10 0.270633 0.664661 0.835813
O O11 0.431557 0.905582 0.901235
O O12 0.383977 0.952129 0.478926
O O13 0.559734 0.943402 0.698982
O O14 0.072009 0.753508 0.778813
O O15 0.882175 0.997576 0.704742
#
# Coordination Sequence:
#
# PCOD9121135 Si02
#       8
#     4   4   4   4   4   2   4   4
#     4  11  22  45  64  95 136 170 216 272 326 395
#     4  10  18  40  62  94 119 167 210 254 326 388
#     4  11  23  43  67  89 129 179 218 261 328 399
#     4  10  21  36  66  90 127 163 209 264 321 380
#     4   9  23  39  64  95 123 166 213 269 325 374
#     4  12  20  40  70  90 120 188 214 254 326 404
#     4  10  21  41  67  88 125 167 216 263 317 393
#     4  11  22  44  61  97 133 166 215 274 322 378
#
# _framework density 20.929594000000002
#
# number of rings (size 3 to 8) (size 9 to 14) (size 15 to 20)
#    0.000    1.600    4.000    0.800    0.000    1.600 
#   16.800    0.000    0.000    0.000    0.000    0.000 
#    0.000    0.000    0.000    0.000    0.000    0.000 
#
# Total GULP energy -83736.773714 kJ/mol
# GULP energy per Si atom -5582.451581 kJ/mol
# Density = 2.088196 g / cm^3
# Si number density = 20.929594 Si / 1000 Ang^3
#
#
#
# Elastic Constant Matrix: (Units=GPa)
#
#
# Indices 1 2 3 4 5 6 
#
# 1 55.0958 18.6213 17.2452 0.0000 -2.6786 0.0000
# 2 18.6213 93.0344 2.2071 0.0000 -3.1005 0.0002
# 3 17.2452 2.2071 65.2217 0.0000 -17.3175 0.0000
# 4 0.0000 0.0000 0.0000 31.7916 0.0000 -9.3833
# 5 -2.6786 -3.1005 -17.3175 0.0000 30.9128 0.0000
# 6 0.0000 0.0002 0.0000 -9.3833 0.0000 23.9473
#
#
#
# Elastic Compliance Matrix: (Units=1/GPa)
#
#
# Indices 1 2 3 4 5 6 
#
# 1 0.021359 -0.004197 -0.006021 0.000000 -0.001943 0.000000
# 2 -0.004197 0.011610 0.001092 0.000000 0.001412 0.000000
# 3 -0.006021 0.001092 0.019710 0.000000 0.010629 0.000000
# 4 0.000000 0.000000 0.000000 0.035568 0.000000 0.013937
# 5 -0.001943 0.001412 0.010629 0.000000 0.038277 0.000000
# 6 0.000000 0.000000 0.000000 0.013937 0.000000 0.047219
#
#
# Mechanical properties :
#
#
# Convention : Reuss Voigt Hill
#
# Bulk Modulus (GPa) = 29.04831 32.16656 30.60744
# Shear Modulus (GPa) = 24.57347 29.01554 26.79451
#
# Velocity S-wave (km/s) = 3.43023 3.72740 3.58190
# Velocity P-wave (km/s) = 5.44039 5.82469 5.63582
#
# Compressibility (1/GPa) = 0.03442541
#
# Stress axis : x y z
#
# Youngs Moduli (GPa) = 46.81875 86.13306 50.73628
#
# Poissons Ratio (x) = 0.36150 0.30551
# Poissons Ratio (y) = 0.19650 -0.05540
# Poissons Ratio (z) = 0.28192 -0.09405
#
# Static dielectric constant tensor:
#      x y z
#    x 1.740820 0.000000 -0.017250 
#    y 0.000000 1.758830 0.000000 
#    z -0.017250 0.000000 1.781900 
# 
# From -- ./inp_files/69382.got.cif
#   From: 2010.05.17/outbox.cif.g08.bks.cpg/sg5_35_cif.got.tgz:69382.got - 2010.06.03 18:56:24.
