data_PCOD9121310
_publ_section_title
;
Structure prediction by ZEFSAII (Michael W. Deem and Ramdas Pophale) SiO2 
 PCOD9121310
Probable space group: C 2
;
_chemical_formula_sum "Si O2"
_cell_formula_units_Z 32
_cell_length_a 18.756342
_cell_length_b 9.496733
_cell_length_c 13.313405
_cell_angle_alpha 90.000000
_cell_angle_beta 139.076077
_cell_angle_gamma 90.000000
_cell_volume 1553.424595
_symmetry_space_group_name_H-M "C 2"
_symmetry_group_IT_number 5
_symmetry_cell_setting 'monoclinic'
loop_
_space_group_symop_operation_xyz
x,y,z
-x,y,-z
1/2+x,1/2+y,z
1/2-x,1/2+y,-z
loop_
_atom_site_type_symbol
_atom_site_label
_atom_site_fract_x
_atom_site_fract_y
_atom_site_fract_z
Si Si1 0.333010 0.766750 0.353622
Si Si2 0.202407 0.015492 0.200869
Si Si3 0.079780 0.868431 0.251172
Si Si4 0.878069 0.624129 0.827467
Si Si5 0.590281 0.651104 0.354449
Si Si6 0.833431 0.884467 0.053814
Si Si7 0.647199 0.661919 0.833697
Si Si8 0.120239 0.295154 0.178784
O O1 0.213321 0.699160 0.203371
O O2 0.372720 0.698433 0.497488
O O3 0.392589 0.725942 0.315214
O O4 0.310823 0.931417 0.349181
O O5 0.197086 0.182049 0.206081
O O6 0.107079 0.948896 0.172699
O O7 0.194215 0.972717 0.076361
O O8 0.128076 0.713928 0.282540
O O9 0.957522 0.842024 0.160648
O O10 0.124214 0.988508 0.372629
O O11 0.855060 0.459767 0.799565
O O12 0.000000 0.644878 0.000000
O O13 0.459169 0.663904 0.209635
O O14 0.627673 0.746899 0.302397
O O15 0.824100 0.996334 0.134806
O O16 0.747636 0.758658 0.975062
O O17 0.000000 0.276380 0.000000
#
# Coordination Sequence:
#
# PCOD9121310 Si02
#       8
#     4   4   4   4   4   4   4   4
#     4  10  21  36  54  77 109 150 188 227 280 341
#     4   9  17  33  55  77 105 138 178 226 283 338
#     4   9  17  33  55  77 105 138 178 226 283 338
#     4  10  20  33  55  84 111 138 178 235 288 336
#     4  10  21  36  54  77 109 150 188 227 280 341
#     4  10  19  32  54  80 105 144 182 230 284 328
#     4  10  21  34  54  78 109 144 190 234 277 340
#     4  10  20  33  55  84 111 138 178 235 288 336
#
# _framework density 20.599648999999999
#
# number of rings (size 3 to 8) (size 9 to 14) (size 15 to 20)
#    0.000    2.250    0.000    5.250    0.000    8.000 
#    0.000    0.000    0.000    0.000    0.000    5.250 
#    0.000    0.000    0.000    0.000    0.000    0.000 
#
# Total GULP energy -89080.456821 kJ/mol
# GULP energy per Si atom -5567.528551 kJ/mol
# Density = 2.055276 g / cm^3
# Si number density = 20.599649 Si / 1000 Ang^3
#
#
#
# Elastic Constant Matrix: (Units=GPa)
#
#
# Indices 1 2 3 4 5 6 
#
# 1 48.7243 29.3998 -1.2503 0.0000 4.0260 0.0000
# 2 29.3998 152.5905 11.4150 0.0000 -1.2045 0.0000
# 3 -1.2503 11.4150 31.7600 0.0000 -5.1041 0.0000
# 4 0.0000 0.0000 0.0000 24.5971 0.0000 1.8289
# 5 4.0260 -1.2045 -5.1041 0.0000 21.7949 0.0000
# 6 0.0000 0.0000 0.0000 1.8289 0.0000 30.6122
#
#
#
# Elastic Compliance Matrix: (Units=1/GPa)
#
#
# Indices 1 2 3 4 5 6 
#
# 1 0.023797 -0.004766 0.001975 0.000000 -0.004197 0.000000
# 2 -0.004766 0.007690 -0.002849 0.000000 0.000638 0.000000
# 3 0.001975 -0.002849 0.033775 0.000000 0.007387 0.000000
# 4 0.000000 0.000000 0.000000 0.040837 0.000000 -0.002440
# 5 -0.004197 0.000638 0.007387 0.000000 0.048423 0.000000
# 6 0.000000 0.000000 0.000000 -0.002440 0.000000 0.032812
#
#
# Mechanical properties :
#
#
# Convention : Reuss Voigt Hill
#
# Bulk Modulus (GPa) = 18.52442 34.68932 26.60687
# Shear Modulus (GPa) = 23.08332 28.30155 25.69244
#
# Velocity S-wave (km/s) = 3.35112 3.71062 3.53544
# Velocity P-wave (km/s) = 4.89750 5.93587 5.44151
#
# Compressibility (1/GPa) = 0.05398280
#
# Stress axis : x y z
#
# Youngs Moduli (GPa) = 42.02257 130.04084 29.60763
#
# Poissons Ratio (x) = 0.61975 -0.05848
# Poissons Ratio (y) = 0.20027 0.08435
# Poissons Ratio (z) = -0.08301 0.37048
#
# Static dielectric constant tensor:
#      x y z
#    x 1.767830 0.000000 0.014770 
#    y 0.000000 1.772000 0.000000 
#    z 0.014770 0.000000 1.796300 
# 
# From -- ./inp_files/56746.got.cif
#   From: 2010.05.17/outbox.cif.g08.bks.cpg/sg5_29_cif.got.tgz:56746.got - 2010.06.03 18:56:24.
