data_PCOD9121540
_publ_section_title
;
Structure prediction by ZEFSAII (Michael W. Deem and Ramdas Pophale) SiO2 
 PCOD9121540
Probable space group: C 2
;
_chemical_formula_sum "Si O2"
_cell_formula_units_Z 20
_cell_length_a 10.608560
_cell_length_b 16.384781
_cell_length_c 5.305352
_cell_angle_alpha 90.000000
_cell_angle_beta 104.248493
_cell_angle_gamma 90.000000
_cell_volume 893.802239
_symmetry_space_group_name_H-M "C 2"
_symmetry_group_IT_number 5
_symmetry_cell_setting 'monoclinic'
loop_
_space_group_symop_operation_xyz
x,y,z
-x,y,-z
1/2+x,1/2+y,z
1/2-x,1/2+y,-z
loop_
_atom_site_type_symbol
_atom_site_label
_atom_site_fract_x
_atom_site_fract_y
_atom_site_fract_z
Si Si1 0.500000 0.909600 0.000000
Si Si2 0.279736 0.806126 0.680070
Si Si3 0.500000 0.627443 0.000000
Si Si4 0.500000 0.187787 0.000000
Si Si5 0.779736 0.620516 0.180070
Si Si6 0.000000 0.238855 0.500000
Si Si7 0.000000 0.799199 0.500000
Si Si8 0.500000 0.017041 0.500000
O O1 0.372174 0.853460 0.917147
O O2 0.500000 0.963321 0.750000
O O3 0.250000 0.713321 0.750000
O O4 0.372137 0.793507 0.483016
O O5 0.137764 0.845417 0.581602
O O6 0.637764 0.581225 0.081603
O O7 0.485894 0.682976 0.245026
O O8 0.627863 0.133135 0.016984
O O9 0.485893 0.243666 0.745026
O O10 0.872175 0.573182 0.417148
#
# Coordination Sequence:
#
# PCOD9121540 Si02
#       8
#     2   4   2   2   4   2   2   2
#     4  12  28  46  66  98 144 184 216 272 354 414
#     4  10  21  42  69  99 131 179 232 276 324 406
#     4  10  21  34  62 100 129 160 222 292 325 362
#     4  10  19  34  62 102 133 164 216 282 331 382
#     4  10  21  42  69  99 131 179 232 276 324 406
#     4  10  19  34  62 102 133 164 216 282 331 382
#     4  10  21  34  62 100 129 160 222 292 325 362
#     4  12  28  46  66  98 144 184 216 272 354 414
#
# _framework density 22.376311999999999
#
# number of rings (size 3 to 8) (size 9 to 14) (size 15 to 20)
#    0.000    1.600    0.000    7.200    0.000    9.600 
#    0.000    2.000    0.000    0.000    0.000    0.000 
#    0.000    0.000    0.000    0.000    0.000    0.000 
#
# Total GULP energy -55835.458243 kJ/mol
# GULP energy per Si atom -5583.545824 kJ/mol
# Density = 2.232538 g / cm^3
# Si number density = 22.376312 Si / 1000 Ang^3
#
#
#
# Elastic Constant Matrix: (Units=GPa)
#
#
# Indices 1 2 3 4 5 6 
#
# 1 242.8895 35.1214 68.6242 0.0000 39.0573 0.0000
# 2 35.1214 74.9165 56.5964 0.0000 10.8116 0.0000
# 3 68.6242 56.5964 175.4117 0.0000 -3.0960 0.0000
# 4 0.0000 0.0000 0.0000 17.8969 0.0000 23.2763
# 5 39.0573 10.8116 -3.0960 0.0000 59.9935 0.0000
# 6 0.0000 0.0000 0.0000 23.2763 0.0000 22.0274
#
#
#
# Elastic Compliance Matrix: (Units=1/GPa)
#
#
# Indices 1 2 3 4 5 6 
#
# 1 0.005304 -0.000493 -0.001977 0.000000 -0.003467 0.000000
# 2 -0.000493 0.018452 -0.005819 0.000000 -0.003305 0.000000
# 3 -0.001977 -0.005819 0.008401 0.000000 0.002770 0.000000
# 4 0.000000 0.000000 0.000000 -0.149274 0.000000 0.157737
# 5 -0.003467 -0.003305 0.002770 0.000000 0.019664 0.000000
# 6 0.000000 0.000000 0.000000 0.157737 0.000000 -0.121283
#
#
# Mechanical properties :
#
#
# Convention : Reuss Voigt Hill
#
# Bulk Modulus (GPa) = 64.18849 90.43352 77.31101
# Shear Modulus (GPa) = -25.38538 42.17528 8.39495
#
# Velocity S-wave (km/s) = -3.37185 4.34616 1.93904
# Velocity P-wave (km/s) = 3.68633 8.10482 6.29591
#
# Compressibility (1/GPa) = 0.01557912
#
# Stress axis : x y z
#
# Youngs Moduli (GPa) = 188.52051 54.19388 119.03436
#
# Poissons Ratio (x) = 0.02670 0.23538
# Poissons Ratio (y) = 0.09287 0.69269
# Poissons Ratio (z) = 0.37279 0.31537
#
# Static dielectric constant tensor:
#      x y z
#    x 1.928530 0.000000 0.048520 
#    y 0.000000 1.856510 0.000000 
#    z 0.048520 0.000000 1.869260 
# 
# From -- ./inp_files/4977.got.cif
#   From: 2010.05.17/outbox.cif.g08.bks.cpg/sg5_3_cif.got.tgz:4977.got - 2010.06.03 18:56:24.
