data_PCOD9121595
_publ_section_title
;
Structure prediction by ZEFSAII (Michael W. Deem and Ramdas Pophale) SiO2 
 PCOD9121595
Probable space group: C 2
;
_chemical_formula_sum "Si O2"
_cell_formula_units_Z 32
_cell_length_a 17.304710
_cell_length_b 8.027433
_cell_length_c 17.637134
_cell_angle_alpha 90.000000
_cell_angle_beta 31.155013
_cell_angle_gamma 90.000000
_cell_volume 1267.528940
_symmetry_space_group_name_H-M "C 2"
_symmetry_group_IT_number 5
_symmetry_cell_setting 'monoclinic'
loop_
_space_group_symop_operation_xyz
x,y,z
-x,y,-z
1/2+x,1/2+y,z
1/2-x,1/2+y,-z
loop_
_atom_site_type_symbol
_atom_site_label
_atom_site_fract_x
_atom_site_fract_y
_atom_site_fract_z
Si Si1 0.295976 0.226220 0.975209
Si Si2 0.975192 0.720533 0.103354
Si Si3 0.746683 0.883531 0.394193
Si Si4 0.358220 0.754028 0.254479
Si Si5 0.362323 0.579670 0.034822
Si Si6 0.518283 0.399294 0.681000
Si Si7 0.985842 0.287737 0.306396
Si Si8 0.123946 0.719755 0.342530
O O1 0.161446 0.288381 0.141180
O O2 0.420059 0.134132 0.922026
O O3 0.226131 0.116868 0.967645
O O4 0.385164 0.364268 0.852007
O O5 0.810980 0.761639 0.274454
O O6 0.000000 0.644204 0.000000
O O7 0.056050 0.902797 0.030883
O O8 0.578936 0.883716 0.566954
O O9 0.840690 0.829286 0.390792
O O10 0.796992 0.069719 0.329788
O O11 0.405717 0.835259 0.294086
O O12 0.229303 0.830757 0.310182
O O13 0.506205 0.717042 0.081383
O O14 0.244911 0.602621 0.200577
O O15 0.545811 0.594011 0.648975
O O16 0.465378 0.316545 0.647850
O O17 0.000000 0.638075 0.500000
#
# Coordination Sequence:
#
# PCOD9121595 Si02
#       8
#     4   4   4   4   4   4   4   4
#     4   9  18  33  57  81 110 148 190 224 277 347
#     4  10  19  35  57  80 109 144 184 232 284 334
#     4   9  18  35  57  82 110 149 194 235 285 344
#     4   9  18  33  55  82 110 148 194 239 283 335
#     4   9  18  34  55  77 108 149 185 228 280 335
#     4   9  20  37  55  82 120 157 188 232 295 350
#     4  10  19  36  59  81 114 155 194 236 286 347
#     4  11  20  31  53  85 116 144 188 242 286 330
#
# _framework density 25.245971000000001
#
# number of rings (size 3 to 8) (size 9 to 14) (size 15 to 20)
#    0.000    2.500    0.000    4.875    0.000    1.000 
#    0.000    9.375    0.000    7.500    0.000    0.000 
#    0.000    0.000    0.000    0.000    0.000    0.000 
#
# Total GULP energy -89405.445251 kJ/mol
# GULP energy per Si atom -5587.840328 kJ/mol
# Density = 2.518851 g / cm^3
# Si number density = 25.245971 Si / 1000 Ang^3
#
#
#
# Elastic Constant Matrix: (Units=GPa)
#
#
# Indices 1 2 3 4 5 6 
#
# 1 125.1708 15.7553 9.8986 0.0000 23.7908 0.0000
# 2 15.7553 44.7093 23.9881 0.0000 10.3611 0.0000
# 3 9.8986 23.9881 193.7295 0.0000 42.2678 0.0000
# 4 0.0000 0.0000 0.0000 25.4726 0.0000 2.4487
# 5 23.7908 10.3611 42.2678 0.0000 24.7878 0.0000
# 6 0.0000 0.0000 0.0000 2.4487 0.0000 19.1516
#
#
#
# Elastic Compliance Matrix: (Units=1/GPa)
#
#
# Indices 1 2 3 4 5 6 
#
# 1 0.010725 -0.001983 0.002807 0.000000 -0.014251 0.000000
# 2 -0.001983 0.025335 -0.001816 0.000000 -0.005590 0.000000
# 3 0.002807 -0.001816 0.009022 0.000000 -0.017319 0.000000
# 4 0.000000 0.000000 0.000000 0.039746 0.000000 -0.005082
# 5 -0.014251 -0.005590 -0.017319 0.000000 0.085889 0.000000
# 6 0.000000 0.000000 0.000000 -0.005082 0.000000 0.052865
#
#
# Mechanical properties :
#
#
# Convention : Reuss Voigt Hill
#
# Bulk Modulus (GPa) = 23.20274 51.43261 37.31767
# Shear Modulus (GPa) = 20.83914 34.81358 27.82636
#
# Velocity S-wave (km/s) = 2.87617 3.71748 3.32356
# Velocity P-wave (km/s) = 4.49894 6.23242 5.43523
#
# Compressibility (1/GPa) = 0.04309837
#
# Stress axis : x y z
#
# Youngs Moduli (GPa) = 93.23641 39.47053 110.84120
#
# Poissons Ratio (x) = 0.07827 -0.31112
# Poissons Ratio (y) = 0.18488 0.20131
# Poissons Ratio (z) = -0.26170 0.07168
#
# Static dielectric constant tensor:
#      x y z
#    x 2.095790 0.000000 -0.022310 
#    y 0.000000 2.031700 0.000000 
#    z -0.022310 0.000000 1.993610 
# 
# From -- ./inp_files/62365.got.cif
#   From: 2010.05.17/outbox.cif.g08.bks.cpg/sg5_32_cif.got.tgz:62365.got - 2010.06.03 18:56:24.
