data_PCOD9121291
_publ_section_title
;
Structure prediction by ZEFSAII (Michael W. Deem and Ramdas Pophale) SiO2 
 PCOD9121291
Probable space group: C 2
;
_chemical_formula_sum "Si O2"
_cell_formula_units_Z 24
_cell_length_a 9.125388
_cell_length_b 16.436596
_cell_length_c 7.905235
_cell_angle_alpha 90.000000
_cell_angle_beta 99.867261
_cell_angle_gamma 90.000000
_cell_volume 1168.168988
_symmetry_space_group_name_H-M "C 2"
_symmetry_group_IT_number 5
_symmetry_cell_setting 'monoclinic'
loop_
_space_group_symop_operation_xyz
x,y,z
-x,y,-z
1/2+x,1/2+y,z
1/2-x,1/2+y,-z
loop_
_atom_site_type_symbol
_atom_site_label
_atom_site_fract_x
_atom_site_fract_y
_atom_site_fract_z
Si Si1 0.412134 0.338300 0.652409
Si Si2 0.008871 0.102211 0.201067
Si Si3 0.657874 0.435089 0.863607
Si Si4 0.524708 0.922946 0.190952
Si Si5 0.603455 0.769059 0.678445
Si Si6 0.747380 0.987484 0.732282
O O1 0.500000 0.316353 0.500000
O O2 0.540357 0.362436 0.812630
O O3 0.279470 0.277697 0.678867
O O4 0.319218 0.422992 0.618430
O O5 0.944829 0.178638 0.284891
O O6 0.915405 0.019710 0.211618
O O7 0.177383 0.074679 0.276583
O O8 0.000000 0.120491 0.000000
O O9 0.799364 0.415650 0.774995
O O10 0.700045 0.454309 0.068536
O O11 0.445937 0.834833 0.190344
O O12 0.429700 0.978829 0.298249
O O13 0.500000 0.959359 0.000000
O O14 0.500000 0.794732 0.500000
#
# Coordination Sequence:
#
# PCOD9121291 Si02
#       6
#     4   4   4   4   4   4
#     4  10  19  32  51  73 101 137 175 213 254 301
#     4   9  18  34  53  74 103 137 170 210 259 308
#     4   9  17  34  58  81 101 127 169 217 260 311
#     4   9  17  33  58  82 102 128 166 214 261 310
#     4  11  22  34  48  73 107 142 176 212 255 306
#     4   8  17  33  57  81 101 129 171 212 258 312
#
# _framework density 20.544972000000001
#
# number of rings (size 3 to 8) (size 9 to 14) (size 15 to 20)
#    0.000    2.667    0.000    3.000    0.000    2.667 
#    0.000    5.000    0.000   14.000    0.000    0.000 
#    0.000    0.000    0.000    0.000    0.000    0.000 
#
# Total GULP energy -66819.930713 kJ/mol
# GULP energy per Si atom -5568.327559 kJ/mol
# Density = 2.049821 g / cm^3
# Si number density = 20.544972 Si / 1000 Ang^3
#
#
#
# Elastic Constant Matrix: (Units=GPa)
#
#
# Indices 1 2 3 4 5 6 
#
# 1 186.4507 50.7940 35.2725 0.0000 -34.4529 0.0000
# 2 50.7940 87.7557 16.5622 0.0000 -15.7805 0.0000
# 3 35.2725 16.5622 48.3645 0.0000 -5.3748 0.0000
# 4 0.0000 0.0000 0.0000 13.0056 0.0000 -8.0762
# 5 -34.4529 -15.7805 -5.3748 0.0000 30.5058 0.0000
# 6 0.0000 0.0000 0.0000 -8.0762 0.0000 34.9489
#
#
#
# Elastic Compliance Matrix: (Units=1/GPa)
#
#
# Indices 1 2 3 4 5 6 
#
# 1 0.008222 -0.002663 -0.004289 0.000000 0.007152 0.000000
# 2 -0.002663 0.014093 -0.002456 0.000000 0.003849 0.000000
# 3 -0.004289 -0.002456 0.024445 0.000000 -0.001808 0.000000
# 4 0.000000 0.000000 0.000000 0.089773 0.000000 0.020745
# 5 0.007152 0.003849 -0.001808 0.000000 0.042531 0.000000
# 6 0.000000 0.000000 0.000000 0.020745 0.000000 0.033407
#
#
# Mechanical properties :
#
#
# Convention : Reuss Voigt Hill
#
# Bulk Modulus (GPa) = 35.78821 58.64760 47.21791
# Shear Modulus (GPa) = 20.78126 30.35487 25.56807
#
# Velocity S-wave (km/s) = 3.18386 3.84798 3.53156
# Velocity P-wave (km/s) = 5.56536 6.95345 6.29777
#
# Compressibility (1/GPa) = 0.02794216
#
# Stress axis : x y z
#
# Youngs Moduli (GPa) = 121.62473 70.95971 40.90865
#
# Poissons Ratio (x) = 0.18899 0.17548
# Poissons Ratio (y) = 0.32392 0.10046
# Poissons Ratio (z) = 0.52171 0.17426
#
# Static dielectric constant tensor:
#      x y z
#    x 1.834800 0.000000 0.039180 
#    y 0.000000 1.693140 0.000000 
#    z 0.039180 0.000000 1.826650 
# 
# From -- ./inp_files/15747.got.cif
#   From: 2010.05.17/outbox.cif.g08.bks.cpg/sg5_8_cif.got.tgz:15747.got - 2010.06.03 18:56:24.
