data_PCOD9121515
_publ_section_title
;
Structure prediction by ZEFSAII (Michael W. Deem and Ramdas Pophale) SiO2 
 PCOD9121515
Probable space group: C 2
;
_chemical_formula_sum "Si O2"
_cell_formula_units_Z 32
_cell_length_a 12.863650
_cell_length_b 16.503998
_cell_length_c 15.391832
_cell_angle_alpha 90.000000
_cell_angle_beta 152.239685
_cell_angle_gamma 90.000000
_cell_volume 1522.014475
_symmetry_space_group_name_H-M "C 2"
_symmetry_group_IT_number 5
_symmetry_cell_setting 'monoclinic'
loop_
_space_group_symop_operation_xyz
x,y,z
-x,y,-z
1/2+x,1/2+y,z
1/2-x,1/2+y,-z
loop_
_atom_site_type_symbol
_atom_site_label
_atom_site_fract_x
_atom_site_fract_y
_atom_site_fract_z
Si Si1 0.648684 0.222780 0.525906
Si Si2 0.660217 0.379505 0.298230
Si Si3 0.207082 0.541785 0.537730
Si Si4 0.511401 0.828151 0.706352
Si Si5 0.248633 0.959374 0.189015
Si Si6 0.216251 0.666491 0.099521
Si Si7 0.015623 0.712120 0.233470
Si Si8 0.899652 0.089407 0.514918
O O1 0.500000 0.238681 0.500000
O O2 0.751726 0.131958 0.605845
O O3 0.837750 0.291062 0.648679
O O4 0.504816 0.215257 0.329692
O O5 0.630474 0.472914 0.304790
O O6 0.852468 0.351450 0.507657
O O7 0.725057 0.391147 0.246659
O O8 0.494284 0.304595 0.185597
O O9 0.232788 0.539414 0.451980
O O10 0.947608 0.519285 0.363267
O O11 0.663260 0.908521 0.829069
O O12 0.669376 0.753177 0.802438
O O13 0.000000 0.995153 0.000000
O O14 0.395244 0.604421 0.268797
O O15 0.000000 0.660857 0.000000
O O16 0.150265 0.660755 0.949415
O O17 0.259544 0.672187 0.393340
O O18 0.000000 0.057157 0.500000
#
# Coordination Sequence:
#
# PCOD9121515 Si02
#       8
#     4   4   4   4   4   4   4   4
#     4  10  20  39  58  83 124 173 212 248 313 387
#     4  10  19  36  58  84 122 162 201 266 323 361
#     4  10  21  38  59  81 125 173 207 244 322 389
#     4  10  19  34  59  87 118 153 206 267 305 368
#     4  11  22  36  59  94 120 159 212 272 323 369
#     4  12  20  33  63  95 119 152 203 270 326 358
#     4  10  21  36  62  93 120 158 219 272 312 365
#     4  11  22  40  59  89 129 168 208 265 320 381
#
# _framework density 21.024767000000001
#
# number of rings (size 3 to 8) (size 9 to 14) (size 15 to 20)
#    0.000    1.500    5.000    4.125    0.000    1.000 
#    4.500    6.250    0.000    0.000    0.000    3.500 
#    0.000    0.000    0.000    0.000    0.000    0.000 
#
# Total GULP energy -89108.787434 kJ/mol
# GULP energy per Si atom -5569.299215 kJ/mol
# Density = 2.097691 g / cm^3
# Si number density = 21.024767 Si / 1000 Ang^3
#
#
#
# Elastic Constant Matrix: (Units=GPa)
#
#
# Indices 1 2 3 4 5 6 
#
# 1 120.8157 28.1409 30.2437 0.0090 -0.1101 -0.0011
# 2 28.1409 49.2620 6.2120 -0.0309 1.5079 -0.0275
# 3 30.2437 6.2120 80.7957 -0.0125 -2.2378 -0.0215
# 4 0.0090 -0.0309 -0.0125 17.7209 -0.0251 1.3320
# 5 -0.1101 1.5079 -2.2378 -0.0251 26.0585 -0.0194
# 6 -0.0011 -0.0275 -0.0215 1.3320 -0.0194 29.1013
#
#
#
# Elastic Compliance Matrix: (Units=1/GPa)
#
#
# Indices 1 2 3 4 5 6 
#
# 1 0.010435 -0.005524 -0.003479 -0.000017 0.000065 -0.000007
# 2 -0.005524 0.023469 0.000226 0.000040 -0.001362 0.000019
# 3 -0.003479 0.000226 0.013694 0.000013 0.001148 0.000010
# 4 -0.000017 0.000040 0.000013 0.056626 0.000051 -0.002592
# 5 0.000065 -0.001362 0.001148 0.000051 0.038553 0.000023
# 6 -0.000007 0.000019 0.000010 -0.002592 0.000023 0.034481
#
#
# Mechanical properties :
#
#
# Convention : Reuss Voigt Hill
#
# Bulk Modulus (GPa) = 33.28743 42.22964 37.75853
# Shear Modulus (GPa) = 24.41086 26.99458 25.70272
#
# Velocity S-wave (km/s) = 3.41112 3.58710 3.50022
# Velocity P-wave (km/s) = 5.60189 6.10620 5.85947
#
# Compressibility (1/GPa) = 0.03004137
#
# Stress axis : x y z
#
# Youngs Moduli (GPa) = 95.83267 42.61023 73.02569
#
# Poissons Ratio (x) = 0.23538 0.25409
# Poissons Ratio (y) = 0.52939 -0.01648
# Poissons Ratio (z) = 0.33345 -0.00962
#
# Static dielectric constant tensor:
#      x y z
#    x 1.800070 -0.000030 0.007630 
#    y -0.000030 1.807430 -0.000010 
#    z 0.007630 -0.000010 1.856640 
# 
# From -- ./inp_files/53487.got.cif
#   From: 2010.05.17/outbox.cif.g08.bks.cpg/sg5_27_cif.got.tgz:53487.got - 2010.06.03 18:56:24.
