data_PCOD9121132
_publ_section_title
;
Structure prediction by ZEFSAII (Michael W. Deem and Ramdas Pophale) SiO2 
 PCOD9121132
Probable space group: C 2
;
_chemical_formula_sum "Si O2"
_cell_formula_units_Z 24
_cell_length_a 18.687417
_cell_length_b 5.368908
_cell_length_c 12.573748
_cell_angle_alpha 90.000000
_cell_angle_beta 130.266031
_cell_angle_gamma 90.000000
_cell_volume 962.617896
_symmetry_space_group_name_H-M "C 2"
_symmetry_group_IT_number 5
_symmetry_cell_setting 'monoclinic'
loop_
_space_group_symop_operation_xyz
x,y,z
-x,y,-z
1/2+x,1/2+y,z
1/2-x,1/2+y,-z
loop_
_atom_site_type_symbol
_atom_site_label
_atom_site_fract_x
_atom_site_fract_y
_atom_site_fract_z
Si Si1 0.091087 0.029880 0.925536
Si Si2 0.396241 0.788317 0.263706
Si Si3 0.316276 0.052659 0.715483
Si Si4 0.000000 0.914175 0.500000
Si Si5 0.000000 0.392285 0.000000
Si Si6 0.251515 0.037974 0.254849
Si Si7 0.457836 0.140910 0.673566
O O1 0.147262 0.158418 0.881357
O O2 0.030102 0.803360 0.817235
O O3 0.020338 0.216432 0.918640
O O4 0.167865 0.990162 0.089915
O O5 0.419475 0.585456 0.372960
O O6 0.342824 0.014616 0.267959
O O7 0.493984 0.882434 0.310538
O O8 0.253428 0.293379 0.676856
O O9 0.362647 0.089953 0.644612
O O10 0.267627 0.791093 0.699445
O O11 0.408286 0.047675 0.881831
O O12 0.044991 0.772491 0.443312
#
# Coordination Sequence:
#
# PCOD9121132 Si02
#       7
#     4   4   4   2   2   4   4
#     4  10  22  36  68 106 148 184 229 282 360 433
#     4  11  25  44  71 103 140 187 243 293 358 423
#     4  11  23  42  68 102 145 188 230 286 351 433
#     4  10  26  46  78  96 134 190 266 302 342 414
#     4  10  18  40  62 106 140 188 226 274 342 440
#     4  11  27  40  69 109 155 177 223 295 372 423
#     4  11  22  44  74  97 136 194 248 287 345 426
#
# _framework density 24.932012
#
# number of rings (size 3 to 8) (size 9 to 14) (size 15 to 20)
#    0.000    1.333    1.667    3.500   11.667    0.667 
#    0.000    0.000    7.333    0.000    0.000    0.000 
#    0.000    0.000    0.000    0.000    0.000    0.000 
#
# Total GULP energy -67127.290645 kJ/mol
# GULP energy per Si atom -5593.940887 kJ/mol
# Density = 2.487527 g / cm^3
# Si number density = 24.932012 Si / 1000 Ang^3
#
#
#
# Elastic Constant Matrix: (Units=GPa)
#
#
# Indices 1 2 3 4 5 6 
#
# 1 145.6104 49.5504 39.3867 0.0001 -45.1700 -0.0001
# 2 49.5504 114.3442 47.0946 0.0008 -35.1907 0.0005
# 3 39.3867 47.0946 103.6058 0.0003 -36.5259 0.0003
# 4 0.0001 0.0008 0.0003 31.1503 0.0000 -18.8441
# 5 -45.1700 -35.1907 -36.5259 0.0000 36.6257 0.0000
# 6 -0.0001 0.0005 0.0003 -18.8441 0.0000 45.0167
#
#
#
# Elastic Compliance Matrix: (Units=1/GPa)
#
#
# Indices 1 2 3 4 5 6 
#
# 1 0.011265 -0.001029 0.001133 0.000000 0.014034 0.000000
# 2 -0.001029 0.012851 -0.002382 0.000000 0.008703 0.000000
# 3 0.001133 -0.002382 0.015406 0.000000 0.014473 0.000000
# 4 0.000000 0.000000 0.000000 0.042988 -0.000001 0.017995
# 5 0.014034 0.008703 0.014473 -0.000001 0.067406 0.000000
# 6 0.000000 0.000000 0.000000 0.017995 0.000000 0.029747
#
#
# Mechanical properties :
#
#
# Convention : Reuss Voigt Hill
#
# Bulk Modulus (GPa) = 28.59964 70.62486 49.61225
# Shear Modulus (GPa) = 25.52649 37.72714 31.62681
#
# Velocity S-wave (km/s) = 3.20323 3.89421 3.56550
# Velocity P-wave (km/s) = 5.01765 6.97196 6.07392
#
# Compressibility (1/GPa) = 0.03496547
#
# Stress axis : x y z
#
# Youngs Moduli (GPa) = 88.77179 77.81540 64.90790
#
# Poissons Ratio (x) = 0.08008 -0.07354
# Poissons Ratio (y) = 0.09136 0.15462
# Poissons Ratio (z) = -0.10057 0.18537
#
# Static dielectric constant tensor:
#      x y z
#    x 1.982260 0.000000 0.008540 
#    y 0.000000 1.951580 0.000000 
#    z 0.008540 0.000000 2.032270 
# 
# From -- ./inp_files/43727.got.cif
#   From: 2010.05.17/outbox.cif.g08.bks.cpg/sg5_22_cif.got.tgz:43727.got - 2010.06.03 18:56:24.
