data_PCOD9121518
_publ_section_title
;
Structure prediction by ZEFSAII (Michael W. Deem and Ramdas Pophale) SiO2 
 PCOD9121518
Probable space group: C 2
;
_chemical_formula_sum "Si O2"
_cell_formula_units_Z 28
_cell_length_a 15.480760
_cell_length_b 10.531480
_cell_length_c 9.336118
_cell_angle_alpha 90.000000
_cell_angle_beta 105.174290
_cell_angle_gamma 90.000000
_cell_volume 1469.046877
_symmetry_space_group_name_H-M "C 2"
_symmetry_group_IT_number 5
_symmetry_cell_setting 'monoclinic'
loop_
_space_group_symop_operation_xyz
x,y,z
-x,y,-z
1/2+x,1/2+y,z
1/2-x,1/2+y,-z
loop_
_atom_site_type_symbol
_atom_site_label
_atom_site_fract_x
_atom_site_fract_y
_atom_site_fract_z
Si Si1 0.797112 0.267660 0.974496
Si Si2 0.232554 0.518093 0.859124
Si Si3 0.377570 0.565487 0.704790
Si Si4 0.705585 0.808995 0.346897
Si Si5 0.072511 0.157565 0.729128
Si Si6 0.900374 0.415663 0.437556
Si Si7 0.401310 0.402830 0.449884
O O1 0.721408 0.158970 0.919430
O O2 0.833167 0.303817 0.831749
O O3 0.770252 0.400483 0.034245
O O4 0.865107 0.197113 0.111652
O O5 0.331262 0.524673 0.831010
O O6 0.161022 0.489320 0.703232
O O7 0.309828 0.666471 0.604502
O O8 0.472875 0.634922 0.745759
O O9 0.385598 0.447538 0.604993
O O10 0.653987 0.898153 0.437003
O O11 0.810541 0.832270 0.372180
O O12 0.081814 0.275896 0.624448
O O13 0.093309 0.028128 0.650232
O O14 0.000000 0.471420 0.500000
O O15 0.500000 0.341202 0.500000
#
# Coordination Sequence:
#
# PCOD9121518 Si02
#       7
#     4   4   4   4   4   4   4
#     4  10  23  39  59  95 124 167 204 256 319 370
#     4  10  22  39  60  91 127 161 207 256 318 369
#     4  10  19  35  61  92 112 160 211 257 305 359
#     4  11  20  34  58  89 124 154 204 253 309 367
#     4  10  19  36  62  87 121 153 215 267 299 358
#     4  11  19  36  61  93 121 158 207 267 306 365
#     4  10  19  34  59  89 114 155 207 259 303 362
#
# _framework density 19.059978000000001
#
# number of rings (size 3 to 8) (size 9 to 14) (size 15 to 20)
#    0.000    1.714    4.286    1.286    0.000    2.286 
#    0.000    2.857    0.000    0.000   29.714    0.000 
#    0.000    0.000    0.000    0.000    0.000    0.000 
#
# Total GULP energy -77964.423287 kJ/mol
# GULP energy per Si atom -5568.887378 kJ/mol
# Density = 1.901660 g / cm^3
# Si number density = 19.059978 Si / 1000 Ang^3
#
#
#
# Elastic Constant Matrix: (Units=GPa)
#
#
# Indices 1 2 3 4 5 6 
#
# 1 108.8037 30.7463 35.6489 0.0000 0.7093 0.0000
# 2 30.7463 63.9748 28.2685 0.0000 4.4519 0.0000
# 3 35.6489 28.2685 107.6613 0.0000 -1.8958 0.0000
# 4 0.0000 0.0000 0.0000 19.1913 0.0000 3.6953
# 5 0.7093 4.4519 -1.8958 0.0000 22.4606 0.0000
# 6 0.0000 0.0000 0.0000 3.6953 0.0000 27.8496
#
#
#
# Elastic Compliance Matrix: (Units=1/GPa)
#
#
# Indices 1 2 3 4 5 6 
#
# 1 0.011249 -0.004278 -0.002597 0.000000 0.000274 0.000000
# 2 -0.004278 0.019658 -0.003817 0.000000 -0.004083 0.000000
# 3 -0.002597 -0.003817 0.011182 0.000000 0.001782 0.000000
# 4 0.000000 0.000000 0.000000 0.053473 0.000000 -0.007095
# 5 0.000274 -0.004083 0.001782 0.000000 0.045474 0.000000
# 6 0.000000 0.000000 0.000000 -0.007095 0.000000 0.036849
#
#
# Mechanical properties :
#
#
# Convention : Reuss Voigt Hill
#
# Bulk Modulus (GPa) = 48.29633 52.19635 50.24634
# Shear Modulus (GPa) = 24.25202 26.28536 25.26869
#
# Velocity S-wave (km/s) = 3.57095 3.71763 3.64503
# Velocity P-wave (km/s) = 6.51125 6.77292 6.64338
#
# Compressibility (1/GPa) = 0.02070551
#
# Stress axis : x y z
#
# Youngs Moduli (GPa) = 88.89916 50.87039 89.43105
#
# Poissons Ratio (x) = 0.21761 0.23222
# Poissons Ratio (y) = 0.38029 0.34135
# Poissons Ratio (z) = 0.23084 0.19417
#
# Static dielectric constant tensor:
#      x y z
#    x 1.707690 0.000000 0.018030 
#    y 0.000000 1.703580 0.000000 
#    z 0.018030 0.000000 1.697810 
# 
# From -- ./inp_files/23586.got.cif
#   From: 2010.05.17/outbox.cif.g08.bks.cpg/sg5_12_cif.got.tgz:23586.got - 2010.06.03 18:56:24.
