data_PCOD9121989
_publ_section_title
;
Structure prediction by ZEFSAII (Michael W. Deem and Ramdas Pophale) SiO2 
 PCOD9121989
Probable space group: C 2
;
_chemical_formula_sum "Si O2"
_cell_formula_units_Z 26
_cell_length_a 10.755645
_cell_length_b 8.198954
_cell_length_c 15.709461
_cell_angle_alpha 90.000000
_cell_angle_beta 50.287361
_cell_angle_gamma 90.000000
_cell_volume 1065.684307
_symmetry_space_group_name_H-M "C 2"
_symmetry_group_IT_number 5
_symmetry_cell_setting 'monoclinic'
loop_
_space_group_symop_operation_xyz
x,y,z
-x,y,-z
1/2+x,1/2+y,z
1/2-x,1/2+y,-z
loop_
_atom_site_type_symbol
_atom_site_label
_atom_site_fract_x
_atom_site_fract_y
_atom_site_fract_z
Si Si1 0.625950 0.473400 0.294718
Si Si2 0.305708 0.266891 0.588515
Si Si3 0.047371 0.004685 0.079060
Si Si4 0.087674 0.375645 0.056420
Si Si5 0.000000 0.191026 0.500000
Si Si6 0.087593 0.682947 0.870543
Si Si7 0.704575 0.409898 0.587107
O O1 0.730101 0.349267 0.305765
O O2 0.526298 0.579565 0.406629
O O3 0.737574 0.599735 0.196929
O O4 0.483766 0.371188 0.313706
O O5 0.500000 0.245158 0.500000
O O6 0.258822 0.381518 0.529853
O O7 0.230806 0.092153 0.607009
O O8 0.917320 0.865867 0.163942
O O9 0.058157 0.192936 0.105193
O O10 0.219910 0.915856 0.023810
O O11 0.000000 0.026800 0.000000
O O12 0.013387 0.539459 0.132041
O O13 0.000000 0.374553 0.000000
O O14 0.838520 0.295925 0.569163
O O15 0.000000 0.700319 0.000000
#
# Coordination Sequence:
#
# PCOD9121989 Si02
#       7
#     4   4   4   4   2   4   4
#     4  11  23  44  64  97 135 175 222 278 335 401
#     4  10  19  37  64  91 130 166 210 270 332 396
#     4  10  20  39  66  94 123 175 226 277 332 394
#     4  10  20  39  66  92 128 173 223 280 333 392
#     4  12  22  40  68 100 132 170 220 280 340 404
#     4  10  23  46  67  94 142 184 223 283 336 398
#     4  11  20  39  68  96 132 168 218 271 340 406
#
# _framework density 24.397469000000001
#
# number of rings (size 3 to 8) (size 9 to 14) (size 15 to 20)
#    0.000    1.538    6.154    0.000    0.000    0.000 
#   13.846    0.000    0.000    0.000    0.000    0.000 
#    0.000    0.000    0.000    0.000    0.000    0.000 
#
# Total GULP energy -72494.308188 kJ/mol
# GULP energy per Si atom -5576.485245 kJ/mol
# Density = 2.434194 g / cm^3
# Si number density = 24.397469 Si / 1000 Ang^3
#
#
#
# Elastic Constant Matrix: (Units=GPa)
#
#
# Indices 1 2 3 4 5 6 
#
# 1 108.7043 23.5009 -2.8972 0.0000 -1.9024 0.0000
# 2 23.5009 191.5141 2.7971 0.0000 -4.0332 0.0000
# 3 -2.8972 2.7971 46.5730 0.0000 -6.0049 0.0000
# 4 0.0000 0.0000 0.0000 20.8303 0.0000 -15.1269
# 5 -1.9024 -4.0332 -6.0049 0.0000 38.1646 0.0000
# 6 0.0000 0.0000 0.0000 -15.1269 0.0000 116.1485
#
#
#
# Elastic Compliance Matrix: (Units=1/GPa)
#
#
# Indices 1 2 3 4 5 6 
#
# 1 0.009478 -0.001164 0.000719 0.000000 0.000463 0.000000
# 2 -0.001164 0.005379 -0.000336 0.000000 0.000457 0.000000
# 3 0.000719 -0.000336 0.021983 0.000000 0.003459 0.000000
# 4 0.000000 0.000000 0.000000 0.053022 0.000000 0.006905
# 5 0.000463 0.000457 0.003459 0.000000 0.026818 0.000000
# 6 0.000000 0.000000 0.000000 0.006905 0.000000 0.009509
#
#
# Mechanical properties :
#
#
# Convention : Reuss Voigt Hill
#
# Bulk Modulus (GPa) = 28.34677 43.73255 36.03966
# Shear Modulus (GPa) = 35.83982 56.58807 46.21395
#
# Velocity S-wave (km/s) = 3.83691 4.82126 4.35697
# Velocity P-wave (km/s) = 5.59224 6.99691 6.33363
#
# Compressibility (1/GPa) = 0.03527739
#
# Stress axis : x y z
#
# Youngs Moduli (GPa) = 105.50589 185.91126 45.49054
#
# Poissons Ratio (x) = 0.21637 -0.03271
# Poissons Ratio (y) = 0.12279 0.01531
# Poissons Ratio (z) = -0.07588 0.06255
#
# Static dielectric constant tensor:
#      x y z
#    x 1.407130 0.000000 0.173800 
#    y 0.000000 1.976950 0.000000 
#    z 0.173800 0.000000 1.950250 
# 
# From -- ./inp_files/65044.got.cif
#   From: 2010.05.17/outbox.cif.g08.bks.cpg/sg5_33_cif.got.tgz:65044.got - 2010.06.03 18:56:24.
