data_PCOD9121535
_publ_section_title
;
Structure prediction by ZEFSAII (Michael W. Deem and Ramdas Pophale) SiO2 
 PCOD9121535
Probable space group: C 2
;
_chemical_formula_sum "Si O2"
_cell_formula_units_Z 28
_cell_length_a 22.143339
_cell_length_b 8.066703
_cell_length_c 8.120068
_cell_angle_alpha 90.000000
_cell_angle_beta 134.365692
_cell_angle_gamma 90.000000
_cell_volume 1036.905019
_symmetry_space_group_name_H-M "C 2"
_symmetry_group_IT_number 5
_symmetry_cell_setting 'monoclinic'
loop_
_space_group_symop_operation_xyz
x,y,z
-x,y,-z
1/2+x,1/2+y,z
1/2-x,1/2+y,-z
loop_
_atom_site_type_symbol
_atom_site_label
_atom_site_fract_x
_atom_site_fract_y
_atom_site_fract_z
Si Si1 0.806034 0.339170 0.931058
Si Si2 0.461088 0.290795 0.251170
Si Si3 0.752874 0.546557 0.398707
Si Si4 0.787557 0.707608 0.797443
Si Si5 0.587139 0.734025 0.564254
Si Si6 0.522121 0.946838 0.860446
Si Si7 0.074003 0.011776 0.244983
O O1 0.749912 0.194259 0.741806
O O2 0.775477 0.531209 0.871198
O O3 0.838558 0.283418 0.171910
O O4 0.892714 0.339953 0.989141
O O5 0.500000 0.339087 0.500000
O O6 0.516871 0.360750 0.207010
O O7 0.461565 0.095447 0.232915
O O8 0.361138 0.314841 0.030607
O O9 0.806930 0.623709 0.653405
O O10 0.773166 0.361437 0.371681
O O11 0.659183 0.512613 0.301069
O O12 0.500000 0.704627 0.500000
O O13 0.557539 0.866044 0.375294
O O14 0.603996 0.582498 0.476900
O O15 0.500000 0.999395 0.000000
O O16 0.000000 0.106159 0.000000
#
# Coordination Sequence:
#
# PCOD9121535 Si02
#       7
#     4   4   4   4   4   4   4
#     4  10  22  40  65  94 134 187 233 283 359 428
#     4  11  24  41  66 103 144 185 236 302 365 424
#     4  12  24  44  71 102 138 194 242 295 356 441
#     4  11  24  44  72  99 144 191 242 289 369 441
#     4  10  20  37  61  96 138 178 225 293 368 420
#     4  10  19  34  60  95 135 173 222 294 356 409
#     4  12  23  39  66 108 137 179 252 302 348 423
#
# _framework density 27.003437000000002
#
# number of rings (size 3 to 8) (size 9 to 14) (size 15 to 20)
#    0.000    1.143    2.857    6.000    4.000    0.000 
#    0.000    1.429    0.000    0.000    0.000    0.000 
#    0.000    0.000    0.000    0.000    0.000    0.000 
#
# Total GULP energy -78143.489642 kJ/mol
# GULP energy per Si atom -5581.677832 kJ/mol
# Density = 2.694198 g / cm^3
# Si number density = 27.003437 Si / 1000 Ang^3
#
#
#
# Elastic Constant Matrix: (Units=GPa)
#
#
# Indices 1 2 3 4 5 6 
#
# 1 91.0619 1.7851 19.0329 0.0000 -1.4308 0.0000
# 2 1.7851 124.7410 29.3003 0.0000 -20.6906 0.0000
# 3 19.0329 29.3003 164.1509 0.0000 -38.1578 0.0000
# 4 0.0000 0.0000 0.0000 33.9597 0.0000 -25.0012
# 5 -1.4308 -20.6906 -38.1578 0.0000 44.5824 0.0000
# 6 0.0000 0.0000 0.0000 -25.0012 0.0000 1.9585
#
#
#
# Elastic Compliance Matrix: (Units=1/GPa)
#
#
# Indices 1 2 3 4 5 6 
#
# 1 0.011286 0.000044 -0.001532 0.000000 -0.000929 0.000000
# 2 0.000044 0.008763 -0.000779 0.000000 0.003402 0.000000
# 3 -0.001532 -0.000779 0.007881 0.000000 0.006335 0.000000
# 4 0.000000 0.000000 0.000000 -0.003506 0.000000 -0.044761
# 5 -0.000929 0.003402 0.006335 0.000000 0.029402 0.000000
# 6 0.000000 0.000000 0.000000 -0.044761 0.000000 -0.060799
#
#
# Mechanical properties :
#
#
# Convention : Reuss Voigt Hill
#
# Bulk Modulus (GPa) = 42.73950 53.35448 48.04699
# Shear Modulus (GPa) = 933.01775 38.08914 485.55344
#
# Velocity S-wave (km/s) = 18.60828 3.75978 13.42394
# Velocity P-wave (km/s) = 21.85298 6.21685 16.06552
#
# Compressibility (1/GPa) = 0.02339756
#
# Stress axis : x y z
#
# Youngs Moduli (GPa) = 88.60235 114.11447 126.88413
#
# Poissons Ratio (x) = -0.00506 0.19444
# Poissons Ratio (y) = -0.00393 0.09878
# Poissons Ratio (z) = 0.13578 0.08884
#
# Static dielectric constant tensor:
#      x y z
#    x 2.261600 0.000000 0.139490 
#    y 0.000000 2.204180 0.000000 
#    z 0.139490 0.000000 2.240000 
# 
# From -- ./inp_files/32528.got.cif
#   From: 2010.05.17/outbox.cif.g08.bks.cpg/sg5_17_cif.got.tgz:32528.got - 2010.06.03 18:56:24.
