data_PCOD9121091
_publ_section_title
;
Structure prediction by ZEFSAII (Michael W. Deem and Ramdas Pophale) SiO2 
 PCOD9121091
Probable space group: C 2
;
_chemical_formula_sum "Si O2"
_cell_formula_units_Z 28
_cell_length_a 17.854979
_cell_length_b 7.197811
_cell_length_c 14.802156
_cell_angle_alpha 90.000000
_cell_angle_beta 39.036961
_cell_angle_gamma 90.000000
_cell_volume 1198.125478
_symmetry_space_group_name_H-M "C 2"
_symmetry_group_IT_number 5
_symmetry_cell_setting 'monoclinic'
loop_
_space_group_symop_operation_xyz
x,y,z
-x,y,-z
1/2+x,1/2+y,z
1/2-x,1/2+y,-z
loop_
_atom_site_type_symbol
_atom_site_label
_atom_site_fract_x
_atom_site_fract_y
_atom_site_fract_z
Si Si1 0.500000 0.899120 0.500000
Si Si2 0.447699 0.145224 0.892208
Si Si3 0.338026 0.468240 0.488412
Si Si4 0.248628 0.803340 0.254700
Si Si5 0.705529 0.334035 0.659463
Si Si6 0.964194 0.681775 0.673046
Si Si7 0.500000 0.847982 0.000000
Si Si8 0.735157 0.737486 0.210988
O O1 0.594845 0.780974 0.352618
O O2 0.543620 0.040114 0.538887
O O3 0.570225 0.259590 0.780129
O O4 0.432463 0.099155 0.800528
O O5 0.328007 0.248424 0.040600
O O6 0.480384 0.977393 0.929835
O O7 0.272745 0.328621 0.618803
O O8 0.287951 0.460697 0.434278
O O9 0.306074 0.674060 0.550510
O O10 0.470219 0.380443 0.372812
O O11 0.150731 0.712418 0.282118
O O12 0.381021 0.732812 0.118229
O O13 0.248575 0.020822 0.223866
O O14 0.719610 0.372751 0.751547
#
# Coordination Sequence:
#
# PCOD9121091 Si02
#       8
#     2   4   4   4   4   4   2   4
#     4  12  26  38  62  94 130 164 208 274 322 376
#     4  10  19  41  61  91 122 169 205 264 320 381
#     4  10  20  35  61  90 124 164 211 263 319 373
#     4  10  20  40  64  87 123 167 211 258 322 392
#     4  10  20  35  64  89 122 166 215 262 314 380
#     4  11  24  39  64  91 134 164 210 271 329 370
#     4  10  18  38  70  88 116 170 218 254 316 400
#     4  10  23  37  64  88 124 160 221 255 321 385
#
# _framework density 23.369838999999999
#
# number of rings (size 3 to 8) (size 9 to 14) (size 15 to 20)
#    0.000    1.714    5.714    0.000    8.000    2.286 
#    0.000    0.000    9.429    0.000    0.000    0.000 
#    0.000    0.000    0.000    0.000    0.000    0.000 
#
# Total GULP energy -77947.634281 kJ/mol
# GULP energy per Si atom -5567.688163 kJ/mol
# Density = 2.331665 g / cm^3
# Si number density = 23.369839 Si / 1000 Ang^3
#
#
#
# Elastic Constant Matrix: (Units=GPa)
#
#
# Indices 1 2 3 4 5 6 
#
# 1 100.5014 28.8193 60.2217 0.0000 10.5174 0.0000
# 2 28.8193 69.3892 42.6466 0.0005 -6.0414 -0.0003
# 3 60.2217 42.6466 111.6203 0.0000 17.8395 -0.0001
# 4 0.0000 0.0005 0.0000 26.7191 0.0000 -3.8994
# 5 10.5174 -6.0414 17.8395 0.0000 54.4591 0.0000
# 6 0.0000 -0.0003 -0.0001 -3.8994 0.0000 22.4251
#
#
#
# Elastic Compliance Matrix: (Units=1/GPa)
#
#
# Indices 1 2 3 4 5 6 
#
# 1 0.014866 -0.001798 -0.007221 0.000000 -0.000705 0.000000
# 2 -0.001798 0.020261 -0.007583 0.000000 0.005079 0.000000
# 3 -0.007221 -0.007583 0.016529 0.000000 -0.004861 0.000000
# 4 0.000000 0.000000 0.000000 0.038401 0.000000 0.006677
# 5 -0.000705 0.005079 -0.004861 0.000000 0.020654 0.000000
# 6 0.000000 0.000000 0.000000 0.006677 0.000000 0.045754
#
#
# Mechanical properties :
#
#
# Convention : Reuss Voigt Hill
#
# Bulk Modulus (GPa) = 54.19255 60.54291 57.36773
# Shear Modulus (GPa) = 25.53369 30.70887 28.12128
#
# Velocity S-wave (km/s) = 3.30902 3.62890 3.47265
# Velocity P-wave (km/s) = 6.15134 6.59706 6.37809
#
# Compressibility (1/GPa) = 0.01845272
#
# Stress axis : x y z
#
# Youngs Moduli (GPa) = 67.26546 49.35677 60.49942
#
# Poissons Ratio (x) = 0.08872 0.43689
# Poissons Ratio (y) = 0.12092 0.45875
# Poissons Ratio (z) = 0.48575 0.37426
#
# Static dielectric constant tensor:
#      x y z
#    x 1.938330 0.000000 -0.019070 
#    y 0.000000 1.927470 0.000000 
#    z -0.019070 0.000000 1.960000 
# 
# From -- ./inp_files/55755.got.cif
#   From: 2010.05.17/outbox.cif.g08.bks.cpg/sg5_28_cif.got.tgz:55755.got - 2010.06.03 18:56:24.
