data_PCOD9121276
_publ_section_title
;
Structure prediction by ZEFSAII (Michael W. Deem and Ramdas Pophale) SiO2 
 PCOD9121276
Probable space group: C 2
;
_chemical_formula_sum "Si O2"
_cell_formula_units_Z 32
_cell_length_a 5.039357
_cell_length_b 20.177750
_cell_length_c 17.921538
_cell_angle_alpha 90.000000
_cell_angle_beta 63.693063
_cell_angle_gamma 90.000000
_cell_volume 1633.581736
_symmetry_space_group_name_H-M "C 2"
_symmetry_group_IT_number 5
_symmetry_cell_setting 'monoclinic'
loop_
_space_group_symop_operation_xyz
x,y,z
-x,y,-z
1/2+x,1/2+y,z
1/2-x,1/2+y,-z
loop_
_atom_site_type_symbol
_atom_site_label
_atom_site_fract_x
_atom_site_fract_y
_atom_site_fract_z
Si Si1 0.114599 0.957810 0.285829
Si Si2 0.730225 0.838944 0.814080
Si Si3 0.744999 0.383256 0.416184
Si Si4 0.345753 0.744403 0.946508
Si Si5 0.979893 0.577617 0.268494
Si Si6 0.440431 0.660972 0.783618
Si Si7 0.514545 0.024722 0.413901
Si Si8 0.870705 0.292758 0.720613
O O1 0.130994 0.912558 0.210030
O O2 0.105992 0.905635 0.354841
O O3 0.410968 0.001874 0.253595
O O4 0.837589 0.005503 0.339223
O O5 0.549471 0.809191 0.905362
O O6 0.489077 0.832984 0.777943
O O7 0.015697 0.791585 0.766031
O O8 0.500000 0.353452 0.500000
O O9 0.852267 0.453365 0.436156
O O10 0.005653 0.332528 0.365197
O O11 0.361908 0.698091 0.870696
O O12 0.500000 0.712283 0.000000
O O13 0.000000 0.759939 0.000000
O O14 0.300278 0.609879 0.231533
O O15 0.876441 0.573312 0.368674
O O16 0.809093 0.620816 0.228947
O O17 0.509610 0.720657 0.717009
O O18 0.500000 0.050629 0.500000
#
# Coordination Sequence:
#
# PCOD9121276 Si02
#       8
#     4   4   4   4   4   4   4   4
#     4  10  20  36  59  90 116 164 208 253 315 372
#     4  10  20  36  61  92 123 148 193 258 317 394
#     4  10  19  31  56  86 118 155 206 272 322 362
#     4  11  22  40  67  98 122 154 198 261 328 378
#     4  11  23  38  60  88 117 172 219 251 304 362
#     4  11  22  41  61  87 125 162 211 258 295 391
#     4  11  20  36  60  88 124 160 220 275 308 353
#     4  10  20  35  58  85 117 160 203 252 317 369
#
# _framework density 19.588857999999998
#
# number of rings (size 3 to 8) (size 9 to 14) (size 15 to 20)
#    0.000    1.500    3.750    3.750    0.000    0.000 
#    0.000    0.625    0.000    4.500    0.000    0.000 
#    0.000    0.000    0.000    0.000    0.000    0.000 
#
# Total GULP energy -89073.591622 kJ/mol
# GULP energy per Si atom -5567.099476 kJ/mol
# Density = 1.954427 g / cm^3
# Si number density = 19.588858 Si / 1000 Ang^3
#
#
#
# Elastic Constant Matrix: (Units=GPa)
#
#
# Indices 1 2 3 4 5 6 
#
# 1 112.8560 20.1976 40.0344 0.0000 -6.5044 0.0000
# 2 20.1976 47.1291 42.8467 0.0000 -3.7938 0.0000
# 3 40.0344 42.8467 101.1834 0.0000 -3.9196 0.0000
# 4 0.0000 0.0000 0.0000 18.6795 0.0000 0.7706
# 5 -6.5044 -3.7938 -3.9196 0.0000 39.8403 0.0000
# 6 0.0000 0.0000 0.0000 0.7706 0.0000 24.5355
#
#
#
# Elastic Compliance Matrix: (Units=1/GPa)
#
#
# Indices 1 2 3 4 5 6 
#
# 1 0.010407 -0.001074 -0.003615 0.000000 0.001241 0.000000
# 2 -0.001074 0.034748 -0.014222 0.000000 0.001734 0.000000
# 3 -0.003615 -0.014222 0.017327 0.000000 -0.000240 0.000000
# 4 0.000000 0.000000 0.000000 0.053604 0.000000 -0.001684
# 5 0.001241 0.001734 -0.000240 0.000000 0.025444 0.000000
# 6 0.000000 0.000000 0.000000 -0.001684 0.000000 0.040810
#
#
# Mechanical properties :
#
#
# Convention : Reuss Voigt Hill
#
# Bulk Modulus (GPa) = 40.55178 51.92511 46.23845
# Shear Modulus (GPa) = 21.89319 27.15038 24.52179
#
# Velocity S-wave (km/s) = 3.34673 3.72696 3.54195
# Velocity P-wave (km/s) = 5.97332 6.71456 6.35476
#
# Compressibility (1/GPa) = 0.02465983
#
# Stress axis : x y z
#
# Youngs Moduli (GPa) = 96.09041 28.77867 57.71503
#
# Poissons Ratio (x) = 0.03090 0.20863
# Poissons Ratio (y) = 0.10317 0.82084
# Poissons Ratio (z) = 0.34736 0.40930
#
# Static dielectric constant tensor:
#      x y z
#    x 1.777920 0.000000 0.006960 
#    y 0.000000 1.733880 0.000000 
#    z 0.006960 0.000000 1.732000 
# 
# From -- ./inp_files/59025.got.cif
#   From: 2010.05.17/outbox.cif.g08.bks.cpg/sg5_30_cif.got.tgz:59025.got - 2010.06.03 18:56:24.
