data_PCOD9121273
_publ_section_title
;
Structure prediction by ZEFSAII (Michael W. Deem and Ramdas Pophale) SiO2 
 PCOD9121273
Probable space group: C 2
;
_chemical_formula_sum "Si O2"
_cell_formula_units_Z 28
_cell_length_a 14.027805
_cell_length_b 18.360310
_cell_length_c 8.552804
_cell_angle_alpha 90.000000
_cell_angle_beta 149.077837
_cell_angle_gamma 90.000000
_cell_volume 1131.968019
_symmetry_space_group_name_H-M "C 2"
_symmetry_group_IT_number 5
_symmetry_cell_setting 'monoclinic'
loop_
_space_group_symop_operation_xyz
x,y,z
-x,y,-z
1/2+x,1/2+y,z
1/2-x,1/2+y,-z
loop_
_atom_site_type_symbol
_atom_site_label
_atom_site_fract_x
_atom_site_fract_y
_atom_site_fract_z
Si Si1 0.043526 0.196740 0.234339
Si Si2 0.070216 0.352395 0.363389
Si Si3 0.800725 0.482873 0.309108
Si Si4 0.801280 0.627965 0.163699
Si Si5 0.855126 0.893934 0.178867
Si Si6 0.662582 0.121124 0.129164
Si Si7 0.113101 0.787657 0.007471
O O1 0.105695 0.281164 0.307655
O O2 0.176607 0.144345 0.523289
O O3 0.849674 0.191097 0.053444
O O4 0.000000 0.171904 0.000000
O O5 0.171949 0.431553 0.501285
O O6 0.175714 0.316429 0.664922
O O7 0.851799 0.372897 0.053309
O O8 0.756612 0.567534 0.234983
O O9 0.000000 0.477330 0.500000
O O10 0.659549 0.444548 0.993797
O O11 0.000000 0.654591 0.500000
O O12 0.797649 0.588825 0.986735
O O13 0.000000 0.928303 0.500000
O O14 0.949737 0.821544 0.242088
O O15 0.592352 0.201447 0.977478
O O16 0.500000 0.083762 0.000000
O O17 0.000000 0.813651 0.000000
#
# Coordination Sequence:
#
# PCOD9121273 Si02
#       7
#     4   4   4   4   4   4   4
#     4  11  23  38  61  96 131 165 212 269 323 381
#     4   9  19  37  58  79 116 163 205 253 308 368
#     4   8  18  38  59  79 113 163 210 250 308 379
#     4  11  22  38  63  91 123 169 211 259 325 388
#     4  10  19  31  54  82 107 146 201 253 297 361
#     4  10  21  37  58  88 125 162 205 261 319 382
#     4   9  18  33  52  77 112 150 188 241 309 365
#
# _framework density 24.735679999999999
#
# number of rings (size 3 to 8) (size 9 to 14) (size 15 to 20)
#    0.000    2.286    0.000    3.429    0.000   11.429 
#    0.000    2.857    0.000   23.143    0.000    0.000 
#    0.000    0.000    0.000    0.000    0.000    0.000 
#
# Total GULP energy -77943.101388 kJ/mol
# GULP energy per Si atom -5567.364385 kJ/mol
# Density = 2.467938 g / cm^3
# Si number density = 24.735680 Si / 1000 Ang^3
#
#
#
# Elastic Constant Matrix: (Units=GPa)
#
#
# Indices 1 2 3 4 5 6 
#
# 1 71.1827 3.0426 38.0028 0.0000 -5.1021 0.0000
# 2 3.0426 67.1759 17.3383 0.0000 5.1000 0.0000
# 3 38.0028 17.3383 138.2356 0.0000 -14.3507 0.0000
# 4 0.0000 0.0000 0.0000 24.6487 0.0000 -0.4753
# 5 -5.1021 5.1000 -14.3507 0.0000 31.0040 0.0000
# 6 0.0000 0.0000 0.0000 -0.4753 0.0000 10.5667
#
#
#
# Elastic Compliance Matrix: (Units=1/GPa)
#
#
# Indices 1 2 3 4 5 6 
#
# 1 0.016486 0.000378 -0.004522 0.000000 0.000558 0.000000
# 2 0.000378 0.015785 -0.002465 0.000000 -0.003675 0.000000
# 3 -0.004522 -0.002465 0.009193 0.000000 0.003917 0.000000
# 4 0.000000 0.000000 0.000000 0.040605 0.000000 0.001826
# 5 0.000558 -0.003675 0.003917 0.000000 0.034763 0.000000
# 6 0.000000 0.000000 0.000000 0.001826 0.000000 0.094719
#
#
# Mechanical properties :
#
#
# Convention : Reuss Voigt Hill
#
# Bulk Modulus (GPa) = 35.40372 43.70685 39.55528
# Shear Modulus (GPa) = 21.35068 27.79124 24.57096
#
# Velocity S-wave (km/s) = 2.94113 3.35554 3.15515
# Velocity P-wave (km/s) = 5.08700 5.72021 5.41287
#
# Compressibility (1/GPa) = 0.02824562
#
# Stress axis : x y z
#
# Youngs Moduli (GPa) = 60.65650 63.35326 108.77928
#
# Poissons Ratio (x) = -0.02395 0.49188
# Poissons Ratio (y) = -0.02293 0.26817
# Poissons Ratio (z) = 0.27428 0.15618
#
# Static dielectric constant tensor:
#      x y z
#    x 2.095580 0.000000 -0.020350 
#    y 0.000000 2.057910 0.000000 
#    z -0.020350 0.000000 2.017840 
# 
# From -- ./inp_files/25508.got.cif
#   From: 2010.05.17/outbox.cif.g08.bks.cpg/sg5_13_cif.got.tgz:25508.got - 2010.06.03 18:56:24.
