data_PCOD9121405
_publ_section_title
;
Structure prediction by ZEFSAII (Michael W. Deem and Ramdas Pophale) SiO2 
 PCOD9121405
Probable space group: C 2
;
_chemical_formula_sum "Si O2"
_cell_formula_units_Z 30
_cell_length_a 21.268190
_cell_length_b 5.734072
_cell_length_c 11.210740
_cell_angle_alpha 90.000000
_cell_angle_beta 82.012190
_cell_angle_gamma 90.000000
_cell_volume 1353.922186
_symmetry_space_group_name_H-M "C 2"
_symmetry_group_IT_number 5
_symmetry_cell_setting 'monoclinic'
loop_
_space_group_symop_operation_xyz
x,y,z
-x,y,-z
1/2+x,1/2+y,z
1/2-x,1/2+y,-z
loop_
_atom_site_type_symbol
_atom_site_label
_atom_site_fract_x
_atom_site_fract_y
_atom_site_fract_z
Si Si1 0.165152 0.064470 0.401616
Si Si2 0.500000 0.160438 0.500000
Si Si3 0.857857 0.494126 0.948409
Si Si4 0.277501 0.332547 0.102750
Si Si5 0.910470 0.937785 0.362362
Si Si6 0.198372 0.573227 0.666811
Si Si7 0.869199 0.206944 0.172574
Si Si8 0.880918 0.551519 0.678487
O O1 0.238227 0.036492 0.424286
O O2 0.161073 0.320124 0.339127
O O3 0.114117 0.088325 0.520125
O O4 0.148106 0.814242 0.339671
O O5 0.471495 0.311238 0.398804
O O6 0.441860 0.030652 0.577457
O O7 0.790976 0.365296 0.935602
O O8 0.895056 0.525189 0.815762
O O9 0.831555 0.743783 0.998382
O O10 0.888733 0.359360 0.052697
O O11 0.276261 0.143871 0.208182
O O12 0.306690 0.563503 0.151597
O O13 0.850229 0.763961 0.366559
O O14 0.919064 0.041471 0.227445
O O15 0.154652 0.357520 0.709778
#
# Coordination Sequence:
#
# PCOD9121405 Si02
#       8
#     4   2   4   4   4   4   4   4
#     4  11  25  41  68 106 143 178 229 294 362 434
#     4  10  26  54  70 100 134 196 256 314 338 414
#     4  11  20  34  64 101 142 187 223 278 354 438
#     4  10  19  33  58  94 145 182 212 271 352 440
#     4  10  25  43  69  97 135 189 241 294 361 410
#     4  10  22  38  60 104 143 176 224 287 364 437
#     4  10  22  37  63  98 144 185 222 286 356 432
#     4  11  26  44  73 105 137 189 245 290 350 420
#
# _framework density 22.157845999999999
#
# number of rings (size 3 to 8) (size 9 to 14) (size 15 to 20)
#    0.000    1.600    2.667    0.800   11.200    2.133 
#    0.000    0.000    0.000    8.800    0.000    0.000 
#    0.000    0.000    0.000    0.000    0.000    0.000 
#
# Total GULP energy -83567.015504 kJ/mol
# GULP energy per Si atom -5571.134367 kJ/mol
# Density = 2.210741 g / cm^3
# Si number density = 22.157846 Si / 1000 Ang^3
#
#
#
# Elastic Constant Matrix: (Units=GPa)
#
#
# Indices 1 2 3 4 5 6 
#
# 1 49.6994 22.3235 24.3396 0.0000 9.2416 0.0000
# 2 22.3235 91.6939 45.7848 0.0000 4.7102 0.0000
# 3 24.3396 45.7848 84.2216 0.0000 11.7641 0.0000
# 4 0.0000 0.0000 0.0000 35.3386 0.0000 8.0911
# 5 9.2416 4.7102 11.7641 0.0000 22.2603 0.0000
# 6 0.0000 0.0000 0.0000 8.0911 0.0000 15.4991
#
#
#
# Elastic Compliance Matrix: (Units=1/GPa)
#
#
# Indices 1 2 3 4 5 6 
#
# 1 0.025229 -0.003621 -0.004283 0.000000 -0.007445 0.000000
# 2 -0.003621 0.015520 -0.007711 0.000000 0.002295 0.000000
# 3 -0.004283 -0.007711 0.018168 0.000000 -0.006192 0.000000
# 4 0.000000 0.000000 0.000000 0.032139 0.000000 -0.016778
# 5 -0.007445 0.002295 -0.006192 0.000000 0.050800 0.000000
# 6 0.000000 0.000000 0.000000 -0.016778 0.000000 0.073279
#
#
# Mechanical properties :
#
#
# Convention : Reuss Voigt Hill
#
# Bulk Modulus (GPa) = 36.11784 45.61228 40.86506
# Shear Modulus (GPa) = 19.56229 23.49742 21.52985
#
# Velocity S-wave (km/s) = 2.97452 3.26000 3.12052
# Velocity P-wave (km/s) = 5.30402 5.89915 5.60948
#
# Compressibility (1/GPa) = 0.02768715
#
# Stress axis : x y z
#
# Youngs Moduli (GPa) = 39.63655 64.43365 55.04264
#
# Poissons Ratio (x) = 0.23334 0.23572
# Poissons Ratio (y) = 0.14354 0.42443
# Poissons Ratio (z) = 0.16974 0.49684
#
# Static dielectric constant tensor:
#      x y z
#    x 1.770200 0.000000 -0.002420 
#    y 0.000000 1.949370 0.000000 
#    z -0.002420 0.000000 1.877870 
# 
# From -- ./inp_files/45695.got.cif
#   From: 2010.05.17/outbox.cif.g08.bks.cpg/sg5_23_cif.got.tgz:45695.got - 2010.06.03 18:56:24.
