data_PCOD9121349
_publ_section_title
;
Structure prediction by ZEFSAII (Michael W. Deem and Ramdas Pophale) SiO2 
 PCOD9121349
Probable space group: C 2
;
_chemical_formula_sum "Si O2"
_cell_formula_units_Z 30
_cell_length_a 26.014609
_cell_length_b 9.105343
_cell_length_c 7.598505
_cell_angle_alpha 90.000000
_cell_angle_beta 49.498609
_cell_angle_gamma 90.000000
_cell_volume 1368.605487
_symmetry_space_group_name_H-M "C 2"
_symmetry_group_IT_number 5
_symmetry_cell_setting 'monoclinic'
loop_
_space_group_symop_operation_xyz
x,y,z
-x,y,-z
1/2+x,1/2+y,z
1/2-x,1/2+y,-z
loop_
_atom_site_type_symbol
_atom_site_label
_atom_site_fract_x
_atom_site_fract_y
_atom_site_fract_z
Si Si1 0.708801 0.601660 0.686599
Si Si2 0.186139 0.647302 0.820528
Si Si3 0.077834 0.227633 0.859428
Si Si4 0.272461 0.848613 0.087367
Si Si5 0.552485 0.030092 0.042711
Si Si6 0.862038 0.745972 0.699406
Si Si7 0.000000 0.696631 0.500000
Si Si8 0.328439 0.931601 0.594998
O O1 0.750420 0.683976 0.440216
O O2 0.631172 0.599686 0.792236
O O3 0.705717 0.701056 0.866147
O O4 0.763002 0.477031 0.621630
O O5 0.201604 0.488498 0.868048
O O6 0.119838 0.622810 0.849447
O O7 0.165864 0.737862 0.037524
O O8 0.115248 0.329558 0.625425
O O9 0.069119 0.357351 0.024102
O O10 0.000000 0.179354 0.000000
O O11 0.190927 0.850925 0.276475
O O12 0.300296 0.850137 0.829224
O O13 0.528015 0.094530 0.281772
O O14 0.500000 0.045106 0.000000
O O15 0.857363 0.586050 0.613714
O O16 0.939485 0.787990 0.548495
#
# Coordination Sequence:
#
# PCOD9121349 Si02
#       8
#     4   4   4   4   4   4   2   4
#     4  11  20  35  57  81 112 147 190 230 288 345
#     4  10  19  34  53  84 110 147 188 238 279 349
#     4  11  21  36  57  88 117 146 190 235 291 340
#     4  10  20  35  56  82 108 147 197 229 284 343
#     4  10  19  33  53  85 120 149 175 244 298 337
#     4   9  19  32  54  81 113 146 185 230 287 336
#     4  10  20  32  54  84 122 144 188 236 300 336
#     4  10  20  36  56  83 117 148 183 241 282 339
#
# _framework density 21.920123
#
# number of rings (size 3 to 8) (size 9 to 14) (size 15 to 20)
#    0.000    1.867    2.667    2.400    1.867    0.000 
#    0.000    0.000    2.933    0.000    0.000    0.000 
#    0.000    0.000    0.000    0.000    0.000    0.000 
#
# Total GULP energy -83602.887745 kJ/mol
# GULP energy per Si atom -5573.525850 kJ/mol
# Density = 2.187023 g / cm^3
# Si number density = 21.920123 Si / 1000 Ang^3
#
#
#
# Elastic Constant Matrix: (Units=GPa)
#
#
# Indices 1 2 3 4 5 6 
#
# 1 124.1364 11.4861 53.2489 0.0000 -38.8331 0.0000
# 2 11.4861 15.4692 14.5651 0.0000 -2.2820 0.0000
# 3 53.2489 14.5651 122.1100 0.0000 -14.0882 0.0000
# 4 0.0000 0.0000 0.0000 17.9259 0.0000 -1.4676
# 5 -38.8331 -2.2820 -14.0882 0.0000 52.1844 0.0000
# 6 0.0000 0.0000 0.0000 -1.4676 0.0000 21.0804
#
#
#
# Elastic Compliance Matrix: (Units=1/GPa)
#
#
# Indices 1 2 3 4 5 6 
#
# 1 0.012798 -0.004425 -0.004104 0.000000 0.008222 0.000000
# 2 -0.004425 0.074391 -0.007172 0.000000 -0.001976 0.000000
# 3 -0.004104 -0.007172 0.010782 0.000000 -0.000457 0.000000
# 4 0.000000 0.000000 0.000000 0.056105 0.000000 0.003906
# 5 0.008222 -0.001976 -0.000457 0.000000 0.025071 0.000000
# 6 0.000000 0.000000 0.000000 0.003906 0.000000 0.047709
#
#
# Mechanical properties :
#
#
# Convention : Reuss Voigt Hill
#
# Bulk Modulus (GPa) = 15.02208 46.70175 30.86192
# Shear Modulus (GPa) = 17.82862 30.39918 24.11390
#
# Velocity S-wave (km/s) = 2.85501 3.72804 3.32034
# Velocity P-wave (km/s) = 4.21143 6.31528 5.36744
#
# Compressibility (1/GPa) = 0.06656867
#
# Stress axis : x y z
#
# Youngs Moduli (GPa) = 78.13920 13.44243 92.74892
#
# Poissons Ratio (x) = 0.05948 0.38067
# Poissons Ratio (y) = 0.34578 0.66516
# Poissons Ratio (z) = 0.32071 0.09640
#
# Static dielectric constant tensor:
#      x y z
#    x 1.873010 0.000000 -0.036570 
#    y 0.000000 1.824200 0.000000 
#    z -0.036570 0.000000 1.836060 
# 
# From -- ./inp_files/31876.got.cif
#   From: 2010.05.17/outbox.cif.g08.bks.cpg/sg5_16_cif.got.tgz:31876.got - 2010.06.03 18:56:24.
