data_PCOD9121655
_publ_section_title
;
Structure prediction by ZEFSAII (Michael W. Deem and Ramdas Pophale) SiO2 
 PCOD9121655
Probable space group: C 2
;
_chemical_formula_sum "Si O2"
_cell_formula_units_Z 32
_cell_length_a 26.119239
_cell_length_b 13.288555
_cell_length_c 9.342117
_cell_angle_alpha 90.000000
_cell_angle_beta 152.824590
_cell_angle_gamma 90.000000
_cell_volume 1480.914434
_symmetry_space_group_name_H-M "C 2"
_symmetry_group_IT_number 5
_symmetry_cell_setting 'monoclinic'
loop_
_space_group_symop_operation_xyz
x,y,z
-x,y,-z
1/2+x,1/2+y,z
1/2-x,1/2+y,-z
loop_
_atom_site_type_symbol
_atom_site_label
_atom_site_fract_x
_atom_site_fract_y
_atom_site_fract_z
Si Si1 0.802142 0.967670 0.825079
Si Si2 0.551004 0.099504 0.854291
Si Si3 0.627789 0.638112 0.847354
Si Si4 0.549865 0.906543 0.261577
Si Si5 0.676790 0.136433 0.888308
Si Si6 0.541097 0.325255 0.940909
Si Si7 0.890292 0.359313 0.285679
Si Si8 0.348053 0.371256 0.231928
O O1 0.671142 0.950321 0.521245
O O2 0.863565 0.932917 0.125710
O O3 0.853967 0.897932 0.832189
O O4 0.827970 0.086073 0.897985
O O5 0.648959 0.097409 0.978180
O O6 0.430279 0.106601 0.474386
O O7 0.563811 0.206564 0.967407
O O8 0.533950 0.998900 0.905622
O O9 0.500000 0.610779 0.500000
O O10 0.626582 0.759208 0.848146
O O11 0.710707 0.613544 0.920584
O O12 0.574824 0.839882 0.462967
O O13 0.500000 0.851966 0.000000
O O14 0.672067 0.258206 0.877891
O O15 0.444596 0.361471 0.589093
O O16 0.500000 0.336614 0.000000
O O17 0.000000 0.415076 0.500000
O O18 0.768949 0.408507 0.989627
#
# Coordination Sequence:
#
# PCOD9121655 Si02
#       8
#     4   4   4   4   4   4   4   4
#     4  11  21  39  63  91 126 169 217 280 330 394
#     4  10  19  35  61  94 131 163 218 280 331 385
#     4  10  19  35  60  90 124 167 219 269 327 384
#     4  11  24  40  62  92 133 172 215 275 342 394
#     4   9  17  32  59  92 122 158 218 276 314 376
#     4  11  22  36  60  97 135 171 213 273 345 401
#     4   9  21  37  60  87 121 171 224 268 314 392
#     4   9  18  35  59  90 121 160 214 269 322 376
#
# _framework density 21.608270000000001
#
# number of rings (size 3 to 8) (size 9 to 14) (size 15 to 20)
#    0.000    2.000    2.500    1.500    1.750    1.000 
#    0.000    1.250    0.000    6.750    0.000    0.000 
#    0.000    0.000    0.000    0.000    0.000    0.000 
#
# Total GULP energy -89250.442831 kJ/mol
# GULP energy per Si atom -5578.152677 kJ/mol
# Density = 2.155909 g / cm^3
# Si number density = 21.608270 Si / 1000 Ang^3
#
#
#
# Elastic Constant Matrix: (Units=GPa)
#
#
# Indices 1 2 3 4 5 6 
#
# 1 121.5804 27.2711 14.5436 0.0000 27.1328 0.0000
# 2 27.2711 80.5296 -4.2427 0.0000 4.4990 0.0000
# 3 14.5436 -4.2427 34.3885 0.0000 9.9997 0.0000
# 4 0.0000 0.0000 0.0000 17.9411 0.0000 7.1297
# 5 27.1328 4.4990 9.9997 0.0000 45.5229 0.0000
# 6 0.0000 0.0000 0.0000 7.1297 0.0000 31.9243
#
#
#
# Elastic Compliance Matrix: (Units=1/GPa)
#
#
# Indices 1 2 3 4 5 6 
#
# 1 0.010571 -0.003467 -0.003382 0.000000 -0.005215 0.000000
# 2 -0.003467 0.013758 0.003160 0.000000 0.000012 0.000000
# 3 -0.003382 0.003160 0.032479 0.000000 -0.005431 0.000000
# 4 0.000000 0.000000 0.000000 0.061167 0.000000 -0.013660
# 5 -0.005215 0.000012 -0.005431 0.000000 0.026267 0.000000
# 6 0.000000 0.000000 0.000000 -0.013660 0.000000 0.034375
#
#
# Mechanical properties :
#
#
# Convention : Reuss Voigt Hill
#
# Bulk Modulus (GPa) = 20.23067 34.62696 27.42881
# Shear Modulus (GPa) = 24.69500 32.33941 28.51721
#
# Velocity S-wave (km/s) = 3.38427 3.87282 3.63676
# Velocity P-wave (km/s) = 4.96527 6.00483 5.50962
#
# Compressibility (1/GPa) = 0.04942991
#
# Stress axis : x y z
#
# Youngs Moduli (GPa) = 94.59861 72.68738 30.78929
#
# Poissons Ratio (x) = 0.25198 0.10413
# Poissons Ratio (y) = 0.32794 -0.09729
# Poissons Ratio (z) = 0.31992 -0.22968
#
# Static dielectric constant tensor:
#      x y z
#    x 1.806040 0.000000 0.024430 
#    y 0.000000 1.927580 0.000000 
#    z 0.024430 0.000000 1.771740 
# 
# From -- ./inp_files/31087.got.cif
#   From: 2010.05.17/outbox.cif.g08.bks.cpg/sg5_16_cif.got.tgz:31087.got - 2010.06.03 18:56:24.
