data_PCOD9121271
_publ_section_title
;
Structure prediction by ZEFSAII (Michael W. Deem and Ramdas Pophale) SiO2 
 PCOD9121271
Probable space group: C 2
;
_chemical_formula_sum "Si O2"
_cell_formula_units_Z 32
_cell_length_a 26.614240
_cell_length_b 7.098017
_cell_length_c 20.785155
_cell_angle_alpha 90.000000
_cell_angle_beta 161.139600
_cell_angle_gamma 90.000000
_cell_volume 1269.290355
_symmetry_space_group_name_H-M "C 2"
_symmetry_group_IT_number 5
_symmetry_cell_setting 'monoclinic'
loop_
_space_group_symop_operation_xyz
x,y,z
-x,y,-z
1/2+x,1/2+y,z
1/2-x,1/2+y,-z
loop_
_atom_site_type_symbol
_atom_site_label
_atom_site_fract_x
_atom_site_fract_y
_atom_site_fract_z
Si Si1 0.970670 0.744790 0.624381
Si Si2 0.703749 0.768826 0.015838
Si Si3 0.922981 0.893314 0.709148
Si Si4 0.411841 0.833950 0.707111
Si Si5 0.239639 0.895482 0.147541
Si Si6 0.980964 0.296481 0.337407
Si Si7 0.678175 0.338181 0.221073
Si Si8 0.355098 0.761145 0.782568
O O1 0.936982 0.794501 0.657355
O O2 0.816192 0.802592 0.399186
O O3 0.999594 0.522011 0.652758
O O4 0.125330 0.846706 0.789514
O O5 0.578302 0.915139 0.891407
O O6 0.629230 0.724409 0.854758
O O7 0.735365 0.600190 0.106073
O O8 0.747272 0.877997 0.520984
O O9 0.939866 0.116346 0.724045
O O10 0.065874 0.819492 0.923183
O O11 0.380703 0.851139 0.744294
O O12 0.379708 0.788246 0.280675
O O13 0.241218 0.900981 0.226462
O O14 0.164247 0.233962 0.561499
O O15 0.645713 0.532001 0.221373
O O16 0.500000 0.254529 0.000000
O O17 0.500000 0.815864 0.000000
#
# Coordination Sequence:
#
# PCOD9121271 Si02
#       8
#     4   4   4   4   4   4   4   4
#     4   9  19  32  51  76 111 147 182 232 282 335
#     4  10  19  32  51  80 114 146 186 232 286 345
#     4  10  19  35  49  81 109 145 183 235 277 339
#     4  10  22  31  56  80 114 142 190 230 291 332
#     4  10  20  35  53  82 114 148 192 237 289 343
#     4  10  20  33  54  82 114 151 187 236 294 337
#     4  10  19  31  54  79 116 144 192 242 289 339
#     4   9  17  33  51  78 108 145 182 236 284 335
#
# _framework density 25.210937999999999
#
# number of rings (size 3 to 8) (size 9 to 14) (size 15 to 20)
#    0.000    2.250    1.250    3.375    7.000    0.000 
#    0.000    1.875    0.000    0.000   26.000    0.000 
#   11.250    0.000    0.000    0.000    0.000    0.000 
#
# Total GULP energy -89216.600350 kJ/mol
# GULP energy per Si atom -5576.037522 kJ/mol
# Density = 2.515356 g / cm^3
# Si number density = 25.210938 Si / 1000 Ang^3
#
#
#
# Elastic Constant Matrix: (Units=GPa)
#
#
# Indices 1 2 3 4 5 6 
#
# 1 124.0344 -5.9272 62.3105 0.0000 10.8983 0.0000
# 2 -5.9272 64.8065 -9.4413 0.0000 -7.1756 0.0000
# 3 62.3105 -9.4413 220.2856 0.0000 38.8643 0.0000
# 4 0.0000 0.0000 0.0000 12.2843 0.0000 -1.0203
# 5 10.8983 -7.1756 38.8643 0.0000 49.8289 0.0000
# 6 0.0000 0.0000 0.0000 -1.0203 0.0000 18.0370
#
#
#
# Elastic Compliance Matrix: (Units=1/GPa)
#
#
# Indices 1 2 3 4 5 6 
#
# 1 0.009413 0.000483 -0.002656 0.000000 0.000083 0.000000
# 2 0.000483 0.015725 0.000181 0.000000 0.002017 0.000000
# 3 -0.002656 0.000181 0.006020 0.000000 -0.004088 0.000000
# 4 0.000000 0.000000 0.000000 0.081789 0.000000 0.004627
# 5 0.000083 0.002017 -0.004088 0.000000 0.023530 0.000000
# 6 0.000000 0.000000 0.000000 0.004627 0.000000 0.055703
#
#
# Mechanical properties :
#
#
# Convention : Reuss Voigt Hill
#
# Bulk Modulus (GPa) = 36.80089 55.89007 46.34548
# Shear Modulus (GPa) = 24.36401 40.17567 32.26984
#
# Velocity S-wave (km/s) = 3.11208 3.99630 3.58158
# Velocity P-wave (km/s) = 5.24807 6.59628 5.96042
#
# Compressibility (1/GPa) = 0.02717325
#
# Stress axis : x y z
#
# Youngs Moduli (GPa) = 106.24113 63.59499 166.11319
#
# Poissons Ratio (x) = -0.03072 0.44126
# Poissons Ratio (y) = -0.05132 -0.03013
# Poissons Ratio (z) = 0.28221 -0.01154
#
# Static dielectric constant tensor:
#      x y z
#    x 2.161320 0.000000 0.130620 
#    y 0.000000 2.109580 0.000000 
#    z 0.130620 0.000000 2.200730 
# 
# From -- ./inp_files/67606.got.cif
#   From: 2010.05.17/outbox.cif.g08.bks.cpg/sg5_34_cif.got.tgz:67606.got - 2010.06.03 18:56:24.
