data_PCOD9121274
_publ_section_title
;
Structure prediction by ZEFSAII (Michael W. Deem and Ramdas Pophale) SiO2 
 PCOD9121274
Probable space group: C 2
;
_chemical_formula_sum "Si O2"
_cell_formula_units_Z 28
_cell_length_a 7.869049
_cell_length_b 35.997964
_cell_length_c 5.266938
_cell_angle_alpha 90.000000
_cell_angle_beta 61.108458
_cell_angle_gamma 90.000000
_cell_volume 1306.268133
_symmetry_space_group_name_H-M "C 2"
_symmetry_group_IT_number 5
_symmetry_cell_setting 'monoclinic'
loop_
_space_group_symop_operation_xyz
x,y,z
-x,y,-z
1/2+x,1/2+y,z
1/2-x,1/2+y,-z
loop_
_atom_site_type_symbol
_atom_site_label
_atom_site_fract_x
_atom_site_fract_y
_atom_site_fract_z
Si Si1 0.274242 0.980590 0.158843
Si Si2 0.000000 0.742938 0.500000
Si Si3 0.739025 0.940636 0.329185
Si Si4 0.134706 0.143863 0.150741
Si Si5 0.766475 0.309784 0.168923
Si Si6 0.629790 0.560106 0.155011
Si Si7 0.500000 0.195847 0.000000
Si Si8 0.264542 0.855533 0.667101
O O1 0.199473 0.967729 0.486277
O O2 0.258644 0.023929 0.104547
O O3 0.500000 0.971095 0.000000
O O4 0.192839 0.956632 0.987436
O O5 0.832326 0.769938 0.729017
O O6 0.941381 0.719139 0.294485
O O7 0.500000 0.940636 0.500000
O O8 0.801359 0.897990 0.309930
O O9 0.215256 0.101473 0.066910
O O10 0.315155 0.171304 0.049651
O O11 0.000000 0.146044 0.500000
O O12 0.000000 0.150938 0.000000
O O13 0.709552 0.332641 0.459519
O O14 0.709396 0.333345 0.961365
O O15 0.000000 0.305844 0.000000
O O16 0.500000 0.561638 0.500000
O O17 0.500000 0.553806 0.000000
O O18 0.500000 0.857007 0.500000
#
# Coordination Sequence:
#
# PCOD9121274 Si02
#       8
#     4   2   4   4   4   4   2   4
#     4  10  19  31  54  84 115 153 200 252 300 354
#     4  12  26  42  64  98 130 160 204 268 322 384
#     4   9  17  30  51  84 115 149 202 253 299 351
#     4  10  23  44  68  97 129 169 220 260 314 387
#     4  10  21  38  61  87 118 161 207 249 311 375
#     4  10  21  38  59  82 118 163 199 251 302 362
#     4  12  26  44  70  98 132 172 204 266 334 384
#     4   9  17  33  59  83 112 159 206 252 300 366
#
# _framework density 21.435109000000001
#
# number of rings (size 3 to 8) (size 9 to 14) (size 15 to 20)
#    0.000    2.000    0.000    3.429    1.000    5.143 
#    0.000    0.000   15.714    0.000    0.000    0.000 
#    0.000    0.000    0.000    0.000    0.000    0.000 
#
# Total GULP energy -78247.391418 kJ/mol
# GULP energy per Si atom -5589.099387 kJ/mol
# Density = 2.138632 g / cm^3
# Si number density = 21.435109 Si / 1000 Ang^3
#
#
#
# Elastic Constant Matrix: (Units=GPa)
#
#
# Indices 1 2 3 4 5 6 
#
# 1 99.0081 59.4289 46.8488 0.0000 26.1026 0.0000
# 2 59.4289 140.1122 47.9186 0.0000 28.3970 0.0000
# 3 46.8488 47.9186 128.8630 0.0000 38.4075 0.0000
# 4 0.0000 0.0000 0.0000 127.4675 0.0000 375.6991
# 5 26.1026 28.3970 38.4075 0.0000 45.1707 0.0000
# 6 0.0000 0.0000 0.0000 375.6991 0.0000 1546.2673
#
#
#
# Elastic Compliance Matrix: (Units=1/GPa)
#
#
# Indices 1 2 3 4 5 6 
#
# 1 0.015177 -0.004815 -0.002699 0.000000 -0.003448 0.000000
# 2 -0.004815 0.010120 -0.001267 0.000000 -0.002502 0.000000
# 3 -0.002699 -0.001267 0.011399 0.000000 -0.007336 0.000000
# 4 0.000000 0.000000 0.000000 0.027637 0.000000 -0.006715
# 5 -0.003448 -0.002502 -0.007336 0.000000 0.031941 0.000000
# 6 0.000000 0.000000 0.000000 -0.006715 0.000000 0.002278
#
#
# Mechanical properties :
#
#
# Convention : Reuss Voigt Hill
#
# Bulk Modulus (GPa) = 52.26564 75.15288 63.70926
# Shear Modulus (GPa) = 40.81857 358.03357 199.42607
#
# Velocity S-wave (km/s) = 4.36855 12.93808 9.65604
# Velocity P-wave (km/s) = 7.06270 16.07261 12.41391
#
# Compressibility (1/GPa) = 0.01913303
#
# Stress axis : x y z
#
# Youngs Moduli (GPa) = 65.88995 98.81477 87.72602
#
# Poissons Ratio (x) = 0.47582 0.23681
# Poissons Ratio (y) = 0.31728 0.11112
# Poissons Ratio (z) = 0.17786 0.12517
#
# Static dielectric constant tensor:
#      x y z
#    x 0.857370 0.000000 0.196610 
#    y 0.000000 1.767990 0.000000 
#    z 0.196610 0.000000 1.700180 
# 
# From -- ./inp_files/3897.got.cif
#   From: 2010.05.17/outbox.cif.g08.bks.cpg/sg5_2_cif.got.tgz:3897.got - 2010.06.03 18:56:24.
