data_PCOD9121459
_publ_section_title
;
Structure prediction by ZEFSAII (Michael W. Deem and Ramdas Pophale) SiO2 
 PCOD9121459
Probable space group: C 2
;
_chemical_formula_sum "Si O2"
_cell_formula_units_Z 30
_cell_length_a 11.226901
_cell_length_b 21.895055
_cell_length_c 11.420766
_cell_angle_alpha 90.000000
_cell_angle_beta 29.481785
_cell_angle_gamma 90.000000
_cell_volume 1381.643082
_symmetry_space_group_name_H-M "C 2"
_symmetry_group_IT_number 5
_symmetry_cell_setting 'monoclinic'
loop_
_space_group_symop_operation_xyz
x,y,z
-x,y,-z
1/2+x,1/2+y,z
1/2-x,1/2+y,-z
loop_
_atom_site_type_symbol
_atom_site_label
_atom_site_fract_x
_atom_site_fract_y
_atom_site_fract_z
Si Si1 0.060040 0.834850 0.084516
Si Si2 0.500000 0.984978 0.000000
Si Si3 0.038339 0.159588 0.267991
Si Si4 0.791379 0.042417 0.555694
Si Si5 0.182147 0.586602 0.141878
Si Si6 0.622587 0.464578 0.132804
Si Si7 0.448657 0.792675 0.414919
Si Si8 0.233097 0.186430 0.737513
O O1 0.053299 0.906798 0.116050
O O2 0.842589 0.803677 0.347663
O O3 0.346979 0.817878 0.850188
O O4 0.000000 0.820277 0.000000
O O5 0.643772 0.952687 0.983138
O O6 0.684269 0.027939 0.772978
O O7 0.954200 0.101880 0.412124
O O8 0.024574 0.221709 0.349912
O O9 0.855803 0.171082 0.315713
O O10 0.280210 0.137116 0.993890
O O11 0.580736 0.058875 0.644626
O O12 0.916581 0.981895 0.401120
O O13 0.231006 0.624127 0.217409
O O14 0.343830 0.527235 0.971246
O O15 0.500000 0.820263 0.500000
O O16 0.500000 0.215953 0.500000
O O17 0.000000 0.218039 0.000000
#
# Coordination Sequence:
#
# PCOD9121459 Si02
#       8
#     4   2   4   4   4   4   4   4
#     4  10  24  46  67  94 123 163 221 272 315 371
#     4  10  22  38  60  94 132 160 212 256 326 386
#     4  10  21  36  63  89 128 170 205 256 321 378
#     4  10  20  36  59  93 124 168 201 255 315 386
#     4   9  20  35  58  94 128 163 200 257 316 383
#     4  10  22  39  66  88 127 168 209 263 325 378
#     4  10  24  43  66  91 124 169 217 268 311 370
#     4  10  19  34  55  86 130 160 196 246 306 370
#
# _framework density 21.713277999999999
#
# number of rings (size 3 to 8) (size 9 to 14) (size 15 to 20)
#    0.000    2.133    1.333    0.400    5.600    5.867 
#    1.200    0.000    7.333    0.000    0.000    0.000 
#    0.000    0.000    0.000    0.000    0.000    0.000 
#
# Total GULP energy -83514.155073 kJ/mol
# GULP energy per Si atom -5567.610338 kJ/mol
# Density = 2.166386 g / cm^3
# Si number density = 21.713278 Si / 1000 Ang^3
#
#
#
# Elastic Constant Matrix: (Units=GPa)
#
#
# Indices 1 2 3 4 5 6 
#
# 1 44.9818 -20.1920 1.2630 -0.0043 -1.5586 0.0076
# 2 -20.1920 69.0454 31.0168 -0.0017 5.4320 0.0034
# 3 1.2630 31.0168 148.6834 -0.0031 -12.0834 0.0069
# 4 -0.0043 -0.0017 -0.0031 11.7514 0.0029 6.8196
# 5 -1.5586 5.4320 -12.0834 0.0029 31.3753 -0.0052
# 6 0.0076 0.0034 0.0069 6.8196 -0.0052 17.3396
#
#
#
# Elastic Compliance Matrix: (Units=1/GPa)
#
#
# Indices 1 2 3 4 5 6 
#
# 1 0.026151 0.008678 -0.002115 0.000023 -0.001018 -0.000022
# 2 0.008678 0.019410 -0.004502 0.000013 -0.004663 -0.000012
# 3 -0.002115 -0.004502 0.007988 0.000000 0.003751 0.000000
# 4 0.000023 0.000013 0.000000 0.110262 -0.000019 -0.043365
# 5 -0.001018 -0.004663 0.003751 -0.000019 0.034073 0.000018
# 6 -0.000022 -0.000012 0.000000 -0.043365 0.000018 0.074727
#
#
# Mechanical properties :
#
#
# Convention : Reuss Voigt Hill
#
# Bulk Modulus (GPa) = 17.33991 31.87626 24.60809
# Shear Modulus (GPa) = 17.37844 28.80143 23.08994
#
# Velocity S-wave (km/s) = 2.83213 3.64599 3.26452
# Velocity P-wave (km/s) = 4.32410 5.69532 5.05641
#
# Compressibility (1/GPa) = 0.05767042
#
# Stress axis : x y z
#
# Youngs Moduli (GPa) = 38.23977 51.51922 125.19396
#
# Poissons Ratio (x) = -0.44708 0.26481
# Poissons Ratio (y) = -0.33184 0.56361
# Poissons Ratio (z) = 0.08088 0.23193
#
# Static dielectric constant tensor:
#      x y z
#    x 1.830790 0.000000 -0.054320 
#    y 0.000000 1.747910 0.000000 
#    z -0.054320 0.000000 1.915900 
# 
# From -- ./inp_files/5938.got.cif
#   From: 2010.05.17/outbox.cif.g08.bks.cpg/sg5_3_cif.got.tgz:5938.got - 2010.06.03 18:56:24.
