data_PCOD9121167
_publ_section_title
;
Structure prediction by ZEFSAII (Michael W. Deem and Ramdas Pophale) SiO2 
 PCOD9121167
Probable space group: C 2
;
_chemical_formula_sum "Si O2"
_cell_formula_units_Z 26
_cell_length_a 25.312799
_cell_length_b 6.976126
_cell_length_c 10.983757
_cell_angle_alpha 90.000000
_cell_angle_beta 29.093841
_cell_angle_gamma 90.000000
_cell_volume 943.099212
_symmetry_space_group_name_H-M "C 2"
_symmetry_group_IT_number 5
_symmetry_cell_setting 'monoclinic'
loop_
_space_group_symop_operation_xyz
x,y,z
-x,y,-z
1/2+x,1/2+y,z
1/2-x,1/2+y,-z
loop_
_atom_site_type_symbol
_atom_site_label
_atom_site_fract_x
_atom_site_fract_y
_atom_site_fract_z
Si Si1 0.437623 0.482780 0.901176
Si Si2 0.832836 0.045391 0.488069
Si Si3 0.507117 0.033766 0.787431
Si Si4 0.500000 0.456114 0.500000
Si Si5 0.188699 0.400083 0.955331
Si Si6 0.717869 0.107586 0.478095
Si Si7 0.650168 0.115815 0.274696
O O1 0.539411 0.578547 0.768143
O O2 0.460994 0.252773 0.872200
O O3 0.464402 0.536689 0.704747
O O4 0.320443 0.518665 0.198923
O O5 0.763689 0.137249 0.520765
O O6 0.812532 0.817438 0.509825
O O7 0.776389 0.060845 0.732883
O O8 0.403302 0.903319 0.964603
O O9 0.598332 0.007632 0.709432
O O10 0.583842 0.017235 0.514888
O O11 0.597097 0.314255 0.339573
O O12 0.146770 0.482362 0.165983
O O13 0.240171 0.197299 0.888484
#
# Coordination Sequence:
#
# PCOD9121167 Si02
#       7
#     4   4   4   2   4   4   4
#     4  10  21  45  72  99 140 186 227 295 354 409
#     4  11  26  47  70 107 137 189 248 281 356 421
#     4  10  23  45  71 100 139 186 234 283 360 415
#     4  10  18  40  70 100 130 184 224 276 356 418
#     4  12  23  45  73 105 141 182 235 290 351 430
#     4  11  25  47  72  99 145 189 236 299 343 412
#     4  11  22  42  73 100 143 179 225 292 355 419
#
# _framework density 27.568680000000001
#
# number of rings (size 3 to 8) (size 9 to 14) (size 15 to 20)
#    0.000    1.231    7.692    0.462    4.308    0.615 
#    5.538    1.538    6.769    0.000    0.000    0.000 
#    0.000    0.000    0.000    0.000    0.000    0.000 
#
# Total GULP energy -72699.392289 kJ/mol
# GULP energy per Si atom -5592.260945 kJ/mol
# Density = 2.750593 g / cm^3
# Si number density = 27.568680 Si / 1000 Ang^3
#
#
#
# Elastic Constant Matrix: (Units=GPa)
#
#
# Indices 1 2 3 4 5 6 
#
# 1 137.5638 17.3035 39.9697 0.0000 -41.2867 0.0000
# 2 17.3035 49.7372 30.8700 0.0000 -19.3137 0.0000
# 3 39.9697 30.8700 143.7104 0.0000 -38.1125 0.0000
# 4 0.0000 0.0000 0.0000 46.2290 0.0000 -22.2580
# 5 -41.2867 -19.3137 -38.1125 0.0000 61.6861 0.0000
# 6 0.0000 0.0000 0.0000 -22.2580 0.0000 41.3330
#
#
#
# Elastic Compliance Matrix: (Units=1/GPa)
#
#
# Indices 1 2 3 4 5 6 
#
# 1 0.009252 -0.000477 -0.001038 0.000000 0.005402 0.000000
# 2 -0.000477 0.024591 -0.003818 0.000000 0.005021 0.000000
# 3 -0.001038 -0.003818 0.009049 0.000000 0.003700 0.000000
# 4 0.000000 0.000000 0.000000 0.029203 0.000000 0.015726
# 5 0.005402 0.005021 0.003700 0.000000 0.023685 0.000000
# 6 0.000000 0.000000 0.000000 0.015726 0.000000 0.032662
#
#
# Mechanical properties :
#
#
# Convention : Reuss Voigt Hill
#
# Bulk Modulus (GPa) = 31.03117 56.36641 43.69879
# Shear Modulus (GPa) = 33.36659 46.04086 39.70372
#
# Velocity S-wave (km/s) = 3.48272 4.09105 3.79908
# Velocity P-wave (km/s) = 5.23955 6.54261 5.92700
#
# Compressibility (1/GPa) = 0.03222566
#
# Stress axis : x y z
#
# Youngs Moduli (GPa) = 108.08210 40.66512 110.51300
#
# Poissons Ratio (x) = 0.01939 0.11475
# Poissons Ratio (y) = 0.05154 0.42195
# Poissons Ratio (z) = 0.11222 0.15526
#
# Static dielectric constant tensor:
#      x y z
#    x 2.320860 0.000000 -0.065150 
#    y 0.000000 2.244170 0.000000 
#    z -0.065150 0.000000 2.274700 
# 
# From -- ./inp_files/47923.got.cif
#   From: 2010.05.17/outbox.cif.g08.bks.cpg/sg5_24_cif.got.tgz:47923.got - 2010.06.03 18:56:24.
