data_PCOD9121403
_publ_section_title
;
Structure prediction by ZEFSAII (Michael W. Deem and Ramdas Pophale) SiO2 
 PCOD9121403
Probable space group: C 2
;
_chemical_formula_sum "Si O2"
_cell_formula_units_Z 26
_cell_length_a 10.616052
_cell_length_b 12.410557
_cell_length_c 8.823078
_cell_angle_alpha 90.000000
_cell_angle_beta 106.184815
_cell_angle_gamma 90.000000
_cell_volume 1116.379687
_symmetry_space_group_name_H-M "C 2"
_symmetry_group_IT_number 5
_symmetry_cell_setting 'monoclinic'
loop_
_space_group_symop_operation_xyz
x,y,z
-x,y,-z
1/2+x,1/2+y,z
1/2-x,1/2+y,-z
loop_
_atom_site_type_symbol
_atom_site_label
_atom_site_fract_x
_atom_site_fract_y
_atom_site_fract_z
Si Si1 0.778045 0.500000 0.236836
Si Si2 0.655049 0.043118 0.081153
Si Si3 0.068158 0.012339 0.382401
Si Si4 0.178909 0.764597 0.167697
Si Si5 0.417160 0.312038 0.206968
Si Si6 0.279222 0.871246 0.643739
Si Si7 0.500000 0.926273 0.500000
O O1 0.658898 0.559975 0.281528
O O2 0.756351 0.369939 0.239154
O O3 0.914589 0.507419 0.368248
O O4 0.786712 0.526335 0.064862
O O5 0.731850 0.144690 0.177732
O O6 0.668873 0.943193 0.197949
O O7 0.500000 0.066642 0.000000
O O8 0.000000 0.073138 0.500000
O O9 0.174381 0.937397 0.507261
O O10 0.963841 0.934711 0.260887
O O11 0.056682 0.753868 0.242515
O O12 0.137075 0.793809 0.980205
O O13 0.311275 0.283430 0.299628
O O14 0.404927 0.856343 0.577907
#
# Coordination Sequence:
#
# PCOD9121403 Si02
#       7
#     4   4   4   4   4   4   2
#     4  10  20  36  61  85 117 155 190 239 291 343
#     4  12  21  34  61  90 115 149 191 246 290 339
#     4   8  17  33  58  80 110 154 190 229 280 341
#     4  10  20  35  61  91 114 141 203 244 280 338
#     4   9  16  33  58  82 109 145 190 238 275 328
#     4  10  19  33  58  85 112 155 188 236 292 339
#     4  10  20  34  60  80 118 162 192 220 300 358
#
# _framework density 23.289569
#
# number of rings (size 3 to 8) (size 9 to 14) (size 15 to 20)
#    0.000    2.154    4.615    0.000    0.000    0.000 
#    0.000    0.000   67.692   12.923    0.000    0.000 
#    0.000    0.000    0.000    0.000    0.000    0.000 
#
# Total GULP energy -72395.520563 kJ/mol
# GULP energy per Si atom -5568.886197 kJ/mol
# Density = 2.323656 g / cm^3
# Si number density = 23.289569 Si / 1000 Ang^3
#
#
#
# Elastic Constant Matrix: (Units=GPa)
#
#
# Indices 1 2 3 4 5 6 
#
# 1 122.8575 18.3390 49.5804 0.0000 -55.8622 0.0000
# 2 18.3390 44.8142 13.9200 0.0000 -12.4748 0.0000
# 3 49.5804 13.9200 112.0267 0.0000 -41.5053 0.0000
# 4 0.0000 0.0000 0.0000 -3.2837 0.0000 -1.6152
# 5 -55.8622 -12.4748 -41.5053 0.0000 66.6749 0.0000
# 6 0.0000 0.0000 0.0000 -1.6152 0.0000 16.7177
#
#
#
# Elastic Compliance Matrix: (Units=1/GPa)
#
#
# Indices 1 2 3 4 5 6 
#
# 1 0.013812 -0.002244 -0.002212 0.000000 0.009775 0.000000
# 2 -0.002244 0.024151 -0.001339 0.000000 0.001805 0.000000
# 3 -0.002212 -0.001339 0.012078 0.000000 0.005414 0.000000
# 4 0.000000 0.000000 0.000000 -0.290719 0.000000 -0.028089
# 5 0.009775 0.001805 0.005414 0.000000 0.026896 0.000000
# 6 0.000000 0.000000 0.000000 -0.028089 0.000000 0.057103
#
#
# Mechanical properties :
#
#
# Convention : Reuss Voigt Hill
#
# Bulk Modulus (GPa) = 26.00773 49.26413 37.63593
# Shear Modulus (GPa) = -37.80109 29.21238 -4.29435
#
# Velocity S-wave (km/s) = -4.03313 3.54547 -1.35937
# Velocity P-wave (km/s) = 3.23988 6.16111 3.70556
#
# Compressibility (1/GPa) = 0.03845011
#
# Stress axis : x y z
#
# Youngs Moduli (GPa) = 72.40146 41.40615 82.79512
#
# Poissons Ratio (x) = 0.09291 0.18318
# Poissons Ratio (y) = 0.16246 0.11087
# Poissons Ratio (z) = 0.16018 0.05544
#
# Static dielectric constant tensor:
#      x y z
#    x 1.980360 0.000000 -0.027430 
#    y 0.000000 1.896970 0.000000 
#    z -0.027430 0.000000 1.867220 
# 
# From -- ./inp_files/20136.got.cif
#   From: 2010.05.17/outbox.cif.g08.bks.cpg/sg5_11_cif.got.tgz:20136.got - 2010.06.03 18:56:24.
