data_PCOD9121109
_publ_section_title
;
Structure prediction by ZEFSAII (Michael W. Deem and Ramdas Pophale) SiO2 
 PCOD9121109
Probable space group: C 2
;
_chemical_formula_sum "Si O2"
_cell_formula_units_Z 26
_cell_length_a 8.454772
_cell_length_b 12.591893
_cell_length_c 10.864328
_cell_angle_alpha 90.000000
_cell_angle_beta 65.352897
_cell_angle_gamma 90.000000
_cell_volume 1051.256824
_symmetry_space_group_name_H-M "C 2"
_symmetry_group_IT_number 5
_symmetry_cell_setting 'monoclinic'
loop_
_space_group_symop_operation_xyz
x,y,z
-x,y,-z
1/2+x,1/2+y,z
1/2-x,1/2+y,-z
loop_
_atom_site_type_symbol
_atom_site_label
_atom_site_fract_x
_atom_site_fract_y
_atom_site_fract_z
Si Si1 0.750882 0.915660 0.070192
Si Si2 0.398796 0.334031 0.765651
Si Si3 0.604006 0.194436 0.852927
Si Si4 0.593838 0.887629 0.684918
Si Si5 0.974792 0.173075 0.735937
Si Si6 0.854586 0.993187 0.441199
Si Si7 0.000000 0.109896 0.000000
O O1 0.829407 0.811860 0.117776
O O2 0.550420 0.928051 0.172744
O O3 0.802789 0.889064 0.912992
O O4 0.844168 0.026266 0.070499
O O5 0.470366 0.221269 0.788457
O O6 0.260362 0.339584 0.702117
O O7 0.568404 0.397761 0.665458
O O8 0.780684 0.133029 0.765069
O O9 0.500000 0.144727 0.000000
O O10 0.503684 0.783600 0.658745
O O11 0.671046 0.967475 0.561045
O O12 0.972729 0.178939 0.886042
O O13 0.127623 0.095765 0.647924
O O14 0.000000 0.008765 0.500000
#
# Coordination Sequence:
#
# PCOD9121109 Si02
#       7
#     4   4   4   4   4   4   2
#     4  10  18  39  65  94 128 181 220 277 345 400
#     4  10  18  40  66  91 133 178 225 275 349 406
#     4   9  19  36  64  96 128 168 222 281 348 399
#     4  10  24  39  70  97 131 185 227 282 354 410
#     4  11  24  41  66 102 136 183 234 286 346 409
#     4  10  22  44  62  95 140 178 220 289 341 414
#     4  12  22  40  66 102 150 172 238 298 330 410
#
# _framework density 24.732301
#
# number of rings (size 3 to 8) (size 9 to 14) (size 15 to 20)
#    0.000    1.846    3.846    0.462    6.462    1.231 
#    5.538   10.769    0.000    3.692    0.000    0.000 
#    0.000    0.000    0.000    0.000    0.000    0.000 
#
# Total GULP energy -72692.646217 kJ/mol
# GULP energy per Si atom -5591.742017 kJ/mol
# Density = 2.467601 g / cm^3
# Si number density = 24.732301 Si / 1000 Ang^3
#
#
#
# Elastic Constant Matrix: (Units=GPa)
#
#
# Indices 1 2 3 4 5 6 
#
# 1 66.4446 6.1039 38.8033 0.0000 -23.5180 0.0000
# 2 6.1039 48.1244 29.7434 0.0000 -13.7931 0.0000
# 3 38.8033 29.7434 135.1608 0.0000 -27.4859 0.0000
# 4 0.0000 0.0000 0.0000 31.9200 0.0000 -10.6926
# 5 -23.5180 -13.7931 -27.4859 0.0000 44.4304 0.0000
# 6 0.0000 0.0000 0.0000 -10.6926 0.0000 26.4527
#
#
#
# Elastic Compliance Matrix: (Units=1/GPa)
#
#
# Indices 1 2 3 4 5 6 
#
# 1 0.020726 0.002874 -0.004770 0.000000 0.008912 0.000000
# 2 0.002874 0.025377 -0.005145 0.000000 0.006216 0.000000
# 3 -0.004770 -0.005145 0.010366 0.000000 0.002290 0.000000
# 4 0.000000 0.000000 0.000000 0.036235 0.000000 0.014647
# 5 0.008912 0.006216 0.002290 0.000000 0.030571 0.000000
# 6 0.000000 0.000000 0.000000 0.014647 0.000000 0.043724
#
#
# Mechanical properties :
#
#
# Convention : Reuss Voigt Hill
#
# Bulk Modulus (GPa) = 23.59302 44.33677 33.96490
# Shear Modulus (GPa) = 25.61331 32.23257 28.92294
#
# Velocity S-wave (km/s) = 3.22160 3.61398 3.42342
# Velocity P-wave (km/s) = 4.83718 5.94812 5.42118
#
# Compressibility (1/GPa) = 0.04238542
#
# Stress axis : x y z
#
# Youngs Moduli (GPa) = 48.24753 39.40629 96.46757
#
# Poissons Ratio (x) = -0.11325 0.46019
# Poissons Ratio (y) = -0.13865 0.49636
# Poissons Ratio (z) = 0.23016 0.20276
#
# Static dielectric constant tensor:
#      x y z
#    x 2.011710 0.000000 0.012200 
#    y 0.000000 1.990880 0.000000 
#    z 0.012200 0.000000 1.952350 
# 
# From -- ./inp_files/36024.got.cif
#   From: 2010.05.17/outbox.cif.g08.bks.cpg/sg5_19_cif.got.tgz:36024.got - 2010.06.03 18:56:24.
