data_PCOD9121082
_publ_section_title
;
Structure prediction by ZEFSAII (Michael W. Deem and Ramdas Pophale) SiO2 
 PCOD9121082
Probable space group: C 2
;
_chemical_formula_sum "Si O2"
_cell_formula_units_Z 28
_cell_length_a 15.049924
_cell_length_b 9.183602
_cell_length_c 21.162209
_cell_angle_alpha 90.000000
_cell_angle_beta 28.508220
_cell_angle_gamma 90.000000
_cell_volume 1396.001858
_symmetry_space_group_name_H-M "C 2"
_symmetry_group_IT_number 5
_symmetry_cell_setting 'monoclinic'
loop_
_space_group_symop_operation_xyz
x,y,z
-x,y,-z
1/2+x,1/2+y,z
1/2-x,1/2+y,-z
loop_
_atom_site_type_symbol
_atom_site_label
_atom_site_fract_x
_atom_site_fract_y
_atom_site_fract_z
Si Si1 0.649145 0.108260 0.798780
Si Si2 0.500000 0.526578 0.500000
Si Si3 0.910154 0.445715 0.843458
Si Si4 0.628567 0.238468 0.196426
Si Si5 0.500000 0.902132 0.000000
Si Si6 0.016153 0.774049 0.576505
Si Si7 0.313695 0.684123 0.308303
Si Si8 0.002029 0.888732 0.147349
O O1 0.841729 0.103551 0.639286
O O2 0.605757 0.278372 0.831340
O O3 0.499201 0.034606 0.845964
O O4 0.620040 0.010091 0.879281
O O5 0.589727 0.422445 0.497858
O O6 0.894539 0.564231 0.797340
O O7 0.031855 0.298597 0.763976
O O8 0.702390 0.407681 0.991856
O O9 0.842218 0.298332 0.066750
O O10 0.521393 0.281573 0.326991
O O11 0.533488 0.313189 0.195657
O O12 0.817563 0.748184 0.665810
O O13 0.166291 0.657862 0.457366
O O14 0.406034 0.541407 0.221998
#
# Coordination Sequence:
#
# PCOD9121082 Si02
#       8
#     4   2   4   4   2   4   4   4
#     4  11  22  41  67  93 125 171 215 256 326 378
#     4  10  18  38  68  88 126 168 214 256 318 378
#     4  11  21  39  64  93 121 168 204 264 316 388
#     4  11  24  37  67  94 124 166 218 256 333 372
#     4  12  22  42  66  96 132 168 218 276 304 400
#     4  10  21  40  67  93 118 178 207 261 317 383
#     4  10  21  43  65  85 135 162 210 256 322 382
#     4  11  25  40  62  95 128 168 204 269 326 385
#
# _framework density 20.057279000000001
#
# number of rings (size 3 to 8) (size 9 to 14) (size 15 to 20)
#    0.000    1.429    5.714    1.714    2.000    2.286 
#    2.571    0.000    0.000    0.000    0.000    0.000 
#    0.000    0.000    0.000    0.000    0.000    0.000 
#
# Total GULP energy -78014.799261 kJ/mol
# GULP energy per Si atom -5572.485661 kJ/mol
# Density = 2.001163 g / cm^3
# Si number density = 20.057279 Si / 1000 Ang^3
#
#
#
# Elastic Constant Matrix: (Units=GPa)
#
#
# Indices 1 2 3 4 5 6 
#
# 1 28.8905 16.6411 4.8308 -0.0003 7.2403 0.0003
# 2 16.6411 106.1016 42.5531 -0.0005 -13.8927 0.0007
# 3 4.8308 42.5531 116.0375 -0.0008 -5.0022 0.0016
# 4 -0.0003 -0.0005 -0.0008 -14.5745 -0.0002 33.5386
# 5 7.2403 -13.8927 -5.0022 -0.0002 33.0908 0.0000
# 6 0.0003 0.0007 0.0016 33.5386 0.0000 -13.2213
#
#
#
# Elastic Compliance Matrix: (Units=1/GPa)
#
#
# Indices 1 2 3 4 5 6 
#
# 1 0.042731 -0.008738 0.000870 0.000000 -0.012887 0.000000
# 2 -0.008738 0.013405 -0.004255 0.000000 0.006897 0.000000
# 3 0.000870 -0.004255 0.010123 0.000000 -0.000446 0.000000
# 4 0.000000 0.000000 0.000000 0.014184 0.000000 0.035980
# 5 -0.012887 0.006897 -0.000446 0.000000 0.035867 0.000000
# 6 0.000000 0.000000 0.000000 0.035980 0.000000 0.015635
#
#
# Mechanical properties :
#
#
# Convention : Reuss Voigt Hill
#
# Bulk Modulus (GPa) = 23.80244 42.11996 32.96120
# Shear Modulus (GPa) = 29.37809 13.52598 21.45204
#
# Velocity S-wave (km/s) = 3.83130 2.59968 3.27393
# Velocity P-wave (km/s) = 5.60935 5.48238 5.54623
#
# Compressibility (1/GPa) = 0.04201250
#
# Stress axis : x y z
#
# Youngs Moduli (GPa) = 23.40235 74.59980 98.78757
#
# Poissons Ratio (x) = 0.65187 -0.08595
# Poissons Ratio (y) = 0.20449 0.42031
# Poissons Ratio (z) = -0.02036 0.31740
#
# Static dielectric constant tensor:
#      x y z
#    x 1.729040 0.000000 0.006640 
#    y 0.000000 1.791730 0.000000 
#    z 0.006640 0.000000 1.769500 
# 
# From -- ./inp_files/65977.got.cif
#   From: 2010.05.17/outbox.cif.g08.bks.cpg/sg5_33_cif.got.tgz:65977.got - 2010.06.03 18:56:24.
