data_PCOD9121229
_publ_section_title
;
Structure prediction by ZEFSAII (Michael W. Deem and Ramdas Pophale) SiO2 
 PCOD9121229
Probable space group: C 2
;
_chemical_formula_sum "Si O2"
_cell_formula_units_Z 28
_cell_length_a 22.161168
_cell_length_b 5.016069
_cell_length_c 19.784161
_cell_angle_alpha 90.000000
_cell_angle_beta 151.069522
_cell_angle_gamma 90.000000
_cell_volume 1063.880816
_symmetry_space_group_name_H-M "C 2"
_symmetry_group_IT_number 5
_symmetry_cell_setting 'monoclinic'
loop_
_space_group_symop_operation_xyz
x,y,z
-x,y,-z
1/2+x,1/2+y,z
1/2-x,1/2+y,-z
loop_
_atom_site_type_symbol
_atom_site_label
_atom_site_fract_x
_atom_site_fract_y
_atom_site_fract_z
Si Si1 0.342069 0.294180 0.301939
Si Si2 0.280009 0.749781 0.569090
Si Si3 0.035680 0.135146 0.761948
Si Si4 0.647839 0.822682 0.992228
Si Si5 0.024894 0.804891 0.923740
Si Si6 0.288892 0.272869 0.771475
Si Si7 0.463587 0.134519 0.605823
O O1 0.317899 0.553327 0.323644
O O2 0.477525 0.210593 0.407763
O O3 0.271927 0.052822 0.269669
O O4 0.270937 0.343954 0.159153
O O5 0.232596 0.560069 0.460948
O O6 0.424481 0.681540 0.707530
O O7 0.186096 0.665291 0.536048
O O8 0.156573 0.199705 0.925363
O O9 0.010797 0.347118 0.677630
O O10 0.012084 0.847428 0.708408
O O11 0.565726 0.608972 0.954150
O O12 0.579147 0.107461 0.920550
O O13 0.878463 0.769643 0.794169
O O14 0.108917 0.713491 0.069929
#
# Coordination Sequence:
#
# PCOD9121229 Si02
#       7
#     4   4   4   4   4   4   4
#     4  10  19  29  44  68  92 116 146 176 218 268
#     4   8  16  30  46  62  81 112 153 186 208 240
#     4  10  19  31  46  65  91 119 147 179 213 255
#     4  10  19  29  44  68  92 116 146 176 218 268
#     4   9  17  30  46  64  88 116 148 185 217 251
#     4   9  17  30  46  64  88 116 148 185 217 251
#     4  10  19  31  46  65  91 119 147 179 213 255
#
# _framework density 26.318735
#
# number of rings (size 3 to 8) (size 9 to 14) (size 15 to 20)
#    0.000    2.571    0.000    2.571    0.000    4.571 
#    0.000    0.000    0.000    0.000    0.000    6.000 
#    0.000    0.000    0.000    0.000    0.000    0.000 
#
# Total GULP energy -78277.720993 kJ/mol
# GULP energy per Si atom -5591.265785 kJ/mol
# Density = 2.625883 g / cm^3
# Si number density = 26.318735 Si / 1000 Ang^3
#
#
#
# Elastic Constant Matrix: (Units=GPa)
#
#
# Indices 1 2 3 4 5 6 
#
# 1 77.1009 -3.4612 46.1058 0.0007 15.9297 0.0003
# 2 -3.4612 84.9584 11.8790 0.0030 1.8838 0.0022
# 3 46.1058 11.8790 69.2962 0.0006 17.0975 0.0005
# 4 0.0007 0.0030 0.0006 26.1522 0.0001 2.3645
# 5 15.9297 1.8838 17.0975 0.0001 47.7244 0.0000
# 6 0.0003 0.0022 0.0005 2.3645 0.0000 16.1525
#
#
#
# Elastic Compliance Matrix: (Units=1/GPa)
#
#
# Indices 1 2 3 4 5 6 
#
# 1 0.022512 0.003057 -0.014939 -0.000001 -0.002283 0.000000
# 2 0.003057 0.012478 -0.004168 -0.000001 -0.000020 -0.000001
# 3 -0.014939 -0.004168 0.026123 0.000000 -0.004208 0.000000
# 4 -0.000001 -0.000001 0.000000 0.038750 0.000000 -0.005672
# 5 -0.002283 -0.000020 -0.004208 0.000000 0.023224 0.000000
# 6 0.000000 -0.000001 0.000000 -0.005672 0.000000 0.062740
#
#
# Mechanical properties :
#
#
# Convention : Reuss Voigt Hill
#
# Bulk Modulus (GPa) = 34.46758 37.82252 36.14505
# Shear Modulus (GPa) = 21.96833 29.79462 25.88148
#
# Velocity S-wave (km/s) = 2.89226 3.36827 3.13930
# Velocity P-wave (km/s) = 4.92729 5.43407 5.18688
#
# Compressibility (1/GPa) = 0.02901277
#
# Stress axis : x y z
#
# Youngs Moduli (GPa) = 44.41984 80.13977 38.28013
#
# Poissons Ratio (x) = -0.24496 0.57188
# Poissons Ratio (y) = -0.13577 0.15955
# Poissons Ratio (z) = 0.66360 0.33402
#
# Static dielectric constant tensor:
#      x y z
#    x 2.100480 0.000000 0.016010 
#    y 0.000000 1.986280 0.000000 
#    z 0.016010 0.000000 2.178130 
# 
# From -- ./inp_files/45453.got.cif
#   From: 2010.05.17/outbox.cif.g08.bks.cpg/sg5_23_cif.got.tgz:45453.got - 2010.06.03 18:56:24.
