data_PCOD9121567
_publ_section_title
;
Structure prediction by ZEFSAII (Michael W. Deem and Ramdas Pophale) SiO2 
 PCOD9121567
Probable space group: C 2
;
_chemical_formula_sum "Si O2"
_cell_formula_units_Z 26
_cell_length_a 7.007939
_cell_length_b 15.957221
_cell_length_c 13.812891
_cell_angle_alpha 90.000000
_cell_angle_beta 44.861575
_cell_angle_gamma 90.000000
_cell_volume 1089.595692
_symmetry_space_group_name_H-M "C 2"
_symmetry_group_IT_number 5
_symmetry_cell_setting 'monoclinic'
loop_
_space_group_symop_operation_xyz
x,y,z
-x,y,-z
1/2+x,1/2+y,z
1/2-x,1/2+y,-z
loop_
_atom_site_type_symbol
_atom_site_label
_atom_site_fract_x
_atom_site_fract_y
_atom_site_fract_z
Si Si1 0.586133 0.215670 0.860573
Si Si2 0.663033 0.538192 0.252614
Si Si3 0.115639 0.031601 0.850242
Si Si4 0.000000 0.126138 0.500000
Si Si5 0.583869 0.204534 0.271245
Si Si6 0.413964 0.869445 0.679170
Si Si7 0.466659 0.371033 0.378846
O O1 0.368792 0.236039 0.855624
O O2 0.834252 0.279076 0.751873
O O3 0.631932 0.115967 0.828044
O O4 0.500000 0.229452 0.000000
O O5 0.585013 0.524819 0.168645
O O6 0.470838 0.574256 0.409825
O O7 0.683539 0.444213 0.284571
O O8 0.262810 0.118523 0.770009
O O9 0.305885 0.950041 0.776397
O O10 0.000000 0.037608 0.000000
O O11 0.266216 0.181737 0.394730
O O12 0.618097 0.282595 0.328223
O O13 0.732134 0.879472 0.543219
O O14 0.230038 0.872697 0.646653
#
# Coordination Sequence:
#
# PCOD9121567 Si02
#       7
#     4   4   4   2   4   4   4
#     4  10  19  35  55  79 108 150 190 221 265 332
#     4  10  21  36  57  81 113 145 183 230 275 329
#     4  11  22  37  56  86 117 148 181 225 282 334
#     4  10  20  38  58  82 108 148 194 232 278 318
#     4  10  20  35  58  81 114 147 184 234 276 330
#     4   9  18  32  57  79 105 144 190 231 264 324
#     4   9  17  34  54  81 108 141 184 231 283 318
#
# _framework density 23.862062000000002
#
# number of rings (size 3 to 8) (size 9 to 14) (size 15 to 20)
#    0.000    2.154    0.000    5.077    0.000    1.846 
#    0.000    6.923    0.000    0.000    0.000    0.000 
#    0.000    0.000    0.000    0.000    0.000    0.000 
#
# Total GULP energy -72483.542028 kJ/mol
# GULP energy per Si atom -5575.657079 kJ/mol
# Density = 2.380775 g / cm^3
# Si number density = 23.862062 Si / 1000 Ang^3
#
#
#
# Elastic Constant Matrix: (Units=GPa)
#
#
# Indices 1 2 3 4 5 6 
#
# 1 60.3881 4.7765 17.5037 0.0000 13.6738 0.0000
# 2 4.7765 179.8642 45.0719 0.0000 -9.8931 0.0000
# 3 17.5037 45.0719 101.5071 0.0001 25.8223 0.0000
# 4 0.0000 0.0000 0.0001 22.4576 0.0000 1.1990
# 5 13.6738 -9.8931 25.8223 0.0000 29.8894 0.0000
# 6 0.0000 0.0000 0.0000 1.1990 0.0000 25.9568
#
#
#
# Elastic Compliance Matrix: (Units=1/GPa)
#
#
# Indices 1 2 3 4 5 6 
#
# 1 0.018687 -0.000726 -0.000851 0.000000 -0.008054 0.000000
# 2 -0.000726 0.007156 -0.004793 0.000000 0.006841 0.000000
# 3 -0.000851 -0.004793 0.015932 0.000000 -0.014961 0.000000
# 4 0.000000 0.000000 0.000000 0.044638 0.000000 -0.002062
# 5 -0.008054 0.006841 -0.014961 0.000000 0.052331 0.000000
# 6 0.000000 0.000000 0.000000 -0.002062 0.000000 0.038621
#
#
# Mechanical properties :
#
#
# Convention : Reuss Voigt Hill
#
# Bulk Modulus (GPa) = 34.43978 52.94040 43.69009
# Shear Modulus (GPa) = 25.02685 33.95458 29.49072
#
# Velocity S-wave (km/s) = 3.24205 3.77630 3.51933
# Velocity P-wave (km/s) = 5.33655 6.42247 5.90452
#
# Compressibility (1/GPa) = 0.02903619
#
# Stress axis : x y z
#
# Youngs Moduli (GPa) = 53.51208 139.73599 62.76485
#
# Poissons Ratio (x) = 0.10144 0.05343
# Poissons Ratio (y) = 0.03885 0.30082
# Poissons Ratio (z) = 0.04555 0.66973
#
# Static dielectric constant tensor:
#      x y z
#    x 2.000900 0.000000 0.037810 
#    y 0.000000 1.911240 0.000000 
#    z 0.037810 0.000000 1.942540 
# 
# From -- ./inp_files/51075.got.cif
#   From: 2010.05.17/outbox.cif.g08.bks.cpg/sg5_26_cif.got.tgz:51075.got - 2010.06.03 18:56:24.
