data_PCOD9121442
_publ_section_title
;
Structure prediction by ZEFSAII (Michael W. Deem and Ramdas Pophale) SiO2 
 PCOD9121442
Probable space group: C 2
;
_chemical_formula_sum "Si O2"
_cell_formula_units_Z 32
_cell_length_a 18.714448
_cell_length_b 14.993585
_cell_length_c 14.087840
_cell_angle_alpha 90.000000
_cell_angle_beta 20.525714
_cell_angle_gamma 90.000000
_cell_volume 1386.031704
_symmetry_space_group_name_H-M "C 2"
_symmetry_group_IT_number 5
_symmetry_cell_setting 'monoclinic'
loop_
_space_group_symop_operation_xyz
x,y,z
-x,y,-z
1/2+x,1/2+y,z
1/2-x,1/2+y,-z
loop_
_atom_site_type_symbol
_atom_site_label
_atom_site_fract_x
_atom_site_fract_y
_atom_site_fract_z
Si Si1 0.116509 0.400290 0.664748
Si Si2 0.260445 0.951111 0.298880
Si Si3 0.811429 0.311787 0.609130
Si Si4 0.005019 0.708816 0.647144
Si Si5 0.288559 0.347997 0.053593
Si Si6 0.813559 0.526277 0.930801
Si Si7 0.573896 0.631372 0.508705
Si Si8 0.776828 0.282594 0.170161
O O1 0.272269 0.439150 0.548297
O O2 0.234416 0.372763 0.423481
O O3 0.937003 0.469097 0.856691
O O4 0.995771 0.314299 0.858346
O O5 0.177596 0.873625 0.336230
O O6 0.209289 0.045681 0.322336
O O7 0.500000 0.938423 0.000000
O O8 0.707585 0.339693 0.836854
O O9 0.790450 0.207203 0.612090
O O10 0.057787 0.318327 0.312748
O O11 0.970223 0.603666 0.704864
O O12 0.843559 0.739533 0.766948
O O13 0.229311 0.722386 0.321662
O O14 0.942199 0.776517 0.811589
O O15 0.274416 0.449811 0.030635
O O16 0.621975 0.587807 0.198352
O O17 0.500000 0.668071 0.500000
#
# Coordination Sequence:
#
# PCOD9121442 Si02
#       8
#     4   4   4   4   4   4   4   4
#     4  10  21  42  58  85 126 165 197 247 312 370
#     4  10  23  37  58  88 123 162 205 254 307 363
#     4  10  19  36  58  80 124 160 195 241 312 361
#     4  11  20  34  58  99 119 144 209 264 302 357
#     4  10  19  34  54  90 121 153 188 256 309 350
#     4  11  21  35  64  91 122 154 205 260 307 363
#     4  12  20  34  65  93 114 155 210 266 300 354
#     4  10  20  35  58  84 121 151 194 255 303 349
#
# _framework density 23.087494
#
# number of rings (size 3 to 8) (size 9 to 14) (size 15 to 20)
#    0.000    1.500    5.000    2.250    3.500    4.000 
#    2.250    0.000    2.750    0.000    0.000    0.000 
#    0.000    0.000    0.000    0.000    0.000    0.000 
#
# Total GULP energy -89165.930336 kJ/mol
# GULP energy per Si atom -5572.870646 kJ/mol
# Density = 2.303495 g / cm^3
# Si number density = 23.087494 Si / 1000 Ang^3
#
#
#
# Elastic Constant Matrix: (Units=GPa)
#
#
# Indices 1 2 3 4 5 6 
#
# 1 73.3731 28.0121 26.3026 -0.0202 24.7447 0.0133
# 2 28.0121 132.3924 25.8025 -0.0082 18.8134 0.0028
# 3 26.3026 25.8025 87.2102 -0.0141 19.4342 0.0082
# 4 -0.0202 -0.0082 -0.0141 17.1172 0.0082 17.4231
# 5 24.7447 18.8134 19.4342 0.0082 42.2058 -0.0048
# 6 0.0133 0.0028 0.0082 17.4231 -0.0048 16.8769
#
#
#
# Elastic Compliance Matrix: (Units=1/GPa)
#
#
# Indices 1 2 3 4 5 6 
#
# 1 0.018361 -0.002095 -0.003039 -0.000738 -0.008432 0.000746
# 2 -0.002095 0.008555 -0.001475 -0.000019 -0.001906 0.000020
# 3 -0.003039 -0.001475 0.013679 -0.000276 -0.003860 0.000279
# 4 -0.000738 -0.000019 -0.000276 -1.149639 0.000925 1.186847
# 5 -0.008432 -0.001906 -0.003860 0.000925 0.031263 -0.000938
# 6 0.000746 0.000020 0.000279 1.186847 -0.000938 -1.166007
#
#
# Mechanical properties :
#
#
# Convention : Reuss Voigt Hill
#
# Bulk Modulus (GPa) = 36.52462 50.35667 43.44064
# Shear Modulus (GPa) = -2.25079 29.43055 13.58988
#
# Velocity S-wave (km/s) = -0.98844 3.57422 2.42879
# Velocity P-wave (km/s) = 3.81468 6.23635 5.16932
#
# Compressibility (1/GPa) = 0.02737880
#
# Stress axis : x y z
#
# Youngs Moduli (GPa) = 54.46228 116.89418 73.10214
#
# Poissons Ratio (x) = 0.24484 0.22218
# Poissons Ratio (y) = 0.11407 0.10779
# Poissons Ratio (z) = 0.16553 0.17237
#
# Static dielectric constant tensor:
#      x y z
#    x 1.992220 0.000010 -0.007030 
#    y 0.000010 1.900870 -0.000020 
#    z -0.007030 -0.000020 2.106540 
# 
# From -- ./inp_files/57163.got.cif
#   From: 2010.05.17/outbox.cif.g08.bks.cpg/sg5_29_cif.got.tgz:57163.got - 2010.06.03 18:56:24.
