data_PCOD9121160
_publ_section_title
;
Structure prediction by ZEFSAII (Michael W. Deem and Ramdas Pophale) SiO2 
 PCOD9121160
Probable space group: C 2
;
_chemical_formula_sum "Si O2"
_cell_formula_units_Z 22
_cell_length_a 12.796838
_cell_length_b 7.224842
_cell_length_c 10.812546
_cell_angle_alpha 90.000000
_cell_angle_beta 80.986654
_cell_angle_gamma 90.000000
_cell_volume 987.331258
_symmetry_space_group_name_H-M "C 2"
_symmetry_group_IT_number 5
_symmetry_cell_setting 'monoclinic'
loop_
_space_group_symop_operation_xyz
x,y,z
-x,y,-z
1/2+x,1/2+y,z
1/2-x,1/2+y,-z
loop_
_atom_site_type_symbol
_atom_site_label
_atom_site_fract_x
_atom_site_fract_y
_atom_site_fract_z
Si Si1 0.331930 0.156190 0.208710
Si Si2 0.528780 0.779164 0.622796
Si Si3 0.729248 0.738311 0.720689
Si Si4 0.000000 0.536660 0.000000
Si Si5 0.842529 0.414172 0.837284
Si Si6 0.388024 0.183460 0.466778
O O1 0.444926 0.146083 0.121158
O O2 0.251758 0.270214 0.141630
O O3 0.347741 0.247913 0.340348
O O4 0.284464 0.950118 0.234027
O O5 0.500000 0.678677 0.500000
O O6 0.610234 0.681517 0.700735
O O7 0.425854 0.846880 0.716568
O O8 0.590043 0.964863 0.564481
O O9 0.788935 0.607804 0.807171
O O10 0.800197 0.722130 0.584540
O O11 0.092735 0.423984 0.048478
O O12 0.500000 0.252045 0.500000
#
# Coordination Sequence:
#
# PCOD9121160 Si02
#       6
#     4   4   4   2   4   4
#     4  11  27  45  71 109 134 190 235 278 353 415
#     4  10  19  41  66 101 143 175 222 289 342 406
#     4  11  22  44  74 101 142 183 228 288 354 409
#     4  12  26  52  70  96 150 180 240 298 326 410
#     4  12  25  48  70  97 144 183 235 295 336 407
#     4  10  18  40  68 100 145 172 217 289 348 400
#
# _framework density 22.28229
#
# number of rings (size 3 to 8) (size 9 to 14) (size 15 to 20)
#    0.000    1.091    7.273    1.091    5.091    0.000 
#    6.545    1.818    0.000    0.000    0.000    0.000 
#    0.000    0.000    0.000    0.000    0.000    0.000 
#
# Total GULP energy -61466.696186 kJ/mol
# GULP energy per Si atom -5587.881471 kJ/mol
# Density = 2.223157 g / cm^3
# Si number density = 22.282290 Si / 1000 Ang^3
#
#
#
# Elastic Constant Matrix: (Units=GPa)
#
#
# Indices 1 2 3 4 5 6 
#
# 1 117.7501 20.9818 -20.5087 0.0000 31.1730 0.0000
# 2 20.9818 78.4075 1.2546 0.0000 4.1227 0.0000
# 3 -20.5087 1.2546 34.2171 0.0000 7.2331 0.0000
# 4 0.0000 0.0000 0.0000 4.0260 0.0000 14.7295
# 5 31.1730 4.1227 7.2331 0.0000 63.4764 0.0000
# 6 0.0000 0.0000 0.0000 14.7295 0.0000 61.6443
#
#
#
# Elastic Compliance Matrix: (Units=1/GPa)
#
#
# Indices 1 2 3 4 5 6 
#
# 1 0.012465 -0.003115 0.009055 0.000000 -0.006951 0.000000
# 2 -0.003115 0.013579 -0.002564 0.000000 0.000940 0.000000
# 3 0.009055 -0.002564 0.036531 0.000000 -0.008443 0.000000
# 4 0.000000 0.000000 0.000000 1.974183 0.000000 -0.471717
# 5 -0.006951 0.000940 -0.008443 0.000000 0.020068 0.000000
# 6 0.000000 0.000000 0.000000 -0.471717 0.000000 0.128936
#
#
# Mechanical properties :
#
#
# Convention : Reuss Voigt Hill
#
# Bulk Modulus (GPa) = 14.42444 25.98112 20.20278
# Shear Modulus (GPa) = 2.27054 41.07247 21.67151
#
# Velocity S-wave (km/s) = 1.01054 4.29800 3.12202
# Velocity P-wave (km/s) = 2.80163 6.02625 4.69919
#
# Compressibility (1/GPa) = 0.06932678
#
# Stress axis : x y z
#
# Youngs Moduli (GPa) = 80.22569 73.64286 27.37409
#
# Poissons Ratio (x) = 0.22940 -0.24786
# Poissons Ratio (y) = 0.24990 0.07018
# Poissons Ratio (z) = -0.72641 0.18879
#
# Static dielectric constant tensor:
#      x y z
#    x 1.830260 0.000000 0.075910 
#    y 0.000000 1.847280 0.000000 
#    z 0.075910 0.000000 1.830840 
# 
# From -- ./inp_files/38272.got.cif
#   From: 2010.05.17/outbox.cif.g08.bks.cpg/sg5_20_cif.got.tgz:38272.got - 2010.06.03 18:56:24.
