data_PCOD9121134
_publ_section_title
;
Structure prediction by ZEFSAII (Michael W. Deem and Ramdas Pophale) SiO2 
 PCOD9121134
Probable space group: C 2
;
_chemical_formula_sum "Si O2"
_cell_formula_units_Z 20
_cell_length_a 9.585106
_cell_length_b 16.274878
_cell_length_c 7.906441
_cell_angle_alpha 90.000000
_cell_angle_beta 52.131890
_cell_angle_gamma 90.000000
_cell_volume 973.659370
_symmetry_space_group_name_H-M "C 2"
_symmetry_group_IT_number 5
_symmetry_cell_setting 'monoclinic'
loop_
_space_group_symop_operation_xyz
x,y,z
-x,y,-z
1/2+x,1/2+y,z
1/2-x,1/2+y,-z
loop_
_atom_site_type_symbol
_atom_site_label
_atom_site_fract_x
_atom_site_fract_y
_atom_site_fract_z
Si Si1 0.993297 0.271110 0.692054
Si Si2 0.500000 0.618729 0.500000
Si Si3 0.500000 0.371068 0.000000
Si Si4 0.838607 0.432091 0.918430
Si Si5 0.623992 0.311562 0.562543
Si Si6 0.720564 0.984337 0.652027
O O1 0.196589 0.260954 0.587638
O O2 0.000000 0.313868 0.500000
O O3 0.920990 0.181477 0.700037
O O4 0.898120 0.335639 0.882434
O O5 0.343550 0.563346 0.542362
O O6 0.331077 0.427078 0.076310
O O7 0.459574 0.312208 0.189701
O O8 0.017773 0.481496 0.738042
O O9 0.787185 0.464221 0.141338
O O10 0.500000 0.289905 0.500000
O O11 0.680594 0.406767 0.500778
#
# Coordination Sequence:
#
# PCOD9121134 Si02
#       6
#     4   2   2   4   4   4
#     4   9  20  36  61  90 122 160 212 256 310 377
#     4  10  18  40  62  92 132 168 194 270 338 358
#     4  12  18  32  58  94 122 150 214 268 298 350
#     4  10  20  35  60  96 114 166 216 254 294 394
#     4  11  20  35  61  93 120 169 214 257 302 384
#     4  10  20  36  63  90 125 165 209 258 318 371
#
# _framework density 20.541065
#
# number of rings (size 3 to 8) (size 9 to 14) (size 15 to 20)
#    0.600    1.200    5.000    0.000    0.000    0.000 
#    0.000    8.000    8.800   14.400    0.000    0.000 
#    0.000    0.000    0.000    0.000    0.000    0.000 
#
# Total GULP energy -55706.204503 kJ/mol
# GULP energy per Si atom -5570.620450 kJ/mol
# Density = 2.049431 g / cm^3
# Si number density = 20.541065 Si / 1000 Ang^3
#
#
#
# Elastic Constant Matrix: (Units=GPa)
#
#
# Indices 1 2 3 4 5 6 
#
# 1 167.2080 0.1690 10.5029 0.0000 -17.4104 0.0000
# 2 0.1690 67.6096 -5.1070 0.0000 -11.2002 0.0000
# 3 10.5029 -5.1070 40.6649 0.0000 2.0704 0.0000
# 4 0.0000 0.0000 0.0000 12.2556 0.0000 -0.2386
# 5 -17.4104 -11.2002 2.0704 0.0000 30.8824 0.0000
# 6 0.0000 0.0000 0.0000 -0.2386 0.0000 18.4257
#
#
#
# Elastic Compliance Matrix: (Units=1/GPa)
#
#
# Indices 1 2 3 4 5 6 
#
# 1 0.006508 0.000505 -0.001820 0.000000 0.003974 0.000000
# 2 0.000505 0.015892 0.001563 0.000000 0.005943 0.000000
# 3 -0.001820 0.001563 0.025368 0.000000 -0.002160 0.000000
# 4 0.000000 0.000000 0.000000 0.081616 0.000000 0.001057
# 5 0.003974 0.005943 -0.002160 0.000000 0.036922 0.000000
# 6 0.000000 0.000000 0.000000 0.001057 0.000000 0.054286
#
#
# Mechanical properties :
#
#
# Convention : Reuss Voigt Hill
#
# Bulk Modulus (GPa) = 20.71972 31.84581 26.28277
# Shear Modulus (GPa) = 21.16995 30.30724 25.73860
#
# Velocity S-wave (km/s) = 3.21380 3.84532 3.54366
# Velocity P-wave (km/s) = 4.88674 5.93738 5.43750
#
# Compressibility (1/GPa) = 0.04826320
#
# Stress axis : x y z
#
# Youngs Moduli (GPa) = 153.65288 62.92408 39.42049
#
# Poissons Ratio (x) = -0.03175 0.07174
# Poissons Ratio (y) = -0.07753 -0.06161
# Poissons Ratio (z) = 0.27963 -0.09835
#
# Static dielectric constant tensor:
#      x y z
#    x 1.834570 0.000000 -0.001770 
#    y 0.000000 1.698590 0.000000 
#    z -0.001770 0.000000 1.794310 
# 
# From -- ./inp_files/20783.got.cif
#   From: 2010.05.17/outbox.cif.g08.bks.cpg/sg5_11_cif.got.tgz:20783.got - 2010.06.03 18:56:24.
