data_PCOD9121303
_publ_section_title
;
Structure prediction by ZEFSAII (Michael W. Deem and Ramdas Pophale) SiO2 
 PCOD9121303
Probable space group: C 2
;
_chemical_formula_sum "Si O2"
_cell_formula_units_Z 32
_cell_length_a 18.037720
_cell_length_b 11.800489
_cell_length_c 17.878005
_cell_angle_alpha 90.000000
_cell_angle_beta 26.769851
_cell_angle_gamma 90.000000
_cell_volume 1713.983367
_symmetry_space_group_name_H-M "C 2"
_symmetry_group_IT_number 5
_symmetry_cell_setting 'monoclinic'
loop_
_space_group_symop_operation_xyz
x,y,z
-x,y,-z
1/2+x,1/2+y,z
1/2-x,1/2+y,-z
loop_
_atom_site_type_symbol
_atom_site_label
_atom_site_fract_x
_atom_site_fract_y
_atom_site_fract_z
Si Si1 0.468007 0.891790 0.809119
Si Si2 0.328747 0.482436 0.455683
Si Si3 0.339999 0.100223 0.991610
Si Si4 0.231472 0.245661 0.223917
Si Si5 0.643301 0.685828 0.467074
Si Si6 0.027791 0.126676 0.172348
Si Si7 0.055618 0.787228 0.730438
Si Si8 0.166376 0.933349 0.964395
O O1 0.483934 0.761592 0.819596
O O2 0.326244 0.907285 0.873216
O O3 0.641702 0.940903 0.625905
O O4 0.409586 0.974409 0.928486
O O5 0.363252 0.557176 0.498031
O O6 0.366337 0.564004 0.350354
O O7 0.442136 0.370807 0.342256
O O8 0.446709 0.174442 0.835968
O O9 0.331142 0.163465 0.078424
O O10 0.158293 0.100259 0.120995
O O11 0.233432 0.203322 0.306747
O O12 0.293803 0.372921 0.149960
O O13 0.038941 0.235784 0.374594
O O14 0.758143 0.751419 0.421685
O O15 0.106368 0.062256 0.029947
O O16 0.980740 0.863262 0.864303
#
# Coordination Sequence:
#
# PCOD9121303 Si02
#       8
#     4   4   4   4   4   4   4   4
#     4  11  19  31  53  79 114 146 187 232 285 328
#     4  11  20  31  52  79 116 135 186 234 278 338
#     4  10  19  32  52  79 108 150 180 230 279 332
#     4  10  20  36  55  79 121 141 188 230 285 346
#     4  11  21  34  54  89 109 152 179 234 293 329
#     4  10  19  33  51  79 114 140 188 226 288 323
#     4  10  19  33  50  79 109 142 184 222 283 324
#     4   9  19  33  52  78 110 150 177 234 275 337
#
# _framework density 18.66996
#
# number of rings (size 3 to 8) (size 9 to 14) (size 15 to 20)
#    0.000    1.750    5.000    1.500    0.000    2.000 
#    0.000    0.000    0.000    0.000   16.250    1.750 
#    0.000    0.000    0.000    0.000    0.000    0.000 
#
# Total GULP energy -89124.538078 kJ/mol
# GULP energy per Si atom -5570.283630 kJ/mol
# Density = 1.862747 g / cm^3
# Si number density = 18.669960 Si / 1000 Ang^3
#
#
#
# Elastic Constant Matrix: (Units=GPa)
#
#
# Indices 1 2 3 4 5 6 
#
# 1 28.9931 23.0658 23.6512 -0.0001 14.2757 0.0001
# 2 23.0658 150.2937 66.7916 -0.0001 14.7665 0.0001
# 3 23.6512 66.7916 89.6919 -0.0001 12.4078 0.0001
# 4 -0.0001 -0.0001 -0.0001 43.8232 0.0001 4.3463
# 5 14.2757 14.7665 12.4078 0.0001 33.1455 -0.0001
# 6 0.0001 0.0001 0.0001 4.3463 -0.0001 17.5976
#
#
#
# Elastic Compliance Matrix: (Units=1/GPa)
#
#
# Indices 1 2 3 4 5 6 
#
# 1 0.053250 -0.001881 -0.010107 0.000000 -0.018313 0.000000
# 2 -0.001881 0.010108 -0.006877 0.000000 -0.001119 0.000000
# 3 -0.010107 -0.006877 0.018887 0.000000 0.000346 0.000000
# 4 0.000000 0.000000 0.000000 0.023392 0.000000 -0.005777
# 5 -0.018313 -0.001119 0.000346 0.000000 0.038426 0.000000
# 6 0.000000 0.000000 0.000000 -0.005777 0.000000 0.058253
#
#
# Mechanical properties :
#
#
# Convention : Reuss Voigt Hill
#
# Bulk Modulus (GPa) = 22.46428 55.11064 38.78746
# Shear Modulus (GPa) = 19.61671 29.27796 24.44733
#
# Velocity S-wave (km/s) = 3.24498 3.96433 3.62255
# Velocity P-wave (km/s) = 5.10865 7.10894 6.19012
#
# Compressibility (1/GPa) = 0.04451511
#
# Stress axis : x y z
#
# Youngs Moduli (GPa) = 18.77945 98.92888 52.94537
#
# Poissons Ratio (x) = 0.18612 0.53513
# Poissons Ratio (y) = 0.03533 0.36408
# Poissons Ratio (z) = 0.18981 0.68029
#
# Static dielectric constant tensor:
#      x y z
#    x 1.660620 0.000000 0.002300 
#    y 0.000000 1.703360 0.000000 
#    z 0.002300 0.000000 1.712940 
# 
# From -- ./inp_files/29450.got.cif
#   From: 2010.05.17/outbox.cif.g08.bks.cpg/sg5_15_cif.got.tgz:29450.got - 2010.06.03 18:56:24.
