data_PCOD9121460
_publ_section_title
;
Structure prediction by ZEFSAII (Michael W. Deem and Ramdas Pophale) SiO2 
 PCOD9121460
Probable space group: C 2
;
_chemical_formula_sum "Si O2"
_cell_formula_units_Z 32
_cell_length_a 26.058375
_cell_length_b 9.902332
_cell_length_c 8.478604
_cell_angle_alpha 90.000000
_cell_angle_beta 127.965914
_cell_angle_gamma 90.000000
_cell_volume 1724.817077
_symmetry_space_group_name_H-M "C 2"
_symmetry_group_IT_number 5
_symmetry_cell_setting 'monoclinic'
loop_
_space_group_symop_operation_xyz
x,y,z
-x,y,-z
1/2+x,1/2+y,z
1/2-x,1/2+y,-z
loop_
_atom_site_type_symbol
_atom_site_label
_atom_site_fract_x
_atom_site_fract_y
_atom_site_fract_z
Si Si1 0.552276 0.169590 0.977992
Si Si2 0.840404 0.643537 0.049766
Si Si3 0.627696 0.514059 0.506491
Si Si4 0.489094 0.426434 0.290717
Si Si5 0.777866 0.225235 0.385315
Si Si6 0.649570 0.469710 0.904361
Si Si7 0.329422 0.246784 0.573899
Si Si8 0.793415 0.509188 0.278336
O O1 0.595658 0.095553 0.926003
O O2 0.514167 0.286934 0.811750
O O3 0.500000 0.104500 0.000000
O O4 0.610080 0.234111 0.192415
O O5 0.848799 0.804475 0.104536
O O6 0.826051 0.558655 0.178149
O O7 0.776399 0.643475 0.818533
O O8 0.550185 0.511044 0.346946
O O9 0.663999 0.623778 0.470349
O O10 0.645463 0.533937 0.723574
O O11 0.654250 0.367035 0.512308
O O12 0.500000 0.401432 0.500000
O O13 0.418910 0.495927 0.139929
O O14 0.736391 0.277360 0.454608
O O15 0.804496 0.353048 0.339860
O O16 0.714958 0.518369 0.111428
O O17 0.318857 0.107189 0.462632
#
# Coordination Sequence:
#
# PCOD9121460 Si02
#       8
#     4   4   4   4   4   4   4   4
#     4  10  19  34  55  90 119 141 194 258 294 338
#     4   9  18  33  55  81 114 153 199 238 288 348
#     4  11  18  34  59  86 115 151 196 246 292 342
#     4   9  19  33  57  89 114 150 197 251 292 337
#     4  10  22  34  52  88 124 152 195 242 295 359
#     4   9  18  33  56  85 112 146 203 244 282 343
#     4  11  22  35  57  89 120 157 194 247 305 345
#     4  11  20  37  57  85 123 160 192 246 301 355
#
# _framework density 18.552692
#
# number of rings (size 3 to 8) (size 9 to 14) (size 15 to 20)
#    0.000    2.000    3.750    1.500    0.000    0.000 
#    0.000    0.000    0.000    4.500    3.250    0.000 
#    0.000    0.000    0.000    0.000    0.000    0.000 
#
# Total GULP energy -89186.043770 kJ/mol
# GULP energy per Si atom -5574.127736 kJ/mol
# Density = 1.851047 g / cm^3
# Si number density = 18.552692 Si / 1000 Ang^3
#
#
#
# Elastic Constant Matrix: (Units=GPa)
#
#
# Indices 1 2 3 4 5 6 
#
# 1 131.5626 23.2493 18.9846 0.0000 18.5236 0.0000
# 2 23.2493 30.7816 13.3628 0.0000 12.5385 0.0000
# 3 18.9846 13.3628 50.2655 0.0000 11.8098 0.0000
# 4 0.0000 0.0000 0.0000 11.7295 0.0000 9.9780
# 5 18.5236 12.5385 11.8098 0.0000 30.7513 0.0000
# 6 0.0000 0.0000 0.0000 9.9780 0.0000 17.5021
#
#
#
# Elastic Compliance Matrix: (Units=1/GPa)
#
#
# Indices 1 2 3 4 5 6 
#
# 1 0.009109 -0.005100 -0.001411 0.000000 -0.002866 0.000000
# 2 -0.005100 0.044399 -0.006975 0.000000 -0.012352 0.000000
# 3 -0.001411 -0.006975 0.023537 0.000000 -0.005345 0.000000
# 4 0.000000 0.000000 0.000000 0.165534 0.000000 -0.094371
# 5 -0.002866 -0.012352 -0.005345 0.000000 0.041334 0.000000
# 6 0.000000 0.000000 0.000000 -0.094371 0.000000 0.110937
#
#
# Mechanical properties :
#
#
# Convention : Reuss Voigt Hill
#
# Bulk Modulus (GPa) = 19.97096 35.97811 27.97454
# Shear Modulus (GPa) = 11.40215 22.46413 16.93314
#
# Velocity S-wave (km/s) = 2.48177 3.48347 3.02438
# Velocity P-wave (km/s) = 4.35890 5.96774 5.22561
#
# Compressibility (1/GPa) = 0.05007270
#
# Stress axis : x y z
#
# Youngs Moduli (GPa) = 109.77699 22.52323 42.48552
#
# Poissons Ratio (x) = 0.11488 0.05996
# Poissons Ratio (y) = 0.55990 0.29632
# Poissons Ratio (z) = 0.15493 0.15709
#
# Static dielectric constant tensor:
#      x y z
#    x 1.690540 0.000000 -0.008140 
#    y 0.000000 1.605860 0.000000 
#    z -0.008140 0.000000 1.650590 
# 
# From -- ./inp_files/30886.got.cif
#   From: 2010.05.17/outbox.cif.g08.bks.cpg/sg5_16_cif.got.tgz:30886.got - 2010.06.03 18:56:24.
