data_PCOD9121382
_publ_section_title
;
Structure prediction by ZEFSAII (Michael W. Deem and Ramdas Pophale) SiO2 
 PCOD9121382
Probable space group: C 2
;
_chemical_formula_sum "Si O2"
_cell_formula_units_Z 24
_cell_length_a 6.693704
_cell_length_b 16.240075
_cell_length_c 11.216935
_cell_angle_alpha 90.000000
_cell_angle_beta 43.091915
_cell_angle_gamma 90.000000
_cell_volume 833.024915
_symmetry_space_group_name_H-M "C 2"
_symmetry_group_IT_number 5
_symmetry_cell_setting 'monoclinic'
loop_
_space_group_symop_operation_xyz
x,y,z
-x,y,-z
1/2+x,1/2+y,z
1/2-x,1/2+y,-z
loop_
_atom_site_type_symbol
_atom_site_label
_atom_site_fract_x
_atom_site_fract_y
_atom_site_fract_z
Si Si1 0.198020 0.539730 0.562069
Si Si2 0.079809 0.979897 0.192213
Si Si3 0.873788 0.170698 0.877364
Si Si4 0.819524 0.275894 0.423803
Si Si5 0.028603 0.711387 0.246758
Si Si6 0.086965 0.422085 0.155034
O O1 0.500000 0.524095 0.500000
O O2 0.291207 0.501913 0.394329
O O3 0.927176 0.496958 0.746499
O O4 0.121559 0.633867 0.621853
O O5 0.316593 0.942109 0.182157
O O6 0.163816 0.072169 0.109742
O O7 0.133922 0.921155 0.053963
O O8 0.976003 0.198705 0.701518
O O9 0.153060 0.206150 0.829391
O O10 0.606189 0.203834 0.073817
O O11 0.500000 0.270759 0.500000
O O12 0.695140 0.283065 0.613625
O O13 0.991605 0.347401 0.280176
#
# Coordination Sequence:
#
# PCOD9121382 Si02
#       6
#     4   4   4   4   4   4
#     4  10  19  33  55  87 115 152 200 248 295 353
#     4  10  19  33  55  86 116 152 193 248 296 355
#     4  10  20  34  57  87 116 154 198 245 300 356
#     4  10  20  35  54  85 120 154 192 252 301 340
#     4  10  20  34  56  86 117 156 201 244 296 359
#     4  10  21  34  55  88 121 152 196 248 303 348
#
# _framework density 28.810666000000001
#
# number of rings (size 3 to 8) (size 9 to 14) (size 15 to 20)
#    0.000    2.000    3.333    1.500    0.000    6.667 
#    0.000    0.000    0.000    0.000   30.333    0.000 
#    5.000    0.000    0.000    0.000    0.000    0.000 
#
# Total GULP energy -67025.236786 kJ/mol
# GULP energy per Si atom -5585.436399 kJ/mol
# Density = 2.874509 g / cm^3
# Si number density = 28.810666 Si / 1000 Ang^3
#
#
#
# Elastic Constant Matrix: (Units=GPa)
#
#
# Indices 1 2 3 4 5 6 
#
# 1 82.8078 -1.8050 64.0252 -0.0004 -5.3175 0.0001
# 2 -1.8050 90.3058 71.5323 0.0000 4.3117 -0.0002
# 3 64.0252 71.5323 368.9953 -0.0014 5.2271 -0.0002
# 4 -0.0004 0.0000 -0.0014 48.6659 0.0010 -6.3543
# 5 -5.3175 4.3117 5.2271 0.0010 67.6265 0.0000
# 6 0.0001 -0.0002 -0.0002 -6.3543 0.0000 20.9628
#
#
#
# Elastic Compliance Matrix: (Units=1/GPa)
#
#
# Indices 1 2 3 4 5 6 
#
# 1 0.014580 0.002659 -0.003063 0.000000 0.001214 0.000000
# 2 0.002659 0.013595 -0.003091 0.000000 -0.000419 0.000000
# 3 -0.003063 -0.003091 0.003845 0.000000 -0.000341 0.000000
# 4 0.000000 0.000000 0.000000 0.021395 0.000000 0.006485
# 5 0.001214 -0.000419 -0.000341 0.000000 0.014936 0.000000
# 6 0.000000 0.000000 0.000000 0.006485 0.000000 0.049669
#
#
# Mechanical properties :
#
#
# Convention : Reuss Voigt Hill
#
# Bulk Modulus (GPa) = 39.94872 89.95711 64.95292
# Shear Modulus (GPa) = 37.49454 54.67481 46.08468
#
# Velocity S-wave (km/s) = 3.61142 4.36102 4.00380
# Velocity P-wave (km/s) = 5.59338 7.52657 6.63081
#
# Compressibility (1/GPa) = 0.02503209
#
# Stress axis : x y z
#
# Youngs Moduli (GPa) = 68.58750 73.55622 260.04534
#
# Poissons Ratio (x) = -0.19561 0.79639
# Poissons Ratio (y) = -0.18240 0.80380
# Poissons Ratio (z) = 0.21005 0.22736
#
# Static dielectric constant tensor:
#      x y z
#    x 2.630500 0.000000 0.112840 
#    y 0.000000 2.405610 0.000000 
#    z 0.112840 0.000000 2.203260 
# 
# From -- ./inp_files/53134.got.cif
#   From: 2010.05.17/outbox.cif.g08.bks.cpg/sg5_27_cif.got.tgz:53134.got - 2010.06.03 18:56:24.
