data_PCOD9121522
_publ_section_title
;
Structure prediction by ZEFSAII (Michael W. Deem and Ramdas Pophale) SiO2 
 PCOD9121522
Probable space group: C 2
;
_chemical_formula_sum "Si O2"
_cell_formula_units_Z 32
_cell_length_a 17.979159
_cell_length_b 9.903624
_cell_length_c 14.872847
_cell_angle_alpha 90.000000
_cell_angle_beta 29.991039
_cell_angle_gamma 90.000000
_cell_volume 1323.762164
_symmetry_space_group_name_H-M "C 2"
_symmetry_group_IT_number 5
_symmetry_cell_setting 'monoclinic'
loop_
_space_group_symop_operation_xyz
x,y,z
-x,y,-z
1/2+x,1/2+y,z
1/2-x,1/2+y,-z
loop_
_atom_site_type_symbol
_atom_site_label
_atom_site_fract_x
_atom_site_fract_y
_atom_site_fract_z
Si Si1 0.557823 0.581200 0.643543
Si Si2 0.623613 0.418288 0.305008
Si Si3 0.707054 0.911025 0.513958
Si Si4 0.655404 0.502027 0.992601
Si Si5 0.111920 0.453205 0.091647
Si Si6 0.700195 0.691022 0.331454
Si Si7 0.337679 0.986500 0.645671
Si Si8 0.038382 0.731360 0.814319
O O1 0.471808 0.462103 0.681190
O O2 0.716748 0.523579 0.504416
O O3 0.588480 0.690033 0.534406
O O4 0.455989 0.599917 0.836833
O O5 0.500000 0.348204 0.500000
O O6 0.668117 0.555256 0.311998
O O7 0.781239 0.379928 0.093550
O O8 0.695514 0.973153 0.425129
O O9 0.827912 0.790602 0.388702
O O10 0.544626 0.883443 0.722481
O O11 0.792811 0.472458 0.916541
O O12 0.716088 0.557734 0.834803
O O13 0.563536 0.364366 0.070246
O O14 0.060317 0.604642 0.113821
O O15 0.669519 0.829886 0.313598
O O16 0.866388 0.695263 0.196589
O O17 0.500000 0.038259 0.500000
#
# Coordination Sequence:
#
# PCOD9121522 Si02
#       8
#     4   4   4   4   4   4   4   4
#     4   9  18  36  53  84 129 166 197 250 312 394
#     4   9  19  33  55  88 123 163 199 247 320 401
#     4  10  21  36  57  90 122 168 217 262 311 387
#     4  10  22  37  58  93 129 164 217 257 327 397
#     4  11  20  39  59  87 131 178 204 263 334 382
#     4  10  19  34  59  91 126 158 195 264 339 371
#     4  11  20  33  55  89 128 151 206 269 313 378
#     4  10  22  37  60  92 128 165 210 264 318 391
#
# _framework density 24.173525999999999
#
# number of rings (size 3 to 8) (size 9 to 14) (size 15 to 20)
#    0.000    2.000    2.500    1.875    0.000    8.000 
#    0.000    0.000    0.000    0.000   68.250   12.250 
#    0.000    0.000    0.000    0.000    0.000    0.000 
#
# Total GULP energy -89281.941715 kJ/mol
# GULP energy per Si atom -5580.121357 kJ/mol
# Density = 2.411851 g / cm^3
# Si number density = 24.173526 Si / 1000 Ang^3
#
#
#
# Elastic Constant Matrix: (Units=GPa)
#
#
# Indices 1 2 3 4 5 6 
#
# 1 116.2803 31.2390 34.0246 0.0000 -21.0257 0.0000
# 2 31.2390 64.7975 30.7552 0.0000 -3.8410 0.0000
# 3 34.0246 30.7552 241.4807 0.0000 10.0660 0.0000
# 4 0.0000 0.0000 0.0000 23.2826 0.0000 3.7225
# 5 -21.0257 -3.8410 10.0660 0.0000 49.9448 0.0000
# 6 0.0000 0.0000 0.0000 3.7225 0.0000 22.0851
#
#
#
# Elastic Compliance Matrix: (Units=1/GPa)
#
#
# Indices 1 2 3 4 5 6 
#
# 1 0.010953 -0.004462 -0.001163 0.000000 0.004502 0.000000
# 2 -0.004462 0.018387 -0.001708 0.000000 -0.000120 0.000000
# 3 -0.001163 -0.001708 0.004587 0.000000 -0.001545 0.000000
# 4 0.000000 0.000000 0.000000 0.044140 0.000000 -0.007440
# 5 0.004502 -0.000120 -0.001545 0.000000 0.022220 0.000000
# 6 0.000000 0.000000 0.000000 -0.007440 0.000000 0.046533
#
#
# Mechanical properties :
#
#
# Convention : Reuss Voigt Hill
#
# Bulk Modulus (GPa) = 51.91562 68.28847 60.10204
# Shear Modulus (GPa) = 29.77862 40.83182 35.30522
#
# Velocity S-wave (km/s) = 3.51361 4.11434 3.82578
# Velocity P-wave (km/s) = 6.16307 7.13309 6.66575
#
# Compressibility (1/GPa) = 0.01926203
#
# Stress axis : x y z
#
# Youngs Moduli (GPa) = 91.30070 54.38525 218.01173
#
# Poissons Ratio (x) = 0.24265 0.25348
# Poissons Ratio (y) = 0.40735 0.37240
# Poissons Ratio (z) = 0.10615 0.09290
#
# Static dielectric constant tensor:
#      x y z
#    x 1.897620 0.000000 0.023270 
#    y 0.000000 1.968500 0.000000 
#    z 0.023270 0.000000 2.035250 
# 
# From -- ./inp_files/56012.got.cif
#   From: 2010.05.17/outbox.cif.g08.bks.cpg/sg5_29_cif.got.tgz:56012.got - 2010.06.03 18:56:24.
