data_PCOD9121625
_publ_section_title
;
Structure prediction by ZEFSAII (Michael W. Deem and Ramdas Pophale) SiO2 
 PCOD9121625
Probable space group: C 2
;
_chemical_formula_sum "Si O2"
_cell_formula_units_Z 28
_cell_length_a 9.048683
_cell_length_b 26.562664
_cell_length_c 5.385044
_cell_angle_alpha 90.000000
_cell_angle_beta 118.680925
_cell_angle_gamma 90.000000
_cell_volume 1135.526711
_symmetry_space_group_name_H-M "C 2"
_symmetry_group_IT_number 5
_symmetry_cell_setting 'monoclinic'
loop_
_space_group_symop_operation_xyz
x,y,z
-x,y,-z
1/2+x,1/2+y,z
1/2-x,1/2+y,-z
loop_
_atom_site_type_symbol
_atom_site_label
_atom_site_fract_x
_atom_site_fract_y
_atom_site_fract_z
Si Si1 0.604452 0.555460 0.329709
Si Si2 0.800782 0.210935 0.333885
Si Si3 0.587761 0.990778 0.317974
Si Si4 0.947728 0.903127 0.202248
Si Si5 0.945742 0.378038 0.196873
Si Si6 0.296242 0.658475 0.815529
Si Si7 0.592192 0.291807 0.319668
O O1 0.500000 0.571456 0.500000
O O2 0.725876 0.511413 0.519085
O O3 0.713341 0.600853 0.290005
O O4 0.500000 0.540488 0.000000
O O5 0.722241 0.186667 0.517900
O O6 0.771021 0.269383 0.387537
O O7 0.000000 0.201960 0.500000
O O8 0.737614 0.183296 0.029796
O O9 0.500000 0.007359 0.500000
O O10 0.556072 0.930325 0.283960
O O11 0.500000 0.011013 0.000000
O O12 0.000000 0.927977 0.500000
O O13 0.063428 0.852101 0.296168
O O14 0.751257 0.890005 0.006222
O O15 0.000000 0.932117 0.000000
O O16 0.000000 0.355917 0.500000
O O17 0.000000 0.346876 0.000000
O O18 0.500000 0.665472 0.000000
O O19 0.500000 0.276643 0.500000
O O20 0.500000 0.271861 0.000000
#
# Coordination Sequence:
#
# PCOD9121625 Si02
#       7
#     4   4   4   4   4   4   4
#     4  11  21  38  64  92 123 166 217 267 313 375
#     4  10  19  35  59  84 115 157 203 252 311 374
#     4  10  22  41  60  89 131 168 209 262 320 385
#     4  10  21  40  64  91 123 164 210 265 321 382
#     4  10  21  41  64  90 126 168 209 262 322 387
#     4   9  18  33  57  87 116 153 203 254 307 371
#     4  10  21  38  57  85 123 158 203 262 316 378
#
# _framework density 24.658162999999998
#
# number of rings (size 3 to 8) (size 9 to 14) (size 15 to 20)
#    0.000    2.000    0.000    4.714    0.000    0.000 
#    0.000   28.571    0.000    0.000    0.000    0.000 
#    0.000    0.000    0.000    0.000    0.000    0.000 
#
# Total GULP energy -77956.919585 kJ/mol
# GULP energy per Si atom -5568.351399 kJ/mol
# Density = 2.460204 g / cm^3
# Si number density = 24.658163 Si / 1000 Ang^3
#
#
#
# Elastic Constant Matrix: (Units=GPa)
#
#
# Indices 1 2 3 4 5 6 
#
# 1 90.1908 50.7071 72.0881 0.0000 -40.3422 0.0000
# 2 50.7071 120.3350 41.6242 0.0000 -0.3795 0.0000
# 3 72.0881 41.6242 216.6076 0.0000 -55.0832 0.0000
# 4 0.0000 0.0000 0.0000 27.7462 0.0000 -7.8308
# 5 -40.3422 -0.3795 -55.0832 0.0000 52.1406 0.0000
# 6 0.0000 0.0000 0.0000 -7.8308 0.0000 23.0017
#
#
#
# Elastic Compliance Matrix: (Units=1/GPa)
#
#
# Indices 1 2 3 4 5 6 
#
# 1 0.027155 -0.010590 -0.002296 0.000000 0.018508 0.000000
# 2 -0.010590 0.013254 -0.001479 0.000000 -0.009660 0.000000
# 3 -0.002296 -0.001479 0.007124 0.000000 0.005739 0.000000
# 4 0.000000 0.000000 0.000000 0.039872 0.000000 0.013574
# 5 0.018508 -0.009660 0.005739 0.000000 0.039492 0.000000
# 6 0.000000 0.000000 0.000000 0.013574 0.000000 0.048096
#
#
# Mechanical properties :
#
#
# Convention : Reuss Voigt Hill
#
# Bulk Modulus (GPa) = 53.18103 83.99691 68.58897
# Shear Modulus (GPa) = 23.81044 38.09195 30.95120
#
# Velocity S-wave (km/s) = 3.11082 3.93466 3.54674
# Velocity P-wave (km/s) = 5.87512 7.40139 6.68198
#
# Compressibility (1/GPa) = 0.01880370
#
# Stress axis : x y z
#
# Youngs Moduli (GPa) = 36.82518 75.45012 140.36278
#
# Poissons Ratio (x) = 0.79904 0.32223
# Poissons Ratio (y) = 0.38999 0.20758
# Poissons Ratio (z) = 0.08454 0.11158
#
# Static dielectric constant tensor:
#      x y z
#    x 2.329530 0.000000 0.151860 
#    y 0.000000 2.061880 0.000000 
#    z 0.151860 0.000000 2.150330 
# 
# From -- ./inp_files/3984.got.cif
#   From: 2010.05.17/outbox.cif.g08.bks.cpg/sg5_2_cif.got.tgz:3984.got - 2010.06.03 18:56:24.
