data_PCOD9121283
_publ_section_title
;
Structure prediction by ZEFSAII (Michael W. Deem and Ramdas Pophale) SiO2 
 PCOD9121283
Probable space group: C 2
;
_chemical_formula_sum "Si O2"
_cell_formula_units_Z 24
_cell_length_a 9.275276
_cell_length_b 28.322621
_cell_length_c 6.685470
_cell_angle_alpha 90.000000
_cell_angle_beta 33.878764
_cell_angle_gamma 90.000000
_cell_volume 979.012774
_symmetry_space_group_name_H-M "C 2"
_symmetry_group_IT_number 5
_symmetry_cell_setting 'monoclinic'
loop_
_space_group_symop_operation_xyz
x,y,z
-x,y,-z
1/2+x,1/2+y,z
1/2-x,1/2+y,-z
loop_
_atom_site_type_symbol
_atom_site_label
_atom_site_fract_x
_atom_site_fract_y
_atom_site_fract_z
Si Si1 0.581519 0.480830 0.186135
Si Si2 0.407995 0.280174 0.839672
Si Si3 0.783160 0.185747 0.073824
Si Si4 0.912894 0.435462 0.335048
Si Si5 0.215457 0.082600 0.924129
Si Si6 0.087957 0.328959 0.664580
O O1 0.500000 0.465026 0.500000
O O2 0.316932 0.473047 0.371039
O O3 0.672825 0.534834 0.094352
O O4 0.824013 0.448316 0.854306
O O5 0.500000 0.282479 0.500000
O O6 0.261286 0.229832 0.021948
O O7 0.183580 0.318411 0.130205
O O8 0.678945 0.291690 0.634526
O O9 0.500000 0.181413 0.500000
O O10 0.826161 0.134095 0.928877
O O11 0.000000 0.194379 0.000000
O O12 0.820468 0.382202 0.475423
O O13 0.000000 0.437694 0.000000
O O14 0.500000 0.080385 0.500000
O O15 0.000000 0.081396 0.000000
O O16 0.000000 0.325765 0.000000
#
# Coordination Sequence:
#
# PCOD9121283 Si02
#       6
#     4   4   4   4   4   4
#     4  10  19  32  49  68  94 126 158 194 235 278
#     4   9  14  21  34  54  81 114 146 176 217 274
#     4   9  16  26  39  58  86 119 150 184 229 274
#     4   9  17  28  42  63  91 123 154 188 233 278
#     4  10  20  33  49  69  95 126 160 197 236 278
#     4   9  15  22  35  56  84 116 146 175 218 276
#
# _framework density 24.514491
#
# number of rings (size 3 to 8) (size 9 to 14) (size 15 to 20)
#    0.000    2.667    0.000    4.500    0.000    4.000 
#    0.000    0.000    0.000    0.000    0.000    0.000 
#    0.000   13.333    0.000    3.333    0.000    0.333 
#
# Total GULP energy -67015.526772 kJ/mol
# GULP energy per Si atom -5584.627231 kJ/mol
# Density = 2.445869 g / cm^3
# Si number density = 24.514491 Si / 1000 Ang^3
#
#
#
# Elastic Constant Matrix: (Units=GPa)
#
#
# Indices 1 2 3 4 5 6 
#
# 1 82.8198 -8.5637 32.9142 0.0000 -32.8638 0.0000
# 2 -8.5637 141.8566 60.9817 0.0000 -21.8128 0.0000
# 3 32.9142 60.9817 140.1474 0.0000 -30.4152 0.0000
# 4 0.0000 0.0000 0.0000 35.8968 0.0000 -10.3622
# 5 -32.8638 -21.8128 -30.4152 0.0000 49.8667 0.0000
# 6 0.0000 0.0000 0.0000 -10.3622 0.0000 25.9567
#
#
#
# Elastic Compliance Matrix: (Units=1/GPa)
#
#
# Indices 1 2 3 4 5 6 
#
# 1 0.018901 0.004655 -0.003826 0.000000 0.012159 0.000000
# 2 0.004655 0.009948 -0.004393 0.000000 0.004740 0.000000
# 3 -0.003826 -0.004393 0.010351 0.000000 0.001871 0.000000
# 4 0.000000 0.000000 0.000000 0.031486 0.000000 0.012570
# 5 0.012159 0.004740 0.001871 0.000000 0.031281 0.000000
# 6 0.000000 0.000000 0.000000 0.012570 0.000000 0.043544
#
#
# Mechanical properties :
#
#
# Convention : Reuss Voigt Hill
#
# Bulk Modulus (GPa) = 31.17866 59.49867 45.33866
# Shear Modulus (GPa) = 30.61291 40.97682 35.79486
#
# Velocity S-wave (km/s) = 3.53762 4.09288 3.82534
# Velocity P-wave (km/s) = 5.42517 6.83074 6.16812
#
# Compressibility (1/GPa) = 0.03207322
#
# Stress axis : x y z
#
# Youngs Moduli (GPa) = 52.90654 100.52440 96.60504
#
# Poissons Ratio (x) = -0.46798 0.36960
# Poissons Ratio (y) = -0.24630 0.42441
# Poissons Ratio (z) = 0.20241 0.44163
#
# Static dielectric constant tensor:
#      x y z
#    x 2.039570 0.000000 0.061130 
#    y 0.000000 1.960370 0.000000 
#    z 0.061130 0.000000 1.932410 
# 
# From -- ./inp_files/43488.got.cif
#   From: 2010.05.17/outbox.cif.g08.bks.cpg/sg5_22_cif.got.tgz:43488.got - 2010.06.03 18:56:24.
