data_PCOD9121704
_publ_section_title
;
Structure prediction by ZEFSAII (Michael W. Deem and Ramdas Pophale) SiO2 
 PCOD9121704
Probable space group: C 2
;
_chemical_formula_sum "Si O2"
_cell_formula_units_Z 30
_cell_length_a 10.262702
_cell_length_b 16.099977
_cell_length_c 10.428002
_cell_angle_alpha 90.000000
_cell_angle_beta 55.360516
_cell_angle_gamma 90.000000
_cell_volume 1417.598536
_symmetry_space_group_name_H-M "C 2"
_symmetry_group_IT_number 5
_symmetry_cell_setting 'monoclinic'
loop_
_space_group_symop_operation_xyz
x,y,z
-x,y,-z
1/2+x,1/2+y,z
1/2-x,1/2+y,-z
loop_
_atom_site_type_symbol
_atom_site_label
_atom_site_fract_x
_atom_site_fract_y
_atom_site_fract_z
Si Si1 0.790587 0.534330 0.485899
Si Si2 0.681192 0.625090 0.945313
Si Si3 0.818379 0.969624 0.185836
Si Si4 0.065158 0.865673 0.201290
Si Si5 0.995306 0.697570 0.650413
Si Si6 0.990494 0.369099 0.642166
Si Si7 0.000000 0.965753 0.500000
Si Si8 0.606693 0.785452 0.067257
O O1 0.724524 0.529765 0.668535
O O2 0.646177 0.519879 0.470346
O O3 0.889900 0.617560 0.403307
O O4 0.901529 0.451766 0.416689
O O5 0.715255 0.527581 0.919619
O O6 0.817826 0.667741 0.784363
O O7 0.668439 0.692117 0.066058
O O8 0.500000 0.620139 0.000000
O O9 0.688946 0.899118 0.251452
O O10 0.975501 0.922872 0.147565
O O11 0.974529 0.777864 0.277767
O O12 0.057307 0.912037 0.343991
O O13 0.240153 0.841137 0.054182
O O14 0.000000 0.724314 0.500000
O O15 0.000000 0.325126 0.500000
O O16 0.009721 0.315170 0.756332
O O17 0.500000 0.783360 0.000000
#
# Coordination Sequence:
#
# PCOD9121704 Si02
#       8
#     4   4   4   4   4   4   2   4
#     4  10  19  35  65  89 128 176 228 271 327 404
#     4  10  21  36  60  95 123 162 220 270 320 390
#     4  10  20  36  60  97 120 168 225 271 326 398
#     4  10  22  34  60  93 131 171 222 280 335 395
#     4  11  18  37  62  88 125 179 222 269 324 403
#     4  10  20  38  64  94 127 171 223 275 331 397
#     4  10  20  36  56  94 134 170 228 276 342 386
#     4  10  22  39  61  95 131 170 222 275 334 400
#
# _framework density 21.16255
#
# number of rings (size 3 to 8) (size 9 to 14) (size 15 to 20)
#    0.000    1.867    3.333    1.200    1.867    0.000 
#    2.400    0.000   19.067    0.000    0.000    0.000 
#    0.000    0.000    0.000    0.000    0.000    0.000 
#
# Total GULP energy -83503.088706 kJ/mol
# GULP energy per Si atom -5566.872580 kJ/mol
# Density = 2.111438 g / cm^3
# Si number density = 21.162550 Si / 1000 Ang^3
#
#
#
# Elastic Constant Matrix: (Units=GPa)
#
#
# Indices 1 2 3 4 5 6 
#
# 1 44.0410 -8.8580 11.2504 0.0000 5.8186 0.0000
# 2 -8.8580 76.0434 40.0521 0.0000 17.3577 0.0000
# 3 11.2504 40.0521 74.5019 0.0000 9.0057 0.0000
# 4 0.0000 0.0000 0.0000 7.0803 0.0000 2.0964
# 5 5.8186 17.3577 9.0057 0.0000 37.3451 0.0000
# 6 0.0000 0.0000 0.0000 2.0964 0.0000 15.9269
#
#
#
# Elastic Compliance Matrix: (Units=1/GPa)
#
#
# Indices 1 2 3 4 5 6 
#
# 1 0.027469 0.009000 -0.008203 0.000000 -0.006485 0.000000
# 2 0.009000 0.022873 -0.012567 0.000000 -0.009003 0.000000
# 3 -0.008203 -0.012567 0.021174 0.000000 0.002013 0.000000
# 4 0.000000 0.000000 0.000000 0.146965 0.000000 -0.019344
# 5 -0.006485 -0.009003 0.002013 0.000000 0.031487 0.000000
# 6 0.000000 0.000000 0.000000 -0.019344 0.000000 0.065333
#
#
# Mechanical properties :
#
#
# Convention : Reuss Voigt Hill
#
# Bulk Modulus (GPa) = 20.84368 31.05283 25.94825
# Shear Modulus (GPa) = 14.09118 22.21323 18.15221
#
# Velocity S-wave (km/s) = 2.58322 3.24334 2.93192
# Velocity P-wave (km/s) = 4.33221 5.36013 4.87335
#
# Compressibility (1/GPa) = 0.04797617
#
# Stress axis : x y z
#
# Youngs Moduli (GPa) = 36.40530 43.71946 47.22770
#
# Poissons Ratio (x) = -0.39349 0.38739
# Poissons Ratio (y) = -0.32766 0.59353
# Poissons Ratio (z) = 0.29862 0.54944
#
# Static dielectric constant tensor:
#      x y z
#    x 1.767070 0.000000 0.002180 
#    y 0.000000 1.871200 0.000000 
#    z 0.002180 0.000000 1.871750 
# 
# From -- ./inp_files/40058.got.cif
#   From: 2010.05.17/outbox.cif.g08.bks.cpg/sg5_21_cif.got.tgz:40058.got - 2010.06.03 18:56:24.
