data_PCOD9121080
_publ_section_title
;
Structure prediction by ZEFSAII (Michael W. Deem and Ramdas Pophale) SiO2 
 PCOD9121080
Probable space group: C 2
;
_chemical_formula_sum "Si O2"
_cell_formula_units_Z 32
_cell_length_a 28.973074
_cell_length_b 9.553025
_cell_length_c 10.264031
_cell_angle_alpha 90.000000
_cell_angle_beta 146.861977
_cell_angle_gamma 90.000000
_cell_volume 1552.991121
_symmetry_space_group_name_H-M "C 2"
_symmetry_group_IT_number 5
_symmetry_cell_setting 'monoclinic'
loop_
_space_group_symop_operation_xyz
x,y,z
-x,y,-z
1/2+x,1/2+y,z
1/2-x,1/2+y,-z
loop_
_atom_site_type_symbol
_atom_site_label
_atom_site_fract_x
_atom_site_fract_y
_atom_site_fract_z
Si Si1 0.737189 0.037710 0.302528
Si Si2 0.594453 0.045538 0.764474
Si Si3 0.801060 0.787036 0.615984
Si Si4 0.108722 0.064818 0.538813
Si Si5 0.344469 0.873244 0.328778
Si Si6 0.980806 0.866859 0.107027
Si Si7 0.127041 0.660069 0.479898
Si Si8 0.663457 0.317304 0.824705
O O1 0.746427 0.181358 0.403054
O O2 0.813892 0.034189 0.379283
O O3 0.748329 0.911848 0.429775
O O4 0.644619 0.027804 0.017647
O O5 0.500000 0.003161 0.500000
O O6 0.601267 0.210275 0.748143
O O7 0.649396 0.953547 0.794062
O O8 0.837517 0.702883 0.576488
O O9 0.881656 0.847941 0.883853
O O10 0.102928 0.230406 0.543707
O O11 0.131494 0.972825 0.719551
O O12 0.024060 0.993951 0.284599
O O13 0.369846 0.994580 0.489369
O O14 0.247823 0.824904 0.108063
O O15 0.033301 0.727086 0.269888
O O16 0.000000 0.890184 0.000000
O O17 0.176889 0.739339 0.715539
#
# Coordination Sequence:
#
# PCOD9121080 Si02
#       8
#     4   4   4   4   4   4   4   4
#     4  12  24  41  64  95 133 169 215 265 325 381
#     4  11  25  43  64  95 132 167 210 271 327 389
#     4  11  24  41  63  91 132 175 208 269 327 385
#     4  11  20  38  64  94 120 163 218 267 307 384
#     4  11  20  36  64  97 122 162 216 273 315 373
#     4   9  18  40  62  79 119 171 212 250 307 386
#     4   9  19  36  62  87 120 166 215 251 310 387
#     4  10  18  38  67  87 119 172 215 255 314 388
#
# _framework density 20.605398000000001
#
# number of rings (size 3 to 8) (size 9 to 14) (size 15 to 20)
#    0.000    1.500    6.250    0.750    7.000    0.000 
#    2.250    2.500    0.000    0.000    0.000    0.000 
#    0.000    0.000    0.000    0.000    0.000    0.000 
#
# Total GULP energy -89290.616392 kJ/mol
# GULP energy per Si atom -5580.663524 kJ/mol
# Density = 2.055850 g / cm^3
# Si number density = 20.605398 Si / 1000 Ang^3
#
#
#
# Elastic Constant Matrix: (Units=GPa)
#
#
# Indices 1 2 3 4 5 6 
#
# 1 20.7209 17.4516 24.0945 0.0000 -6.2091 0.0000
# 2 17.4516 153.4542 57.0873 0.0000 -13.1633 0.0000
# 3 24.0945 57.0873 106.1816 0.0000 -16.8567 0.0000
# 4 0.0000 0.0000 0.0000 20.6670 0.0000 -3.5344
# 5 -6.2091 -13.1633 -16.8567 0.0000 19.1670 0.0000
# 6 0.0000 0.0000 0.0000 -3.5344 0.0000 26.0938
#
#
#
# Elastic Compliance Matrix: (Units=1/GPa)
#
#
# Indices 1 2 3 4 5 6 
#
# 1 0.067643 -0.002170 -0.012716 0.000000 0.009239 0.000000
# 2 -0.002170 0.008284 -0.003684 0.000000 0.001746 0.000000
# 3 -0.012716 -0.003684 0.015375 0.000000 0.006872 0.000000
# 4 0.000000 0.000000 0.000000 0.049534 0.000000 0.006709
# 5 0.009239 0.001746 0.006872 0.000000 0.062409 0.000000
# 6 0.000000 0.000000 0.000000 0.006709 0.000000 0.039232
#
#
# Mechanical properties :
#
#
# Convention : Reuss Voigt Hill
#
# Bulk Modulus (GPa) = 18.46319 53.06930 35.76624
# Shear Modulus (GPa) = 16.79712 25.30043 21.04878
#
# Velocity S-wave (km/s) = 2.85823 3.50788 3.19959
# Velocity P-wave (km/s) = 4.45786 6.49753 5.57182
#
# Compressibility (1/GPa) = 0.05416182
#
# Stress axis : x y z
#
# Youngs Moduli (GPa) = 14.78357 120.71953 65.04024
#
# Poissons Ratio (x) = 0.26190 0.82706
# Poissons Ratio (y) = 0.03207 0.23962
# Poissons Ratio (z) = 0.18799 0.44474
#
# Static dielectric constant tensor:
#      x y z
#    x 1.753560 0.000000 0.003510 
#    y 0.000000 1.727210 0.000000 
#    z 0.003510 0.000000 1.769510 
# 
# From -- ./inp_files/48418.got.cif
#   From: 2010.05.17/outbox.cif.g08.bks.cpg/sg5_25_cif.got.tgz:48418.got - 2010.06.03 18:56:24.
