data_PCOD9121103
_publ_section_title
;
Structure prediction by ZEFSAII (Michael W. Deem and Ramdas Pophale) SiO2 
 PCOD9121103
Probable space group: C 2
;
_chemical_formula_sum "Si O2"
_cell_formula_units_Z 30
_cell_length_a 12.987462
_cell_length_b 11.374453
_cell_length_c 16.283997
_cell_angle_alpha 90.000000
_cell_angle_beta 32.033249
_cell_angle_gamma 90.000000
_cell_volume 1275.935124
_symmetry_space_group_name_H-M "C 2"
_symmetry_group_IT_number 5
_symmetry_cell_setting 'monoclinic'
loop_
_space_group_symop_operation_xyz
x,y,z
-x,y,-z
1/2+x,1/2+y,z
1/2-x,1/2+y,-z
loop_
_atom_site_type_symbol
_atom_site_label
_atom_site_fract_x
_atom_site_fract_y
_atom_site_fract_z
Si Si1 0.018822 0.447310 0.249457
Si Si2 0.866979 0.470400 0.996978
Si Si3 0.098073 0.885302 0.514523
Si Si4 0.588336 0.148172 0.567719
Si Si5 0.171556 0.347328 0.317140
Si Si6 0.805499 0.085968 0.263372
Si Si7 0.714533 0.580203 0.244625
Si Si8 0.000000 0.252761 0.000000
O O1 0.825951 0.386550 0.346195
O O2 0.928033 0.570467 0.340818
O O3 0.169955 0.458385 0.073981
O O4 0.097758 0.382487 0.276100
O O5 0.091730 0.514195 0.853706
O O6 0.853101 0.346997 0.056080
O O7 0.741955 0.568380 0.128008
O O8 0.076551 0.785266 0.597134
O O9 0.000000 0.831909 0.500000
O O10 0.980297 0.005552 0.605816
O O11 0.766367 0.117809 0.385452
O O12 0.398532 0.109346 0.645576
O O13 0.331147 0.445165 0.234941
O O14 0.219747 0.210005 0.277194
O O15 0.000000 0.360224 0.500000
O O16 0.941093 0.168975 0.115989
#
# Coordination Sequence:
#
# PCOD9121103 Si02
#       8
#     4   4   4   4   4   4   4   2
#     4  11  24  40  63  96 130 165 217 274 327 375
#     4  10  22  43  63  98 131 170 217 271 318 392
#     4  12  21  38  68  97 120 172 223 268 322 381
#     4  10  20  38  62  88 126 163 214 263 313 377
#     4  11  23  44  65  91 136 172 214 273 328 387
#     4  10  18  39  63  89 122 170 208 265 321 371
#     4  10  23  41  66  91 131 177 215 258 337 388
#     4  10  20  36  70  94 122 168 228 260 320 388
#
# _framework density 23.512166000000001
#
# number of rings (size 3 to 8) (size 9 to 14) (size 15 to 20)
#    0.000    1.600    5.333    2.800    1.867    1.067 
#    7.200    0.000    0.000    0.000    0.000    0.000 
#    0.000    0.000    0.000    0.000    0.000    0.000 
#
# Total GULP energy -83635.556309 kJ/mol
# GULP energy per Si atom -5575.703754 kJ/mol
# Density = 2.345865 g / cm^3
# Si number density = 23.512166 Si / 1000 Ang^3
#
#
#
# Elastic Constant Matrix: (Units=GPa)
#
#
# Indices 1 2 3 4 5 6 
#
# 1 42.0344 0.6688 20.3877 0.0000 20.5593 -0.0001
# 2 0.6688 169.5316 30.2960 0.0000 14.2532 0.0000
# 3 20.3877 30.2960 64.0104 -0.0003 27.5816 -0.0001
# 4 0.0000 0.0000 -0.0003 34.9118 0.0001 11.1429
# 5 20.5593 14.2532 27.5816 0.0001 42.2779 0.0001
# 6 -0.0001 0.0000 -0.0001 11.1429 0.0001 -0.3177
#
#
#
# Elastic Compliance Matrix: (Units=1/GPa)
#
#
# Indices 1 2 3 4 5 6 
#
# 1 0.032890 0.002002 -0.005899 0.000000 -0.012821 -0.000001
# 2 0.002002 0.006567 -0.003300 0.000000 -0.001035 0.000000
# 3 -0.005899 -0.003300 0.024131 0.000000 -0.011762 0.000000
# 4 0.000000 0.000000 0.000000 0.002349 -0.000001 0.082384
# 5 -0.012821 -0.001035 -0.011762 -0.000001 0.037910 0.000001
# 6 -0.000001 0.000000 0.000000 0.082384 0.000001 -0.258116
#
#
# Mechanical properties :
#
#
# Convention : Reuss Voigt Hill
#
# Bulk Modulus (GPa) = 20.32728 42.03126 31.17927
# Shear Modulus (GPa) = -40.49354 30.32266 -5.08544
#
# Velocity S-wave (km/s) = -4.15449 3.59508 -1.47227
# Velocity P-wave (km/s) = 3.78798 5.92857 3.22484
#
# Compressibility (1/GPa) = 0.04919497
#
# Stress axis : x y z
#
# Youngs Moduli (GPa) = 30.40436 152.26563 41.43973
#
# Poissons Ratio (x) = -0.30488 0.24445
# Poissons Ratio (y) = -0.06088 0.13676
# Poissons Ratio (z) = 0.17936 0.50251
#
# Static dielectric constant tensor:
#      x y z
#    x 1.946030 0.000000 0.035960 
#    y 0.000000 1.970650 0.000000 
#    z 0.035960 0.000000 1.948100 
# 
# From -- ./inp_files/61626.got.cif
#   From: 2010.05.17/outbox.cif.g08.bks.cpg/sg5_31_cif.got.tgz:61626.got - 2010.06.03 18:56:24.
