data_PCOD9121476
_publ_section_title
;
Structure prediction by ZEFSAII (Michael W. Deem and Ramdas Pophale) SiO2 
 PCOD9121476
Probable space group: C 2
;
_chemical_formula_sum "Si O2"
_cell_formula_units_Z 26
_cell_length_a 7.235571
_cell_length_b 8.978621
_cell_length_c 22.377598
_cell_angle_alpha 90.000000
_cell_angle_beta 46.027508
_cell_angle_gamma 90.000000
_cell_volume 1046.239863
_symmetry_space_group_name_H-M "C 2"
_symmetry_group_IT_number 5
_symmetry_cell_setting 'monoclinic'
loop_
_space_group_symop_operation_xyz
x,y,z
-x,y,-z
1/2+x,1/2+y,z
1/2-x,1/2+y,-z
loop_
_atom_site_type_symbol
_atom_site_label
_atom_site_fract_x
_atom_site_fract_y
_atom_site_fract_z
Si Si1 0.789065 0.765550 0.768475
Si Si2 0.230402 0.938929 0.527093
Si Si3 0.968828 0.622147 0.384626
Si Si4 0.975340 0.081336 0.684268
Si Si5 0.451554 0.911029 0.078781
Si Si6 0.246197 0.715037 0.839516
Si Si7 0.000000 0.892215 0.000000
O O1 0.958187 0.635871 0.701717
O O2 0.681158 0.770273 0.859511
O O3 0.522372 0.782133 0.792372
O O4 0.935758 0.916970 0.720697
O O5 0.500000 0.968508 0.500000
O O6 0.162246 0.770570 0.559200
O O7 0.301889 0.981580 0.443324
O O8 0.020662 0.050372 0.604000
O O9 0.247781 0.626914 0.352979
O O10 0.759968 0.185794 0.764505
O O11 0.720164 0.961034 0.049863
O O12 0.264949 0.050809 0.128769
O O13 0.500000 0.879337 0.000000
O O14 0.047391 0.803105 0.926428
#
# Coordination Sequence:
#
# PCOD9121476 Si02
#       7
#     4   4   4   4   4   4   2
#     4   8  16  30  56  86 109 153 198 243 299 361
#     4   9  17  30  51  80 108 150 195 239 300 364
#     4   9  16  30  53  83 112 149 199 243 300 364
#     4   8  15  29  54  80 106 151 192 237 301 359
#     4  10  19  34  56  87 117 157 204 245 302 360
#     4   9  16  32  55  79 114 151 191 245 301 351
#     4  10  20  34  54  84 114 152 200 252 294 360
#
# _framework density 24.850898000000001
#
# number of rings (size 3 to 8) (size 9 to 14) (size 15 to 20)
#    0.000    3.077    0.769    0.000    0.000    0.000 
#    1.385    2.308   20.308    0.000   48.000    0.000 
#    0.000    0.000    0.000    0.000    0.000    0.000 
#
# Total GULP energy -72390.829087 kJ/mol
# GULP energy per Si atom -5568.525314 kJ/mol
# Density = 2.479434 g / cm^3
# Si number density = 24.850898 Si / 1000 Ang^3
#
#
#
# Elastic Constant Matrix: (Units=GPa)
#
#
# Indices 1 2 3 4 5 6 
#
# 1 51.6614 3.1581 21.9070 0.0000 -1.0739 0.0000
# 2 3.1581 15.6826 20.4023 0.0000 -2.3036 0.0000
# 3 21.9070 20.4023 141.0852 -0.0001 14.9620 -0.0001
# 4 0.0000 0.0000 -0.0001 32.4835 0.0000 -9.3631
# 5 -1.0739 -2.3036 14.9620 0.0000 37.3643 0.0000
# 6 0.0000 0.0000 -0.0001 -9.3631 0.0000 19.4991
#
#
#
# Elastic Compliance Matrix: (Units=1/GPa)
#
#
# Indices 1 2 3 4 5 6 
#
# 1 0.020867 0.000744 -0.003568 0.000000 0.002074 0.000000
# 2 0.000744 0.082166 -0.013093 0.000000 0.010330 0.000000
# 3 -0.003568 -0.013093 0.010059 0.000000 -0.004938 0.000000
# 4 0.000000 0.000000 0.000000 0.035730 0.000000 0.017157
# 5 0.002074 0.010330 -0.004938 0.000000 0.029437 0.000000
# 6 0.000000 0.000000 0.000000 0.017157 0.000000 0.059523
#
#
# Mechanical properties :
#
#
# Convention : Reuss Voigt Hill
#
# Bulk Modulus (GPa) = 12.30637 33.26268 22.78453
# Shear Modulus (GPa) = 16.85187 28.73348 22.79267
#
# Velocity S-wave (km/s) = 2.60690 3.40403 3.03178
# Velocity P-wave (km/s) = 3.74487 5.37251 4.63076
#
# Compressibility (1/GPa) = 0.08125871
#
# Stress axis : x y z
#
# Youngs Moduli (GPa) = 47.92180 12.17045 99.41414
#
# Poissons Ratio (x) = -0.00905 0.35468
# Poissons Ratio (y) = -0.03565 1.30164
# Poissons Ratio (z) = 0.17097 0.15935
#
# Static dielectric constant tensor:
#      x y z
#    x 2.018070 0.000000 0.037820 
#    y 0.000000 1.925910 0.000000 
#    z 0.037820 0.000000 2.056340 
# 
# From -- ./inp_files/59259.got.cif
#   From: 2010.05.17/outbox.cif.g08.bks.cpg/sg5_30_cif.got.tgz:59259.got - 2010.06.03 18:56:24.
