data_PCOD9121778
_publ_section_title
;
Structure prediction by ZEFSAII (Michael W. Deem and Ramdas Pophale) SiO2 
 PCOD9121778
Probable space group: C 2
;
_chemical_formula_sum "Si O2"
_cell_formula_units_Z 28
_cell_length_a 12.789402
_cell_length_b 15.010611
_cell_length_c 8.338975
_cell_angle_alpha 90.000000
_cell_angle_beta 47.848631
_cell_angle_gamma 90.000000
_cell_volume 1186.858392
_symmetry_space_group_name_H-M "C 2"
_symmetry_group_IT_number 5
_symmetry_cell_setting 'monoclinic'
loop_
_space_group_symop_operation_xyz
x,y,z
-x,y,-z
1/2+x,1/2+y,z
1/2-x,1/2+y,-z
loop_
_atom_site_type_symbol
_atom_site_label
_atom_site_fract_x
_atom_site_fract_y
_atom_site_fract_z
Si Si1 0.730325 0.081740 0.094804
Si Si2 0.519116 0.628299 0.667814
Si Si3 0.647900 0.376363 0.534027
Si Si4 0.121190 0.696505 0.748755
Si Si5 0.680862 0.414392 0.137332
Si Si6 0.289943 0.747837 0.863598
Si Si7 0.798372 0.542469 0.516030
O O1 0.675133 0.054864 0.323869
O O2 0.698086 0.181896 0.073291
O O3 0.901611 0.086743 0.909755
O O4 0.720696 0.001870 0.977419
O O5 0.500000 0.594275 0.500000
O O6 0.546042 0.728348 0.269246
O O7 0.662883 0.601708 0.602357
O O8 0.636487 0.275796 0.606772
O O9 0.693832 0.377217 0.302547
O O10 0.489411 0.417558 0.711757
O O11 0.755573 0.442124 0.515935
O O12 0.258639 0.707085 0.721725
O O13 0.091377 0.599372 0.703238
O O14 0.000000 0.719864 0.000000
O O15 0.740279 0.346395 0.944200
#
# Coordination Sequence:
#
# PCOD9121778 Si02
#       7
#     4   4   4   4   4   4   4
#     4  10  22  35  63  95 123 161 205 262 311 367
#     4  10  19  36  60  89 118 156 195 255 306 362
#     4  11  23  36  64  92 120 168 213 260 310 375
#     4  12  24  40  64  93 130 168 211 266 318 372
#     4  11  20  38  60  93 125 157 214 263 309 369
#     4  10  21  36  58  88 124 158 203 256 317 361
#     4  12  22  40  65  94 127 162 217 255 315 380
#
# _framework density 23.591695999999999
#
# number of rings (size 3 to 8) (size 9 to 14) (size 15 to 20)
#    0.857    0.286    4.286    3.857    0.000    0.000 
#    0.000    0.000    6.286    0.000    0.000    0.000 
#    0.000    0.000    0.000    0.000    0.000    0.000 
#
# Total GULP energy -77994.592301 kJ/mol
# GULP energy per Si atom -5571.042307 kJ/mol
# Density = 2.353800 g / cm^3
# Si number density = 23.591696 Si / 1000 Ang^3
#
#
#
# Elastic Constant Matrix: (Units=GPa)
#
#
# Indices 1 2 3 4 5 6 
#
# 1 31.9221 -9.1025 7.9615 0.0000 3.6430 0.0000
# 2 -9.1025 83.4626 17.3485 0.0000 7.9232 0.0000
# 3 7.9615 17.3485 65.8531 0.0000 22.6075 0.0000
# 4 0.0000 0.0000 0.0000 42.8894 0.0000 5.9086
# 5 3.6430 7.9232 22.6075 0.0000 37.4515 0.0000
# 6 0.0000 0.0000 0.0000 5.9086 0.0000 33.2893
#
#
#
# Elastic Compliance Matrix: (Units=1/GPa)
#
#
# Indices 1 2 3 4 5 6 
#
# 1 0.034104 0.004876 -0.004938 0.000000 -0.001368 0.000000
# 2 0.004876 0.013394 -0.003762 0.000000 -0.001037 0.000000
# 3 -0.004938 -0.003762 0.020605 0.000000 -0.011162 0.000000
# 4 0.000000 0.000000 0.000000 0.023900 0.000000 -0.004242
# 5 -0.001368 -0.001037 -0.011162 0.000000 0.033792 0.000000
# 6 0.000000 0.000000 0.000000 -0.004242 0.000000 0.030793
#
#
# Mechanical properties :
#
#
# Convention : Reuss Voigt Hill
#
# Bulk Modulus (GPa) = 16.54127 23.73921 20.14024
# Shear Modulus (GPa) = 27.11684 33.72806 30.42245
#
# Velocity S-wave (km/s) = 3.39399 3.78518 3.59491
# Velocity P-wave (km/s) = 4.73134 5.40258 5.07806
#
# Compressibility (1/GPa) = 0.06045484
#
# Stress axis : x y z
#
# Youngs Moduli (GPa) = 29.32192 74.66279 48.53120
#
# Poissons Ratio (x) = -0.36403 0.23964
# Poissons Ratio (y) = -0.14296 0.18257
# Poissons Ratio (z) = 0.14479 0.28087
#
# Static dielectric constant tensor:
#      x y z
#    x 1.991690 0.000000 -0.088190 
#    y 0.000000 1.988640 0.000000 
#    z -0.088190 0.000000 1.926520 
# 
# From -- ./inp_files/27672.got.cif
#   From: 2010.05.17/outbox.cif.g08.bks.cpg/sg5_14_cif.got.tgz:27672.got - 2010.06.03 18:56:24.
