data_PCOD9121555
_publ_section_title
;
Structure prediction by ZEFSAII (Michael W. Deem and Ramdas Pophale) SiO2 
 PCOD9121555
Probable space group: C 2
;
_chemical_formula_sum "Si O2"
_cell_formula_units_Z 32
_cell_length_a 11.251062
_cell_length_b 15.236846
_cell_length_c 8.195151
_cell_angle_alpha 90.000000
_cell_angle_beta 95.273017
_cell_angle_gamma 90.000000
_cell_volume 1398.955051
_symmetry_space_group_name_H-M "C 2"
_symmetry_group_IT_number 5
_symmetry_cell_setting 'monoclinic'
loop_
_space_group_symop_operation_xyz
x,y,z
-x,y,-z
1/2+x,1/2+y,z
1/2-x,1/2+y,-z
loop_
_atom_site_type_symbol
_atom_site_label
_atom_site_fract_x
_atom_site_fract_y
_atom_site_fract_z
Si Si1 0.014195 0.244480 0.806302
Si Si2 0.790402 0.135067 0.698023
Si Si3 0.120815 0.959964 0.122193
Si Si4 0.466918 0.126858 0.187638
Si Si5 0.490849 0.310542 0.690333
Si Si6 0.124052 0.095783 0.618327
Si Si7 0.710775 0.421418 0.805918
Si Si8 0.519240 0.931526 0.197830
O O1 0.884225 0.213830 0.726940
O O2 0.046552 0.342886 0.754173
O O3 0.105182 0.172583 0.747666
O O4 0.000000 0.241826 0.000000
O O5 0.670550 0.145617 0.784922
O O6 0.776023 0.118491 0.503353
O O7 0.852971 0.047961 0.778212
O O8 0.100823 0.877680 0.237496
O O9 0.220953 0.942737 0.999479
O O10 0.000000 0.970354 0.000000
O O11 0.535221 0.209780 0.272514
O O12 0.490706 0.028703 0.257104
O O13 0.500000 0.127303 0.000000
O O14 0.500000 0.324038 0.500000
O O15 0.620019 0.340849 0.776906
O O16 0.000000 0.089516 0.500000
O O17 0.151027 0.004753 0.709641
O O18 0.841885 0.411684 0.753503
O O19 0.500000 0.935745 0.000000
#
# Coordination Sequence:
#
# PCOD9121555 Si02
#       8
#     4   4   4   4   4   4   4   4
#     4  10  20  38  64  92 120 156 205 258 308 365
#     4  11  21  39  63  92 125 163 201 252 312 364
#     4  10  19  34  63  94 117 152 205 261 307 357
#     4  11  24  43  61  85 123 167 210 253 299 366
#     4  11  23  40  61  91 125 158 203 259 311 363
#     4  10  21  38  63  97 127 154 199 258 310 365
#     4  11  20  39  66  92 119 161 204 249 306 366
#     4  10  23  41  61  87 121 157 203 254 298 356
#
# _framework density 22.874217999999999
#
# number of rings (size 3 to 8) (size 9 to 14) (size 15 to 20)
#    0.000    1.500    0.000    8.625    0.000    1.000 
#    0.000   13.125    0.000    0.000    0.000    0.000 
#    0.000    0.000    0.000    0.000    0.000    0.000 
#
# Total GULP energy -89460.370695 kJ/mol
# GULP energy per Si atom -5591.273168 kJ/mol
# Density = 2.282216 g / cm^3
# Si number density = 22.874218 Si / 1000 Ang^3
#
#
#
# Elastic Constant Matrix: (Units=GPa)
#
#
# Indices 1 2 3 4 5 6 
#
# 1 51.8813 18.4861 8.1495 0.0000 -16.5745 0.0000
# 2 18.4861 199.6623 45.4694 0.0000 1.5149 0.0000
# 3 8.1495 45.4694 100.5117 0.0000 -24.3987 0.0000
# 4 0.0000 0.0000 0.0000 -38.7877 0.0000 7.8437
# 5 -16.5745 1.5149 -24.3987 0.0000 25.1376 0.0000
# 6 0.0000 0.0000 0.0000 7.8437 0.0000 10.6879
#
#
#
# Elastic Compliance Matrix: (Units=1/GPa)
#
#
# Indices 1 2 3 4 5 6 
#
# 1 0.027272 -0.003883 0.005190 0.000000 0.023254 0.000000
# 2 -0.003883 0.006405 -0.004314 0.000000 -0.007134 0.000000
# 3 0.005190 -0.004314 0.016188 0.000000 0.019394 0.000000
# 4 0.000000 0.000000 0.000000 -0.022450 0.000000 0.016475
# 5 0.023254 -0.007134 0.019394 0.000000 0.074367 0.000000
# 6 0.000000 0.000000 0.000000 0.016475 0.000000 0.081473
#
#
# Mechanical properties :
#
#
# Convention : Reuss Voigt Hill
#
# Bulk Modulus (GPa) = 22.80522 55.14060 38.97291
# Shear Modulus (GPa) = 24.52356 18.07091 21.29723
#
# Velocity S-wave (km/s) = 3.27785 2.81376 3.05464
# Velocity P-wave (km/s) = 4.93125 5.89192 5.43286
#
# Compressibility (1/GPa) = 0.04384961
#
# Stress axis : x y z
#
# Youngs Moduli (GPa) = 36.66764 156.13778 61.77539
#
# Poissons Ratio (x) = 0.60635 -0.32063
# Poissons Ratio (y) = 0.14240 0.26651
# Poissons Ratio (z) = -0.19031 0.67360
#
# Static dielectric constant tensor:
#      x y z
#    x 1.918920 0.000000 -0.019230 
#    y 0.000000 1.846660 0.000000 
#    z -0.019230 0.000000 1.863760 
# 
# From -- ./inp_files/20672.got.cif
#   From: 2010.05.17/outbox.cif.g08.bks.cpg/sg5_11_cif.got.tgz:20672.got - 2010.06.03 18:56:24.
