data_PCOD9121308
_publ_section_title
;
Structure prediction by ZEFSAII (Michael W. Deem and Ramdas Pophale) SiO2 
 PCOD9121308
Probable space group: C 2
;
_chemical_formula_sum "Si O2"
_cell_formula_units_Z 28
_cell_length_a 8.609278
_cell_length_b 34.184833
_cell_length_c 5.253729
_cell_angle_alpha 90.000000
_cell_angle_beta 123.139705
_cell_angle_gamma 90.000000
_cell_volume 1294.701762
_symmetry_space_group_name_H-M "C 2"
_symmetry_group_IT_number 5
_symmetry_cell_setting 'monoclinic'
loop_
_space_group_symop_operation_xyz
x,y,z
-x,y,-z
1/2+x,1/2+y,z
1/2-x,1/2+y,-z
loop_
_atom_site_type_symbol
_atom_site_label
_atom_site_fract_x
_atom_site_fract_y
_atom_site_fract_z
Si Si1 0.630393 0.881380 0.867282
Si Si2 0.296864 0.679533 0.402168
Si Si3 0.369197 0.051416 0.133519
Si Si4 0.297234 0.263822 0.570490
Si Si5 0.787252 0.798676 0.059381
Si Si6 0.293175 0.134709 0.193395
Si Si7 0.629869 0.966730 0.866529
O O1 0.500000 0.877400 0.500000
O O2 0.726057 0.924313 0.947309
O O3 0.500000 0.880058 0.000000
O O4 0.767496 0.844912 0.013867
O O5 0.500000 0.693031 0.500000
O O6 0.186711 0.717233 0.404903
O O7 0.319804 0.650709 0.664897
O O8 0.213643 0.660133 0.071669
O O9 0.500000 0.049569 0.500000
O O10 0.249642 0.090383 0.067004
O O11 0.270492 0.008942 0.032887
O O12 0.500000 0.056320 0.000000
O O13 0.202835 0.281299 0.238998
O O14 0.500353 0.283772 0.750108
O O15 0.201894 0.278334 0.739111
O O16 0.500000 0.134905 0.500000
O O17 0.500000 0.966715 0.500000
O O18 0.500000 0.966687 0.000000
#
# Coordination Sequence:
#
# PCOD9121308 Si02
#       7
#     4   4   4   4   4   4   4
#     4  10  19  32  53  86 119 152 188 238 297 346
#     4  12  26  42  60  87 118 158 207 251 308 358
#     4   9  16  31  51  87 118 148 192 237 292 346
#     4  10  23  39  57  76 105 152 194 251 286 349
#     4  10  21  37  57  79 106 150 197 240 291 341
#     4  11  23  38  65  90 118 155 203 255 294 361
#     4   8  15  27  48  77 121 150 179 234 287 345
#
# _framework density 21.626602999999999
#
# number of rings (size 3 to 8) (size 9 to 14) (size 15 to 20)
#    0.000    2.000    0.000    4.286    6.000    1.714 
#    0.000    0.000    0.000    0.000   11.143    0.000 
#    0.000    0.000    0.000    0.000    0.000    0.000 
#
# Total GULP energy -78055.118196 kJ/mol
# GULP energy per Si atom -5575.365585 kJ/mol
# Density = 2.157738 g / cm^3
# Si number density = 21.626603 Si / 1000 Ang^3
#
#
#
# Elastic Constant Matrix: (Units=GPa)
#
#
# Indices 1 2 3 4 5 6 
#
# 1 47.0144 33.4795 49.5054 0.0000 -14.4449 0.0000
# 2 33.4795 237.9601 49.8220 0.0000 -8.3926 0.0000
# 3 49.5054 49.8220 126.5465 0.0000 -47.3331 0.0000
# 4 0.0000 0.0000 0.0000 33.7531 0.0000 -1.1688
# 5 -14.4449 -8.3926 -47.3331 0.0000 52.4146 0.0000
# 6 0.0000 0.0000 0.0000 -1.1688 0.0000 37.2547
#
#
#
# Elastic Compliance Matrix: (Units=1/GPa)
#
#
# Indices 1 2 3 4 5 6 
#
# 1 0.037864 -0.002249 -0.015340 0.000000 -0.003778 0.000000
# 2 -0.002249 0.004778 -0.001430 0.000000 -0.001146 0.000000
# 3 -0.015340 -0.001430 0.019328 0.000000 0.012998 0.000000
# 4 0.000000 0.000000 0.000000 0.029659 0.000000 0.000931
# 5 -0.003778 -0.001146 0.012998 0.000000 0.029591 0.000000
# 6 0.000000 0.000000 0.000000 0.000931 0.000000 0.026871
#
#
# Mechanical properties :
#
#
# Convention : Reuss Voigt Hill
#
# Bulk Modulus (GPa) = 41.78609 75.23722 58.51166
# Shear Modulus (GPa) = 25.75907 43.26542 34.51225
#
# Velocity S-wave (km/s) = 3.45495 4.47762 3.99911
# Velocity P-wave (km/s) = 5.93962 7.84836 6.95974
#
# Compressibility (1/GPa) = 0.02393141
#
# Stress axis : x y z
#
# Youngs Moduli (GPa) = 26.41062 209.30408 51.73829
#
# Poissons Ratio (x) = 0.47064 0.79368
# Poissons Ratio (y) = 0.05939 0.07399
# Poissons Ratio (z) = 0.40515 0.29931
#
# Static dielectric constant tensor:
#      x y z
#    x 1.801750 0.000000 -0.017980 
#    y 0.000000 1.854990 0.000000 
#    z -0.017980 0.000000 1.788290 
# 
# From -- ./inp_files/3993.got.cif
#   From: 2010.05.17/outbox.cif.g08.bks.cpg/sg5_2_cif.got.tgz:3993.got - 2010.06.03 18:56:24.
