data_PCOD9121512
_publ_section_title
;
Structure prediction by ZEFSAII (Michael W. Deem and Ramdas Pophale) SiO2 
 PCOD9121512
Probable space group: C 2
;
_chemical_formula_sum "Si O2"
_cell_formula_units_Z 32
_cell_length_a 12.073707
_cell_length_b 19.137873
_cell_length_c 9.727026
_cell_angle_alpha 90.000000
_cell_angle_beta 130.734154
_cell_angle_gamma 90.000000
_cell_volume 1703.090534
_symmetry_space_group_name_H-M "C 2"
_symmetry_group_IT_number 5
_symmetry_cell_setting 'monoclinic'
loop_
_space_group_symop_operation_xyz
x,y,z
-x,y,-z
1/2+x,1/2+y,z
1/2-x,1/2+y,-z
loop_
_atom_site_type_symbol
_atom_site_label
_atom_site_fract_x
_atom_site_fract_y
_atom_site_fract_z
Si Si1 0.794879 0.529540 0.587511
Si Si2 0.175332 0.450084 0.120390
Si Si3 0.094614 0.222711 0.251945
Si Si4 0.131999 0.709151 0.006945
Si Si5 0.787132 0.289946 0.908350
Si Si6 0.362660 0.563989 0.807752
Si Si7 0.340344 0.669900 0.409476
Si Si8 0.871347 0.560130 0.142328
O O1 0.762855 0.474841 0.682827
O O2 0.697112 0.522875 0.372616
O O3 0.759203 0.605819 0.622011
O O4 0.967621 0.530520 0.692191
O O5 0.216631 0.372745 0.109026
O O6 0.205070 0.506486 0.025500
O O7 0.000000 0.451267 0.000000
O O8 0.211168 0.256590 0.242440
O O9 0.085224 0.140602 0.203697
O O10 0.140542 0.222649 0.447609
O O11 0.942058 0.262064 0.097615
O O12 0.271603 0.704101 0.219697
O O13 0.163115 0.760829 0.907239
O O14 0.108842 0.632692 0.922681
O O15 0.000000 0.728045 0.000000
O O16 0.229952 0.572177 0.807815
O O17 0.500000 0.532447 0.000000
O O18 0.500000 0.641925 0.500000
#
# Coordination Sequence:
#
# PCOD9121512 Si02
#       8
#     4   4   4   4   4   4   4   4
#     4  10  22  36  57  93 125 159 205 257 316 374
#     4  10  20  37  63  87 124 164 207 257 313 382
#     4  10  19  34  58  92 117 153 205 257 308 352
#     4  12  21  38  61  94 127 165 206 265 322 373
#     4  11  20  38  62  91 122 160 212 262 310 373
#     4  11  21  36  61  95 122 154 207 265 314 367
#     4  11  21  34  59  92 128 154 208 261 309 370
#     4  11  20  38  59  93 124 162 207 257 320 370
#
# _framework density 18.789370999999999
#
# number of rings (size 3 to 8) (size 9 to 14) (size 15 to 20)
#    0.000    1.250    7.500    0.750    1.750    0.000 
#    0.000    2.500    5.500    3.000    0.000    0.000 
#    0.000    0.000    0.000    0.000    0.000    0.000 
#
# Total GULP energy -89304.191472 kJ/mol
# GULP energy per Si atom -5581.511967 kJ/mol
# Density = 1.874661 g / cm^3
# Si number density = 18.789371 Si / 1000 Ang^3
#
#
#
# Elastic Constant Matrix: (Units=GPa)
#
#
# Indices 1 2 3 4 5 6 
#
# 1 82.0998 27.2504 24.2010 0.0000 -9.5435 0.0000
# 2 27.2504 84.0039 35.9181 0.0000 -13.6373 0.0000
# 3 24.2010 35.9181 115.0972 0.0000 -11.8654 0.0000
# 4 0.0000 0.0000 0.0000 18.1899 0.0000 -4.1425
# 5 -9.5435 -13.6373 -11.8654 0.0000 25.7411 0.0000
# 6 0.0000 0.0000 0.0000 -4.1425 0.0000 19.0758
#
#
#
# Elastic Compliance Matrix: (Units=1/GPa)
#
#
# Indices 1 2 3 4 5 6 
#
# 1 0.014112 -0.003456 -0.001615 0.000000 0.002657 0.000000
# 2 -0.003456 0.015388 -0.003535 0.000000 0.005241 0.000000
# 3 -0.001615 -0.003535 0.010369 0.000000 0.002308 0.000000
# 4 0.000000 0.000000 0.000000 0.057836 0.000000 0.012560
# 5 0.002657 0.005241 0.002308 0.000000 0.043674 0.000000
# 6 0.000000 0.000000 0.000000 0.012560 0.000000 0.055150
#
#
# Mechanical properties :
#
#
# Convention : Reuss Voigt Hill
#
# Bulk Modulus (GPa) = 44.13656 50.66000 47.39828
# Shear Modulus (GPa) = 22.59444 25.52345 24.05894
#
# Velocity S-wave (km/s) = 3.47149 3.68964 3.58223
# Velocity P-wave (km/s) = 6.29361 6.72100 6.51081
#
# Compressibility (1/GPa) = 0.02265695
#
# Stress axis : x y z
#
# Youngs Moduli (GPa) = 70.86010 64.98684 96.44176
#
# Poissons Ratio (x) = 0.22460 0.15574
# Poissons Ratio (y) = 0.24490 0.34092
# Poissons Ratio (z) = 0.11443 0.22973
#
# Static dielectric constant tensor:
#      x y z
#    x 1.730860 0.000000 0.035620 
#    y 0.000000 1.623570 0.000000 
#    z 0.035620 0.000000 1.684530 
# 
# From -- ./inp_files/21949.got.cif
#   From: 2010.05.17/outbox.cif.g08.bks.cpg/sg5_11_cif.got.tgz:21949.got - 2010.06.03 18:56:24.
