data_PCOD9121449
_publ_section_title
;
Structure prediction by ZEFSAII (Michael W. Deem and Ramdas Pophale) SiO2 
 PCOD9121449
Probable space group: C 2
;
_chemical_formula_sum "Si O2"
_cell_formula_units_Z 32
_cell_length_a 15.106878
_cell_length_b 22.353927
_cell_length_c 8.656927
_cell_angle_alpha 90.000000
_cell_angle_beta 147.112193
_cell_angle_gamma 90.000000
_cell_volume 1587.408655
_symmetry_space_group_name_H-M "C 2"
_symmetry_group_IT_number 5
_symmetry_cell_setting 'monoclinic'
loop_
_space_group_symop_operation_xyz
x,y,z
-x,y,-z
1/2+x,1/2+y,z
1/2-x,1/2+y,-z
loop_
_atom_site_type_symbol
_atom_site_label
_atom_site_fract_x
_atom_site_fract_y
_atom_site_fract_z
Si Si1 0.157981 0.161240 0.027674
Si Si2 0.176443 0.089447 0.521407
Si Si3 0.628356 0.105589 0.895958
Si Si4 0.361427 0.186606 0.622164
Si Si5 0.334047 0.304729 0.790545
Si Si6 0.659130 0.785390 0.840626
Si Si7 0.481392 0.873056 0.788481
Si Si8 0.097137 0.508698 0.304064
O O1 0.220235 0.182065 0.285982
O O2 0.294527 0.118137 0.155785
O O3 0.155159 0.222411 0.924302
O O4 0.991132 0.123365 0.765163
O O5 0.221019 0.086573 0.768807
O O6 0.317982 0.134251 0.675610
O O7 0.221952 0.030812 0.484955
O O8 0.533763 0.167104 0.802649
O O9 0.492328 0.054690 0.713317
O O10 0.352061 0.246559 0.706884
O O11 0.304435 0.292703 0.929291
O O12 0.176179 0.337346 0.496816
O O13 0.500000 0.340087 0.000000
O O14 0.500000 0.784215 0.500000
O O15 0.631315 0.841018 0.917658
O O16 0.438718 0.942038 0.690255
O O17 0.500000 0.867602 0.000000
O O18 0.000000 0.512997 0.000000
#
# Coordination Sequence:
#
# PCOD9121449 Si02
#       8
#     4   4   4   4   4   4   4   4
#     4  12  21  32  54  89 118 139 182 240 284 327
#     4  10  19  34  55  79 108 147 186 224 271 333
#     4  10  20  36  56  80 112 153 187 220 277 351
#     4  11  21  34  52  79 115 151 179 221 285 343
#     4  11  22  38  58  82 114 152 192 238 290 346
#     4  10  21  35  56  85 112 149 190 229 288 355
#     4  10  20  40  62  81 108 148 198 245 285 343
#     4   8  18  37  60  79 105 151 195 225 280 352
#
# _framework density 20.158639000000001
#
# number of rings (size 3 to 8) (size 9 to 14) (size 15 to 20)
#    0.000    1.750    0.000    7.500    0.000    0.000 
#    0.000   13.125    0.000    3.000    0.000    0.000 
#    0.000    0.000    0.000    0.000    0.000    0.000 
#
# Total GULP energy -89151.111085 kJ/mol
# GULP energy per Si atom -5571.944443 kJ/mol
# Density = 2.011276 g / cm^3
# Si number density = 20.158639 Si / 1000 Ang^3
#
#
#
# Elastic Constant Matrix: (Units=GPa)
#
#
# Indices 1 2 3 4 5 6 
#
# 1 111.6039 53.9194 42.5293 0.0000 9.4014 0.0000
# 2 53.9194 125.6603 27.9298 0.0000 3.9798 0.0000
# 3 42.5293 27.9298 74.9785 0.0000 0.3108 0.0000
# 4 0.0000 0.0000 0.0000 8.7733 0.0000 -1.8648
# 5 9.4014 3.9798 0.3108 0.0000 38.1622 0.0000
# 6 0.0000 0.0000 0.0000 -1.8648 0.0000 25.1777
#
#
#
# Elastic Compliance Matrix: (Units=1/GPa)
#
#
# Indices 1 2 3 4 5 6 
#
# 1 0.013654 -0.004415 -0.006088 0.000000 -0.002854 0.000000
# 2 -0.004415 0.010134 -0.001271 0.000000 0.000041 0.000000
# 3 -0.006088 -0.001271 0.017258 0.000000 0.001492 0.000000
# 4 0.000000 0.000000 0.000000 0.115805 0.000000 0.008577
# 5 -0.002854 0.000041 0.001492 0.000000 0.026890 0.000000
# 6 0.000000 0.000000 0.000000 0.008577 0.000000 0.040353
#
#
# Mechanical properties :
#
#
# Convention : Reuss Voigt Hill
#
# Bulk Modulus (GPa) = 57.15242 62.33328 59.74285
# Shear Modulus (GPa) = 19.72594 26.94692 23.33643
#
# Velocity S-wave (km/s) = 3.13155 3.66012 3.40610
# Velocity P-wave (km/s) = 6.44114 6.98931 6.72082
#
# Compressibility (1/GPa) = 0.01749707
#
# Stress axis : x y z
#
# Youngs Moduli (GPa) = 73.23974 98.68218 57.94535
#
# Poissons Ratio (x) = 0.43569 0.35278
# Poissons Ratio (y) = 0.32336 0.07363
# Poissons Ratio (z) = 0.44590 0.12539
#
# Static dielectric constant tensor:
#      x y z
#    x 1.807980 0.000000 -0.004720 
#    y 0.000000 1.755220 0.000000 
#    z -0.004720 0.000000 1.747250 
# 
# From -- ./inp_files/25613.got.cif
#   From: 2010.05.17/outbox.cif.g08.bks.cpg/sg5_13_cif.got.tgz:25613.got - 2010.06.03 18:56:24.
