data_PCOD9121827
_publ_section_title
;
Structure prediction by ZEFSAII (Michael W. Deem and Ramdas Pophale) SiO2 
 PCOD9121827
Probable space group: C 2
;
_chemical_formula_sum "Si O2"
_cell_formula_units_Z 30
_cell_length_a 8.110066
_cell_length_b 16.620801
_cell_length_c 14.201941
_cell_angle_alpha 90.000000
_cell_angle_beta 39.021753
_cell_angle_gamma 90.000000
_cell_volume 1205.311730
_symmetry_space_group_name_H-M "C 2"
_symmetry_group_IT_number 5
_symmetry_cell_setting 'monoclinic'
loop_
_space_group_symop_operation_xyz
x,y,z
-x,y,-z
1/2+x,1/2+y,z
1/2-x,1/2+y,-z
loop_
_atom_site_type_symbol
_atom_site_label
_atom_site_fract_x
_atom_site_fract_y
_atom_site_fract_z
Si Si1 0.162976 0.397430 0.837975
Si Si2 0.556792 0.286378 0.588987
Si Si3 0.620983 0.896768 0.229829
Si Si4 0.385180 0.730454 0.717454
Si Si5 0.327834 0.645166 0.236782
Si Si6 0.639940 0.026454 0.565264
Si Si7 0.775693 0.064431 0.721666
Si Si8 0.000000 0.038862 0.000000
O O1 0.455010 0.362458 0.694431
O O2 0.156401 0.494707 0.838770
O O3 0.030163 0.372665 0.798058
O O4 0.000000 0.368733 0.000000
O O5 0.500000 0.297589 0.500000
O O6 0.854671 0.253784 0.458741
O O7 0.363917 0.216385 0.712618
O O8 0.756823 0.815145 0.202624
O O9 0.436754 0.932399 0.394296
O O10 0.786534 0.973940 0.126931
O O11 0.503715 0.688953 0.758559
O O12 0.210403 0.657950 0.758180
O O13 0.107214 0.577891 0.359489
O O14 0.518363 0.599423 0.079693
O O15 0.703792 0.043134 0.647002
O O16 0.913262 0.052360 0.399381
#
# Coordination Sequence:
#
# PCOD9121827 Si02
#       8
#     4   4   4   4   4   4   4   2
#     4  11  23  37  59  91 122 156 202 248 297 357
#     4  10  19  36  62  93 114 153 206 251 293 349
#     4  10  21  41  60  81 121 168 199 232 306 373
#     4  11  21  38  66  92 115 153 210 254 290 352
#     4  10  20  36  64  89 113 156 205 246 289 358
#     4   9  19  38  62  86 120 159 199 244 303 361
#     4  10  21  35  61  91 123 151 195 258 307 347
#     4  10  24  40  60  84 124 162 194 242 314 366
#
# _framework density 24.889828000000001
#
# number of rings (size 3 to 8) (size 9 to 14) (size 15 to 20)
#    0.000    1.867    4.000    0.800    4.667    0.000 
#    1.200    1.333    0.000    0.000    0.000    0.000 
#    0.000    0.000    0.000    0.000    0.000    0.000 
#
# Total GULP energy -83659.336342 kJ/mol
# GULP energy per Si atom -5577.289089 kJ/mol
# Density = 2.483318 g / cm^3
# Si number density = 24.889828 Si / 1000 Ang^3
#
#
#
# Elastic Constant Matrix: (Units=GPa)
#
#
# Indices 1 2 3 4 5 6 
#
# 1 40.3743 12.3460 -0.4282 -0.0002 2.8678 0.0011
# 2 12.3460 173.5312 52.6474 0.0000 17.1190 0.0004
# 3 -0.4282 52.6474 98.3050 -0.0032 8.6607 0.0002
# 4 -0.0002 0.0000 -0.0032 35.7386 0.0000 -4.0996
# 5 2.8678 17.1190 8.6607 0.0000 10.3646 -0.0003
# 6 0.0011 0.0004 0.0002 -4.0996 -0.0003 12.8515
#
#
#
# Elastic Compliance Matrix: (Units=1/GPa)
#
#
# Indices 1 2 3 4 5 6 
#
# 1 0.025711 -0.001752 0.001535 0.000000 -0.005503 -0.000002
# 2 -0.001752 0.007865 -0.003366 0.000000 -0.009693 0.000000
# 3 0.001535 -0.003366 0.012445 0.000001 -0.005265 0.000000
# 4 0.000000 0.000000 0.000001 0.029044 0.000000 0.009265
# 5 -0.005503 -0.009693 -0.005265 0.000000 0.118413 0.000004
# 6 -0.000002 0.000000 0.000000 0.009265 0.000004 0.080768
#
#
# Mechanical properties :
#
#
# Convention : Reuss Voigt Hill
#
# Bulk Modulus (GPa) = 25.73602 49.03788 37.38695
# Shear Modulus (GPa) = 16.98584 28.30063 22.64324
#
# Velocity S-wave (km/s) = 2.61519 3.37565 3.01946
# Velocity P-wave (km/s) = 4.41377 5.91085 5.21630
#
# Compressibility (1/GPa) = 0.03885605
#
# Stress axis : x y z
#
# Youngs Moduli (GPa) = 38.89356 127.15247 80.35082
#
# Poissons Ratio (x) = 0.22279 -0.12335
# Poissons Ratio (y) = 0.06815 0.27043
# Poissons Ratio (z) = -0.05971 0.42794
#
# Static dielectric constant tensor:
#      x y z
#    x 2.028670 0.000000 -0.042560 
#    y 0.000000 2.055980 0.000000 
#    z -0.042560 0.000000 2.124350 
# 
# From -- ./inp_files/60646.got.cif
#   From: 2010.05.17/outbox.cif.g08.bks.cpg/sg5_31_cif.got.tgz:60646.got - 2010.06.03 18:56:24.
