data_PCOD9121691
_publ_section_title
;
Structure prediction by ZEFSAII (Michael W. Deem and Ramdas Pophale) SiO2 
 PCOD9121691
Probable space group: C 2
;
_chemical_formula_sum "Si O2"
_cell_formula_units_Z 26
_cell_length_a 7.553213
_cell_length_b 20.754535
_cell_length_c 8.228803
_cell_angle_alpha 90.000000
_cell_angle_beta 61.010330
_cell_angle_gamma 90.000000
_cell_volume 1128.350581
_symmetry_space_group_name_H-M "C 2"
_symmetry_group_IT_number 5
_symmetry_cell_setting 'monoclinic'
loop_
_space_group_symop_operation_xyz
x,y,z
-x,y,-z
1/2+x,1/2+y,z
1/2-x,1/2+y,-z
loop_
_atom_site_type_symbol
_atom_site_label
_atom_site_fract_x
_atom_site_fract_y
_atom_site_fract_z
Si Si1 0.297497 0.650070 0.454116
Si Si2 0.129070 0.082551 0.114075
Si Si3 0.294087 0.300917 0.984548
Si Si4 0.500000 0.380691 0.500000
Si Si5 0.114508 0.939386 0.123383
Si Si6 0.088285 0.666405 0.204543
Si Si7 0.903817 0.297758 0.380288
O O1 0.490568 0.606442 0.325580
O O2 0.185879 0.645814 0.330724
O O3 0.342280 0.725573 0.453121
O O4 0.138359 0.640637 0.669402
O O5 0.207241 0.009968 0.103940
O O6 0.300408 0.133551 0.994417
O O7 0.000000 0.081411 0.000000
O O8 0.086665 0.287180 0.171537
O O9 0.500000 0.304437 0.000000
O O10 0.257409 0.373803 0.941272
O O11 0.358742 0.242528 0.837099
O O12 0.487465 0.424140 0.343030
O O13 0.703810 0.336879 0.416444
O O14 0.000000 0.941783 0.000000
O O15 0.000000 0.329157 0.500000
#
# Coordination Sequence:
#
# PCOD9121691 Si02
#       7
#     4   4   4   2   4   4   4
#     4  10  19  35  63  96 134 177 228 290 358 419
#     4   9  19  38  63  92 136 186 230 292 357 422
#     4  11  22  39  66  96 135 184 230 295 358 411
#     4  12  26  46  72 106 142 188 244 296 362 436
#     4  10  22  44  67  97 143 187 236 295 358 428
#     4  10  19  36  62  98 131 178 237 287 353 425
#     4  12  24  42  69 107 141 182 241 304 359 427
#
# _framework density 23.042483000000001
#
# number of rings (size 3 to 8) (size 9 to 14) (size 15 to 20)
#    0.000    1.538    1.538    5.538    0.000    1.846 
#    4.154    0.000    3.385    0.000    0.000    0.000 
#    0.000    0.000    0.000    0.000    0.000    0.000 
#
# Total GULP energy -72473.249394 kJ/mol
# GULP energy per Si atom -5574.865338 kJ/mol
# Density = 2.299004 g / cm^3
# Si number density = 23.042483 Si / 1000 Ang^3
#
#
#
# Elastic Constant Matrix: (Units=GPa)
#
#
# Indices 1 2 3 4 5 6 
#
# 1 109.6233 12.0456 41.8452 0.0000 -3.0491 0.0000
# 2 12.0456 117.3333 34.9701 0.0000 -10.9662 0.0000
# 3 41.8452 34.9701 150.1437 0.0000 -4.0184 0.0000
# 4 0.0000 0.0000 0.0000 32.9374 0.0000 -6.5504
# 5 -3.0491 -10.9662 -4.0184 0.0000 37.2068 0.0000
# 6 0.0000 0.0000 0.0000 -6.5504 0.0000 5.8302
#
#
#
# Elastic Compliance Matrix: (Units=1/GPa)
#
#
# Indices 1 2 3 4 5 6 
#
# 1 0.010222 -0.000171 -0.002796 0.000000 0.000485 0.000000
# 2 -0.000171 0.009395 -0.002073 0.000000 0.002531 0.000000
# 3 -0.002796 -0.002073 0.007923 0.000000 0.000016 0.000000
# 4 0.000000 0.000000 0.000000 0.039096 0.000000 0.043926
# 5 0.000485 0.002531 0.000016 0.000000 0.027664 0.000000
# 6 0.000000 0.000000 0.000000 0.043926 0.000000 0.220873
#
#
# Mechanical properties :
#
#
# Convention : Reuss Voigt Hill
#
# Bulk Modulus (GPa) = 57.27382 61.64692 59.46037
# Shear Modulus (GPa) = 15.10247 34.41083 24.75665
#
# Velocity S-wave (km/s) = 2.56289 3.86860 3.28135
# Velocity P-wave (km/s) = 5.80238 6.83860 6.34169
#
# Compressibility (1/GPa) = 0.01745998
#
# Stress axis : x y z
#
# Youngs Moduli (GPa) = 97.83098 106.44428 126.21881
#
# Poissons Ratio (x) = 0.01817 0.35292
# Poissons Ratio (y) = 0.01670 0.26163
# Poissons Ratio (z) = 0.27354 0.22064
#
# Static dielectric constant tensor:
#      x y z
#    x 2.008940 0.000000 0.055200 
#    y 0.000000 1.818020 0.000000 
#    z 0.055200 0.000000 1.939770 
# 
# From -- ./inp_files/16983.got.cif
#   From: 2010.05.17/outbox.cif.g08.bks.cpg/sg5_9_cif.got.tgz:16983.got - 2010.06.03 18:56:24.
