data_PCOD9121671
_publ_section_title
;
Structure prediction by ZEFSAII (Michael W. Deem and Ramdas Pophale) SiO2 
 PCOD9121671
Probable space group: C 2
;
_chemical_formula_sum "Si O2"
_cell_formula_units_Z 28
_cell_length_a 38.461228
_cell_length_b 7.324661
_cell_length_c 5.297463
_cell_angle_alpha 90.000000
_cell_angle_beta 123.910389
_cell_angle_gamma 90.000000
_cell_volume 1238.540470
_symmetry_space_group_name_H-M "C 2"
_symmetry_group_IT_number 5
_symmetry_cell_setting 'monoclinic'
loop_
_space_group_symop_operation_xyz
x,y,z
-x,y,-z
1/2+x,1/2+y,z
1/2-x,1/2+y,-z
loop_
_atom_site_type_symbol
_atom_site_label
_atom_site_fract_x
_atom_site_fract_y
_atom_site_fract_z
Si Si1 0.295756 0.689000 0.903673
Si Si2 0.379333 0.152562 0.371268
Si Si3 0.523704 0.084445 0.344662
Si Si4 0.118239 0.025804 0.789669
Si Si5 0.772119 0.966385 0.310089
Si Si6 0.476618 0.645302 0.653854
Si Si7 0.848625 0.716091 0.742253
O O1 0.196392 0.795115 0.514301
O O2 0.273877 0.880674 0.866990
O O3 0.346070 0.676858 0.086612
O O4 0.282284 0.560279 0.084843
O O5 0.372476 0.370654 0.380431
O O6 0.367823 0.087654 0.602535
O O7 0.427247 0.127907 0.482104
O O8 0.350573 0.108468 0.015771
O O9 0.500000 0.149551 0.500000
O O10 0.520850 0.864893 0.334675
O O11 0.500000 0.151841 0.000000
O O12 0.071825 0.094743 0.563226
O O13 0.124716 0.898410 0.064625
O O14 0.779492 0.104062 0.573069
O O15 0.500000 0.577596 0.500000
O O16 0.500000 0.580175 0.000000
#
# Coordination Sequence:
#
# PCOD9121671 Si02
#       7
#     4   4   4   4   4   4   4
#     4  11  23  41  66  91 131 161 210 256 313 368
#     4  10  19  35  62  77 114 152 192 243 295 350
#     4  10  21  38  55  82 117 153 193 248 301 358
#     4   9  22  38  61  85 118 154 200 247 294 350
#     4  11  21  42  63  91 126 167 197 259 312 366
#     4  10  23  38  58  83 122 156 193 246 303 355
#     4   9  19  36  57  83 114 151 187 249 288 345
#
# _framework density 22.607256
#
# number of rings (size 3 to 8) (size 9 to 14) (size 15 to 20)
#    0.857    1.143    1.429    1.714    2.000    1.143 
#    5.143    0.000    0.000    0.000    0.000    0.000 
#    0.000    0.000    0.000    0.000    0.000    0.000 
#
# Total GULP energy -78115.274116 kJ/mol
# GULP energy per Si atom -5579.662437 kJ/mol
# Density = 2.255580 g / cm^3
# Si number density = 22.607256 Si / 1000 Ang^3
#
#
#
# Elastic Constant Matrix: (Units=GPa)
#
#
# Indices 1 2 3 4 5 6 
#
# 1 128.8318 16.1479 65.2736 0.0000 -7.3890 0.0000
# 2 16.1479 44.4520 11.3612 0.0000 0.5800 0.0000
# 3 65.2736 11.3612 114.3959 0.0000 -11.2267 0.0000
# 4 0.0000 0.0000 0.0000 -358.8110 0.0000 467.6521
# 5 -7.3890 0.5800 -11.2267 0.0000 51.2773 0.0000
# 6 0.0000 0.0000 0.0000 467.6521 0.0000 -544.8361
#
#
#
# Elastic Compliance Matrix: (Units=1/GPa)
#
#
# Indices 1 2 3 4 5 6 
#
# 1 0.011186 -0.002508 -0.006104 0.000000 0.000304 0.000000
# 2 -0.002508 0.023675 -0.001004 0.000000 -0.000849 0.000000
# 3 -0.006104 -0.001004 0.012508 0.000000 0.001870 0.000000
# 4 0.000000 0.000000 0.000000 0.023479 0.000000 0.020153
# 5 0.000304 -0.000849 0.001870 0.000000 0.019965 0.000000
# 6 0.000000 0.000000 0.000000 0.020153 0.000000 0.015462
#
#
# Mechanical properties :
#
#
# Convention : Reuss Voigt Hill
#
# Bulk Modulus (GPa) = 35.53892 52.58280 44.06086
# Shear Modulus (GPa) = 37.06856 -157.48083 -60.20613
#
# Velocity S-wave (km/s) = 4.05368 -8.35528 -5.16615
# Velocity P-wave (km/s) = 6.13711 8.35291 4.00668
#
# Compressibility (1/GPa) = 0.02813816
#
# Stress axis : x y z
#
# Youngs Moduli (GPa) = 89.39378 42.23920 79.95045
#
# Poissons Ratio (x) = 0.10592 0.48802
# Poissons Ratio (y) = 0.22416 0.08025
# Poissons Ratio (z) = 0.54567 0.04240
#
# Static dielectric constant tensor:
#      x y z
#    x 2.464110 0.000000 0.647740 
#    y 0.000000 1.852990 0.000000 
#    z 0.647740 0.000000 2.668850 
# 
# From -- ./inp_files/11285.got.cif
#   From: 2010.05.17/outbox.cif.g08.bks.cpg/sg5_6_cif.got.tgz:11285.got - 2010.06.03 18:56:24.
