data_PCOD9121371
_publ_section_title
;
Structure prediction by ZEFSAII (Michael W. Deem and Ramdas Pophale) SiO2 
 PCOD9121371
Probable space group: C 2
;
_chemical_formula_sum "Si O2"
_cell_formula_units_Z 28
_cell_length_a 16.737738
_cell_length_b 17.841820
_cell_length_c 5.096490
_cell_angle_alpha 90.000000
_cell_angle_beta 106.800887
_cell_angle_gamma 90.000000
_cell_volume 1457.008112
_symmetry_space_group_name_H-M "C 2"
_symmetry_group_IT_number 5
_symmetry_cell_setting 'monoclinic'
loop_
_space_group_symop_operation_xyz
x,y,z
-x,y,-z
1/2+x,1/2+y,z
1/2-x,1/2+y,-z
loop_
_atom_site_type_symbol
_atom_site_label
_atom_site_fract_x
_atom_site_fract_y
_atom_site_fract_z
Si Si1 0.093385 0.333010 0.479515
Si Si2 0.854742 0.723732 0.230534
Si Si3 0.771474 0.958636 0.127476
Si Si4 0.558774 0.382623 0.804496
Si Si5 0.681842 0.995709 0.540918
Si Si6 0.816615 0.295386 0.936310
Si Si7 0.591186 0.137278 0.213430
O O1 0.130157 0.417812 0.503185
O O2 0.110572 0.299163 0.209734
O O3 0.000000 0.335611 0.500000
O O4 0.147078 0.285669 0.739841
O O5 0.898514 0.800572 0.176961
O O6 0.758530 0.740476 0.208216
O O7 0.901858 0.694403 0.534707
O O8 0.857092 0.668224 0.984964
O O9 0.865545 0.941950 0.130758
O O10 0.757706 0.988723 0.406142
O O11 0.726241 0.877506 0.095249
O O12 0.720919 0.006457 0.864979
O O13 0.500000 0.393435 0.500000
O O14 0.500000 0.386658 0.000000
O O15 0.623588 0.060435 0.371303
O O16 0.500000 0.129346 0.000000
#
# Coordination Sequence:
#
# PCOD9121371 Si02
#       7
#     4   4   4   4   4   4   4
#     4  10  19  33  55  82 107 135 174 227 274 309
#     4  11  22  37  53  78 115 148 178 213 259 324
#     4   9  19  35  53  75 106 141 179 219 267 317
#     4  11  20  33  56  84 110 138 175 228 275 310
#     4  10  21  36  52  76 111 146 176 212 259 322
#     4   9  19  34  53  76 106 141 177 218 269 318
#     4  12  24  36  54  81 111 149 183 209 251 318
#
# _framework density 19.217462999999999
#
# number of rings (size 3 to 8) (size 9 to 14) (size 15 to 20)
#    0.000    1.714    0.000    5.571    0.000    9.143 
#    0.000    0.000    0.000    0.000    0.000   35.000 
#    0.000    0.000    0.000    0.000    0.000    0.000 
#
# Total GULP energy -78137.017685 kJ/mol
# GULP energy per Si atom -5581.215549 kJ/mol
# Density = 1.917372 g / cm^3
# Si number density = 19.217463 Si / 1000 Ang^3
#
#
#
# Elastic Constant Matrix: (Units=GPa)
#
#
# Indices 1 2 3 4 5 6 
#
# 1 137.1927 29.2904 39.3481 0.0000 -11.5245 0.0000
# 2 29.2904 40.8710 26.2868 0.0000 6.0333 0.0000
# 3 39.3481 26.2868 111.7217 0.0000 -10.0214 0.0000
# 4 0.0000 0.0000 0.0000 28.8105 0.0000 2.6133
# 5 -11.5245 6.0333 -10.0214 0.0000 34.5860 0.0000
# 6 0.0000 0.0000 0.0000 2.6133 0.0000 18.8536
#
#
#
# Elastic Compliance Matrix: (Units=1/GPa)
#
#
# Indices 1 2 3 4 5 6 
#
# 1 0.009385 -0.006341 -0.001472 0.000000 0.003807 0.000000
# 2 -0.006341 0.034963 -0.006909 0.000000 -0.010214 0.000000
# 3 -0.001472 -0.006909 0.011457 0.000000 0.004034 0.000000
# 4 0.000000 0.000000 0.000000 0.035152 0.000000 -0.004872
# 5 0.003807 -0.010214 0.004034 0.000000 0.033133 0.000000
# 6 0.000000 0.000000 0.000000 -0.004872 0.000000 0.053716
#
#
# Mechanical properties :
#
#
# Convention : Reuss Voigt Hill
#
# Bulk Modulus (GPa) = 37.93576 53.29289 45.61433
# Shear Modulus (GPa) = 23.14434 29.44067 26.29251
#
# Velocity S-wave (km/s) = 3.47412 3.91829 3.70287
# Velocity P-wave (km/s) = 5.98964 6.94711 6.48607
#
# Compressibility (1/GPa) = 0.02636035
#
# Stress axis : x y z
#
# Youngs Moduli (GPa) = 106.55627 28.60162 87.28457
#
# Poissons Ratio (x) = 0.18136 0.12847
# Poissons Ratio (y) = 0.67566 0.60308
# Poissons Ratio (z) = 0.15684 0.19762
#
# Static dielectric constant tensor:
#      x y z
#    x 1.666280 0.000000 -0.001160 
#    y 0.000000 1.681450 0.000000 
#    z -0.001160 0.000000 1.651450 
# 
# From -- ./inp_files/7221.got.cif
#   From: 2010.05.17/outbox.cif.g08.bks.cpg/sg5_4_cif.got.tgz:7221.got - 2010.06.03 18:56:24.
