data_PCOD9121248
_publ_section_title
;
Structure prediction by ZEFSAII (Michael W. Deem and Ramdas Pophale) SiO2 
 PCOD9121248
Probable space group: C 2
;
_chemical_formula_sum "Si O2"
_cell_formula_units_Z 20
_cell_length_a 23.063122
_cell_length_b 5.247468
_cell_length_c 6.767511
_cell_angle_alpha 90.000000
_cell_angle_beta 101.707937
_cell_angle_gamma 90.000000
_cell_volume 801.984406
_symmetry_space_group_name_H-M "C 2"
_symmetry_group_IT_number 5
_symmetry_cell_setting 'monoclinic'
loop_
_space_group_symop_operation_xyz
x,y,z
-x,y,-z
1/2+x,1/2+y,z
1/2-x,1/2+y,-z
loop_
_atom_site_type_symbol
_atom_site_label
_atom_site_fract_x
_atom_site_fract_y
_atom_site_fract_z
Si Si1 0.068757 0.492620 0.490698
Si Si2 0.628695 0.485307 0.456637
Si Si3 0.780568 0.967450 0.778594
Si Si4 0.326009 0.966575 0.037507
Si Si5 0.432848 0.776558 0.916295
O O1 0.105414 0.234863 0.551428
O O2 0.000000 0.482058 0.500000
O O3 0.067649 0.493953 0.250593
O O4 0.103636 0.749588 0.562177
O O5 0.803480 0.955181 0.567836
O O6 0.597859 0.541996 0.220678
O O7 0.799192 0.241400 0.880158
O O8 0.810692 0.734936 0.922145
O O9 0.711442 0.948167 0.786510
O O10 0.395418 0.896929 0.068301
O O11 0.500000 0.706938 0.000000
#
# Coordination Sequence:
#
# PCOD9121248 Si02
#       5
#     4   4   4   4   4
#     4  10  19  31  46  66  91 123 156 185 219 264
#     4   9  17  30  45  67  89 119 152 185 226 258
#     4   9  14  27  42  63  90 111 150 188 220 259
#     4   9  16  25  42  64  90 118 143 180 230 260
#     4   9  19  31  45  70  99 121 143 184 230 281
#
# _framework density 24.938140000000001
#
# number of rings (size 3 to 8) (size 9 to 14) (size 15 to 20)
#    1.200    1.600    2.000    0.600    0.000    0.800 
#    0.000    0.000    0.000    0.000    0.000    2.800 
#    0.000    0.000    0.000    0.000    0.000    0.000 
#
# Total GULP energy -55733.320930 kJ/mol
# GULP energy per Si atom -5573.332093 kJ/mol
# Density = 2.488138 g / cm^3
# Si number density = 24.938140 Si / 1000 Ang^3
#
#
#
# Elastic Constant Matrix: (Units=GPa)
#
#
# Indices 1 2 3 4 5 6 
#
# 1 228.3041 72.4096 20.0103 0.0000 -22.8512 0.0000
# 2 72.4096 177.1522 17.0646 0.0000 -14.6611 0.0000
# 3 20.0103 17.0646 28.3789 0.0000 -3.6258 0.0000
# 4 0.0000 0.0000 0.0000 17.6096 0.0000 -9.6081
# 5 -22.8512 -14.6611 -3.6258 0.0000 44.2331 0.0000
# 6 0.0000 0.0000 0.0000 -9.6081 0.0000 29.4138
#
#
#
# Elastic Compliance Matrix: (Units=1/GPa)
#
#
# Indices 1 2 3 4 5 6 
#
# 1 0.005361 -0.001792 -0.002450 0.000000 0.001975 0.000000
# 2 -0.001792 0.006721 -0.002640 0.000000 0.001086 0.000000
# 3 -0.002450 -0.002640 0.038684 0.000000 0.001030 0.000000
# 4 0.000000 0.000000 0.000000 0.069103 0.000000 0.022573
# 5 0.001975 0.001086 0.001030 0.000000 0.024072 0.000000
# 6 0.000000 0.000000 0.000000 0.022573 0.000000 0.041371
#
#
# Mechanical properties :
#
#
# Convention : Reuss Voigt Hill
#
# Bulk Modulus (GPa) = 27.02479 72.53382 49.77931
# Shear Modulus (GPa) = 23.65078 39.87470 31.76274
#
# Velocity S-wave (km/s) = 3.08292 4.00302 3.57271
# Velocity P-wave (km/s) = 4.85106 7.10733 6.08469
#
# Compressibility (1/GPa) = 0.03700306
#
# Stress axis : x y z
#
# Youngs Moduli (GPa) = 186.53908 148.77987 25.85048
#
# Poissons Ratio (x) = 0.26657 0.06334
# Poissons Ratio (y) = 0.33423 0.06823
# Poissons Ratio (z) = 0.45707 0.39271
#
# Static dielectric constant tensor:
#      x y z
#    x 2.102120 0.000000 0.045200 
#    y 0.000000 1.957150 0.000000 
#    z 0.045200 0.000000 2.043140 
# 
# From -- ./inp_files/28392.got.cif
#   From: 2010.05.17/outbox.cif.g08.bks.cpg/sg5_15_cif.got.tgz:28392.got - 2010.06.03 18:56:24.
