data_PCOD9121490
_publ_section_title
;
Structure prediction by ZEFSAII (Michael W. Deem and Ramdas Pophale) SiO2 
 PCOD9121490
Probable space group: C 2
;
_chemical_formula_sum "Si O2"
_cell_formula_units_Z 32
_cell_length_a 10.379083
_cell_length_b 21.801519
_cell_length_c 11.023918
_cell_angle_alpha 90.000000
_cell_angle_beta 136.695429
_cell_angle_gamma 90.000000
_cell_volume 1710.911636
_symmetry_space_group_name_H-M "C 2"
_symmetry_group_IT_number 5
_symmetry_cell_setting 'monoclinic'
loop_
_space_group_symop_operation_xyz
x,y,z
-x,y,-z
1/2+x,1/2+y,z
1/2-x,1/2+y,-z
loop_
_atom_site_type_symbol
_atom_site_label
_atom_site_fract_x
_atom_site_fract_y
_atom_site_fract_z
Si Si1 0.742913 0.254470 0.907434
Si Si2 0.430217 0.172040 0.814697
Si Si3 0.690614 0.779603 0.570673
Si Si4 0.464958 0.361785 0.121606
Si Si5 0.717380 0.585757 0.334286
Si Si6 0.964273 0.560011 0.272633
Si Si7 0.394720 0.498786 0.057671
Si Si8 0.649413 0.726412 0.282005
O O1 0.577904 0.211298 0.838935
O O2 0.704896 0.319631 0.945443
O O3 0.742826 0.253027 0.761510
O O4 0.935302 0.226254 0.089276
O O5 0.246708 0.214895 0.675330
O O6 0.444792 0.105847 0.762918
O O7 0.500000 0.169462 0.000000
O O8 0.500000 0.801992 0.500000
O O9 0.668983 0.766513 0.414435
O O10 0.851089 0.829778 0.698675
O O11 0.431992 0.431783 0.137388
O O12 0.500000 0.357927 0.000000
O O13 0.810256 0.587092 0.263095
O O14 0.512595 0.554288 0.198874
O O15 0.709659 0.657559 0.359873
O O16 0.859600 0.547268 0.517376
O O17 0.827101 0.511671 0.111847
O O18 0.500000 0.495121 0.000000
#
# Coordination Sequence:
#
# PCOD9121490 Si02
#       8
#     4   4   4   4   4   4   4   4
#     4  10  21  34  58  85 116 160 187 249 300 361
#     4  11  20  33  54  80 118 157 189 231 309 361
#     4  11  22  36  55  87 121 151 190 251 295 360
#     4  10  21  40  56  81 120 159 208 235 298 362
#     4  10  19  34  58  93 115 142 201 247 299 360
#     4  10  19  34  57  84 116 148 189 249 295 350
#     4   9  20  37  59  84 114 159 197 253 294 346
#     4  11  20  34  59  93 120 144 199 246 312 360
#
# _framework density 18.703479000000002
#
# number of rings (size 3 to 8) (size 9 to 14) (size 15 to 20)
#    0.000    1.750    2.500    3.750    3.500    2.000 
#    9.000    0.000    2.750    1.500    0.000    0.000 
#    0.000    0.000    0.000    0.000    0.000    0.000 
#
# Total GULP energy -89125.838234 kJ/mol
# GULP energy per Si atom -5570.364890 kJ/mol
# Density = 1.866091 g / cm^3
# Si number density = 18.703479 Si / 1000 Ang^3
#
#
#
# Elastic Constant Matrix: (Units=GPa)
#
#
# Indices 1 2 3 4 5 6 
#
# 1 37.6856 9.2386 18.5273 0.0000 0.3126 0.0000
# 2 9.2386 71.7233 19.3835 0.0000 2.6936 0.0000
# 3 18.5273 19.3835 87.6824 0.0000 -5.8745 0.0000
# 4 0.0000 0.0000 0.0000 8.2635 0.0000 4.9226
# 5 0.3126 2.6936 -5.8745 0.0000 30.5724 0.0000
# 6 0.0000 0.0000 0.0000 4.9226 0.0000 9.4824
#
#
#
# Elastic Compliance Matrix: (Units=1/GPa)
#
#
# Indices 1 2 3 4 5 6 
#
# 1 0.030006 -0.002214 -0.005935 0.000000 -0.001252 0.000000
# 2 -0.002214 0.015109 -0.002998 0.000000 -0.001885 0.000000
# 3 -0.005935 -0.002998 0.013517 0.000000 0.002922 0.000000
# 4 0.000000 0.000000 0.000000 0.175193 0.000000 -0.090948
# 5 -0.001252 -0.001885 0.002922 0.000000 0.033450 0.000000
# 6 0.000000 0.000000 0.000000 -0.090948 0.000000 0.152672
#
#
# Mechanical properties :
#
#
# Convention : Reuss Voigt Hill
#
# Bulk Modulus (GPa) = 27.51957 32.37668 29.94813
# Shear Modulus (GPa) = 11.00464 19.65979 15.33221
#
# Velocity S-wave (km/s) = 2.42827 3.24563 2.86624
# Velocity P-wave (km/s) = 4.75474 5.60300 5.19621
#
# Compressibility (1/GPa) = 0.03633778
#
# Stress axis : x y z
#
# Youngs Moduli (GPa) = 33.32640 66.18664 73.97854
#
# Poissons Ratio (x) = 0.14655 0.43904
# Poissons Ratio (y) = 0.07379 0.22182
# Poissons Ratio (z) = 0.19778 0.19846
#
# Static dielectric constant tensor:
#      x y z
#    x 1.650890 0.000000 0.015990 
#    y 0.000000 1.670270 0.000000 
#    z 0.015990 0.000000 1.700250 
# 
# From -- ./inp_files/40648.got.cif
#   From: 2010.05.17/outbox.cif.g08.bks.cpg/sg5_21_cif.got.tgz:40648.got - 2010.06.03 18:56:24.
