data_PCOD9121064
_publ_section_title
;
Structure prediction by ZEFSAII (Michael W. Deem and Ramdas Pophale) SiO2 
 PCOD9121064
Probable space group: C 2
;
_chemical_formula_sum "Si O2"
_cell_formula_units_Z 18
_cell_length_a 12.653880
_cell_length_b 7.186661
_cell_length_c 10.156138
_cell_angle_alpha 90.000000
_cell_angle_beta 61.909160
_cell_angle_gamma 90.000000
_cell_volume 814.793544
_symmetry_space_group_name_H-M "C 2"
_symmetry_group_IT_number 5
_symmetry_cell_setting 'monoclinic'
loop_
_space_group_symop_operation_xyz
x,y,z
-x,y,-z
1/2+x,1/2+y,z
1/2-x,1/2+y,-z
loop_
_atom_site_type_symbol
_atom_site_label
_atom_site_fract_x
_atom_site_fract_y
_atom_site_fract_z
Si Si1 0.347965 0.521880 0.031412
Si Si2 0.747667 0.651281 0.176856
Si Si3 0.508023 0.624104 0.711218
Si Si4 0.734452 0.781314 0.687465
Si Si5 0.000000 0.807566 0.500000
O O1 0.336295 0.321450 0.105737
O O2 0.305498 0.677400 0.156739
O O3 0.257815 0.535912 0.957475
O O4 0.470607 0.565230 0.881623
O O5 0.611203 0.731032 0.268393
O O6 0.767522 0.501851 0.279849
O O7 0.633752 0.727571 0.640435
O O8 0.509082 0.440955 0.622084
O O9 0.869784 0.714583 0.580007
#
# Coordination Sequence:
#
# PCOD9121064 Si02
#       5
#     4   4   4   4   2
#     4  10  18  38  66 100 127 168 219 277 315 383
#     4   9  18  36  65  91 133 164 208 275 322 364
#     4   9  21  41  66  91 134 169 219 270 318 391
#     4  11  21  42  66  95 133 175 218 267 327 393
#     4  10  22  46  64  94 142 168 214 278 320 390
#
# _framework density 22.091484000000001
#
# number of rings (size 3 to 8) (size 9 to 14) (size 15 to 20)
#    1.333    0.889    2.222    0.667    0.000    0.000 
#   12.000   12.222    0.000    0.000    0.000    0.000 
#    0.000    0.000    0.000    0.000    0.000    0.000 
#
# Total GULP energy -50124.556357 kJ/mol
# GULP energy per Si atom -5569.395151 kJ/mol
# Density = 2.204120 g / cm^3
# Si number density = 22.091484 Si / 1000 Ang^3
#
#
#
# Elastic Constant Matrix: (Units=GPa)
#
#
# Indices 1 2 3 4 5 6 
#
# 1 98.2462 26.5751 32.0210 0.0000 -42.5264 0.0000
# 2 26.5751 56.7383 7.0070 0.0000 -22.5648 0.0000
# 3 32.0210 7.0070 93.0195 0.0000 -26.2168 0.0000
# 4 0.0000 0.0000 0.0000 14.7464 0.0000 -12.9389
# 5 -42.5264 -22.5648 -26.2168 0.0000 38.4965 0.0000
# 6 0.0000 0.0000 0.0000 -12.9389 0.0000 24.5876
#
#
#
# Elastic Compliance Matrix: (Units=1/GPa)
#
#
# Indices 1 2 3 4 5 6 
#
# 1 0.019588 -0.000915 -0.000899 0.000000 0.020491 0.000000
# 2 -0.000915 0.023527 0.002654 0.000000 0.014587 0.000000
# 3 -0.000899 0.002654 0.013636 0.000000 0.009849 0.000000
# 4 0.000000 0.000000 0.000000 0.125983 0.000000 0.066297
# 5 0.020491 0.014587 0.009849 0.000000 0.063869 0.000000
# 6 0.000000 0.000000 0.000000 0.066297 0.000000 0.075559
#
#
# Mechanical properties :
#
#
# Convention : Reuss Voigt Hill
#
# Bulk Modulus (GPa) = 17.11415 42.13447 29.62431
# Shear Modulus (GPa) = 14.70764 27.72615 21.21690
#
# Velocity S-wave (km/s) = 2.58303 3.54653 3.10241
# Velocity P-wave (km/s) = 4.08165 5.99038 5.12564
#
# Compressibility (1/GPa) = 0.05843118
#
# Stress axis : x y z
#
# Youngs Moduli (GPa) = 51.05048 42.50474 73.33653
#
# Poissons Ratio (x) = 0.03888 0.06594
# Poissons Ratio (y) = 0.04670 -0.19463
# Poissons Ratio (z) = 0.04590 -0.11280
#
# Static dielectric constant tensor:
#      x y z
#    x 1.972470 0.000000 -0.020220 
#    y 0.000000 1.790040 0.000000 
#    z -0.020220 0.000000 1.849960 
# 
# From -- ./inp_files/41239.got.cif
#   From: 2010.05.17/outbox.cif.g08.bks.cpg/sg5_21_cif.got.tgz:41239.got - 2010.06.03 18:56:24.
