data_PCOD9121084
_publ_section_title
;
Structure prediction by ZEFSAII (Michael W. Deem and Ramdas Pophale) SiO2 
 PCOD9121084
Probable space group: C 2
;
_chemical_formula_sum "Si O2"
_cell_formula_units_Z 26
_cell_length_a 23.923068
_cell_length_b 7.859862
_cell_length_c 8.473192
_cell_angle_alpha 90.000000
_cell_angle_beta 139.844541
_cell_angle_gamma 90.000000
_cell_volume 1027.417107
_symmetry_space_group_name_H-M "C 2"
_symmetry_group_IT_number 5
_symmetry_cell_setting 'monoclinic'
loop_
_space_group_symop_operation_xyz
x,y,z
-x,y,-z
1/2+x,1/2+y,z
1/2-x,1/2+y,-z
loop_
_atom_site_type_symbol
_atom_site_label
_atom_site_fract_x
_atom_site_fract_y
_atom_site_fract_z
Si Si1 0.719363 0.201170 0.401557
Si Si2 0.546234 0.386525 0.939937
Si Si3 0.998597 0.486131 0.186304
Si Si4 0.686495 0.931493 0.580741
Si Si5 0.500000 0.450400 0.500000
Si Si6 0.325663 0.949097 0.970828
Si Si7 0.188741 0.791406 0.882039
O O1 0.644642 0.341373 0.205003
O O2 0.808190 0.291974 0.549046
O O3 0.712646 0.048836 0.261367
O O4 0.700808 0.110565 0.525293
O O5 0.513557 0.192274 0.826851
O O6 0.529743 0.498575 0.747388
O O7 0.500000 0.447323 0.000000
O O8 0.091409 0.428522 0.447697
O O9 0.000000 0.454763 0.000000
O O10 0.921412 0.403027 0.119639
O O11 0.760163 0.877712 0.861668
O O12 0.594439 0.371972 0.656226
O O13 0.258573 0.814891 0.894631
O O14 0.328764 0.098726 0.107249
#
# Coordination Sequence:
#
# PCOD9121084 Si02
#       7
#     4   4   4   4   2   4   4
#     4  10  21  40  63  99 138 167 236 282 344 409
#     4  10  19  37  66 100 121 179 234 282 326 403
#     4  10  18  38  68  96 127 173 235 280 329 414
#     4  11  21  39  68 101 135 174 230 287 341 411
#     4  12  22  44  64  98 144 176 240 280 338 430
#     4  10  22  44  62 104 129 178 227 284 345 407
#     4  11  26  40  68 100 138 179 234 283 350 407
#
# _framework density 25.306177999999999
#
# number of rings (size 3 to 8) (size 9 to 14) (size 15 to 20)
#    0.000    1.538    9.231    0.000    2.154    3.077 
#    0.000    3.077    0.000    0.000    0.000    0.000 
#    0.000    0.000    0.000    0.000    0.000    0.000 
#
# Total GULP energy -72522.149877 kJ/mol
# GULP energy per Si atom -5578.626914 kJ/mol
# Density = 2.524858 g / cm^3
# Si number density = 25.306178 Si / 1000 Ang^3
#
#
#
# Elastic Constant Matrix: (Units=GPa)
#
#
# Indices 1 2 3 4 5 6 
#
# 1 217.3518 49.7638 63.9324 0.0000 23.2444 0.0000
# 2 49.7638 38.7799 39.7631 0.0000 3.5961 0.0000
# 3 63.9324 39.7631 131.1275 0.0000 20.9876 0.0000
# 4 0.0000 0.0000 0.0000 14.2930 0.0000 -6.5773
# 5 23.2444 3.5961 20.9876 0.0000 50.6250 0.0000
# 6 0.0000 0.0000 0.0000 -6.5773 0.0000 40.4745
#
#
#
# Elastic Compliance Matrix: (Units=1/GPa)
#
#
# Indices 1 2 3 4 5 6 
#
# 1 0.006845 -0.008025 -0.000527 0.000000 -0.002354 0.000000
# 2 -0.008025 0.047059 -0.011152 0.000000 0.004965 0.000000
# 3 -0.000527 -0.011152 0.011888 0.000000 -0.003894 0.000000
# 4 0.000000 0.000000 0.000000 0.075619 0.000000 0.012288
# 5 -0.002354 0.004965 -0.003894 0.000000 0.022096 0.000000
# 6 0.000000 0.000000 0.000000 0.012288 0.000000 0.026704
#
#
# Mechanical properties :
#
#
# Convention : Reuss Voigt Hill
#
# Bulk Modulus (GPa) = 37.90213 77.13088 57.51651
# Shear Modulus (GPa) = 20.97187 36.66516 28.81852
#
# Velocity S-wave (km/s) = 2.88188 3.81052 3.37826
# Velocity P-wave (km/s) = 5.10721 7.06437 6.16397
#
# Compressibility (1/GPa) = 0.02638374
#
# Stress axis : x y z
#
# Youngs Moduli (GPa) = 146.09167 21.24986 84.11696
#
# Poissons Ratio (x) = 0.17053 0.04433
# Poissons Ratio (y) = 1.17240 0.93809
# Poissons Ratio (z) = 0.07699 0.23698
#
# Static dielectric constant tensor:
#      x y z
#    x 2.121860 0.000000 -0.040600 
#    y 0.000000 1.995110 0.000000 
#    z -0.040600 0.000000 2.035250 
# 
# From -- ./inp_files/29554.got.cif
#   From: 2010.05.17/outbox.cif.g08.bks.cpg/sg5_15_cif.got.tgz:29554.got - 2010.06.03 18:56:24.
