data_PCOD9121950
_publ_section_title
;
Structure prediction by ZEFSAII (Michael W. Deem and Ramdas Pophale) SiO2 
 PCOD9121950
Probable space group: C 2
;
_chemical_formula_sum "Si O2"
_cell_formula_units_Z 32
_cell_length_a 17.955574
_cell_length_b 9.348111
_cell_length_c 11.880566
_cell_angle_alpha 90.000000
_cell_angle_beta 44.232603
_cell_angle_gamma 90.000000
_cell_volume 1391.072952
_symmetry_space_group_name_H-M "C 2"
_symmetry_group_IT_number 5
_symmetry_cell_setting 'monoclinic'
loop_
_space_group_symop_operation_xyz
x,y,z
-x,y,-z
1/2+x,1/2+y,z
1/2-x,1/2+y,-z
loop_
_atom_site_type_symbol
_atom_site_label
_atom_site_fract_x
_atom_site_fract_y
_atom_site_fract_z
Si Si1 0.132237 0.012790 0.708816
Si Si2 0.597658 0.220038 0.481810
Si Si3 0.436840 0.373765 0.950785
Si Si4 0.208277 0.514106 0.201711
Si Si5 0.688660 0.802966 0.391271
Si Si6 0.764702 0.997574 0.627098
Si Si7 0.446216 0.079480 0.829138
Si Si8 0.073178 0.325995 0.758259
O O1 0.083949 0.166805 0.797981
O O2 0.201578 0.890655 0.698815
O O3 0.216208 0.051714 0.521104
O O4 0.027919 0.935608 0.770478
O O5 0.500000 0.229882 0.500000
O O6 0.650710 0.372994 0.443500
O O7 0.547916 0.135136 0.642798
O O8 0.691629 0.131796 0.317224
O O9 0.424755 0.206505 0.940236
O O10 0.500000 0.400961 0.000000
O O11 0.328687 0.461839 0.051503
O O12 0.144459 0.382701 0.329188
O O13 0.151788 0.566186 0.150732
O O14 0.716668 0.642017 0.326306
O O15 0.616749 0.812461 0.581119
O O16 0.650322 0.925549 0.749055
O O17 0.468798 0.923964 0.857645
#
# Coordination Sequence:
#
# PCOD9121950 Si02
#       8
#     4   4   4   4   4   4   4   4
#     4  10  20  38  62  96 132 176 221 281 346 403
#     4  10  21  42  66  98 133 176 230 287 352 414
#     4  12  25  43  72  96 135 190 235 287 349 423
#     4  11  24  42  69  96 135 185 224 284 356 422
#     4  10  19  37  62 101 129 167 223 286 344 402
#     4  10  20  34  65  99 133 166 228 290 339 402
#     4  11  24  45  67  97 143 184 230 284 358 420
#     4  10  21  34  67  97 131 172 226 286 340 404
#
# _framework density 23.003827000000001
#
# number of rings (size 3 to 8) (size 9 to 14) (size 15 to 20)
#    0.000    1.500    3.750    1.500    3.500    1.000 
#    4.500    4.375    2.750    0.000    0.000    0.000 
#    0.000    0.000    0.000    0.000    0.000    0.000 
#
# Total GULP energy -89186.916081 kJ/mol
# GULP energy per Si atom -5574.182255 kJ/mol
# Density = 2.295147 g / cm^3
# Si number density = 23.003827 Si / 1000 Ang^3
#
#
#
# Elastic Constant Matrix: (Units=GPa)
#
#
# Indices 1 2 3 4 5 6 
#
# 1 59.4612 39.8708 26.3632 0.0000 -14.6583 0.0000
# 2 39.8708 164.8961 11.3235 0.0000 -5.1498 0.0000
# 3 26.3632 11.3235 63.9392 0.0000 -16.3458 0.0000
# 4 0.0000 0.0000 0.0000 15.7179 0.0000 -4.5002
# 5 -14.6583 -5.1498 -16.3458 0.0000 19.7674 0.0000
# 6 0.0000 0.0000 0.0000 -4.5002 0.0000 31.0961
#
#
#
# Elastic Compliance Matrix: (Units=1/GPa)
#
#
# Indices 1 2 3 4 5 6 
#
# 1 0.026714 -0.005596 -0.006761 0.000000 0.012760 0.000000
# 2 -0.005596 0.007324 0.000555 0.000000 -0.001783 0.000000
# 3 -0.006761 0.000555 0.021664 0.000000 0.013045 0.000000
# 4 0.000000 0.000000 0.000000 0.066372 0.000000 0.009605
# 5 0.012760 -0.001783 0.013045 0.000000 0.070373 0.000000
# 6 0.000000 0.000000 0.000000 0.009605 0.000000 0.033548
#
#
# Mechanical properties :
#
#
# Convention : Reuss Voigt Hill
#
# Bulk Modulus (GPa) = 31.15692 49.26795 40.21243
# Shear Modulus (GPa) = 19.20861 27.36554 23.28708
#
# Velocity S-wave (km/s) = 2.89280 3.45281 3.18514
# Velocity P-wave (km/s) = 4.97307 6.11225 5.57185
#
# Compressibility (1/GPa) = 0.03209560
#
# Stress axis : x y z
#
# Youngs Moduli (GPa) = 37.43414 136.54094 46.15868
#
# Poissons Ratio (x) = 0.76413 0.31209
# Poissons Ratio (y) = 0.20949 -0.02560
# Poissons Ratio (z) = 0.25310 -0.07572
#
# Static dielectric constant tensor:
#      x y z
#    x 1.899470 0.000000 0.072660 
#    y 0.000000 1.914280 0.000000 
#    z 0.072660 0.000000 2.067030 
# 
# From -- ./inp_files/56806.got.cif
#   From: 2010.05.17/outbox.cif.g08.bks.cpg/sg5_29_cif.got.tgz:56806.got - 2010.06.03 18:56:24.
