data_PCOD9121752
_publ_section_title
;
Structure prediction by ZEFSAII (Michael W. Deem and Ramdas Pophale) SiO2 
 PCOD9121752
Probable space group: C 2
;
_chemical_formula_sum "Si O2"
_cell_formula_units_Z 16
_cell_length_a 24.442590
_cell_length_b 4.907231
_cell_length_c 18.526751
_cell_angle_alpha 90.000000
_cell_angle_beta 15.214279
_cell_angle_gamma 90.000000
_cell_volume 583.171001
_symmetry_space_group_name_H-M "C 2"
_symmetry_group_IT_number 5
_symmetry_cell_setting 'monoclinic'
loop_
_space_group_symop_operation_xyz
x,y,z
-x,y,-z
1/2+x,1/2+y,z
1/2-x,1/2+y,-z
loop_
_atom_site_type_symbol
_atom_site_label
_atom_site_fract_x
_atom_site_fract_y
_atom_site_fract_z
Si Si1 0.515237 0.396270 0.893866
Si Si2 0.761106 0.881169 0.032022
Si Si3 0.385589 0.563512 0.580611
Si Si4 0.276335 0.394736 0.561747
O O1 0.589387 0.695317 0.777867
O O2 0.500000 0.405390 0.000000
O O3 0.300922 0.245016 0.149259
O O4 0.292405 0.198733 0.368294
O O5 0.752982 0.699312 0.968748
O O6 0.559490 0.771084 0.328827
O O7 0.996622 0.829257 0.759233
O O8 0.500000 0.404829 0.500000
O O9 0.304629 0.396400 0.613949
#
# Coordination Sequence:
#
# PCOD9121752 Si02
#       4
#     4   4   4   4
#     4  10  19  36  59  83 114 159 198 232 289 367
#     4  10  20  37  59  84 117 160 199 236 295 369
#     4  10  22  39  63  96 123 150 202 266 302 335
#     4  10  20  38  60  81 115 163 199 228 290 373
#
# _framework density 27.436208000000001
#
# number of rings (size 3 to 8) (size 9 to 14) (size 15 to 20)
#    0.000    2.000    0.000    6.750    0.000    2.000 
#    0.000   33.750    0.000    0.000    0.000    0.000 
#    0.000    0.000    0.000    0.000    0.000    0.000 
#
# Total GULP energy -44787.461886 kJ/mol
# GULP energy per Si atom -5598.432736 kJ/mol
# Density = 2.737376 g / cm^3
# Si number density = 27.436208 Si / 1000 Ang^3
#
#
#
# Elastic Constant Matrix: (Units=GPa)
#
#
# Indices 1 2 3 4 5 6 
#
# 1 119.5520 8.0456 18.2308 -0.0056 -1.6712 0.0040
# 2 8.0456 96.3146 25.3319 -0.0201 -9.1055 0.0124
# 3 18.2308 25.3319 198.7693 -0.0019 -22.0650 0.0047
# 4 -0.0056 -0.0201 -0.0019 42.1497 0.0051 -13.3601
# 5 -1.6712 -9.1055 -22.0650 0.0051 46.5065 -0.0036
# 6 0.0040 0.0124 0.0047 -13.3601 -0.0036 18.5442
#
#
#
# Elastic Compliance Matrix: (Units=1/GPa)
#
#
# Indices 1 2 3 4 5 6 
#
# 1 0.008510 -0.000533 -0.000729 0.000001 -0.000144 -0.000001
# 2 -0.000533 0.010881 -0.001165 0.000004 0.001559 -0.000004
# 3 -0.000729 -0.001165 0.005508 -0.000001 0.002359 -0.000001
# 4 0.000001 0.000004 -0.000001 0.030746 -0.000001 0.022151
# 5 -0.000144 0.001559 0.002359 -0.000001 0.022922 0.000002
# 6 -0.000001 -0.000004 -0.000001 0.022151 0.000002 0.069884
#
#
# Mechanical properties :
#
#
# Convention : Reuss Voigt Hill
#
# Bulk Modulus (GPa) = 49.88526 57.53918 53.71222
# Shear Modulus (GPa) = 31.25305 45.64192 38.44749
#
# Velocity S-wave (km/s) = 3.37874 4.08311 3.74751
# Velocity P-wave (km/s) = 5.78299 6.57621 6.19231
#
# Compressibility (1/GPa) = 0.02004600
#
# Stress axis : x y z
#
# Youngs Moduli (GPa) = 117.51557 91.90452 181.55055
#
# Poissons Ratio (x) = 0.04897 0.13227
# Poissons Ratio (y) = 0.06262 0.21147
# Poissons Ratio (z) = 0.08562 0.10705
#
# Static dielectric constant tensor:
#      x y z
#    x 2.275300 0.000000 0.088720 
#    y 0.000000 1.983210 0.000010 
#    z 0.088720 0.000010 2.127350 
# 
# From -- ./inp_files/46865.got.cif
#   From: 2010.05.17/outbox.cif.g08.bks.cpg/sg5_24_cif.got.tgz:46865.got - 2010.06.03 18:56:24.
