data_PCOD9121302
_publ_section_title
;
Structure prediction by ZEFSAII (Michael W. Deem and Ramdas Pophale) SiO2 
 PCOD9121302
Probable space group: C 2
;
_chemical_formula_sum "Si O2"
_cell_formula_units_Z 28
_cell_length_a 10.008520
_cell_length_b 28.808133
_cell_length_c 5.214854
_cell_angle_alpha 90.000000
_cell_angle_beta 66.569846
_cell_angle_gamma 90.000000
_cell_volume 1379.604910
_symmetry_space_group_name_H-M "C 2"
_symmetry_group_IT_number 5
_symmetry_cell_setting 'monoclinic'
loop_
_space_group_symop_operation_xyz
x,y,z
-x,y,-z
1/2+x,1/2+y,z
1/2-x,1/2+y,-z
loop_
_atom_site_type_symbol
_atom_site_label
_atom_site_fract_x
_atom_site_fract_y
_atom_site_fract_z
Si Si1 0.102487 0.530140 0.172363
Si Si2 0.399212 0.131932 0.826497
Si Si3 0.958261 0.376769 0.281487
Si Si4 0.666470 0.452896 0.858205
Si Si5 0.336913 0.392823 0.641369
Si Si6 0.586259 0.775776 0.181527
Si Si7 0.396362 0.235422 0.830971
O O1 0.176129 0.581707 0.099114
O O2 0.222894 0.491461 0.131120
O O3 0.000000 0.529820 0.500000
O O4 0.000000 0.523689 0.000000
O O5 0.500000 0.129820 0.500000
O O6 0.329633 0.182937 0.861248
O O7 0.500000 0.133736 0.000000
O O8 0.793034 0.360996 0.363959
O O9 0.000000 0.404598 0.500000
O O10 0.058849 0.331418 0.213508
O O11 0.000000 0.405317 0.000000
O O12 0.681078 0.434562 0.554350
O O13 0.500000 0.469629 0.000000
O O14 0.680406 0.410854 0.055181
O O15 0.500000 0.373657 0.500000
O O16 0.500000 0.757905 0.500000
O O17 0.500000 0.758116 0.000000
O O18 0.756086 0.766730 0.003004
O O19 0.500000 0.244175 0.500000
O O20 0.500000 0.237746 0.000000
#
# Coordination Sequence:
#
# PCOD9121302 Si02
#       7
#     4   4   4   4   4   4   4
#     4  10  19  32  52  79 107 140 181 220 262 314
#     4   8  16  30  50  77 108 139 178 223 259 310
#     4  10  21  37  55  77 106 136 171 227 281 321
#     4  10  21  35  52  77 108 138 175 223 269 319
#     4  10  21  37  55  74 101 142 183 218 266 329
#     4  10  21  38  56  82 115 142 176 233 287 326
#     4  10  19  35  60  84 109 149 191 224 270 335
#
# _framework density 20.295663000000001
#
# number of rings (size 3 to 8) (size 9 to 14) (size 15 to 20)
#    0.000    2.286    0.000    2.571    0.000    3.429 
#    0.000    9.286    0.000    2.571    0.000    0.000 
#    0.000    0.000    0.000    0.000    0.000    0.000 
#
# Total GULP energy -77956.769218 kJ/mol
# GULP energy per Si atom -5568.340658 kJ/mol
# Density = 2.024947 g / cm^3
# Si number density = 20.295663 Si / 1000 Ang^3
#
#
#
# Elastic Constant Matrix: (Units=GPa)
#
#
# Indices 1 2 3 4 5 6 
#
# 1 135.2150 30.9938 56.3957 0.0000 -2.7257 0.0000
# 2 30.9938 71.7552 16.0435 0.0000 -21.2538 0.0000
# 3 56.3957 16.0435 133.7999 0.0000 27.1282 0.0000
# 4 0.0000 0.0000 0.0000 8.8299 0.0000 2.1343
# 5 -2.7257 -21.2538 27.1282 0.0000 46.9972 0.0000
# 6 0.0000 0.0000 0.0000 2.1343 0.0000 14.9063
#
#
#
# Elastic Compliance Matrix: (Units=1/GPa)
#
#
# Indices 1 2 3 4 5 6 
#
# 1 0.009798 -0.002809 -0.004134 0.000000 0.001685 0.000000
# 2 -0.002809 0.018869 -0.003144 0.000000 0.010185 0.000000
# 3 -0.004134 -0.003144 0.011247 0.000000 -0.008153 0.000000
# 4 0.000000 0.000000 0.000000 0.117312 0.000000 -0.016797
# 5 0.001685 0.010185 -0.008153 0.000000 0.030688 0.000000
# 6 0.000000 0.000000 0.000000 -0.016797 0.000000 0.069491
#
#
# Mechanical properties :
#
#
# Convention : Reuss Voigt Hill
#
# Bulk Modulus (GPa) = 50.65924 60.84847 55.75385
# Shear Modulus (GPa) = 17.59585 29.96913 23.78249
#
# Velocity S-wave (km/s) = 2.94764 3.84686 3.42687
# Velocity P-wave (km/s) = 6.04976 7.05530 6.57179
#
# Compressibility (1/GPa) = 0.01973974
#
# Stress axis : x y z
#
# Youngs Moduli (GPa) = 102.06367 52.99654 88.91588
#
# Poissons Ratio (x) = 0.14885 0.36762
# Poissons Ratio (y) = 0.28666 0.27953
# Poissons Ratio (z) = 0.42198 0.16661
#
# Static dielectric constant tensor:
#      x y z
#    x 1.751590 0.000000 0.029840 
#    y 0.000000 1.785270 0.000000 
#    z 0.029840 0.000000 1.895050 
# 
# From -- ./inp_files/3886.got.cif
#   From: 2010.05.17/outbox.cif.g08.bks.cpg/sg5_2_cif.got.tgz:3886.got - 2010.06.03 18:56:24.
