data_PCOD9121446
_publ_section_title
;
Structure prediction by ZEFSAII (Michael W. Deem and Ramdas Pophale) SiO2 
 PCOD9121446
Probable space group: C 2
;
_chemical_formula_sum "Si O2"
_cell_formula_units_Z 24
_cell_length_a 8.309215
_cell_length_b 12.836747
_cell_length_c 10.215637
_cell_angle_alpha 90.000000
_cell_angle_beta 90.217297
_cell_angle_gamma 90.000000
_cell_volume 1089.625623
_symmetry_space_group_name_H-M "C 2"
_symmetry_group_IT_number 5
_symmetry_cell_setting 'monoclinic'
loop_
_space_group_symop_operation_xyz
x,y,z
-x,y,-z
1/2+x,1/2+y,z
1/2-x,1/2+y,-z
loop_
_atom_site_type_symbol
_atom_site_label
_atom_site_fract_x
_atom_site_fract_y
_atom_site_fract_z
Si Si1 0.883981 0.094340 0.282381
Si Si2 0.159885 0.611115 0.049494
Si Si3 0.699205 0.507450 0.203017
Si Si4 0.498844 0.892178 0.860689
Si Si5 0.814916 0.611201 0.470296
Si Si6 0.897733 0.284259 0.612546
O O1 0.774777 0.144038 0.167860
O O2 0.778995 0.061388 0.406868
O O3 0.007070 0.008094 0.224913
O O4 0.995423 0.184532 0.343462
O O5 0.080626 0.505004 0.109691
O O6 0.263858 0.581185 0.922166
O O7 0.000000 0.672725 0.000000
O O8 0.773406 0.554107 0.335729
O O9 0.814028 0.408272 0.177676
O O10 0.391142 0.846743 0.745644
O O11 0.500000 0.833984 0.000000
O O12 0.759098 0.731440 0.448778
O O13 0.000000 0.607158 0.500000
O O14 0.000000 0.341122 0.500000
#
# Coordination Sequence:
#
# PCOD9121446 Si02
#       6
#     4   4   4   4   4   4
#     4  10  19  34  55  79 105 137 182 225 263 316
#     4   9  18  32  52  78 104 135 175 218 262 313
#     4   9  18  32  53  78 104 137 177 221 264 311
#     4   9  19  35  53  77 108 140 175 215 269 321
#     4  10  19  34  55  80 108 140 181 227 265 314
#     4   9  20  35  52  76 108 143 178 218 268 317
#
# _framework density 22.025914
#
# number of rings (size 3 to 8) (size 9 to 14) (size 15 to 20)
#    0.000    3.000    0.000    4.000    0.000    4.667 
#    0.000    3.333    0.000    4.000    0.000    0.000 
#    0.000    0.000    0.000    0.000    0.000    0.000 
#
# Total GULP energy -66865.664180 kJ/mol
# GULP energy per Si atom -5572.138682 kJ/mol
# Density = 2.197578 g / cm^3
# Si number density = 22.025914 Si / 1000 Ang^3
#
#
#
# Elastic Constant Matrix: (Units=GPa)
#
#
# Indices 1 2 3 4 5 6 
#
# 1 124.4015 14.5845 51.6922 0.0000 -3.7778 0.0000
# 2 14.5845 17.3731 13.7274 0.0000 -8.4199 0.0000
# 3 51.6922 13.7274 158.7486 0.0000 -3.9921 0.0000
# 4 0.0000 0.0000 0.0000 18.7235 0.0000 -3.2345
# 5 -3.7778 -8.4199 -3.9921 0.0000 44.2614 0.0000
# 6 0.0000 0.0000 0.0000 -3.2345 0.0000 -5.6056
#
#
#
# Elastic Compliance Matrix: (Units=1/GPa)
#
#
# Indices 1 2 3 4 5 6 
#
# 1 0.009893 -0.006498 -0.002675 0.000000 -0.000633 0.000000
# 2 -0.006498 0.072250 -0.003809 0.000000 0.012846 0.000000
# 3 -0.002675 -0.003809 0.007493 0.000000 -0.000277 0.000000
# 4 0.000000 0.000000 0.000000 0.048568 0.000000 -0.028024
# 5 -0.000633 0.012846 -0.000277 0.000000 0.024958 0.000000
# 6 0.000000 0.000000 0.000000 -0.028024 0.000000 -0.162223
#
#
# Mechanical properties :
#
#
# Convention : Reuss Voigt Hill
#
# Bulk Modulus (GPa) = 15.70543 51.17016 33.43779
# Shear Modulus (GPa) = 103.89294 26.17712 65.03503
#
# Velocity S-wave (km/s) = 6.87538 3.45116 5.43973
# Velocity P-wave (km/s) = 8.37698 6.25803 7.39380
#
# Compressibility (1/GPa) = 0.06367226
#
# Stress axis : x y z
#
# Youngs Moduli (GPa) = 101.08459 13.84075 133.46119
#
# Poissons Ratio (x) = 0.08993 0.35705
# Poissons Ratio (y) = 0.65681 0.50834
# Poissons Ratio (z) = 0.27044 0.05272
#
# Static dielectric constant tensor:
#      x y z
#    x 1.884150 0.000000 0.009720 
#    y 0.000000 1.873150 0.000000 
#    z 0.009720 0.000000 1.889350 
# 
# From -- ./inp_files/15746.got.cif
#   From: 2010.05.17/outbox.cif.g08.bks.cpg/sg5_8_cif.got.tgz:15746.got - 2010.06.03 18:56:24.
