data_PCOD9121678
_publ_section_title
;
Structure prediction by ZEFSAII (Michael W. Deem and Ramdas Pophale) SiO2 
 PCOD9121678
Probable space group: C 2
;
_chemical_formula_sum "Si O2"
_cell_formula_units_Z 28
_cell_length_a 33.148397
_cell_length_b 5.320467
_cell_length_c 8.494907
_cell_angle_alpha 90.000000
_cell_angle_beta 113.968864
_cell_angle_gamma 90.000000
_cell_volume 1369.008286
_symmetry_space_group_name_H-M "C 2"
_symmetry_group_IT_number 5
_symmetry_cell_setting 'monoclinic'
loop_
_space_group_symop_operation_xyz
x,y,z
-x,y,-z
1/2+x,1/2+y,z
1/2-x,1/2+y,-z
loop_
_atom_site_type_symbol
_atom_site_label
_atom_site_fract_x
_atom_site_fract_y
_atom_site_fract_z
Si Si1 0.124474 0.033640 0.422219
Si Si2 0.335205 0.603269 0.838538
Si Si3 0.753944 0.566598 0.112756
Si Si4 0.985257 0.556207 0.160547
Si Si5 0.645264 0.031617 0.639192
Si Si6 0.476947 0.555102 0.791704
Si Si7 0.118660 0.603049 0.956825
O O1 0.159752 0.072299 0.339814
O O2 0.131432 0.256611 0.557859
O O3 0.075413 0.065611 0.274038
O O4 0.128732 0.756995 0.501922
O O5 0.285888 0.586208 0.826965
O O6 0.355876 0.870859 0.921169
O O7 0.362593 0.370692 0.956322
O O8 0.801739 0.546344 0.267251
O O9 0.747058 0.317072 0.996318
O O10 0.932947 0.579560 0.086609
O O11 0.003837 0.300122 0.261432
O O12 0.008434 0.799999 0.268730
O O13 0.000000 0.547572 0.000000
O O14 0.626905 0.077821 0.784435
O O15 0.500000 0.546905 0.000000
#
# Coordination Sequence:
#
# PCOD9121678 Si02
#       7
#     4   4   4   4   4   4   4
#     4  12  26  43  67 103 139 174 220 283 348 380
#     4  12  23  42  72  98 129 182 235 266 321 414
#     4  12  23  45  70 100 132 176 230 270 328 402
#     4  10  19  35  62  92 122 160 222 280 306 369
#     4  12  26  44  65 100 146 170 215 291 344 391
#     4  10  20  39  62  90 128 171 216 272 317 390
#     4  12  23  42  70 101 128 184 230 270 332 405
#
# _framework density 20.452760999999999
#
# number of rings (size 3 to 8) (size 9 to 14) (size 15 to 20)
#    0.000    0.571    2.857    7.714    0.000    1.143 
#    0.000    4.286    0.000    0.000    0.000    0.000 
#    0.000    0.000    0.000    0.000    0.000    0.000 
#
# Total GULP energy -78308.993448 kJ/mol
# GULP energy per Si atom -5593.499532 kJ/mol
# Density = 2.040621 g / cm^3
# Si number density = 20.452761 Si / 1000 Ang^3
#
#
#
# Elastic Constant Matrix: (Units=GPa)
#
#
# Indices 1 2 3 4 5 6 
#
# 1 137.9164 9.4271 -8.7578 0.0000 22.3918 0.0000
# 2 9.4271 122.1809 -19.7095 0.0000 15.5744 0.0000
# 3 -8.7578 -19.7095 26.1528 0.0000 8.4105 0.0000
# 4 0.0000 0.0000 0.0000 33.0730 0.0000 6.7859
# 5 22.3918 15.5744 8.4105 0.0000 41.4711 0.0000
# 6 0.0000 0.0000 0.0000 6.7859 0.0000 28.2188
#
#
#
# Elastic Compliance Matrix: (Units=1/GPa)
#
#
# Indices 1 2 3 4 5 6 
#
# 1 0.008531 0.001026 0.005601 0.000000 -0.006128 0.000000
# 2 0.001026 0.010656 0.010526 0.000000 -0.006691 0.000000
# 3 0.005601 0.010526 0.053798 0.000000 -0.017888 0.000000
# 4 0.000000 0.000000 0.000000 0.031805 0.000000 -0.007648
# 5 -0.006128 -0.006691 -0.017888 0.000000 0.033562 0.000000
# 6 0.000000 0.000000 0.000000 -0.007648 0.000000 0.037277
#
#
# Mechanical properties :
#
#
# Convention : Reuss Voigt Hill
#
# Bulk Modulus (GPa) = 9.32032 27.57442 18.44737
# Shear Modulus (GPa) = 28.23478 40.90527 34.57002
#
# Velocity S-wave (km/s) = 3.71952 4.47697 4.11571
# Velocity P-wave (km/s) = 4.79722 6.34316 5.62357
#
# Compressibility (1/GPa) = 0.10729250
#
# Stress axis : x y z
#
# Youngs Moduli (GPa) = 117.21764 93.84101 18.58809
#
# Poissons Ratio (x) = -0.09631 -0.10411
# Poissons Ratio (y) = -0.12031 -0.19566
# Poissons Ratio (z) = -0.65653 -0.98780
#
# Static dielectric constant tensor:
#      x y z
#    x 1.685910 0.000000 0.005500 
#    y 0.000000 1.719280 0.000000 
#    z 0.005500 0.000000 1.696710 
# 
# From -- ./inp_files/32315.got.cif
#   From: 2010.05.17/outbox.cif.g08.bks.cpg/sg5_17_cif.got.tgz:32315.got - 2010.06.03 18:56:24.
