data_PCOD9121910
_publ_section_title
;
Structure prediction by ZEFSAII (Michael W. Deem and Ramdas Pophale) SiO2 
 PCOD9121910
Probable space group: C 2
;
_chemical_formula_sum "Si O2"
_cell_formula_units_Z 32
_cell_length_a 21.355345
_cell_length_b 9.570564
_cell_length_c 22.057971
_cell_angle_alpha 90.000000
_cell_angle_beta 19.884167
_cell_angle_gamma 90.000000
_cell_volume 1533.350617
_symmetry_space_group_name_H-M "C 2"
_symmetry_group_IT_number 5
_symmetry_cell_setting 'monoclinic'
loop_
_space_group_symop_operation_xyz
x,y,z
-x,y,-z
1/2+x,1/2+y,z
1/2-x,1/2+y,-z
loop_
_atom_site_type_symbol
_atom_site_label
_atom_site_fract_x
_atom_site_fract_y
_atom_site_fract_z
Si Si1 0.180157 0.569420 0.511578
Si Si2 0.665471 0.061851 0.389099
Si Si3 0.097078 0.010662 0.003974
Si Si4 0.189554 0.744982 0.969952
Si Si5 0.761181 0.931033 0.882236
Si Si6 0.795129 0.265574 0.178786
Si Si7 0.061996 0.215636 0.139536
Si Si8 0.929083 0.816818 0.310801
O O1 0.095680 0.562470 0.521717
O O2 0.357605 0.668287 0.338822
O O3 0.075021 0.662719 0.655848
O O4 0.250695 0.417115 0.468382
O O5 0.500000 0.998645 0.500000
O O6 0.873890 0.999143 0.200350
O O7 0.704013 0.215661 0.324264
O O8 0.200244 0.864218 0.909911
O O9 0.139536 0.083629 0.030510
O O10 0.167432 0.119501 0.890460
O O11 0.004663 0.787154 0.174819
O O12 0.204191 0.590845 0.930734
O O13 0.338547 0.749151 0.888387
O O14 0.808728 0.864476 0.773907
O O15 0.927955 0.904016 0.777505
O O16 0.593891 0.843010 0.064548
O O17 0.000000 0.327893 0.000000
#
# Coordination Sequence:
#
# PCOD9121910 Si02
#       8
#     4   4   4   4   4   4   4   4
#     4  11  22  40  57  87 124 156 203 242 303 358
#     4  10  19  37  59  81 114 159 202 242 277 353
#     4   9  18  35  56  83 114 149 199 246 289 348
#     4  11  18  35  57  85 123 146 192 249 304 355
#     4  10  20  34  60  89 115 151 199 248 302 345
#     4   9  19  37  59  83 111 152 209 249 284 346
#     4   9  17  34  55  82 117 156 188 237 295 364
#     4  11  23  38  55  91 122 159 194 243 305 366
#
# _framework density 20.869327999999999
#
# number of rings (size 3 to 8) (size 9 to 14) (size 15 to 20)
#    0.000    2.000    3.750    2.250    1.750    0.000 
#    2.250    1.875    0.000    0.000    0.000    4.375 
#    0.000    0.000    0.000    0.000    0.000    0.000 
#
# Total GULP energy -89207.595677 kJ/mol
# GULP energy per Si atom -5575.474730 kJ/mol
# Density = 2.082183 g / cm^3
# Si number density = 20.869328 Si / 1000 Ang^3
#
#
#
# Elastic Constant Matrix: (Units=GPa)
#
#
# Indices 1 2 3 4 5 6 
#
# 1 97.7038 43.2800 7.1576 -0.0005 -11.7608 0.0002
# 2 43.2800 110.5843 12.1222 -0.0103 -11.5881 0.0019
# 3 7.1576 12.1222 37.2962 -0.0067 -15.9565 0.0014
# 4 -0.0005 -0.0103 -0.0067 24.6473 -0.0007 -3.1897
# 5 -11.7608 -11.5881 -15.9565 -0.0007 24.1934 0.0005
# 6 0.0002 0.0019 0.0014 -3.1897 0.0005 18.6362
#
#
#
# Elastic Compliance Matrix: (Units=1/GPa)
#
#
# Indices 1 2 3 4 5 6 
#
# 1 0.012770 -0.004622 0.001059 -0.000001 0.004692 0.000000
# 2 -0.004622 0.011262 -0.001988 0.000004 0.001836 0.000000
# 3 0.001059 -0.001988 0.037708 0.000010 0.024433 -0.000002
# 4 -0.000001 0.000004 0.000010 0.041491 0.000009 0.007102
# 5 0.004692 0.001836 0.024433 0.000009 0.060608 -0.000002
# 6 0.000000 0.000000 -0.000002 0.007102 -0.000002 0.054875
#
#
# Mechanical properties :
#
#
# Convention : Reuss Voigt Hill
#
# Bulk Modulus (GPa) = 19.74781 41.18934 30.46858
# Shear Modulus (GPa) = 20.26787 25.69701 22.98244
#
# Velocity S-wave (km/s) = 3.11976 3.51284 3.32212
# Velocity P-wave (km/s) = 4.73923 6.01938 5.41726
#
# Compressibility (1/GPa) = 0.05063853
#
# Stress axis : x y z
#
# Youngs Moduli (GPa) = 78.31028 88.79249 26.51938
#
# Poissons Ratio (x) = 0.41041 -0.02809
# Poissons Ratio (y) = 0.36196 0.05271
# Poissons Ratio (z) = -0.08294 0.17650
#
# Static dielectric constant tensor:
#      x y z
#    x 1.805660 0.000000 0.015660 
#    y 0.000000 1.758590 0.000000 
#    z 0.015660 0.000000 1.848680 
# 
# From -- ./inp_files/32430.got.cif
#   From: 2010.05.17/outbox.cif.g08.bks.cpg/sg5_17_cif.got.tgz:32430.got - 2010.06.03 18:56:24.
