data_PCOD9121826
_publ_section_title
;
Structure prediction by ZEFSAII (Michael W. Deem and Ramdas Pophale) SiO2 
 PCOD9121826
Probable space group: C 2
;
_chemical_formula_sum "Si O2"
_cell_formula_units_Z 26
_cell_length_a 15.281657
_cell_length_b 12.336839
_cell_length_c 11.892633
_cell_angle_alpha 90.000000
_cell_angle_beta 28.210636
_cell_angle_gamma 90.000000
_cell_volume 1059.866471
_symmetry_space_group_name_H-M "C 2"
_symmetry_group_IT_number 5
_symmetry_cell_setting 'monoclinic'
loop_
_space_group_symop_operation_xyz
x,y,z
-x,y,-z
1/2+x,1/2+y,z
1/2-x,1/2+y,-z
loop_
_atom_site_type_symbol
_atom_site_label
_atom_site_fract_x
_atom_site_fract_y
_atom_site_fract_z
Si Si1 0.826083 0.980320 0.083958
Si Si2 0.582713 0.964970 0.138378
Si Si3 0.805879 0.914342 0.418043
Si Si4 0.000000 0.646897 0.500000
Si Si5 0.028144 0.708899 0.226722
Si Si6 0.715456 0.748657 0.248983
Si Si7 0.206415 0.012385 0.318313
O O1 0.798659 0.866376 0.179274
O O2 0.741424 0.964228 0.053226
O O3 0.684843 0.070685 0.292612
O O4 0.047155 0.992876 0.814448
O O5 0.486764 0.083733 0.252496
O O6 0.407852 0.894155 0.371153
O O7 0.666546 0.953236 0.919397
O O8 0.901329 0.797140 0.313038
O O9 0.796235 0.958209 0.557501
O O10 0.980540 0.720670 0.630833
O O11 0.227737 0.723077 0.944389
O O12 0.500000 0.760989 0.500000
O O13 0.771132 0.638865 0.250626
O O14 0.000000 0.015025 0.500000
#
# Coordination Sequence:
#
# PCOD9121826 Si02
#       7
#     4   4   4   2   4   4   4
#     4  10  20  39  63  86 119 161 200 247 298 366
#     4  10  21  41  59  91 124 157 202 251 299 352
#     4  11  22  39  63  87 123 162 202 247 301 357
#     4  10  20  38  64  86 124 164 196 250 304 344
#     4   9  22  39  59  89 126 154 204 252 290 367
#     4   9  18  35  62  90 116 153 201 242 303 352
#     4  10  19  36  62  92 119 153 203 247 296 356
#
# _framework density 24.531392
#
# number of rings (size 3 to 8) (size 9 to 14) (size 15 to 20)
#    0.000    2.154    2.308    0.462    3.231    0.000 
#    5.538    6.154    3.385    0.000    0.000    0.000 
#    0.000    0.000    0.000    0.000    0.000    0.000 
#
# Total GULP energy -72665.545954 kJ/mol
# GULP energy per Si atom -5589.657381 kJ/mol
# Density = 2.447556 g / cm^3
# Si number density = 24.531392 Si / 1000 Ang^3
#
#
#
# Elastic Constant Matrix: (Units=GPa)
#
#
# Indices 1 2 3 4 5 6 
#
# 1 74.2322 0.8791 38.6586 -0.0002 -1.8018 0.0001
# 2 0.8791 54.8546 4.0113 -0.0001 -2.9637 0.0000
# 3 38.6586 4.0113 183.1759 -0.0004 3.5473 0.0004
# 4 -0.0002 -0.0001 -0.0004 23.5995 0.0003 -2.2039
# 5 -1.8018 -2.9637 3.5473 0.0003 47.3240 -0.0001
# 6 0.0001 0.0000 0.0004 -2.2039 -0.0001 32.8136
#
#
#
# Elastic Compliance Matrix: (Units=1/GPa)
#
#
# Indices 1 2 3 4 5 6 
#
# 1 0.015166 0.000037 -0.003217 0.000000 0.000821 0.000000
# 2 0.000037 0.018325 -0.000432 0.000000 0.001181 0.000000
# 3 -0.003217 -0.000432 0.006160 0.000000 -0.000611 0.000000
# 4 0.000000 0.000000 0.000000 0.042641 0.000000 0.002864
# 5 0.000821 0.001181 -0.000611 0.000000 0.021282 0.000000
# 6 0.000000 0.000000 0.000000 0.002864 0.000000 0.030668
#
#
# Mechanical properties :
#
#
# Convention : Reuss Voigt Hill
#
# Bulk Modulus (GPa) = 30.84031 44.37343 37.60687
# Shear Modulus (GPa) = 32.83525 38.66168 35.74846
#
# Velocity S-wave (km/s) = 3.66252 3.97420 3.82154
# Velocity P-wave (km/s) = 5.52127 6.25993 5.90217
#
# Compressibility (1/GPa) = 0.03242510
#
# Stress axis : x y z
#
# Youngs Moduli (GPa) = 65.93547 54.57080 162.34903
#
# Poissons Ratio (x) = -0.00200 0.52236
# Poissons Ratio (y) = -0.00241 0.07012
# Poissons Ratio (z) = 0.21215 0.02357
#
# Static dielectric constant tensor:
#      x y z
#    x 2.047580 0.000000 -0.019830 
#    y 0.000000 1.988900 0.000000 
#    z -0.019830 0.000000 1.985640 
# 
# From -- ./inp_files/57092.got.cif
#   From: 2010.05.17/outbox.cif.g08.bks.cpg/sg5_29_cif.got.tgz:57092.got - 2010.06.03 18:56:24.
