data_PCOD9121800
_publ_section_title
;
Structure prediction by ZEFSAII (Michael W. Deem and Ramdas Pophale) SiO2 
 PCOD9121800
Probable space group: C 2
;
_chemical_formula_sum "Si O2"
_cell_formula_units_Z 24
_cell_length_a 8.872396
_cell_length_b 12.329953
_cell_length_c 14.829719
_cell_angle_alpha 90.000000
_cell_angle_beta 143.445555
_cell_angle_gamma 90.000000
_cell_volume 966.228886
_symmetry_space_group_name_H-M "C 2"
_symmetry_group_IT_number 5
_symmetry_cell_setting 'monoclinic'
loop_
_space_group_symop_operation_xyz
x,y,z
-x,y,-z
1/2+x,1/2+y,z
1/2-x,1/2+y,-z
loop_
_atom_site_type_symbol
_atom_site_label
_atom_site_fract_x
_atom_site_fract_y
_atom_site_fract_z
Si Si1 0.268889 0.744370 0.168289
Si Si2 0.257715 0.145956 0.335895
Si Si3 0.919721 0.894099 0.362935
Si Si4 0.259018 0.135142 0.142373
Si Si5 0.358089 0.935177 0.067557
Si Si6 0.420249 0.335770 0.739899
O O1 0.501303 0.660607 0.269163
O O2 0.324158 0.839790 0.124263
O O3 0.253905 0.803922 0.258272
O O4 0.000000 0.698679 0.000000
O O5 0.500000 0.097122 0.500000
O O6 0.341622 0.268923 0.347932
O O7 0.232888 0.086583 0.228949
O O8 0.659663 0.944634 0.200118
O O9 0.124958 0.891021 0.380057
O O10 0.000000 0.940048 0.500000
O O11 0.489152 0.215336 0.243870
O O12 0.275626 0.045039 0.075428
O O13 0.000000 0.200918 0.000000
O O14 0.161122 0.900395 0.896520
#
# Coordination Sequence:
#
# PCOD9121800 Si02
#       6
#     4   4   4   4   4   4
#     4   9  17  34  59  86 116 152 200 253 295 352
#     4   9  19  37  59  83 118 159 197 242 304 364
#     4   9  18  36  58  81 117 161 195 238 303 362
#     4  11  20  35  59  84 115 159 201 248 302 355
#     4  10  20  36  55  83 118 154 200 246 293 358
#     4  10  19  36  61  87 115 151 198 253 301 351
#
# _framework density 24.838835
#
# number of rings (size 3 to 8) (size 9 to 14) (size 15 to 20)
#    0.000    2.333    0.000    6.000    0.000    0.000 
#    0.000   28.333    0.000    0.000    0.000    0.000 
#    0.000    1.333    0.000    0.000    0.000    0.000 
#
# Total GULP energy -66948.433738 kJ/mol
# GULP energy per Si atom -5579.036145 kJ/mol
# Density = 2.478230 g / cm^3
# Si number density = 24.838835 Si / 1000 Ang^3
#
#
#
# Elastic Constant Matrix: (Units=GPa)
#
#
# Indices 1 2 3 4 5 6 
#
# 1 170.6142 12.0370 72.5527 0.0000 -27.2761 0.0002
# 2 12.0370 47.2674 20.7507 -0.0001 6.6826 0.0000
# 3 72.5527 20.7507 62.3465 0.0000 -16.8148 0.0002
# 4 0.0000 -0.0001 0.0000 2.0847 0.0001 14.4973
# 5 -27.2761 6.6826 -16.8148 0.0001 39.7578 0.0003
# 6 0.0002 0.0000 0.0002 14.4973 0.0003 10.4016
#
#
#
# Elastic Compliance Matrix: (Units=1/GPa)
#
#
# Indices 1 2 3 4 5 6 
#
# 1 0.012190 0.003184 -0.014825 0.000000 0.001558 0.000000
# 2 0.003184 0.028547 -0.015702 0.000000 -0.009255 0.000000
# 3 -0.014825 -0.015702 0.041183 -0.000001 0.009887 0.000000
# 4 0.000000 0.000000 -0.000001 -0.055185 -0.000001 0.076914
# 5 0.001558 -0.009255 0.009887 -0.000001 0.031958 0.000000
# 6 0.000000 0.000000 0.000000 0.076914 0.000000 -0.011060
#
#
# Mechanical properties :
#
#
# Convention : Reuss Voigt Hill
#
# Bulk Modulus (GPa) = 36.71894 54.54543 45.63218
# Shear Modulus (GPa) = 44.88384 22.10798 33.49591
#
# Velocity S-wave (km/s) = 4.25550 2.98662 3.67622
# Velocity P-wave (km/s) = 6.24185 5.82242 6.03578
#
# Compressibility (1/GPa) = 0.02723390
#
# Stress axis : x y z
#
# Youngs Moduli (GPa) = 82.03630 35.02937 24.28160
#
# Poissons Ratio (x) = -0.11152 0.35997
# Poissons Ratio (y) = -0.26118 0.38128
# Poissons Ratio (z) = 1.21616 0.55004
#
# Static dielectric constant tensor:
#      x y z
#    x 2.038160 0.000000 -0.001770 
#    y 0.000000 1.957440 0.000000 
#    z -0.001770 0.000000 2.069790 
# 
# From -- ./inp_files/15095.got.cif
#   From: 2010.05.17/outbox.cif.g08.bks.cpg/sg5_8_cif.got.tgz:15095.got - 2010.06.03 18:56:24.
