data_PCOD9121216
_publ_section_title
;
Structure prediction by ZEFSAII (Michael W. Deem and Ramdas Pophale) SiO2 
 PCOD9121216
Probable space group: C 2
;
_chemical_formula_sum "Si O2"
_cell_formula_units_Z 20
_cell_length_a 12.029005
_cell_length_b 14.432103
_cell_length_c 8.123489
_cell_angle_alpha 90.000000
_cell_angle_beta 44.592767
_cell_angle_gamma 90.000000
_cell_volume 990.097827
_symmetry_space_group_name_H-M "C 2"
_symmetry_group_IT_number 5
_symmetry_cell_setting 'monoclinic'
loop_
_space_group_symop_operation_xyz
x,y,z
-x,y,-z
1/2+x,1/2+y,z
1/2-x,1/2+y,-z
loop_
_atom_site_type_symbol
_atom_site_label
_atom_site_fract_x
_atom_site_fract_y
_atom_site_fract_z
Si Si1 0.823159 0.735850 0.111261
Si Si2 0.718691 0.281847 0.501286
Si Si3 0.704311 0.587508 0.003514
Si Si4 0.500000 0.147406 0.500000
Si Si5 0.000000 0.225010 0.000000
Si Si6 0.946863 0.892907 0.748838
O O1 0.721836 0.753222 0.381888
O O2 0.765189 0.640334 0.099287
O O3 0.835392 0.813416 0.952481
O O4 0.000000 0.728947 0.000000
O O5 0.592932 0.211571 0.539385
O O6 0.619108 0.374076 0.645063
O O7 0.864093 0.286588 0.224981
O O8 0.861014 0.586658 0.724772
O O9 0.579926 0.656075 0.047067
O O10 0.628464 0.489925 0.125833
O O11 0.000000 0.887161 0.500000
#
# Coordination Sequence:
#
# PCOD9121216 Si02
#       6
#     4   4   4   2   2   4
#     4  10  21  41  73  96 131 181 221 277 337 398
#     4  10  20  42  70  94 133 183 219 275 335 397
#     4  11  23  39  69 103 133 179 223 280 335 403
#     4  10  18  44  68  90 138 178 214 274 342 400
#     4  10  24  38  68  98 140 180 222 272 342 406
#     4  11  22  40  68  94 137 176 226 276 334 392
#
# _framework density 20.200023999999999
#
# number of rings (size 3 to 8) (size 9 to 14) (size 15 to 20)
#    0.000    1.600    5.000    1.200    7.000    0.000 
#    0.000    4.000    8.800    0.000    0.000    0.000 
#    0.000    0.000    0.000    0.000    0.000    0.000 
#
# Total GULP energy -55669.018948 kJ/mol
# GULP energy per Si atom -5566.901895 kJ/mol
# Density = 2.015405 g / cm^3
# Si number density = 20.200024 Si / 1000 Ang^3
#
#
#
# Elastic Constant Matrix: (Units=GPa)
#
#
# Indices 1 2 3 4 5 6 
#
# 1 54.1689 28.6609 32.4533 0.0000 7.8487 0.0000
# 2 28.6609 126.9709 75.7754 0.0000 -6.2060 0.0000
# 3 32.4533 75.7754 144.7450 0.0000 4.9818 0.0001
# 4 0.0000 0.0000 0.0000 31.3791 0.0000 -9.6840
# 5 7.8487 -6.2060 4.9818 0.0000 35.7676 0.0000
# 6 0.0000 0.0000 0.0001 -9.6840 0.0000 19.4682
#
#
#
# Elastic Compliance Matrix: (Units=1/GPa)
#
#
# Indices 1 2 3 4 5 6 
#
# 1 0.022973 -0.003600 -0.003086 0.000000 -0.005236 0.000000
# 2 -0.003600 0.012312 -0.005767 0.000000 0.003729 0.000000
# 3 -0.003086 -0.005767 0.010682 0.000000 -0.001811 0.000000
# 4 0.000000 0.000000 0.000000 0.037648 0.000000 0.018727
# 5 -0.005236 0.003729 -0.001811 0.000000 0.030007 0.000000
# 6 0.000000 0.000000 0.000000 0.018727 0.000000 0.060681
#
#
# Mechanical properties :
#
#
# Convention : Reuss Voigt Hill
#
# Bulk Modulus (GPa) = 47.47930 66.62933 57.05432
# Shear Modulus (GPa) = 24.24494 29.92267 27.08380
#
# Velocity S-wave (km/s) = 3.46821 3.85297 3.66564
# Velocity P-wave (km/s) = 6.29234 7.26981 6.79867
#
# Compressibility (1/GPa) = 0.02106181
#
# Stress axis : x y z
#
# Youngs Moduli (GPa) = 43.52945 81.21951 93.61590
#
# Poissons Ratio (x) = 0.29238 0.28890
# Poissons Ratio (y) = 0.15670 0.53987
# Poissons Ratio (z) = 0.13433 0.46838
#
# Static dielectric constant tensor:
#      x y z
#    x 1.790820 0.000000 0.053610 
#    y 0.000000 1.708940 0.000000 
#    z 0.053610 0.000000 1.813900 
# 
# From -- ./inp_files/19241.got.cif
#   From: 2010.05.17/outbox.cif.g08.bks.cpg/sg5_10_cif.got.tgz:19241.got - 2010.06.03 18:56:24.
