data_PCOD9121033
_publ_section_title
;
Structure prediction by ZEFSAII (Michael W. Deem and Ramdas Pophale) SiO2 
 PCOD9121033
Probable space group: C 2
;
_chemical_formula_sum "Si O2"
_cell_formula_units_Z 30
_cell_length_a 8.295687
_cell_length_b 22.415704
_cell_length_c 11.873840
_cell_angle_alpha 90.000000
_cell_angle_beta 36.521164
_cell_angle_gamma 90.000000
_cell_volume 1314.014757
_symmetry_space_group_name_H-M "C 2"
_symmetry_group_IT_number 5
_symmetry_cell_setting 'monoclinic'
loop_
_space_group_symop_operation_xyz
x,y,z
-x,y,-z
1/2+x,1/2+y,z
1/2-x,1/2+y,-z
loop_
_atom_site_type_symbol
_atom_site_label
_atom_site_fract_x
_atom_site_fract_y
_atom_site_fract_z
Si Si1 0.401985 0.178770 0.374902
Si Si2 0.870838 0.321409 0.185818
Si Si3 0.098565 0.064969 0.125884
Si Si4 0.500000 0.761880 0.500000
Si Si5 0.716927 0.348794 0.504254
Si Si6 0.433041 0.050083 0.723143
Si Si7 0.425646 0.477531 0.409699
Si Si8 0.062408 0.193556 0.795231
O O1 0.376278 0.108051 0.370801
O O2 0.235067 0.193004 0.582667
O O3 0.721803 0.184341 0.223348
O O4 0.259880 0.218024 0.358212
O O5 0.836622 0.363052 0.313585
O O6 0.551183 0.306701 0.347174
O O7 0.030687 0.261157 0.130445
O O8 0.000000 0.345861 0.000000
O O9 0.798744 0.061274 0.239095
O O10 0.136971 0.137147 0.108157
O O11 0.095471 0.024316 0.238722
O O12 0.296895 0.039570 0.919928
O O13 0.446989 0.809375 0.431425
O O14 0.589875 0.409357 0.624462
O O15 0.615524 0.997381 0.578523
O O16 0.500000 0.480101 0.500000
#
# Coordination Sequence:
#
# PCOD9121033 Si02
#       8
#     4   4   4   2   4   4   4   4
#     4  10  19  35  65  92 132 174 203 265 325 388
#     4  11  22  43  71  96 125 175 229 270 328 402
#     4  10  23  41  66 102 130 173 217 271 327 403
#     4  12  22  38  68  98 136 166 224 272 330 396
#     4  11  25  46  65  97 128 179 225 277 330 386
#     4  10  23  41  66 100 133 167 221 266 336 394
#     4  12  25  44  69  91 131 180 225 273 333 382
#     4  10  18  38  62  95 133 167 216 252 328 403
#
# _framework density 22.830794000000001
#
# number of rings (size 3 to 8) (size 9 to 14) (size 15 to 20)
#    0.000    1.333    5.333    1.200    6.533    1.600 
#    0.000    0.667    2.933    0.000    0.000    0.000 
#    0.000    0.000    0.000    0.000    0.000    0.000 
#
# Total GULP energy -83622.391938 kJ/mol
# GULP energy per Si atom -5574.826129 kJ/mol
# Density = 2.277883 g / cm^3
# Si number density = 22.830794 Si / 1000 Ang^3
#
#
#
# Elastic Constant Matrix: (Units=GPa)
#
#
# Indices 1 2 3 4 5 6 
#
# 1 70.0419 24.5017 17.0549 0.0000 12.7733 0.0000
# 2 24.5017 109.8462 14.6150 0.0000 11.8816 0.0000
# 3 17.0549 14.6150 76.2328 0.0000 18.3372 0.0000
# 4 0.0000 0.0000 0.0000 19.9832 0.0000 4.2217
# 5 12.7733 11.8816 18.3372 0.0000 20.2327 0.0000
# 6 0.0000 0.0000 0.0000 4.2217 0.0000 28.4485
#
#
#
# Elastic Compliance Matrix: (Units=1/GPa)
#
#
# Indices 1 2 3 4 5 6 
#
# 1 0.017014 -0.002760 -0.001385 0.000000 -0.007865 0.000000
# 2 -0.002760 0.010192 -0.000404 0.000000 -0.003877 0.000000
# 3 -0.001385 -0.000404 0.016928 0.000000 -0.014230 0.000000
# 4 0.000000 0.000000 0.000000 0.051662 0.000000 -0.007666
# 5 -0.007865 -0.003877 -0.014230 0.000000 0.069564 0.000000
# 6 0.000000 0.000000 0.000000 -0.007666 0.000000 0.036289
#
#
# Mechanical properties :
#
#
# Convention : Reuss Voigt Hill
#
# Bulk Modulus (GPa) = 28.54232 40.94046 34.74139
# Shear Modulus (GPa) = 22.47927 27.06282 24.77105
#
# Velocity S-wave (km/s) = 3.14124 3.44665 3.29748
# Velocity P-wave (km/s) = 5.06807 5.81466 5.45415
#
# Compressibility (1/GPa) = 0.03503569
#
# Stress axis : x y z
#
# Youngs Moduli (GPa) = 58.77392 98.11255 59.07339
#
# Poissons Ratio (x) = 0.27080 0.08184
# Poissons Ratio (y) = 0.16222 0.02387
# Poissons Ratio (z) = 0.08143 0.03964
#
# Static dielectric constant tensor:
#      x y z
#    x 1.943010 0.000000 0.025700 
#    y 0.000000 1.900450 0.000000 
#    z 0.025700 0.000000 1.841130 
# 
# From -- ./inp_files/37525.got.cif
#   From: 2010.05.17/outbox.cif.g08.bks.cpg/sg5_19_cif.got.tgz:37525.got - 2010.06.03 18:56:24.
