data_PCOD9121841
_publ_section_title
;
Structure prediction by ZEFSAII (Michael W. Deem and Ramdas Pophale) SiO2 
 PCOD9121841
Probable space group: C 2
;
_chemical_formula_sum "Si O2"
_cell_formula_units_Z 30
_cell_length_a 15.876124
_cell_length_b 15.736931
_cell_length_c 13.085018
_cell_angle_alpha 90.000000
_cell_angle_beta 150.696967
_cell_angle_gamma 90.000000
_cell_volume 1600.030290
_symmetry_space_group_name_H-M "C 2"
_symmetry_group_IT_number 5
_symmetry_cell_setting 'monoclinic'
loop_
_space_group_symop_operation_xyz
x,y,z
-x,y,-z
1/2+x,1/2+y,z
1/2-x,1/2+y,-z
loop_
_atom_site_type_symbol
_atom_site_label
_atom_site_fract_x
_atom_site_fract_y
_atom_site_fract_z
Si Si1 0.934852 0.675070 0.826082
Si Si2 0.130746 0.621647 0.548161
Si Si3 0.425324 0.469321 0.144120
Si Si4 0.000000 0.047369 0.000000
Si Si5 0.368396 0.545418 0.450992
Si Si6 0.878804 0.398782 0.787241
Si Si7 0.941806 0.530727 0.170799
Si Si8 0.407750 0.293996 0.613510
O O1 0.770897 0.617422 0.676961
O O2 0.889586 0.746859 0.700173
O O3 0.075553 0.612924 0.921550
O O4 0.000000 0.711734 0.000000
O O5 0.073598 0.716812 0.449241
O O6 0.000000 0.599016 0.500000
O O7 0.084175 0.560338 0.403658
O O8 0.327491 0.604086 0.792946
O O9 0.470344 0.491074 0.072925
O O10 0.539634 0.524663 0.344326
O O11 0.461040 0.372593 0.223995
O O12 0.230540 0.499549 0.957781
O O13 0.500000 0.565061 0.500000
O O14 0.259916 0.461221 0.305894
O O15 0.770665 0.334791 0.607461
O O16 0.987468 0.457371 0.826756
O O17 0.000000 0.358648 0.000000
#
# Coordination Sequence:
#
# PCOD9121841 Si02
#       8
#     4   4   4   2   4   4   4   4
#     4  10  20  38  61  84 124 164 198 267 324 371
#     4  11  23  43  63  97 133 169 218 273 323 392
#     4  11  22  39  65  94 124 171 216 265 318 390
#     4  12  24  42  74  92 128 186 224 258 330 400
#     4  10  19  36  63  91 116 154 220 259 309 390
#     4  10  20  36  60  88 122 165 204 266 326 377
#     4  10  20  41  64  91 123 163 220 262 311 394
#     4  10  24  39  57  94 132 161 212 273 321 379
#
# _framework density 18.749645000000001
#
# number of rings (size 3 to 8) (size 9 to 14) (size 15 to 20)
#    0.000    1.600    1.333    6.400    1.867    3.200 
#    0.000    2.667    0.000    0.000    0.000    0.000 
#    0.000    0.000    0.000    0.000    0.000    0.000 
#
# Total GULP energy -83586.971477 kJ/mol
# GULP energy per Si atom -5572.464765 kJ/mol
# Density = 1.870697 g / cm^3
# Si number density = 18.749645 Si / 1000 Ang^3
#
#
#
# Elastic Constant Matrix: (Units=GPa)
#
#
# Indices 1 2 3 4 5 6 
#
# 1 100.1982 28.2372 43.1919 0.0000 -7.8528 0.0000
# 2 28.2372 69.8996 39.0722 0.0000 -2.7015 0.0000
# 3 43.1919 39.0722 114.5042 0.0000 -3.5051 0.0000
# 4 0.0000 0.0000 0.0000 15.2998 0.0000 -5.4915
# 5 -7.8528 -2.7015 -3.5051 0.0000 28.5684 0.0000
# 6 0.0000 0.0000 0.0000 -5.4915 0.0000 7.5630
#
#
#
# Elastic Compliance Matrix: (Units=1/GPa)
#
#
# Indices 1 2 3 4 5 6 
#
# 1 0.012603 -0.002935 -0.003669 0.000000 0.002737 0.000000
# 2 -0.002935 0.018386 -0.005158 0.000000 0.000299 0.000000
# 3 -0.003669 -0.005158 0.011876 0.000000 -0.000039 0.000000
# 4 0.000000 0.000000 0.000000 0.088398 0.000000 0.064185
# 5 0.002737 0.000299 -0.000039 0.000000 0.035779 0.000000
# 6 0.000000 0.000000 0.000000 0.064185 0.000000 0.178827
#
#
# Mechanical properties :
#
#
# Convention : Reuss Voigt Hill
#
# Bulk Modulus (GPa) = 51.69860 56.17827 53.93844
# Shear Modulus (GPa) = 13.30353 21.89298 17.59825
#
# Velocity S-wave (km/s) = 2.66660 3.42079 3.06697
# Velocity P-wave (km/s) = 6.09212 6.75498 6.43210
#
# Compressibility (1/GPa) = 0.01934288
#
# Stress axis : x y z
#
# Youngs Moduli (GPa) = 79.34450 54.38797 84.20325
#
# Poissons Ratio (x) = 0.15961 0.30893
# Poissons Ratio (y) = 0.23286 0.43430
# Poissons Ratio (z) = 0.29110 0.28052
#
# Static dielectric constant tensor:
#      x y z
#    x 1.640920 0.000000 -0.019890 
#    y 0.000000 1.680570 0.000000 
#    z -0.019890 0.000000 1.695130 
# 
# From -- ./inp_files/43328.got.cif
#   From: 2010.05.17/outbox.cif.g08.bks.cpg/sg5_22_cif.got.tgz:43328.got - 2010.06.03 18:56:24.
