data_PCOD9121030
_publ_section_title
;
Structure prediction by ZEFSAII (Michael W. Deem and Ramdas Pophale) SiO2 
 PCOD9121030
Probable space group: C 2
;
_chemical_formula_sum "Si O2"
_cell_formula_units_Z 18
_cell_length_a 22.623645
_cell_length_b 9.649969
_cell_length_c 8.235872
_cell_angle_alpha 90.000000
_cell_angle_beta 154.307642
_cell_angle_gamma 90.000000
_cell_volume 779.518007
_symmetry_space_group_name_H-M "C 2"
_symmetry_group_IT_number 5
_symmetry_cell_setting 'monoclinic'
loop_
_space_group_symop_operation_xyz
x,y,z
-x,y,-z
1/2+x,1/2+y,z
1/2-x,1/2+y,-z
loop_
_atom_site_type_symbol
_atom_site_label
_atom_site_fract_x
_atom_site_fract_y
_atom_site_fract_z
Si Si1 0.215735 0.932460 0.505361
Si Si2 0.018765 0.361480 0.303926
Si Si3 0.246037 0.005999 0.916666
Si Si4 0.500000 0.618034 0.500000
Si Si5 0.731168 0.722505 0.612302
O O1 0.183861 0.909768 0.617678
O O2 0.177772 0.816437 0.281131
O O3 0.171689 0.090477 0.365659
O O4 0.381119 0.938881 0.917817
O O5 0.973496 0.221913 0.284961
O O6 0.113554 0.319671 0.389771
O O7 0.119394 0.444053 0.672368
O O8 0.132051 0.033140 0.770192
O O9 0.281551 0.146484 0.902571
#
# Coordination Sequence:
#
# PCOD9121030 Si02
#       5
#     4   4   4   2   4
#     4  10  20  39  67  98 128 174 221 264 334 399
#     4  11  19  41  68  92 132 173 217 274 326 387
#     4   9  21  36  67  98 119 176 218 264 325 387
#     4  10  18  38  62  94 126 166 216 272 316 382
#     4   9  22  37  65 100 127 175 216 263 337 392
#
# _framework density 23.091190999999998
#
# number of rings (size 3 to 8) (size 9 to 14) (size 15 to 20)
#    1.333    0.889    2.222    0.667    0.000    1.778 
#    0.000    4.444    4.889    0.000    0.000    0.000 
#    0.000    0.000    0.000    0.000    0.000    0.000 
#
# Total GULP energy -50130.463181 kJ/mol
# GULP energy per Si atom -5570.051465 kJ/mol
# Density = 2.303863 g / cm^3
# Si number density = 23.091191 Si / 1000 Ang^3
#
#
#
# Elastic Constant Matrix: (Units=GPa)
#
#
# Indices 1 2 3 4 5 6 
#
# 1 136.9659 51.3193 45.3376 0.0000 2.2465 0.0000
# 2 51.3193 54.5801 31.9975 0.0000 0.0592 0.0000
# 3 45.3376 31.9975 73.5343 0.0000 -2.3088 0.0000
# 4 0.0000 0.0000 0.0000 -15.2739 0.0000 23.2316
# 5 2.2465 0.0592 -2.3088 0.0000 29.9523 0.0000
# 6 0.0000 0.0000 0.0000 23.2316 0.0000 51.3861
#
#
#
# Elastic Compliance Matrix: (Units=1/GPa)
#
#
# Indices 1 2 3 4 5 6 
#
# 1 0.011877 -0.009199 -0.003355 0.000000 -0.001131 0.000000
# 2 -0.009199 0.031744 -0.008141 0.000000 0.000000 0.000000
# 3 -0.003355 -0.008141 0.019266 0.000000 0.001753 0.000000
# 4 0.000000 0.000000 0.000000 -0.038794 0.000000 0.017539
# 5 -0.001131 0.000000 0.001753 0.000000 0.033606 0.000000
# 6 0.000000 0.000000 0.000000 0.017539 0.000000 0.011531
#
#
# Mechanical properties :
#
#
# Convention : Reuss Voigt Hill
#
# Bulk Modulus (GPa) = 46.52268 58.04323 52.28295
# Shear Modulus (GPa) = 42.44959 22.30798 32.37879
#
# Velocity S-wave (km/s) = 4.29224 3.11156 3.74868
# Velocity P-wave (km/s) = 6.68996 6.17253 6.43645
#
# Compressibility (1/GPa) = 0.02149489
#
# Stress axis : x y z
#
# Youngs Moduli (GPa) = 84.19513 31.50191 51.90620
#
# Poissons Ratio (x) = 0.28979 0.17417
# Poissons Ratio (y) = 0.77453 0.42258
# Poissons Ratio (z) = 0.28252 0.25647
#
# Static dielectric constant tensor:
#      x y z
#    x 1.967020 0.000000 -0.056070 
#    y 0.000000 1.921610 0.000000 
#    z -0.056070 0.000000 1.866880 
# 
# From -- ./inp_files/18019.got.cif
#   From: 2010.05.17/outbox.cif.g08.bks.cpg/sg5_10_cif.got.tgz:18019.got - 2010.06.03 18:56:24.
