data_PCOD9121210
_publ_section_title
;
Structure prediction by ZEFSAII (Michael W. Deem and Ramdas Pophale) SiO2 
 PCOD9121210
Probable space group: C 2
;
_chemical_formula_sum "Si O2"
_cell_formula_units_Z 30
_cell_length_a 13.213936
_cell_length_b 5.133397
_cell_length_c 22.529143
_cell_angle_alpha 90.000000
_cell_angle_beta 126.161879
_cell_angle_gamma 90.000000
_cell_volume 1233.801325
_symmetry_space_group_name_H-M "C 2"
_symmetry_group_IT_number 5
_symmetry_cell_setting 'monoclinic'
loop_
_space_group_symop_operation_xyz
x,y,z
-x,y,-z
1/2+x,1/2+y,z
1/2-x,1/2+y,-z
loop_
_atom_site_type_symbol
_atom_site_label
_atom_site_fract_x
_atom_site_fract_y
_atom_site_fract_z
Si Si1 0.019104 0.480900 0.644963
Si Si2 0.908038 0.978389 0.672926
Si Si3 0.500000 0.581293 0.000000
Si Si4 0.826682 0.632676 0.050006
Si Si5 0.694115 0.988681 0.512990
Si Si6 0.696279 0.590403 0.242463
Si Si7 0.739679 0.352326 0.126554
Si Si8 0.590767 0.978164 0.127305
O O1 0.960454 0.710129 0.665015
O O2 0.950496 0.472767 0.556779
O O3 0.162841 0.554959 0.686308
O O4 0.988834 0.212830 0.670465
O O5 0.763929 0.010436 0.599766
O O6 0.898376 0.984883 0.740549
O O7 0.621782 0.408129 0.043360
O O8 0.520238 0.761924 0.063857
O O9 0.838856 0.496697 0.120466
O O10 0.975919 0.681457 0.091336
O O11 0.743227 0.898657 0.013153
O O12 0.753733 0.734749 0.504346
O O13 0.713616 0.465034 0.182898
O O14 0.643536 0.875108 0.207552
O O15 0.717078 0.051869 0.134128
#
# Coordination Sequence:
#
# PCOD9121210 Si02
#       8
#     4   4   2   4   4   4   4   4
#     4  10  23  43  68  97 136 177 226 275 326 390
#     4  10  23  43  68  97 136 177 226 275 326 390
#     4  10  18  44  60  88 114 158 210 274 314 380
#     4  12  26  46  72  98 120 168 226 274 332 392
#     4   8  16  37  66  95 126 172 224 279 320 369
#     4  11  28  40  64  99 136 182 216 263 344 402
#     4  11  25  42  66  93 132 168 217 273 332 395
#     4  11  25  42  66  93 132 168 217 273 332 395
#
# _framework density 24.315097000000002
#
# number of rings (size 3 to 8) (size 9 to 14) (size 15 to 20)
#    0.000    1.600    1.333    2.000    9.333    0.533 
#    0.000    0.000    0.000    9.600    0.000    0.000 
#    0.000    0.000    0.000    0.000    0.000    0.000 
#
# Total GULP energy -83507.406073 kJ/mol
# GULP energy per Si atom -5567.160405 kJ/mol
# Density = 2.425975 g / cm^3
# Si number density = 24.315097 Si / 1000 Ang^3
#
#
#
# Elastic Constant Matrix: (Units=GPa)
#
#
# Indices 1 2 3 4 5 6 
#
# 1 79.1946 1.5055 18.9577 0.0000 -7.8165 0.0000
# 2 1.5055 94.7376 5.2888 0.0000 -5.4465 0.0001
# 3 18.9577 5.2888 55.2220 0.0000 -2.3453 0.0000
# 4 0.0000 0.0000 0.0000 30.8095 0.0000 -2.5841
# 5 -7.8165 -5.4465 -2.3453 0.0000 53.8173 0.0000
# 6 0.0000 0.0001 0.0000 -2.5841 0.0000 12.8505
#
#
#
# Elastic Compliance Matrix: (Units=1/GPa)
#
#
# Indices 1 2 3 4 5 6 
#
# 1 0.013935 0.000147 -0.004720 0.000000 0.001833 0.000000
# 2 0.000147 0.010671 -0.001028 0.000000 0.001057 0.000000
# 3 -0.004720 -0.001028 0.019831 0.000000 0.000075 0.000000
# 4 0.000000 0.000000 0.000000 0.033014 0.000000 0.006639
# 5 0.001833 0.001057 0.000075 0.000000 0.018958 0.000000
# 6 0.000000 0.000000 0.000000 0.006639 0.000000 0.079153
#
#
# Mechanical properties :
#
#
# Convention : Reuss Voigt Hill
#
# Bulk Modulus (GPa) = 30.08772 31.18425 30.63599
# Shear Modulus (GPa) = 25.27270 33.05561 29.16416
#
# Velocity S-wave (km/s) = 3.22744 3.69110 3.46703
# Velocity P-wave (km/s) = 5.12733 5.56943 5.35294
#
# Compressibility (1/GPa) = 0.03323615
#
# Stress axis : x y z
#
# Youngs Moduli (GPa) = 71.76075 93.70975 50.42669
#
# Poissons Ratio (x) = -0.01382 0.23802
# Poissons Ratio (y) = -0.01058 0.05183
# Poissons Ratio (z) = 0.33873 0.09631
#
# Static dielectric constant tensor:
#      x y z
#    x 2.270640 0.000000 -0.097010 
#    y 0.000000 2.059310 0.000000 
#    z -0.097010 0.000000 2.016430 
# 
# From -- ./inp_files/68560.got.cif
#   From: 2010.05.17/outbox.cif.g08.bks.cpg/sg5_35_cif.got.tgz:68560.got - 2010.06.03 18:56:24.
