data_PCOD9121812
_publ_section_title
;
Structure prediction by ZEFSAII (Michael W. Deem and Ramdas Pophale) SiO2 
 PCOD9121812
Probable space group: C 2
;
_chemical_formula_sum "Si O2"
_cell_formula_units_Z 32
_cell_length_a 19.042001
_cell_length_b 12.658341
_cell_length_c 5.504200
_cell_angle_alpha 90.000000
_cell_angle_beta 92.644944
_cell_angle_gamma 90.000000
_cell_volume 1325.319753
_symmetry_space_group_name_H-M "C 2"
_symmetry_group_IT_number 5
_symmetry_cell_setting 'monoclinic'
loop_
_space_group_symop_operation_xyz
x,y,z
-x,y,-z
1/2+x,1/2+y,z
1/2-x,1/2+y,-z
loop_
_atom_site_type_symbol
_atom_site_label
_atom_site_fract_x
_atom_site_fract_y
_atom_site_fract_z
Si Si1 0.539908 0.424850 0.757814
Si Si2 0.336706 0.602343 0.675257
Si Si3 0.231951 0.650243 0.063845
Si Si4 0.574933 0.972779 0.580791
Si Si5 0.511424 0.660246 0.242184
Si Si6 0.073888 0.602300 0.076797
Si Si7 0.301733 0.804404 0.415965
Si Si8 0.697498 0.437272 0.683903
O O1 0.500000 0.387212 0.500000
O O2 0.534472 0.553163 0.741364
O O3 0.623729 0.402706 0.790723
O O4 0.500000 0.395575 0.000000
O O5 0.411296 0.615818 0.807272
O O6 0.341158 0.695874 0.481733
O O7 0.329246 0.486083 0.575039
O O8 0.267982 0.630163 0.813510
O O9 0.259034 0.761404 0.178438
O O10 0.259894 0.539969 0.201383
O O11 0.148522 0.656906 0.049840
O O12 0.500000 0.924061 0.500000
O O13 0.571922 0.017487 0.854544
O O14 0.641234 0.895724 0.595594
O O15 0.579729 0.057334 0.355240
O O16 0.500000 0.710411 0.500000
O O17 0.500000 0.729594 0.000000
O O18 0.000000 0.659967 0.000000
O O19 0.249834 0.844659 0.618867
#
# Coordination Sequence:
#
# PCOD9121812 Si02
#       8
#     4   4   4   4   4   4   4   4
#     4  10  19  36  64  95 124 173 221 261 331 408
#     4  11  24  40  65  98 135 184 224 276 349 412
#     4  11  24  41  69 101 137 186 230 291 352 424
#     4  10  22  45  71 104 138 184 234 289 351 417
#     4  10  19  36  61  93 129 169 213 261 324 408
#     4  10  22  44  78  98 131 189 239 287 350 409
#     4  11  26  41  65 107 139 180 233 290 353 418
#     4  11  22  43  68  93 140 184 225 288 345 425
#
# _framework density 24.145119000000001
#
# number of rings (size 3 to 8) (size 9 to 14) (size 15 to 20)
#    0.000    1.500    3.750    2.250    5.250    1.500 
#    0.000    0.000    2.750    0.750    0.000    0.000 
#    0.000    0.000    0.000    0.000    0.000    0.000 
#
# Total GULP energy -89140.546683 kJ/mol
# GULP energy per Si atom -5571.284168 kJ/mol
# Density = 2.409016 g / cm^3
# Si number density = 24.145119 Si / 1000 Ang^3
#
#
#
# Elastic Constant Matrix: (Units=GPa)
#
#
# Indices 1 2 3 4 5 6 
#
# 1 169.9649 12.0312 16.9102 0.0000 -11.7604 0.0000
# 2 12.0312 55.8590 16.7248 0.0000 -3.2209 0.0000
# 3 16.9102 16.7248 120.7047 0.0000 -4.6816 0.0000
# 4 0.0000 0.0000 0.0000 -6.3027 0.0000 16.7947
# 5 -11.7604 -3.2209 -4.6816 0.0000 39.8975 0.0000
# 6 0.0000 0.0000 0.0000 16.7947 0.0000 -14.4712
#
#
#
# Elastic Compliance Matrix: (Units=1/GPa)
#
#
# Indices 1 2 3 4 5 6 
#
# 1 0.006136 -0.001031 -0.000653 0.000000 0.001649 0.000000
# 2 -0.001031 0.018909 -0.002439 0.000000 0.000936 0.000000
# 3 -0.000653 -0.002439 0.008739 0.000000 0.000636 0.000000
# 4 0.000000 0.000000 0.000000 0.075823 0.000000 0.087998
# 5 0.001649 0.000936 0.000636 0.000000 0.025700 0.000000
# 6 0.000000 0.000000 0.000000 0.087998 0.000000 0.033024
#
#
# Mechanical properties :
#
#
# Convention : Reuss Voigt Hill
#
# Bulk Modulus (GPa) = 39.15889 48.65124 43.90506
# Shear Modulus (GPa) = 27.01405 23.88222 25.44814
#
# Velocity S-wave (km/s) = 3.34851 3.14843 3.25001
# Velocity P-wave (km/s) = 5.58599 5.78014 5.68390
#
# Compressibility (1/GPa) = 0.02553699
#
# Stress axis : x y z
#
# Youngs Moduli (GPa) = 162.98397 52.88598 114.43243
#
# Poissons Ratio (x) = 0.05453 0.07470
# Poissons Ratio (y) = 0.16804 0.27913
# Poissons Ratio (z) = 0.10639 0.12900
#
# Static dielectric constant tensor:
#      x y z
#    x 2.105750 0.000000 0.071950 
#    y 0.000000 1.866290 0.000000 
#    z 0.071950 0.000000 2.149510 
# 
# From -- ./inp_files/8659.got.cif
#   From: 2010.05.17/outbox.cif.g08.bks.cpg/sg5_5_cif.got.tgz:8659.got - 2010.06.03 18:56:24.
