data_PCOD9121115
_publ_section_title
;
Structure prediction by ZEFSAII (Michael W. Deem and Ramdas Pophale) SiO2 
 PCOD9121115
Probable space group: C 2
;
_chemical_formula_sum "Si O2"
_cell_formula_units_Z 32
_cell_length_a 17.870249
_cell_length_b 9.031231
_cell_length_c 13.828207
_cell_angle_alpha 90.000000
_cell_angle_beta 130.174262
_cell_angle_gamma 90.000000
_cell_volume 1705.240395
_symmetry_space_group_name_H-M "C 2"
_symmetry_group_IT_number 5
_symmetry_cell_setting 'monoclinic'
loop_
_space_group_symop_operation_xyz
x,y,z
-x,y,-z
1/2+x,1/2+y,z
1/2-x,1/2+y,-z
loop_
_atom_site_type_symbol
_atom_site_label
_atom_site_fract_x
_atom_site_fract_y
_atom_site_fract_z
Si Si1 0.867020 0.168260 0.120926
Si Si2 0.045379 0.970344 0.639955
Si Si3 0.268738 0.954431 0.122708
Si Si4 0.898716 0.901917 0.872063
Si Si5 0.136312 0.914742 0.374043
Si Si6 0.609986 0.153300 0.631129
Si Si7 0.226517 0.219352 0.387694
Si Si8 0.548067 0.737824 0.131439
O O1 0.817788 0.324960 0.102055
O O2 0.965111 0.197455 0.140041
O O3 0.896468 0.087208 0.245868
O O4 0.795427 0.063585 0.998338
O O5 0.106470 0.823397 0.664732
O O6 0.000000 0.026905 0.500000
O O7 0.956787 0.913524 0.633749
O O8 0.193429 0.878890 0.135958
O O9 0.349345 0.046341 0.251175
O O10 0.886452 0.853993 0.751554
O O11 0.910530 0.081311 0.875307
O O12 0.000000 0.843705 0.000000
O O13 0.221915 0.822253 0.492885
O O14 0.170353 0.083606 0.390097
O O15 0.500000 0.118908 0.500000
O O16 0.689997 0.152093 0.612348
O O17 0.143578 0.307926 0.258882
O O18 0.500000 0.818331 0.000000
#
# Coordination Sequence:
#
# PCOD9121115 Si02
#       8
#     4   4   4   4   4   4   4   4
#     4  12  24  41  67 101 128 169 220 275 328 389
#     4  11  22  41  63  93 133 173 209 265 330 385
#     4  12  24  41  67 101 128 169 220 275 328 389
#     4  10  18  39  69  86 118 168 217 251 317 392
#     4  11  21  39  66  93 122 172 218 256 319 387
#     4  11  22  41  63  93 133 173 209 265 330 385
#     4  11  21  39  66  93 122 172 218 256 319 387
#     4  10  18  39  69  86 118 168 217 251 317 392
#
# _framework density 18.765682999999999
#
# number of rings (size 3 to 8) (size 9 to 14) (size 15 to 20)
#    0.000    1.000   10.000    0.750    0.000    2.500 
#    0.000    0.000    0.000    0.000    0.000    0.000 
#    0.000    0.000    0.000    0.000    0.000    0.000 
#
# Total GULP energy -89279.308900 kJ/mol
# GULP energy per Si atom -5579.956806 kJ/mol
# Density = 1.872297 g / cm^3
# Si number density = 18.765683 Si / 1000 Ang^3
#
#
#
# Elastic Constant Matrix: (Units=GPa)
#
#
# Indices 1 2 3 4 5 6 
#
# 1 70.0274 9.3508 23.2008 0.0000 1.5089 0.0000
# 2 9.3508 29.4761 33.0348 0.0000 0.2176 0.0000
# 3 23.2008 33.0348 192.6113 0.0000 -1.5812 0.0000
# 4 0.0000 0.0000 0.0000 29.1290 0.0000 0.0128
# 5 1.5089 0.2176 -1.5812 0.0000 32.8065 0.0000
# 6 0.0000 0.0000 0.0000 0.0128 0.0000 12.2314
#
#
#
# Elastic Compliance Matrix: (Units=1/GPa)
#
#
# Indices 1 2 3 4 5 6 
#
# 1 0.015164 -0.003406 -0.001248 0.000000 -0.000735 0.000000
# 2 -0.003406 0.042777 -0.006930 0.000000 -0.000461 0.000000
# 3 -0.001248 -0.006930 0.006534 0.000000 0.000418 0.000000
# 4 0.000000 0.000000 0.000000 0.034330 0.000000 -0.000036
# 5 -0.000735 -0.000461 0.000418 0.000000 0.030539 0.000000
# 6 0.000000 0.000000 0.000000 -0.000036 0.000000 0.081757
#
#
# Mechanical properties :
#
#
# Convention : Reuss Voigt Hill
#
# Bulk Modulus (GPa) = 24.20961 47.03196 35.62078
# Shear Modulus (GPa) = 20.15813 29.93526 25.04670
#
# Velocity S-wave (km/s) = 3.28106 3.99834 3.65733
# Velocity P-wave (km/s) = 5.22329 6.81416 6.07106
#
# Compressibility (1/GPa) = 0.04130592
#
# Stress axis : x y z
#
# Youngs Moduli (GPa) = 65.94385 23.37726 153.04059
#
# Poissons Ratio (x) = 0.07962 0.19107
# Poissons Ratio (y) = 0.22461 1.06059
# Poissons Ratio (z) = 0.08233 0.16201
#
# Static dielectric constant tensor:
#      x y z
#    x 1.623620 0.000000 -0.002600 
#    y 0.000000 1.625390 0.000000 
#    z -0.002600 0.000000 1.724570 
# 
# From -- ./inp_files/55668.got.cif
#   From: 2010.05.17/outbox.cif.g08.bks.cpg/sg5_28_cif.got.tgz:55668.got - 2010.06.03 18:56:24.
