data_PCOD9121254
_publ_section_title
;
Structure prediction by ZEFSAII (Michael W. Deem and Ramdas Pophale) SiO2 
 PCOD9121254
Probable space group: C 2
;
_chemical_formula_sum "Si O2"
_cell_formula_units_Z 32
_cell_length_a 13.138655
_cell_length_b 26.155810
_cell_length_c 15.064653
_cell_angle_alpha 90.000000
_cell_angle_beta 160.453571
_cell_angle_gamma 90.000000
_cell_volume 1732.072242
_symmetry_space_group_name_H-M "C 2"
_symmetry_group_IT_number 5
_symmetry_cell_setting 'monoclinic'
loop_
_space_group_symop_operation_xyz
x,y,z
-x,y,-z
1/2+x,1/2+y,z
1/2-x,1/2+y,-z
loop_
_atom_site_type_symbol
_atom_site_label
_atom_site_fract_x
_atom_site_fract_y
_atom_site_fract_z
Si Si1 0.303655 0.839540 0.004364
Si Si2 0.848347 0.969707 0.783268
Si Si3 0.142222 0.124963 0.215492
Si Si4 0.189567 0.041792 0.936388
Si Si5 0.415898 0.394935 0.533585
Si Si6 0.645565 0.741643 0.216459
Si Si7 0.102494 0.017525 0.483358
Si Si8 0.153374 0.846481 0.217459
O O1 0.149996 0.866472 0.792022
O O2 0.037319 0.829518 0.855062
O O3 0.569819 0.875763 0.262599
O O4 0.468740 0.786257 0.120419
O O5 0.500000 0.986649 0.500000
O O6 0.852920 0.908437 0.783186
O O7 0.026317 0.992730 0.846871
O O8 0.000000 0.986521 0.000000
O O9 0.500000 0.111840 0.500000
O O10 0.124765 0.183724 0.234908
O O11 0.957946 0.088360 0.129963
O O12 0.000000 0.121855 0.000000
O O13 0.101755 0.042968 0.760786
O O14 0.549693 0.035193 0.243449
O O15 0.500000 0.383721 0.500000
O O16 0.425777 0.456068 0.553002
O O17 0.000000 0.755005 0.500000
O O18 0.500000 0.739787 0.000000
O O19 0.000000 0.028419 0.500000
O O20 0.500000 0.829648 0.500000
O O21 0.000000 0.830625 0.000000
#
# Coordination Sequence:
#
# PCOD9121254 Si02
#       8
#     4   4   4   4   4   4   4   4
#     4  12  21  35  58  80 110 152 190 223 277 336
#     4  10  19  31  49  76 106 135 175 221 269 325
#     4  10  21  38  60  89 118 141 176 231 292 346
#     4  12  21  36  59  79 108 150 189 224 280 338
#     4  11  22  35  54  83 115 145 184 230 278 335
#     4  10  21  37  58  87 117 141 176 231 290 343
#     4  11  24  38  53  79 114 151 191 232 269 318
#     4  10  21  34  48  71 105 143 181 222 260 307
#
# _framework density 18.474979000000001
#
# number of rings (size 3 to 8) (size 9 to 14) (size 15 to 20)
#    0.000    1.250    0.000    7.875    0.000    4.000 
#    0.000    0.000    0.000    2.250    0.000    0.000 
#    0.000    0.000    0.000    0.000    0.000    0.000 
#
# Total GULP energy -89441.624980 kJ/mol
# GULP energy per Si atom -5590.101561 kJ/mol
# Density = 1.843293 g / cm^3
# Si number density = 18.474979 Si / 1000 Ang^3
#
#
#
# Elastic Constant Matrix: (Units=GPa)
#
#
# Indices 1 2 3 4 5 6 
#
# 1 93.0260 39.5312 35.1159 0.0117 2.4456 0.0149
# 2 39.5312 83.5018 33.7905 -0.0065 5.0838 0.0075
# 3 35.1159 33.7905 137.0066 -0.0911 -0.3083 -0.1031
# 4 0.0117 -0.0065 -0.0911 22.4406 -0.0243 13.8136
# 5 2.4456 5.0838 -0.3083 -0.0243 36.2451 -0.0216
# 6 0.0149 0.0075 -0.1031 13.8136 -0.0216 16.8046
#
#
#
# Elastic Compliance Matrix: (Units=1/GPa)
#
#
# Indices 1 2 3 4 5 6 
#
# 1 0.014017 -0.005746 -0.002176 -0.000007 -0.000158 -0.000018
# 2 -0.005746 0.015790 -0.002426 0.000015 -0.001848 -0.000032
# 3 -0.002176 -0.002426 0.008456 0.000002 0.000559 0.000054
# 4 -0.000007 0.000015 0.000002 0.090207 0.000015 -0.074151
# 5 -0.000158 -0.001848 0.000559 0.000015 0.027865 0.000028
# 6 -0.000018 -0.000032 0.000054 -0.074151 0.000028 0.120460
#
#
# Mechanical properties :
#
#
# Convention : Reuss Voigt Hill
#
# Bulk Modulus (GPa) = 56.92098 58.93439 57.92768
# Shear Modulus (GPa) = 16.48285 28.77119 22.62702
#
# Velocity S-wave (km/s) = 2.99016 3.95055 3.50342
# Velocity P-wave (km/s) = 6.54203 7.26484 6.91289
#
# Compressibility (1/GPa) = 0.01756821
#
# Stress axis : x y z
#
# Youngs Moduli (GPa) = 71.34287 63.33107 118.25601
#
# Poissons Ratio (x) = 0.36388 0.25732
# Poissons Ratio (y) = 0.40991 0.28687
# Poissons Ratio (z) = 0.15524 0.15363
#
# Static dielectric constant tensor:
#      x y z
#    x 1.629620 0.000010 -0.008710 
#    y 0.000010 1.649850 -0.000020 
#    z -0.008710 -0.000020 1.628520 
# 
# From -- ./inp_files/53586.got.cif
#   From: 2010.05.17/outbox.cif.g08.bks.cpg/sg5_27_cif.got.tgz:53586.got - 2010.06.03 18:56:24.
