data_PCOD9121608
_publ_section_title
;
Structure prediction by ZEFSAII (Michael W. Deem and Ramdas Pophale) SiO2 
 PCOD9121608
Probable space group: C 2
;
_chemical_formula_sum "Si O2"
_cell_formula_units_Z 30
_cell_length_a 12.109025
_cell_length_b 21.385335
_cell_length_c 12.791822
_cell_angle_alpha 90.000000
_cell_angle_beta 155.063479
_cell_angle_gamma 90.000000
_cell_volume 1396.601646
_symmetry_space_group_name_H-M "C 2"
_symmetry_group_IT_number 5
_symmetry_cell_setting 'monoclinic'
loop_
_space_group_symop_operation_xyz
x,y,z
-x,y,-z
1/2+x,1/2+y,z
1/2-x,1/2+y,-z
loop_
_atom_site_type_symbol
_atom_site_label
_atom_site_fract_x
_atom_site_fract_y
_atom_site_fract_z
Si Si1 0.029113 0.982420 0.138812
Si Si2 0.993798 0.628891 0.118563
Si Si3 0.500000 0.888033 0.500000
Si Si4 0.656693 0.871274 0.855965
Si Si5 0.117244 0.094097 0.367069
Si Si6 0.289639 0.319036 0.392974
Si Si7 0.956825 0.756468 0.187145
Si Si8 0.934838 0.195335 0.836405
O O1 0.251831 0.931714 0.307808
O O2 0.119103 0.029642 0.305076
O O3 0.000000 0.014247 0.000000
O O4 0.775587 0.941016 0.953052
O O5 0.064573 0.701714 0.205686
O O6 0.201757 0.593937 0.374015
O O7 0.691930 0.610082 0.884332
O O8 0.000000 0.618064 0.000000
O O9 0.539069 0.853594 0.642294
O O10 0.447820 0.861618 0.769837
O O11 0.878722 0.819573 0.061710
O O12 0.211821 0.149838 0.370167
O O13 0.500000 0.353434 0.500000
O O14 0.384055 0.283264 0.578471
O O15 0.211518 0.258865 0.257494
O O16 0.693891 0.722984 0.004371
O O17 0.000000 0.160986 0.000000
#
# Coordination Sequence:
#
# PCOD9121608 Si02
#       8
#     4   4   2   4   4   4   4   4
#     4  10  23  43  68 102 131 175 229 295 350 416
#     4  11  25  44  69  98 136 186 230 285 347 423
#     4  10  22  44  68  96 128 176 232 294 348 416
#     4  10  23  39  65  99 137 178 227 287 345 413
#     4  11  24  43  70  99 138 177 233 291 351 413
#     4  11  20  36  63  94 143 184 221 279 345 417
#     4  10  21  38  60  95 133 178 220 278 340 412
#     4  10  19  35  57  96 133 175 221 279 344 409
#
# _framework density 21.480713999999999
#
# number of rings (size 3 to 8) (size 9 to 14) (size 15 to 20)
#    0.000    1.600    2.667    1.600    3.733    2.667 
#    1.200    0.000    5.867    0.000    0.000    0.000 
#    0.000    0.000    0.000    0.000    0.000    0.000 
#
# Total GULP energy -83611.179849 kJ/mol
# GULP energy per Si atom -5574.078657 kJ/mol
# Density = 2.143182 g / cm^3
# Si number density = 21.480714 Si / 1000 Ang^3
#
#
#
# Elastic Constant Matrix: (Units=GPa)
#
#
# Indices 1 2 3 4 5 6 
#
# 1 96.5325 48.2027 37.0400 0.0044 -10.3478 0.0013
# 2 48.2027 73.2668 27.5341 0.0020 -10.7908 0.0001
# 3 37.0400 27.5341 119.3080 0.0069 -31.7414 0.0017
# 4 0.0044 0.0020 0.0069 1.2953 0.0052 -15.7539
# 5 -10.3478 -10.7908 -31.7414 0.0052 48.5756 0.0014
# 6 0.0013 0.0001 0.0017 -15.7539 0.0014 15.1740
#
#
#
# Elastic Compliance Matrix: (Units=1/GPa)
#
#
# Indices 1 2 3 4 5 6 
#
# 1 0.016268 -0.009674 -0.002987 0.000003 -0.000635 0.000002
# 2 -0.009674 0.020765 -0.001343 -0.000001 0.001674 0.000000
# 3 -0.002987 -0.001343 0.011342 0.000008 0.006477 0.000007
# 4 0.000003 -0.000001 0.000008 -0.066398 0.000015 -0.068936
# 5 -0.000635 0.001674 0.006477 0.000015 0.025055 0.000012
# 6 0.000002 0.000000 0.000007 -0.068936 0.000012 -0.005668
#
#
# Mechanical properties :
#
#
# Convention : Reuss Voigt Hill
#
# Bulk Modulus (GPa) = 49.10074 57.18454 53.14264
# Shear Modulus (GPa) = 138.27439 24.76436 81.51937
#
# Velocity S-wave (km/s) = 8.03188 3.39907 6.16704
# Velocity P-wave (km/s) = 10.43660 6.48722 8.68926
#
# Compressibility (1/GPa) = 0.02036629
#
# Stress axis : x y z
#
# Youngs Moduli (GPa) = 61.47159 48.15895 88.16705
#
# Poissons Ratio (x) = 0.46587 0.26335
# Poissons Ratio (y) = 0.59466 0.11845
# Poissons Ratio (z) = 0.18361 0.06470
#
# Static dielectric constant tensor:
#      x y z
#    x 1.870590 0.000000 0.093210 
#    y 0.000000 1.768510 0.000000 
#    z 0.093210 0.000000 2.029130 
# 
# From -- ./inp_files/40717.got.cif
#   From: 2010.05.17/outbox.cif.g08.bks.cpg/sg5_21_cif.got.tgz:40717.got - 2010.06.03 18:56:24.
