data_PCOD9121013
_publ_section_title
;
Structure prediction by ZEFSAII (Michael W. Deem and Ramdas Pophale) SiO2 
 PCOD9121013
Probable space group: C 2
;
_chemical_formula_sum "Si O2"
_cell_formula_units_Z 30
_cell_length_a 21.617896
_cell_length_b 8.103173
_cell_length_c 9.193002
_cell_angle_alpha 90.000000
_cell_angle_beta 57.424023
_cell_angle_gamma 90.000000
_cell_volume 1357.024403
_symmetry_space_group_name_H-M "C 2"
_symmetry_group_IT_number 5
_symmetry_cell_setting 'monoclinic'
loop_
_space_group_symop_operation_xyz
x,y,z
-x,y,-z
1/2+x,1/2+y,z
1/2-x,1/2+y,-z
loop_
_atom_site_type_symbol
_atom_site_label
_atom_site_fract_x
_atom_site_fract_y
_atom_site_fract_z
Si Si1 0.778272 0.065530 0.748227
Si Si2 0.812658 0.062058 0.261037
Si Si3 0.500000 0.669648 0.500000
Si Si4 0.942768 0.597026 0.359806
Si Si5 0.588500 0.978583 0.283428
Si Si6 0.311625 0.931013 0.371368
Si Si7 0.751810 0.909458 0.056883
Si Si8 0.915512 0.980563 0.367598
O O1 0.768870 0.233862 0.848494
O O2 0.845063 0.042349 0.551417
O O3 0.707265 0.053372 0.735623
O O4 0.787744 0.919182 0.853484
O O5 0.799849 0.252633 0.316137
O O6 0.891804 0.029395 0.234168
O O7 0.748611 0.959968 0.426187
O O8 0.800661 0.011656 0.109915
O O9 0.563778 0.794818 0.365600
O O10 0.479059 0.563104 0.384639
O O11 0.920159 0.580212 0.557150
O O12 0.890643 0.472308 0.337380
O O13 0.027693 0.542835 0.247518
O O14 0.927866 0.785710 0.342189
O O15 0.671716 0.989122 0.131127
#
# Coordination Sequence:
#
# PCOD9121013 Si02
#       8
#     4   4   2   4   4   4   4   4
#     4  11  25  37  61  86 125 156 199 239 305 351
#     4  11  21  34  62  83 122 148 203 246 293 342
#     4  10  18  38  60  88 120 144 206 244 298 344
#     4  10  20  35  60  88 120 146 200 243 295 340
#     4  10  21  35  59  88 118 161 189 248 293 356
#     4  11  20  37  57  90 113 156 197 252 289 347
#     4  12  23  42  57  90 122 163 192 243 297 366
#     4  11  21  38  62  96 112 156 195 255 292 350
#
# _framework density 22.107194
#
# number of rings (size 3 to 8) (size 9 to 14) (size 15 to 20)
#    0.000    1.333    2.667    7.200    1.867    0.000 
#    0.000    0.667    0.000    0.800    0.000    0.000 
#    0.000    0.000    0.000    0.000    0.000    0.000 
#
# Total GULP energy -83759.000114 kJ/mol
# GULP energy per Si atom -5583.933341 kJ/mol
# Density = 2.205688 g / cm^3
# Si number density = 22.107194 Si / 1000 Ang^3
#
#
#
# Elastic Constant Matrix: (Units=GPa)
#
#
# Indices 1 2 3 4 5 6 
#
# 1 117.4859 12.3194 13.7401 0.0000 23.6652 0.0000
# 2 12.3194 69.5546 -10.8955 0.0000 -1.0333 0.0000
# 3 13.7401 -10.8955 26.6254 0.0000 18.2548 0.0000
# 4 0.0000 0.0000 0.0000 18.6104 0.0000 11.1826
# 5 23.6652 -1.0333 18.2548 0.0000 23.2799 0.0000
# 6 0.0000 0.0000 0.0000 11.1826 0.0000 36.7947
#
#
#
# Elastic Compliance Matrix: (Units=1/GPa)
#
#
# Indices 1 2 3 4 5 6 
#
# 1 0.011099 -0.001708 0.002944 0.000000 -0.013667 0.000000
# 2 -0.001708 0.016590 0.012923 0.000000 -0.007661 0.000000
# 3 0.002944 0.012923 0.092967 0.000000 -0.075318 0.000000
# 4 0.000000 0.000000 0.000000 0.065739 0.000000 -0.019979
# 5 -0.013667 -0.007661 -0.075318 0.000000 0.115569 0.000000
# 6 0.000000 0.000000 0.000000 -0.019979 0.000000 0.033250
#
#
# Mechanical properties :
#
#
# Convention : Reuss Voigt Hill
#
# Bulk Modulus (GPa) = 6.71262 27.11043 16.91153
# Shear Modulus (GPa) = 14.02310 28.97045 21.49677
#
# Velocity S-wave (km/s) = 2.52131 3.62395 3.12170
# Velocity P-wave (km/s) = 3.39396 5.45898 4.54530
#
# Compressibility (1/GPa) = 0.14897318
#
# Stress axis : x y z
#
# Youngs Moduli (GPa) = 90.09438 60.27674 10.75655
#
# Poissons Ratio (x) = 0.10294 -0.03166
# Poissons Ratio (y) = 0.15387 -0.13900
# Poissons Ratio (z) = -0.26521 -0.77893
#
# Static dielectric constant tensor:
#      x y z
#    x 1.896110 0.000000 -0.018440 
#    y 0.000000 1.853870 0.000000 
#    z -0.018440 0.000000 1.784990 
# 
# From -- ./inp_files/30656.got.cif
#   From: 2010.05.17/outbox.cif.g08.bks.cpg/sg5_16_cif.got.tgz:30656.got - 2010.06.03 18:56:24.
