data_PCOD9121857
_publ_section_title
;
Structure prediction by ZEFSAII (Michael W. Deem and Ramdas Pophale) SiO2 
 PCOD9121857
Probable space group: C 2
;
_chemical_formula_sum "Si O2"
_cell_formula_units_Z 28
_cell_length_a 28.138321
_cell_length_b 8.559389
_cell_length_c 9.068884
_cell_angle_alpha 90.000000
_cell_angle_beta 32.775855
_cell_angle_gamma 90.000000
_cell_volume 1182.431776
_symmetry_space_group_name_H-M "C 2"
_symmetry_group_IT_number 5
_symmetry_cell_setting 'monoclinic'
loop_
_space_group_symop_operation_xyz
x,y,z
-x,y,-z
1/2+x,1/2+y,z
1/2-x,1/2+y,-z
loop_
_atom_site_type_symbol
_atom_site_label
_atom_site_fract_x
_atom_site_fract_y
_atom_site_fract_z
Si Si1 0.831355 0.823270 0.349049
Si Si2 0.146766 0.712908 0.259714
Si Si3 0.000000 0.006128 0.000000
Si Si4 0.756984 0.971531 0.813666
Si Si5 0.000000 0.206084 0.500000
Si Si6 0.914355 0.225830 0.429242
Si Si7 0.144034 0.959930 0.039651
Si Si8 0.343142 0.034956 0.500817
O O1 0.837429 0.873199 0.164031
O O2 0.833692 0.639294 0.379380
O O3 0.757140 0.906379 0.645458
O O4 0.917099 0.898176 0.197869
O O5 0.104034 0.637905 0.515820
O O6 0.222539 0.820826 0.139155
O O7 0.175112 0.570245 0.082106
O O8 0.105201 0.838515 0.259933
O O9 0.990796 0.121504 0.160621
O O10 0.834410 0.100412 0.639785
O O11 0.051980 0.285051 0.500250
O O12 0.076671 0.101754 0.224276
O O13 0.885956 0.365222 0.394466
O O14 0.243303 0.013232 0.820652
#
# Coordination Sequence:
#
# PCOD9121857 Si02
#       8
#     4   4   2   4   2   4   4   4
#     4  10  25  41  66  99 141 185 231 291 353 413
#     4  11  19  38  64  97 136 177 230 282 343 410
#     4  10  22  44  68  94 140 184 226 282 372 418
#     4  10  19  36  64  92 133 183 226 274 342 414
#     4  12  24  44  74 104 142 182 240 294 356 406
#     4  11  21  43  66  98 134 186 227 287 351 421
#     4  12  24  41  69 106 140 184 240 293 344 419
#     4  11  25  42  71 103 141 186 239 286 350 424
#
# _framework density 23.680014
#
# number of rings (size 3 to 8) (size 9 to 14) (size 15 to 20)
#    0.000    1.143    5.714    0.000    2.000    0.571 
#    0.000    3.571    0.000    0.000    0.000    0.000 
#    0.000    0.000    0.000    0.000    0.000    0.000 
#
# Total GULP energy -78076.409328 kJ/mol
# GULP energy per Si atom -5576.886381 kJ/mol
# Density = 2.362612 g / cm^3
# Si number density = 23.680014 Si / 1000 Ang^3
#
#
#
# Elastic Constant Matrix: (Units=GPa)
#
#
# Indices 1 2 3 4 5 6 
#
# 1 66.7704 14.7961 0.9183 0.0000 22.8943 0.0000
# 2 14.7961 119.9177 12.7816 0.0000 1.1992 0.0000
# 3 0.9183 12.7816 38.5774 0.0000 10.0812 0.0000
# 4 0.0000 0.0000 0.0000 24.1475 0.0000 13.5738
# 5 22.8943 1.1992 10.0812 0.0000 30.3600 0.0000
# 6 0.0000 0.0000 0.0000 13.5738 0.0000 32.0888
#
#
#
# Elastic Compliance Matrix: (Units=1/GPa)
#
#
# Indices 1 2 3 4 5 6 
#
# 1 0.021761 -0.003059 0.005204 0.000000 -0.018017 0.000000
# 2 -0.003059 0.009087 -0.003774 0.000000 0.003202 0.000000
# 3 0.005204 -0.003774 0.030699 0.000000 -0.013969 0.000000
# 4 0.000000 0.000000 0.000000 0.054331 0.000000 -0.022982
# 5 -0.018017 0.003202 -0.013969 0.000000 0.051036 0.000000
# 6 0.000000 0.000000 0.000000 -0.022982 0.000000 0.040885
#
#
# Mechanical properties :
#
#
# Convention : Reuss Voigt Hill
#
# Bulk Modulus (GPa) = 17.15667 31.36195 24.25931
# Shear Modulus (GPa) = 21.69313 30.43725 26.06519
#
# Velocity S-wave (km/s) = 3.02999 3.58908 3.32132
# Velocity P-wave (km/s) = 4.41611 5.51798 4.99751
#
# Compressibility (1/GPa) = 0.05828636
#
# Stress axis : x y z
#
# Youngs Moduli (GPa) = 45.95447 110.04926 32.57435
#
# Poissons Ratio (x) = 0.33669 -0.16951
# Poissons Ratio (y) = 0.14060 0.12295
# Poissons Ratio (z) = -0.23914 0.41538
#
# Static dielectric constant tensor:
#      x y z
#    x 2.016470 0.000000 0.051400 
#    y 0.000000 1.885540 0.000000 
#    z 0.051400 0.000000 1.952520 
# 
# From -- ./inp_files/29170.got.cif
#   From: 2010.05.17/outbox.cif.g08.bks.cpg/sg5_15_cif.got.tgz:29170.got - 2010.06.03 18:56:24.
