data_PCOD9121685
_publ_section_title
;
Structure prediction by ZEFSAII (Michael W. Deem and Ramdas Pophale) SiO2 
 PCOD9121685
Probable space group: C 2
;
_chemical_formula_sum "Si O2"
_cell_formula_units_Z 32
_cell_length_a 14.319052
_cell_length_b 8.196650
_cell_length_c 17.729729
_cell_angle_alpha 90.000000
_cell_angle_beta 36.926669
_cell_angle_gamma 90.000000
_cell_volume 1250.193316
_symmetry_space_group_name_H-M "C 2"
_symmetry_group_IT_number 5
_symmetry_cell_setting 'monoclinic'
loop_
_space_group_symop_operation_xyz
x,y,z
-x,y,-z
1/2+x,1/2+y,z
1/2-x,1/2+y,-z
loop_
_atom_site_type_symbol
_atom_site_label
_atom_site_fract_x
_atom_site_fract_y
_atom_site_fract_z
Si Si1 0.968635 0.845570 0.414743
Si Si2 0.791731 0.670143 0.013945
Si Si3 0.389115 0.723594 0.500643
Si Si4 0.788536 0.825586 0.863892
Si Si5 0.352676 0.823989 0.755329
Si Si6 0.630206 0.605393 0.862388
Si Si7 0.771258 0.285287 0.325706
Si Si8 0.646633 0.148719 0.766702
O O1 0.044425 0.827538 0.284005
O O2 0.114977 0.801007 0.374261
O O3 0.812750 0.749665 0.540242
O O4 0.919359 0.032900 0.462444
O O5 0.765751 0.690069 0.942323
O O6 0.976425 0.701459 0.901926
O O7 0.749169 0.493607 0.072007
O O8 0.690789 0.790577 0.130759
O O9 0.500000 0.767452 0.500000
O O10 0.465894 0.818876 0.381886
O O11 0.221439 0.742492 0.646661
O O12 0.665757 0.778515 0.879050
O O13 0.262043 0.685852 0.762962
O O14 0.279335 0.991761 0.775454
O O15 0.617932 0.647867 0.782175
O O16 0.500000 0.528845 0.000000
O O17 0.851945 0.460887 0.261863
#
# Coordination Sequence:
#
# PCOD9121685 Si02
#       8
#     4   4   4   4   4   4   4   4
#     4   9  14  33  58  81 108 151 190 234 290 356
#     4  12  23  38  62  82 117 161 199 242 294 356
#     4   9  15  33  60  89 112 146 187 240 294 351
#     4  11  24  39  58  83 119 160 200 240 301 354
#     4  11  20  36  60  89 120 157 188 241 300 346
#     4  11  22  36  58  91 125 149 198 254 291 344
#     4   9  16  32  59  86 112 147 194 241 292 342
#     4  10  19  35  63  89 114 148 202 239 294 348
#
# _framework density 25.596041
#
# number of rings (size 3 to 8) (size 9 to 14) (size 15 to 20)
#    0.000    1.750    5.000    3.375    0.000    0.000 
#   13.500    0.000   13.750    0.000    0.000    0.000 
#    0.000    0.000    0.000    0.000    0.000    0.000 
#
# Total GULP energy -89387.611827 kJ/mol
# GULP energy per Si atom -5586.725739 kJ/mol
# Density = 2.553778 g / cm^3
# Si number density = 25.596041 Si / 1000 Ang^3
#
#
#
# Elastic Constant Matrix: (Units=GPa)
#
#
# Indices 1 2 3 4 5 6 
#
# 1 34.0971 -17.1164 44.4807 0.0000 -20.5967 0.0000
# 2 -17.1164 63.5871 42.4374 0.0000 0.4804 0.0000
# 3 44.4807 42.4374 238.5607 0.0000 38.2219 0.0000
# 4 0.0000 0.0000 0.0000 25.0680 0.0000 9.7614
# 5 -20.5967 0.4804 38.2219 0.0000 4.4310 0.0000
# 6 0.0000 0.0000 0.0000 9.7614 0.0000 9.7500
#
#
#
# Elastic Compliance Matrix: (Units=1/GPa)
#
#
# Indices 1 2 3 4 5 6 
#
# 1 0.002484 -0.002448 0.005027 0.000000 -0.031548 0.000000
# 2 -0.002448 0.014971 0.000324 0.000000 -0.015794 0.000000
# 3 0.005027 0.000324 0.001417 0.000000 0.011112 0.000000
# 4 0.000000 0.000000 0.000000 0.065380 0.000000 -0.065457
# 5 -0.031548 -0.015794 0.011112 0.000000 -0.015105 0.000000
# 6 0.000000 0.000000 0.000000 -0.065457 0.000000 0.168097
#
#
# Mechanical properties :
#
#
# Convention : Reuss Voigt Hill
#
# Bulk Modulus (GPa) = 40.52293 52.87202 46.69748
# Shear Modulus (GPa) = 20.86246 25.61268 23.23757
#
# Velocity S-wave (km/s) = 2.85803 3.16674 3.01634
# Velocity P-wave (km/s) = 5.17274 5.83713 5.51495
#
# Compressibility (1/GPa) = 0.02467739
#
# Stress axis : x y z
#
# Youngs Moduli (GPa) = 402.52575 66.79668 705.92815
#
# Poissons Ratio (x) = 0.16351 -3.54862
# Poissons Ratio (y) = 0.98531 -0.22857
# Poissons Ratio (z) = -2.02345 -0.02163
#
# Static dielectric constant tensor:
#      x y z
#    x 2.094170 0.000000 0.014450 
#    y 0.000000 2.028570 0.000000 
#    z 0.014450 0.000000 2.106710 
# 
# From -- ./inp_files/67047.got.cif
#   From: 2010.05.17/outbox.cif.g08.bks.cpg/sg5_34_cif.got.tgz:67047.got - 2010.06.03 18:56:24.
