data_PCOD9121539
_publ_section_title
;
Structure prediction by ZEFSAII (Michael W. Deem and Ramdas Pophale) SiO2 
 PCOD9121539
Probable space group: C 2
;
_chemical_formula_sum "Si O2"
_cell_formula_units_Z 30
_cell_length_a 17.241204
_cell_length_b 7.184038
_cell_length_c 19.235096
_cell_angle_alpha 90.000000
_cell_angle_beta 149.284067
_cell_angle_gamma 90.000000
_cell_volume 1216.931580
_symmetry_space_group_name_H-M "C 2"
_symmetry_group_IT_number 5
_symmetry_cell_setting 'monoclinic'
loop_
_space_group_symop_operation_xyz
x,y,z
-x,y,-z
1/2+x,1/2+y,z
1/2-x,1/2+y,-z
loop_
_atom_site_type_symbol
_atom_site_label
_atom_site_fract_x
_atom_site_fract_y
_atom_site_fract_z
Si Si1 0.777997 0.750000 0.346268
Si Si2 0.443346 0.330062 0.707586
Si Si3 0.500000 0.905461 0.500000
Si Si4 0.083178 0.254504 0.945680
Si Si5 0.594665 0.848956 0.718762
Si Si6 0.809973 0.834968 0.998880
Si Si7 0.696732 0.719662 0.425376
Si Si8 0.669476 0.291275 0.762116
O O1 0.597044 0.761519 0.193150
O O2 0.786888 0.820020 0.432103
O O3 0.848011 0.844826 0.331493
O O4 0.860793 0.547209 0.410073
O O5 0.543490 0.252263 0.848207
O O6 0.359516 0.526878 0.651941
O O7 0.316189 0.195351 0.579303
O O8 0.560679 0.376084 0.736050
O O9 0.550403 0.791077 0.606686
O O10 0.130937 0.040150 0.972318
O O11 0.173714 0.346080 0.950439
O O12 0.162255 0.318499 0.077692
O O13 0.449231 0.817857 0.655133
O O14 0.631071 0.069217 0.737983
O O15 0.736505 0.762092 0.870675
#
# Coordination Sequence:
#
# PCOD9121539 Si02
#       8
#     4   4   2   4   4   4   4   4
#     4  11  19  37  57  92 116 166 194 257 286 375
#     4  11  22  37  57  91 121 163 200 261 293 365
#     4  10  22  36  60  88 134 150 206 242 314 348
#     4  10  19  34  61  89 120 157 202 248 298 353
#     4  10  20  38  60  89 119 162 191 257 296 367
#     4  10  19  37  58  91 122 154 202 252 300 351
#     4  12  22  37  63  86 121 158 213 246 307 352
#     4   9  21  36  60  85 125 152 203 244 309 343
#
# _framework density 24.652166000000001
#
# number of rings (size 3 to 8) (size 9 to 14) (size 15 to 20)
#    0.000    1.600    2.667    3.600    0.000    0.000 
#    0.000    1.333    0.000    4.800    0.000   13.067 
#    0.000    0.000    0.000    0.000    0.000    0.000 
#
# Total GULP energy -83731.756766 kJ/mol
# GULP energy per Si atom -5582.117118 kJ/mol
# Density = 2.459606 g / cm^3
# Si number density = 24.652166 Si / 1000 Ang^3
#
#
#
# Elastic Constant Matrix: (Units=GPa)
#
#
# Indices 1 2 3 4 5 6 
#
# 1 106.6292 0.8430 43.7289 0.0000 -21.0069 0.0000
# 2 0.8430 42.9030 13.4432 0.0000 0.7582 0.0000
# 3 43.7289 13.4432 201.7750 0.0001 -28.7808 0.0001
# 4 0.0000 0.0000 0.0001 11.6741 0.0000 11.4048
# 5 -21.0069 0.7582 -28.7808 0.0000 58.2510 0.0000
# 6 0.0000 0.0000 0.0001 11.4048 0.0000 16.8511
#
#
#
# Elastic Compliance Matrix: (Units=1/GPa)
#
#
# Indices 1 2 3 4 5 6 
#
# 1 0.010743 0.000344 -0.001936 0.000000 0.002914 0.000000
# 2 0.000344 0.023892 -0.001821 0.000000 -0.001087 0.000000
# 3 -0.001936 -0.001821 0.005810 0.000000 0.002196 0.000000
# 4 0.000000 0.000000 0.000000 0.252820 0.000000 -0.171108
# 5 0.002914 -0.001087 0.002196 0.000000 0.019317 0.000000
# 6 0.000000 0.000000 0.000000 -0.171108 0.000000 0.175149
#
#
# Mechanical properties :
#
#
# Convention : Reuss Voigt Hill
#
# Bulk Modulus (GPa) = 29.74512 51.92639 40.83575
# Shear Modulus (GPa) = 9.88604 36.90804 23.39704
#
# Velocity S-wave (km/s) = 2.00472 3.87350 3.08407
# Velocity P-wave (km/s) = 4.17740 6.41208 5.41135
#
# Compressibility (1/GPa) = 0.03361896
#
# Stress axis : x y z
#
# Youngs Moduli (GPa) = 93.08060 41.85579 172.11290
#
# Poissons Ratio (x) = -0.01440 0.33315
# Poissons Ratio (y) = -0.03201 0.31347
# Poissons Ratio (z) = 0.18017 0.07623
#
# Static dielectric constant tensor:
#      x y z
#    x 2.030250 0.000000 -0.031740 
#    y 0.000000 2.013650 0.000000 
#    z -0.031740 0.000000 2.025890 
# 
# From -- ./inp_files/66611.got.cif
#   From: 2010.05.17/outbox.cif.g08.bks.cpg/sg5_34_cif.got.tgz:66611.got - 2010.06.03 18:56:24.
