data_PCOD9121333
_publ_section_title
;
Structure prediction by ZEFSAII (Michael W. Deem and Ramdas Pophale) SiO2 
 PCOD9121333
Probable space group: C 2
;
_chemical_formula_sum "Si O2"
_cell_formula_units_Z 32
_cell_length_a 5.044905
_cell_length_b 24.088589
_cell_length_c 16.278597
_cell_angle_alpha 90.000000
_cell_angle_beta 126.000775
_cell_angle_gamma 90.000000
_cell_volume 1600.422699
_symmetry_space_group_name_H-M "C 2"
_symmetry_group_IT_number 5
_symmetry_cell_setting 'monoclinic'
loop_
_space_group_symop_operation_xyz
x,y,z
-x,y,-z
1/2+x,1/2+y,z
1/2-x,1/2+y,-z
loop_
_atom_site_type_symbol
_atom_site_label
_atom_site_fract_x
_atom_site_fract_y
_atom_site_fract_z
Si Si1 0.904291 0.433220 0.621151
Si Si2 0.277640 0.495724 0.839043
Si Si3 0.489831 0.375354 0.324137
Si Si4 0.616631 0.934678 0.104943
Si Si5 0.224487 0.198337 0.622657
Si Si6 0.442042 0.047938 0.404174
Si Si7 0.720195 0.267434 0.620864
Si Si8 0.280569 0.085024 0.712201
O O1 0.092303 0.462397 0.732419
O O2 0.127360 0.383225 0.627406
O O3 0.919859 0.485640 0.564862
O O4 0.578407 0.413035 0.606851
O O5 0.650438 0.485326 0.882936
O O6 0.181609 0.462175 0.901872
O O7 0.100866 0.555746 0.810376
O O8 0.305580 0.398205 0.208550
O O9 0.330140 0.318186 0.325460
O O10 0.500000 0.905021 0.000000
O O11 0.566295 0.215461 0.642927
O O12 0.248242 0.150824 0.696736
O O13 0.000000 0.186427 0.500000
O O14 0.063186 0.249995 0.642818
O O15 0.500000 0.078400 0.500000
O O16 0.660543 0.072123 0.372690
O O17 0.052647 0.055313 0.317060
O O18 0.500000 0.279056 0.500000
#
# Coordination Sequence:
#
# PCOD9121333 Si02
#       8
#     4   4   4   4   4   4   4   4
#     4   9  18  30  45  66  97 130 161 199 244 306
#     4   9  18  32  49  74 103 130 160 199 253 317
#     4  10  19  33  50  70 100 135 170 207 256 306
#     4  10  19  33  54  80 107 132 163 206 255 318
#     4  10  20  34  50  71  97 133 182 226 255 287
#     4  11  20  29  44  70  99 133 173 208 248 301
#     4  10  21  34  49  70  98 134 181 225 257 291
#     4  11  20  33  50  69 100 137 169 212 262 302
#
# _framework density 19.994719
#
# number of rings (size 3 to 8) (size 9 to 14) (size 15 to 20)
#    0.000    2.000    0.000    6.750    0.000    2.000 
#    0.000    0.000    0.000    0.000    0.000    3.500 
#    0.000    0.000    0.000    0.000    0.000    0.125 
#
# Total GULP energy -89070.876731 kJ/mol
# GULP energy per Si atom -5566.929796 kJ/mol
# Density = 1.994921 g / cm^3
# Si number density = 19.994719 Si / 1000 Ang^3
#
#
#
# Elastic Constant Matrix: (Units=GPa)
#
#
# Indices 1 2 3 4 5 6 
#
# 1 111.7208 17.2427 16.3769 0.0000 -7.6289 0.0000
# 2 17.2427 76.6940 12.3394 0.0000 -2.6237 0.0000
# 3 16.3769 12.3394 47.3045 0.0000 -14.9446 0.0000
# 4 0.0000 0.0000 0.0000 31.0360 0.0000 -33.7682
# 5 -7.6289 -2.6237 -14.9446 0.0000 29.7490 0.0000
# 6 0.0000 0.0000 0.0000 -33.7682 0.0000 65.5511
#
#
#
# Elastic Compliance Matrix: (Units=1/GPa)
#
#
# Indices 1 2 3 4 5 6 
#
# 1 0.009664 -0.001724 -0.002569 0.000000 0.001036 0.000000
# 2 -0.001724 0.013930 -0.003314 0.000000 -0.000879 0.000000
# 3 -0.002569 -0.003314 0.026855 0.000000 0.012540 0.000000
# 4 0.000000 0.000000 0.000000 0.073311 0.000000 0.037765
# 5 0.001036 -0.000879 0.012540 0.000000 0.040102 0.000000
# 6 0.000000 0.000000 0.000000 0.037765 0.000000 0.034710
#
#
# Mechanical properties :
#
#
# Convention : Reuss Voigt Hill
#
# Bulk Modulus (GPa) = 28.38103 36.40413 32.39258
# Shear Modulus (GPa) = 22.16992 37.91791 30.04392
#
# Velocity S-wave (km/s) = 3.33346 4.35949 3.88053
# Velocity P-wave (km/s) = 5.38897 6.60201 6.02609
#
# Compressibility (1/GPa) = 0.03523481
#
# Stress axis : x y z
#
# Youngs Moduli (GPa) = 103.47411 71.78949 37.23687
#
# Poissons Ratio (x) = 0.12377 0.09566
# Poissons Ratio (y) = 0.17839 0.12341
# Poissons Ratio (z) = 0.26581 0.23793
#
# Static dielectric constant tensor:
#      x y z
#    x 1.684790 0.000000 0.080310 
#    y 0.000000 1.868270 0.000000 
#    z 0.080310 0.000000 1.649040 
# 
# From -- ./inp_files/59016.got.cif
#   From: 2010.05.17/outbox.cif.g08.bks.cpg/sg5_30_cif.got.tgz:59016.got - 2010.06.03 18:56:24.
