data_PCOD9121105
_publ_section_title
;
Structure prediction by ZEFSAII (Michael W. Deem and Ramdas Pophale) SiO2 
 PCOD9121105
Probable space group: C 2
;
_chemical_formula_sum "Si O2"
_cell_formula_units_Z 28
_cell_length_a 27.143650
_cell_length_b 8.906911
_cell_length_c 9.202845
_cell_angle_alpha 90.000000
_cell_angle_beta 35.179510
_cell_angle_gamma 90.000000
_cell_volume 1281.874581
_symmetry_space_group_name_H-M "C 2"
_symmetry_group_IT_number 5
_symmetry_cell_setting 'monoclinic'
loop_
_space_group_symop_operation_xyz
x,y,z
-x,y,-z
1/2+x,1/2+y,z
1/2-x,1/2+y,-z
loop_
_atom_site_type_symbol
_atom_site_label
_atom_site_fract_x
_atom_site_fract_y
_atom_site_fract_z
Si Si1 0.767667 0.725730 0.809972
Si Si2 0.566611 0.770416 0.209181
Si Si3 0.071301 0.413373 0.918822
Si Si4 0.899378 0.981001 0.039276
Si Si5 0.234324 0.879209 0.883376
Si Si6 0.379208 0.227791 0.265872
Si Si7 0.709020 0.692099 0.501248
O O1 0.776561 0.544009 0.801380
O O2 0.830071 0.776596 0.529573
O O3 0.666726 0.759798 0.016859
O O4 0.790424 0.811801 0.902320
O O5 0.500000 0.774153 0.500000
O O6 0.551265 0.910127 0.137303
O O7 0.550181 0.619923 0.151452
O O8 0.081238 0.565878 0.807426
O O9 0.161161 0.330113 0.693053
O O10 0.000000 0.322861 0.000000
O O11 0.842676 0.918635 0.042183
O O12 0.938782 0.841207 0.030436
O O13 0.839674 0.051207 0.311535
O O14 0.288513 0.747395 0.671222
O O15 0.303789 0.187269 0.333498
#
# Coordination Sequence:
#
# PCOD9121105 Si02
#       7
#     4   4   4   4   4   4   4
#     4  11  22  36  59  95 128 159 211 272 319 382
#     4  10  23  42  60  86 126 174 212 259 325 390
#     4  11  23  40  64  95 128 166 214 272 314 379
#     4   9  20  38  61  88 116 171 207 258 312 380
#     4  10  21  34  57  98 120 156 208 274 311 365
#     4  11  19  39  64  92 125 162 217 263 320 377
#     4  10  18  39  64  84 124 168 219 252 300 392
#
# _framework density 21.84301
#
# number of rings (size 3 to 8) (size 9 to 14) (size 15 to 20)
#    0.000    1.714    5.714    0.857    4.000    1.143 
#    0.000    6.429    0.000    0.000    0.000    0.000 
#    0.000    0.000    0.000    0.000    0.000    0.000 
#
# Total GULP energy -77955.583366 kJ/mol
# GULP energy per Si atom -5568.255955 kJ/mol
# Density = 2.179329 g / cm^3
# Si number density = 21.843010 Si / 1000 Ang^3
#
#
#
# Elastic Constant Matrix: (Units=GPa)
#
#
# Indices 1 2 3 4 5 6 
#
# 1 31.8153 49.3840 24.2464 0.0000 10.7304 0.0000
# 2 49.3840 9.2440 24.4175 0.0000 33.1780 0.0000
# 3 24.2464 24.4175 125.6963 0.0000 34.2080 0.0000
# 4 0.0000 0.0000 0.0000 29.2027 0.0000 19.5006
# 5 10.7304 33.1780 34.2080 0.0000 42.4304 0.0000
# 6 0.0000 0.0000 0.0000 19.5006 0.0000 19.3604
#
#
#
# Elastic Compliance Matrix: (Units=1/GPa)
#
#
# Indices 1 2 3 4 5 6 
#
# 1 0.007767 0.019176 -0.000779 0.000000 -0.016331 0.000000
# 2 0.019176 -0.012342 -0.003341 0.000000 0.007495 0.000000
# 3 -0.000779 -0.003341 0.010236 0.000000 -0.005443 0.000000
# 4 0.000000 0.000000 0.000000 0.104593 0.000000 -0.105350
# 5 -0.016331 0.007495 -0.005443 0.000000 0.026226 0.000000
# 6 0.000000 0.000000 0.000000 -0.105350 0.000000 0.157765
#
#
# Mechanical properties :
#
#
# Convention : Reuss Voigt Hill
#
# Bulk Modulus (GPa) = 27.95360 40.31684 34.13522
# Shear Modulus (GPa) = 18.11218 22.77923 20.44570
#
# Velocity S-wave (km/s) = 2.88270 3.23284 3.06278
# Velocity P-wave (km/s) = 4.88930 5.69496 5.30744
#
# Compressibility (1/GPa) = 0.03577357
#
# Stress axis : x y z
#
# Youngs Moduli (GPa) = 128.74389 -81.02206 97.69132
#
# Poissons Ratio (x) = 1.55371 0.07610
# Poissons Ratio (y) = -2.46884 0.32641
# Poissons Ratio (z) = 0.10029 -0.27071
#
# Static dielectric constant tensor:
#      x y z
#    x 1.818710 0.000000 -0.012320 
#    y 0.000000 1.892620 0.000000 
#    z -0.012320 0.000000 1.824400 
# 
# From -- ./inp_files/32480.got.cif
#   From: 2010.05.17/outbox.cif.g08.bks.cpg/sg5_17_cif.got.tgz:32480.got - 2010.06.03 18:56:24.
