data_PCOD9121932
_publ_section_title
;
Structure prediction by ZEFSAII (Michael W. Deem and Ramdas Pophale) SiO2 
 PCOD9121932
Probable space group: C 2
;
_chemical_formula_sum "Si O2"
_cell_formula_units_Z 32
_cell_length_a 5.385780
_cell_length_b 24.350177
_cell_length_c 12.590520
_cell_angle_alpha 90.000000
_cell_angle_beta 74.411629
_cell_angle_gamma 90.000000
_cell_volume 1590.444782
_symmetry_space_group_name_H-M "C 2"
_symmetry_group_IT_number 5
_symmetry_cell_setting 'monoclinic'
loop_
_space_group_symop_operation_xyz
x,y,z
-x,y,-z
1/2+x,1/2+y,z
1/2-x,1/2+y,-z
loop_
_atom_site_type_symbol
_atom_site_label
_atom_site_fract_x
_atom_site_fract_y
_atom_site_fract_z
Si Si1 0.732208 0.864620 0.028698
Si Si2 0.033959 0.932132 0.379321
Si Si3 0.136274 0.726841 0.623796
Si Si4 0.865388 0.269382 0.371593
Si Si5 0.919489 0.386570 0.712416
Si Si6 0.711826 0.487776 0.061008
Si Si7 0.479820 0.099861 0.626023
Si Si8 0.445980 0.544612 0.701030
O O1 0.654660 0.879875 0.156543
O O2 0.500000 0.833856 0.000000
O O3 0.778342 0.920910 0.954050
O O4 0.000000 0.833654 0.000000
O O5 0.835558 0.903438 0.322117
O O6 0.000000 0.907722 0.500000
O O7 0.337891 0.927815 0.319356
O O8 0.955889 0.995698 0.386019
O O9 0.250405 0.751182 0.499503
O O10 0.378369 0.732933 0.674380
O O11 0.046080 0.664511 0.621769
O O12 0.877220 0.760720 0.678098
O O13 0.967180 0.330897 0.350696
O O14 0.630288 0.512091 0.182933
O O15 0.500000 0.505961 0.000000
O O16 0.000000 0.506316 0.000000
O O17 0.500000 0.083119 0.500000
O O18 0.696845 0.071514 0.674414
O O19 0.186789 0.085178 0.692322
#
# Coordination Sequence:
#
# PCOD9121932 Si02
#       8
#     4   4   4   4   4   4   4   4
#     4  10  20  37  60  84 115 157 206 261 296 345
#     4  12  25  38  52  86 136 179 195 238 301 374
#     4  10  21  38  62  88 121 159 205 264 304 354
#     4  10  21  36  61  90 117 159 208 251 306 365
#     4  12  24  39  63  91 126 169 214 248 306 380
#     4  10  19  37  61  82 115 156 205 263 296 344
#     4  12  23  40  63  90 129 169 210 258 305 376
#     4  12  25  39  60  91 125 170 218 248 303 378
#
# _framework density 20.120159000000001
#
# number of rings (size 3 to 8) (size 9 to 14) (size 15 to 20)
#    0.000    1.000    1.250    8.250    7.000    0.000 
#    0.000    0.000    0.000    0.000    0.000   17.500 
#    0.000    0.000    0.000    0.000    0.000    0.000 
#
# Total GULP energy -89297.416633 kJ/mol
# GULP energy per Si atom -5581.088540 kJ/mol
# Density = 2.007436 g / cm^3
# Si number density = 20.120159 Si / 1000 Ang^3
#
#
#
# Elastic Constant Matrix: (Units=GPa)
#
#
# Indices 1 2 3 4 5 6 
#
# 1 186.3079 15.6311 24.6391 0.0000 4.3573 0.0000
# 2 15.6311 76.6849 10.6073 0.0000 0.1496 0.0000
# 3 24.6391 10.6073 56.8643 0.0000 5.8905 0.0000
# 4 0.0000 0.0000 0.0000 8.7530 0.0000 -2.8050
# 5 4.3573 0.1496 5.8905 0.0000 32.9909 0.0000
# 6 0.0000 0.0000 0.0000 -2.8050 0.0000 37.4201
#
#
#
# Elastic Compliance Matrix: (Units=1/GPa)
#
#
# Indices 1 2 3 4 5 6 
#
# 1 0.005751 -0.000854 -0.002297 0.000000 -0.000346 0.000000
# 2 -0.000854 0.013518 -0.002198 0.000000 0.000444 0.000000
# 3 -0.002297 -0.002198 0.019316 0.000000 -0.003135 0.000000
# 4 0.000000 0.000000 0.000000 0.117058 0.000000 0.008775
# 5 -0.000346 0.000444 -0.003135 0.000000 0.030915 0.000000
# 6 0.000000 0.000000 0.000000 0.008775 0.000000 0.027381
#
#
# Mechanical properties :
#
#
# Convention : Reuss Voigt Hill
#
# Bulk Modulus (GPa) = 35.85805 46.84580 41.35192
# Shear Modulus (GPa) = 21.37388 33.76478 27.56933
#
# Velocity S-wave (km/s) = 3.26285 4.10097 3.70568
# Velocity P-wave (km/s) = 5.66176 6.76443 6.23751
#
# Compressibility (1/GPa) = 0.02788774
#
# Stress axis : x y z
#
# Youngs Moduli (GPa) = 173.88497 73.97803 51.77154
#
# Poissons Ratio (x) = 0.06317 0.11891
# Poissons Ratio (y) = 0.14847 0.11377
# Poissons Ratio (z) = 0.39938 0.16257
#
# Static dielectric constant tensor:
#      x y z
#    x 1.773210 0.000000 -0.000660 
#    y 0.000000 1.722140 0.000000 
#    z -0.000660 0.000000 1.740590 
# 
# From -- ./inp_files/34298.got.cif
#   From: 2010.05.17/outbox.cif.g08.bks.cpg/sg5_18_cif.got.tgz:34298.got - 2010.06.03 18:56:24.
