data_PCOD9121840
_publ_section_title
;
Structure prediction by ZEFSAII (Michael W. Deem and Ramdas Pophale) SiO2 
 PCOD9121840
Probable space group: C 2
;
_chemical_formula_sum "Si O2"
_cell_formula_units_Z 24
_cell_length_a 8.898639
_cell_length_b 17.624730
_cell_length_c 7.863911
_cell_angle_alpha 90.000000
_cell_angle_beta 52.228175
_cell_angle_gamma 90.000000
_cell_volume 974.905505
_symmetry_space_group_name_H-M "C 2"
_symmetry_group_IT_number 5
_symmetry_cell_setting 'monoclinic'
loop_
_space_group_symop_operation_xyz
x,y,z
-x,y,-z
1/2+x,1/2+y,z
1/2-x,1/2+y,-z
loop_
_atom_site_type_symbol
_atom_site_label
_atom_site_fract_x
_atom_site_fract_y
_atom_site_fract_z
Si Si1 0.068553 0.894840 0.143815
Si Si2 0.201516 0.685811 0.769409
Si Si3 0.713787 0.270871 0.270065
Si Si4 0.932135 0.047053 0.738441
Si Si5 0.670168 0.841501 0.485235
Si Si6 0.293576 0.111287 0.610679
O O1 0.189248 0.822966 0.123275
O O2 0.861041 0.890378 0.378390
O O3 0.173101 0.972916 0.118891
O O4 0.000000 0.890418 0.000000
O O5 0.327204 0.627583 0.792670
O O6 0.282730 0.768422 0.667461
O O7 0.191446 0.646909 0.589935
O O8 0.000000 0.692864 0.000000
O O9 0.500000 0.271551 0.500000
O O10 0.858620 0.306801 0.306430
O O11 0.748780 0.181501 0.233380
O O12 0.000000 0.029697 0.500000
O O13 0.115415 0.056997 0.730142
O O14 0.500000 0.880444 0.500000
O O15 0.500000 0.077213 0.500000
#
# Coordination Sequence:
#
# PCOD9121840 Si02
#       6
#     4   4   4   4   4   4
#     4  11  23  39  58  84 121 161 200 251 303 345
#     4  10  20  36  61  90 120 155 198 252 301 348
#     4   8  16  34  58  81 111 151 193 236 289 359
#     4  10  21  39  60  86 123 163 198 241 302 370
#     4  10  19  36  63  91 116 154 202 245 301 375
#     4   9  18  34  60  86 113 154 201 239 293 367
#
# _framework density 24.61777
#
# number of rings (size 3 to 8) (size 9 to 14) (size 15 to 20)
#    0.000    2.333    0.000    5.500    0.000    2.000 
#    0.000    4.167    0.000   14.000    0.000    0.000 
#    0.000    0.000    0.000    0.000    0.000    0.000 
#
# Total GULP energy -67054.748031 kJ/mol
# GULP energy per Si atom -5587.895669 kJ/mol
# Density = 2.456174 g / cm^3
# Si number density = 24.617770 Si / 1000 Ang^3
#
#
#
# Elastic Constant Matrix: (Units=GPa)
#
#
# Indices 1 2 3 4 5 6 
#
# 1 126.5769 40.2592 9.2082 0.0000 2.6005 0.0000
# 2 40.2592 125.4183 15.5414 0.0000 11.6401 0.0000
# 3 9.2082 15.5414 55.1689 0.0000 11.9238 0.0000
# 4 0.0000 0.0000 0.0000 5.4331 0.0000 7.4903
# 5 2.6005 11.6401 11.9238 0.0000 37.2482 0.0000
# 6 0.0000 0.0000 0.0000 7.4903 0.0000 38.5712
#
#
#
# Elastic Compliance Matrix: (Units=1/GPa)
#
#
# Indices 1 2 3 4 5 6 
#
# 1 0.008833 -0.002784 -0.000800 0.000000 0.000509 0.000000
# 2 -0.002784 0.009276 -0.001680 0.000000 -0.002167 0.000000
# 3 -0.000800 -0.001680 0.019991 0.000000 -0.005818 0.000000
# 4 0.000000 0.000000 0.000000 0.251350 0.000000 -0.048811
# 5 0.000509 -0.002167 -0.005818 0.000000 0.029351 0.000000
# 6 0.000000 0.000000 0.000000 -0.048811 0.000000 0.035405
#
#
# Mechanical properties :
#
#
# Convention : Reuss Voigt Hill
#
# Bulk Modulus (GPa) = 36.26896 48.57578 42.42237
# Shear Modulus (GPa) = 13.37165 32.39417 22.88291
#
# Velocity S-wave (km/s) = 2.33313 3.63145 3.05212
# Velocity P-wave (km/s) = 4.69285 6.11212 5.44889
#
# Compressibility (1/GPa) = 0.02757178
#
# Stress axis : x y z
#
# Youngs Moduli (GPa) = 113.20591 107.80326 50.02347
#
# Poissons Ratio (x) = 0.30009 0.04003
# Poissons Ratio (y) = 0.31512 0.08405
# Poissons Ratio (z) = 0.09060 0.18114
#
# Static dielectric constant tensor:
#      x y z
#    x 1.975280 0.000000 0.002820 
#    y 0.000000 1.950400 0.000000 
#    z 0.002820 0.000000 2.034400 
# 
# From -- ./inp_files/16730.got.cif
#   From: 2010.05.17/outbox.cif.g08.bks.cpg/sg5_9_cif.got.tgz:16730.got - 2010.06.03 18:56:24.
