data_PCOD9121923
_publ_section_title
;
Structure prediction by ZEFSAII (Michael W. Deem and Ramdas Pophale) SiO2 
 PCOD9121923
Probable space group: C 2
;
_chemical_formula_sum "Si O2"
_cell_formula_units_Z 28
_cell_length_a 15.771724
_cell_length_b 11.622603
_cell_length_c 9.725565
_cell_angle_alpha 90.000000
_cell_angle_beta 131.986444
_cell_angle_gamma 90.000000
_cell_volume 1325.144895
_symmetry_space_group_name_H-M "C 2"
_symmetry_group_IT_number 5
_symmetry_cell_setting 'monoclinic'
loop_
_space_group_symop_operation_xyz
x,y,z
-x,y,-z
1/2+x,1/2+y,z
1/2-x,1/2+y,-z
loop_
_atom_site_type_symbol
_atom_site_label
_atom_site_fract_x
_atom_site_fract_y
_atom_site_fract_z
Si Si1 0.746711 0.523540 0.866336
Si Si2 0.405496 0.022593 0.600003
Si Si3 0.078247 0.839607 0.749643
Si Si4 0.351981 0.084423 0.251643
Si Si5 0.634416 0.251802 0.110440
Si Si6 0.166498 0.775029 0.436416
Si Si7 0.621619 0.849229 0.177828
O O1 0.628518 0.453364 0.734005
O O2 0.786143 0.639743 0.831208
O O3 0.757370 0.559531 0.036980
O O4 0.833353 0.427533 0.899130
O O5 0.335957 0.027691 0.381920
O O6 0.535589 0.026850 0.692077
O O7 0.375716 0.145459 0.631456
O O8 0.392810 0.930030 0.703995
O O9 0.116127 0.720657 0.714093
O O10 0.941722 0.841102 0.617587
O O11 0.127534 0.820473 0.958489
O O12 0.683934 0.316190 0.298384
O O13 0.500000 0.225347 0.000000
O O14 0.275308 0.771944 0.653773
O O15 0.500000 0.798210 0.000000
#
# Coordination Sequence:
#
# PCOD9121923 Si02
#       7
#     4   4   4   4   4   4   4
#     4  11  19  34  61  92 125 154 208 260 316 360
#     4  10  19  37  60  85 114 161 212 251 304 371
#     4   9  20  35  61  95 121 158 210 260 314 370
#     4   9  19  34  58  87 121 156 205 263 300 373
#     4   9  18  37  63  93 124 169 213 257 306 382
#     4  10  21  38  63  88 124 160 215 255 310 377
#     4  12  23  36  62  93 121 165 217 261 308 370
#
# _framework density 21.129767000000001
#
# number of rings (size 3 to 8) (size 9 to 14) (size 15 to 20)
#    0.000    2.000    2.857    2.143    2.000    1.714 
#    0.000    0.000    9.429    0.000    0.000    0.000 
#    0.000    0.000    0.000    0.000    0.000    0.000 
#
# Total GULP energy -77977.140719 kJ/mol
# GULP energy per Si atom -5569.795766 kJ/mol
# Density = 2.108167 g / cm^3
# Si number density = 21.129767 Si / 1000 Ang^3
#
#
#
# Elastic Constant Matrix: (Units=GPa)
#
#
# Indices 1 2 3 4 5 6 
#
# 1 84.7208 31.3332 34.9853 0.0000 -4.7875 0.0000
# 2 31.3332 45.2502 17.5908 0.0000 7.3196 0.0000
# 3 34.9853 17.5908 132.9906 0.0000 -13.3001 0.0000
# 4 0.0000 0.0000 0.0000 24.3643 0.0000 3.1361
# 5 -4.7875 7.3196 -13.3001 0.0000 35.8681 0.0000
# 6 0.0000 0.0000 0.0000 3.1361 0.0000 29.9592
#
#
#
# Elastic Compliance Matrix: (Units=1/GPa)
#
#
# Indices 1 2 3 4 5 6 
#
# 1 0.017414 -0.011618 -0.002674 0.000000 0.003704 0.000000
# 2 -0.011618 0.032419 -0.002128 0.000000 -0.008955 0.000000
# 3 -0.002674 -0.002128 0.008840 0.000000 0.003355 0.000000
# 4 0.000000 0.000000 0.000000 0.041604 0.000000 -0.004355
# 5 0.003704 -0.008955 0.003355 0.000000 0.031446 0.000000
# 6 0.000000 0.000000 0.000000 -0.004355 0.000000 0.033835
#
#
# Mechanical properties :
#
#
# Convention : Reuss Voigt Hill
#
# Bulk Modulus (GPa) = 38.70751 47.86446 43.28599
# Shear Modulus (GPa) = 24.15378 29.97515 27.06446
#
# Velocity S-wave (km/s) = 3.38467 3.77055 3.58281
# Velocity P-wave (km/s) = 5.79943 6.45429 6.13560
#
# Compressibility (1/GPa) = 0.02583478
#
# Stress axis : x y z
#
# Youngs Moduli (GPa) = 57.42656 30.84566 113.12615
#
# Poissons Ratio (x) = 0.35835 0.30248
# Poissons Ratio (y) = 0.66715 0.24069
# Poissons Ratio (z) = 0.15355 0.06563
#
# Static dielectric constant tensor:
#      x y z
#    x 1.821870 0.000000 -0.032100 
#    y 0.000000 1.765400 0.000000 
#    z -0.032100 0.000000 1.847410 
# 
# From -- ./inp_files/44628.got.cif
#   From: 2010.05.17/outbox.cif.g08.bks.cpg/sg5_23_cif.got.tgz:44628.got - 2010.06.03 18:56:24.
