data_PCOD9121541
_publ_section_title
;
Structure prediction by ZEFSAII (Michael W. Deem and Ramdas Pophale) SiO2 
 PCOD9121541
Probable space group: C 2
;
_chemical_formula_sum "Si O2"
_cell_formula_units_Z 24
_cell_length_a 11.185187
_cell_length_b 11.377819
_cell_length_c 15.872864
_cell_angle_alpha 90.000000
_cell_angle_beta 150.715484
_cell_angle_gamma 90.000000
_cell_volume 988.090551
_symmetry_space_group_name_H-M "C 2"
_symmetry_group_IT_number 5
_symmetry_cell_setting 'monoclinic'
loop_
_space_group_symop_operation_xyz
x,y,z
-x,y,-z
1/2+x,1/2+y,z
1/2-x,1/2+y,-z
loop_
_atom_site_type_symbol
_atom_site_label
_atom_site_fract_x
_atom_site_fract_y
_atom_site_fract_z
Si Si1 0.578149 0.716150 0.298891
Si Si2 0.264968 0.867524 0.477740
Si Si3 0.308925 0.095246 0.819919
Si Si4 0.568345 0.981545 0.266556
Si Si5 0.455416 0.588294 0.059644
Si Si6 0.329368 0.345520 0.766110
O O1 0.795450 0.762252 0.493697
O O2 0.408601 0.636907 0.253882
O O3 0.595058 0.647155 0.223090
O O4 0.478252 0.845541 0.209575
O O5 0.540132 0.844439 0.611541
O O6 0.117695 0.865189 0.300920
O O7 0.296379 0.979416 0.559290
O O8 0.264574 0.016747 0.710245
O O9 0.418168 0.219766 0.853286
O O10 0.500000 0.034464 0.000000
O O11 0.333881 0.064567 0.112478
O O12 0.569526 0.458514 0.125970
O O13 0.500000 0.654156 0.000000
#
# Coordination Sequence:
#
# PCOD9121541 Si02
#       6
#     4   4   4   4   4   4
#     4   9  21  37  53  85 118 144 193 237 288 346
#     4   8  19  39  53  83 112 150 196 235 279 353
#     4  11  19  35  61  85 112 152 191 240 291 347
#     4  10  21  37  58  86 113 145 198 238 288 346
#     4  12  20  34  58  84 114 148 188 248 292 343
#     4  10  19  34  62  80 112 155 192 235 295 346
#
# _framework density 24.289270999999999
#
# number of rings (size 3 to 8) (size 9 to 14) (size 15 to 20)
#    1.000    1.000    3.333    1.500    0.000    2.000 
#    0.000    0.000    0.000    0.000    0.000    0.000 
#    0.000    0.000    0.000    0.000    0.000    0.000 
#
# Total GULP energy -66838.164138 kJ/mol
# GULP energy per Si atom -5569.847011 kJ/mol
# Density = 2.423399 g / cm^3
# Si number density = 24.289271 Si / 1000 Ang^3
#
#
#
# Elastic Constant Matrix: (Units=GPa)
#
#
# Indices 1 2 3 4 5 6 
#
# 1 107.3572 34.2724 33.4299 0.0020 -50.6178 0.0001
# 2 34.2724 64.9893 12.7988 0.0056 -13.1064 0.0014
# 3 33.4299 12.7988 63.1608 0.0079 -41.2801 0.0033
# 4 0.0020 0.0056 0.0079 23.9637 0.0023 -9.9406
# 5 -50.6178 -13.1064 -41.2801 0.0023 59.9863 0.0003
# 6 0.0001 0.0014 0.0033 -9.9406 0.0003 26.6758
#
#
#
# Elastic Compliance Matrix: (Units=1/GPa)
#
#
# Indices 1 2 3 4 5 6 
#
# 1 0.017940 -0.006792 0.001463 -0.000002 0.014661 -0.000001
# 2 -0.006792 0.018775 -0.002316 -0.000004 -0.003223 -0.000002
# 3 0.001463 -0.002316 0.029085 -0.000015 0.020744 -0.000009
# 4 -0.000002 -0.000004 -0.000015 0.049360 -0.000015 0.018394
# 5 0.014661 -0.003223 0.020744 -0.000015 0.042612 -0.000009
# 6 -0.000001 -0.000002 -0.000009 0.018394 -0.000009 0.044341
#
#
# Mechanical properties :
#
#
# Convention : Reuss Voigt Hill
#
# Bulk Modulus (GPa) = 19.79818 44.05661 31.92739
# Shear Modulus (GPa) = 21.34558 32.45891 26.90224
#
# Velocity S-wave (km/s) = 2.96768 3.65957 3.33164
# Velocity P-wave (km/s) = 4.46224 6.00286 5.28895
#
# Compressibility (1/GPa) = 0.05050969
#
# Stress axis : x y z
#
# Youngs Moduli (GPa) = 55.74176 53.26187 34.38193
#
# Poissons Ratio (x) = 0.36176 -0.05030
# Poissons Ratio (y) = 0.37861 0.07963
# Poissons Ratio (z) = -0.08155 0.12336
#
# Static dielectric constant tensor:
#      x y z
#    x 2.022540 0.000000 0.017650 
#    y 0.000000 1.941510 0.000000 
#    z 0.017650 0.000000 1.963200 
# 
# From -- ./inp_files/60386.got.cif
#   From: 2010.05.17/outbox.cif.g08.bks.cpg/sg5_31_cif.got.tgz:60386.got - 2010.06.03 18:56:24.
