data_PCOD9121128
_publ_section_title
;
Structure prediction by ZEFSAII (Michael W. Deem and Ramdas Pophale) SiO2 
 PCOD9121128
Probable space group: C 2
;
_chemical_formula_sum "Si O2"
_cell_formula_units_Z 22
_cell_length_a 16.247910
_cell_length_b 8.624128
_cell_length_c 8.469480
_cell_angle_alpha 90.000000
_cell_angle_beta 104.053493
_cell_angle_gamma 90.000000
_cell_volume 1151.256957
_symmetry_space_group_name_H-M "C 2"
_symmetry_group_IT_number 5
_symmetry_cell_setting 'monoclinic'
loop_
_space_group_symop_operation_xyz
x,y,z
-x,y,-z
1/2+x,1/2+y,z
1/2-x,1/2+y,-z
loop_
_atom_site_type_symbol
_atom_site_label
_atom_site_fract_x
_atom_site_fract_y
_atom_site_fract_z
Si Si1 0.362174 0.985000 0.210571
Si Si2 0.500000 0.111695 0.500000
Si Si3 0.288085 0.604075 0.654139
Si Si4 0.596309 0.152474 0.067476
Si Si5 0.848294 0.797379 0.595585
Si Si6 0.596055 0.798011 0.057772
O O1 0.447054 0.007942 0.352347
O O2 0.282271 0.002747 0.285341
O O3 0.367593 0.835051 0.100383
O O4 0.361691 0.128159 0.084051
O O5 0.430405 0.219276 0.553473
O O6 0.234333 0.721756 0.522526
O O7 0.342664 0.482054 0.579640
O O8 0.345466 0.693848 0.806653
O O9 0.644527 0.252902 0.216921
O O10 0.590318 0.973608 0.126130
O O11 0.500000 0.208863 0.000000
O O12 0.500000 0.738204 0.000000
#
# Coordination Sequence:
#
# PCOD9121128 Si02
#       6
#     4   2   4   4   4   4
#     4   9  20  35  65  85 112 156 193 240 281 357
#     4  10  18  40  60  92 112 156 196 232 296 348
#     4  11  24  37  59  87 121 150 195 247 291 339
#     4   9  17  35  64  85 113 152 195 235 286 350
#     4  11  22  38  59  88 117 158 193 242 292 342
#     4   9  19  39  57  83 115 152 190 235 288 346
#
# _framework density 19.109546999999999
#
# number of rings (size 3 to 8) (size 9 to 14) (size 15 to 20)
#    1.091    1.091    1.818    1.091    2.545    2.182 
#    0.000    1.818    0.000    0.000    0.000    0.000 
#    0.000    0.000    0.000    0.000    0.000    0.000 
#
# Total GULP energy -61292.643229 kJ/mol
# GULP energy per Si atom -5572.058475 kJ/mol
# Density = 1.906605 g / cm^3
# Si number density = 19.109547 Si / 1000 Ang^3
#
#
#
# Elastic Constant Matrix: (Units=GPa)
#
#
# Indices 1 2 3 4 5 6 
#
# 1 50.1975 19.4896 28.2360 0.0000 28.1820 0.0000
# 2 19.4896 63.6121 45.6683 0.0000 27.9576 0.0000
# 3 28.2360 45.6683 109.2842 0.0000 33.8499 0.0000
# 4 0.0000 0.0000 0.0000 39.7601 0.0000 4.3075
# 5 28.1820 27.9576 33.8499 0.0000 37.4340 0.0000
# 6 0.0000 0.0000 0.0000 4.3075 0.0000 10.9329
#
#
#
# Elastic Compliance Matrix: (Units=1/GPa)
#
#
# Indices 1 2 3 4 5 6 
#
# 1 0.034787 0.002110 -0.001764 0.000000 -0.026170 0.000000
# 2 0.002110 0.026831 -0.007027 0.000000 -0.015273 0.000000
# 3 -0.001764 -0.007027 0.014593 0.000000 -0.006620 0.000000
# 4 0.000000 0.000000 0.000000 0.026272 0.000000 -0.010351
# 5 -0.026170 -0.015273 -0.006620 0.000000 0.063809 0.000000
# 6 0.000000 0.000000 0.000000 -0.010351 0.000000 0.095545
#
#
# Mechanical properties :
#
#
# Convention : Reuss Voigt Hill
#
# Bulk Modulus (GPa) = 15.91100 45.54240 30.72670
# Shear Modulus (GPa) = 16.88347 26.27208 21.57777
#
# Velocity S-wave (km/s) = 2.97561 3.71187 3.36395
# Velocity P-wave (km/s) = 4.48887 6.50036 5.58590
#
# Compressibility (1/GPa) = 0.06284960
#
# Stress axis : x y z
#
# Youngs Moduli (GPa) = 28.74674 37.27029 68.52594
#
# Poissons Ratio (x) = -0.07863 0.12086
# Poissons Ratio (y) = -0.06065 0.48151
# Poissons Ratio (z) = 0.05070 0.26189
#
# Static dielectric constant tensor:
#      x y z
#    x 1.675500 0.000000 -0.026580 
#    y 0.000000 1.676950 0.000000 
#    z -0.026580 0.000000 1.665660 
# 
# From -- ./inp_files/26556.got.cif
#   From: 2010.05.17/outbox.cif.g08.bks.cpg/sg5_14_cif.got.tgz:26556.got - 2010.06.03 18:56:24.
