data_PCOD9121235
_publ_section_title
;
Structure prediction by ZEFSAII (Michael W. Deem and Ramdas Pophale) SiO2 
 PCOD9121235
Probable space group: C 2
;
_chemical_formula_sum "Si O2"
_cell_formula_units_Z 32
_cell_length_a 16.099970
_cell_length_b 19.992273
_cell_length_c 16.343994
_cell_angle_alpha 90.000000
_cell_angle_beta 162.172129
_cell_angle_gamma 90.000000
_cell_volume 1610.614658
_symmetry_space_group_name_H-M "C 2"
_symmetry_group_IT_number 5
_symmetry_cell_setting 'monoclinic'
loop_
_space_group_symop_operation_xyz
x,y,z
-x,y,-z
1/2+x,1/2+y,z
1/2-x,1/2+y,-z
loop_
_atom_site_type_symbol
_atom_site_label
_atom_site_fract_x
_atom_site_fract_y
_atom_site_fract_z
Si Si1 0.371914 0.589170 0.522584
Si Si2 0.296095 0.078220 0.238175
Si Si3 0.797223 0.427799 0.242987
Si Si4 0.805782 0.561147 0.064965
Si Si5 0.327112 0.445471 0.415255
Si Si6 0.634023 0.737361 0.536751
Si Si7 0.247743 0.414733 0.054338
Si Si8 0.796539 0.808979 0.968813
O O1 0.364073 0.525646 0.455207
O O2 0.320621 0.658130 0.428223
O O3 0.121060 0.574335 0.346792
O O4 0.636787 0.589379 0.828925
O O5 0.500000 0.106736 0.500000
O O6 0.247791 0.096911 0.097437
O O7 0.404206 0.001982 0.324582
O O8 0.000000 0.080168 0.000000
O O9 0.764553 0.373797 0.143394
O O10 0.000000 0.399354 0.500000
O O11 0.500000 0.437908 0.000000
O O12 0.755223 0.480414 0.008619
O O13 0.500000 0.420790 0.500000
O O14 0.011850 0.426152 0.129550
O O15 0.476324 0.419684 0.636296
O O16 0.500000 0.750483 0.500000
O O17 0.423350 0.756015 0.267522
O O18 0.908301 0.779034 0.775958
O O19 0.252000 0.342402 0.015312
#
# Coordination Sequence:
#
# PCOD9121235 Si02
#       8
#     4   4   4   4   4   4   4   4
#     4  10  22  37  59  81 113 154 198 237 281 335
#     4  10  19  30  50  81 113 144 182 227 282 345
#     4  10  19  30  47  73 110 152 182 212 263 326
#     4  10  19  37  56  81 114 149 193 240 293 335
#     4  10  20  37  61  86 114 143 184 248 302 340
#     4  12  25  39  57  84 119 161 201 229 267 341
#     4  10  21  35  56  86 114 149 187 234 293 357
#     4  12  22  37  55  80 121 156 193 229 275 339
#
# _framework density 19.868189999999998
#
# number of rings (size 3 to 8) (size 9 to 14) (size 15 to 20)
#    0.000    1.500    1.250    5.250    0.000    0.000 
#    0.000    3.750    0.000    0.000    0.000   30.625 
#    0.000    0.000    0.000    0.000    0.000    0.000 
#
# Total GULP energy -89147.704869 kJ/mol
# GULP energy per Si atom -5571.731554 kJ/mol
# Density = 1.982297 g / cm^3
# Si number density = 19.868190 Si / 1000 Ang^3
#
#
#
# Elastic Constant Matrix: (Units=GPa)
#
#
# Indices 1 2 3 4 5 6 
#
# 1 57.8810 3.3418 -3.8083 0.0060 5.9092 -0.0005
# 2 3.3418 64.1579 7.1452 0.0086 -5.1298 0.0046
# 3 -3.8083 7.1452 78.2071 0.0344 12.2036 0.0106
# 4 0.0060 0.0086 0.0344 10.5106 0.0163 -4.1561
# 5 5.9092 -5.1298 12.2036 0.0163 10.8115 0.0050
# 6 -0.0005 0.0046 0.0106 -4.1561 0.0050 13.3153
#
#
#
# Elastic Compliance Matrix: (Units=1/GPa)
#
#
# Indices 1 2 3 4 5 6 
#
# 1 0.019306 -0.002694 0.003681 0.000007 -0.015985 0.000007
# 2 -0.002694 0.017289 -0.003909 -0.000028 0.014088 -0.000017
# 3 0.003681 -0.003909 0.016904 -0.000023 -0.022946 -0.000010
# 4 0.000007 -0.000028 -0.000023 0.108539 -0.000171 0.033879
# 5 -0.015985 0.014088 -0.022946 -0.000171 0.133817 -0.000090
# 6 0.000007 -0.000017 -0.000010 0.033879 -0.000090 0.085676
#
#
# Mechanical properties :
#
#
# Convention : Reuss Voigt Hill
#
# Bulk Modulus (GPa) = 20.98435 23.73370 22.35902
# Shear Modulus (GPa) = 12.39897 19.83195 16.11546
#
# Velocity S-wave (km/s) = 2.50083 3.16282 2.85110
# Velocity P-wave (km/s) = 4.35013 5.03085 4.70282
#
# Compressibility (1/GPa) = 0.04765456
#
# Stress axis : x y z
#
# Youngs Moduli (GPa) = 51.79616 57.84167 59.15926
#
# Poissons Ratio (x) = 0.15580 -0.21774
# Poissons Ratio (y) = 0.13952 0.23125
# Poissons Ratio (z) = -0.19064 0.22610
#
# Static dielectric constant tensor:
#      x y z
#    x 1.770160 0.000000 -0.036280 
#    y 0.000000 1.719830 0.000000 
#    z -0.036280 0.000000 1.684660 
# 
# From -- ./inp_files/55043.got.cif
#   From: 2010.05.17/outbox.cif.g08.bks.cpg/sg5_28_cif.got.tgz:55043.got - 2010.06.03 18:56:24.
