data_PCOD9121818
_publ_section_title
;
Structure prediction by ZEFSAII (Michael W. Deem and Ramdas Pophale) SiO2 
 PCOD9121818
Probable space group: C 2
;
_chemical_formula_sum "Si O2"
_cell_formula_units_Z 28
_cell_length_a 20.173190
_cell_length_b 9.336339
_cell_length_c 13.590099
_cell_angle_alpha 90.000000
_cell_angle_beta 153.985794
_cell_angle_gamma 90.000000
_cell_volume 1122.629576
_symmetry_space_group_name_H-M "C 2"
_symmetry_group_IT_number 5
_symmetry_cell_setting 'monoclinic'
loop_
_space_group_symop_operation_xyz
x,y,z
-x,y,-z
1/2+x,1/2+y,z
1/2-x,1/2+y,-z
loop_
_atom_site_type_symbol
_atom_site_label
_atom_site_fract_x
_atom_site_fract_y
_atom_site_fract_z
Si Si1 0.235509 0.035900 0.173552
Si Si2 0.500000 0.113926 0.000000
Si Si3 0.000000 0.128338 0.000000
Si Si4 0.151567 0.855844 0.649246
Si Si5 0.117636 0.294453 0.746589
Si Si6 0.388278 0.912678 0.569466
Si Si7 0.224199 0.369771 0.377735
Si Si8 0.370638 0.100334 0.016986
O O1 0.065414 0.051131 0.989713
O O2 0.306063 0.194699 0.263536
O O3 0.310096 0.954179 0.365163
O O4 0.294247 0.943585 0.159579
O O5 0.417913 0.189028 0.981901
O O6 0.377482 0.008830 0.785052
O O7 0.131171 0.232223 0.215301
O O8 0.135835 0.872405 0.509821
O O9 0.000000 0.901306 0.500000
O O10 0.288730 0.958061 0.865548
O O11 0.249294 0.180024 0.920096
O O12 0.000000 0.266130 0.500000
O O13 0.017934 0.299609 0.711945
O O14 0.274992 0.864586 0.503775
O O15 0.481656 0.051225 0.729116
#
# Coordination Sequence:
#
# PCOD9121818 Si02
#       8
#     4   2   2   4   4   4   4   4
#     4  10  21  38  59  80 112 150 183 227 281 330
#     4   7  14  31  54  76 104 140 180 218 270 322
#     4   9  18  37  60  78 104 150 194 218 268 344
#     4  10  19  36  62  84 107 147 193 223 266 337
#     4  10  22  38  55  80 117 153 179 223 286 329
#     4  10  20  36  56  82 116 145 181 231 281 323
#     4   8  16  33  57  81 107 143 180 226 273 319
#     4  10  20  36  60  83 108 146 189 229 270 326
#
# _framework density 24.941441000000001
#
# number of rings (size 3 to 8) (size 9 to 14) (size 15 to 20)
#    0.000    2.571    0.000    4.286    0.000    4.000 
#    0.000   24.286    0.000    0.000    0.000    0.000 
#    0.000    0.000    0.000    0.000    0.000    0.000 
#
# Total GULP energy -78229.855876 kJ/mol
# GULP energy per Si atom -5587.846848 kJ/mol
# Density = 2.488467 g / cm^3
# Si number density = 24.941441 Si / 1000 Ang^3
#
#
#
# Elastic Constant Matrix: (Units=GPa)
#
#
# Indices 1 2 3 4 5 6 
#
# 1 159.8811 13.6497 24.3683 0.0000 20.2975 0.0000
# 2 13.6497 68.6609 -0.9713 0.0000 -0.7903 0.0000
# 3 24.3683 -0.9713 32.3784 0.0000 14.5451 0.0000
# 4 0.0000 0.0000 0.0000 20.3818 0.0000 8.8185
# 5 20.2975 -0.7903 14.5451 0.0000 31.0036 0.0000
# 6 0.0000 0.0000 0.0000 8.8185 0.0000 9.4237
#
#
#
# Elastic Compliance Matrix: (Units=1/GPa)
#
#
# Indices 1 2 3 4 5 6 
#
# 1 0.007413 -0.001568 -0.004343 0.000000 -0.002855 0.000000
# 2 -0.001568 0.014903 0.001261 0.000000 0.000815 0.000000
# 3 -0.004343 0.001261 0.041685 0.000000 -0.016680 0.000000
# 4 0.000000 0.000000 0.000000 0.082442 0.000000 -0.077148
# 5 -0.002855 0.000815 -0.016680 0.000000 0.041970 0.000000
# 6 0.000000 0.000000 0.000000 -0.077148 0.000000 0.178308
#
#
# Mechanical properties :
#
#
# Convention : Reuss Voigt Hill
#
# Bulk Modulus (GPa) = 18.28141 37.22376 27.75259
# Shear Modulus (GPa) = 12.68213 27.08674 19.88444
#
# Velocity S-wave (km/s) = 2.25739 3.29905 2.82662
# Velocity P-wave (km/s) = 3.76033 5.42849 4.66950
#
# Compressibility (1/GPa) = 0.05470037
#
# Stress axis : x y z
#
# Youngs Moduli (GPa) = 134.89748 67.09939 23.98966
#
# Poissons Ratio (x) = 0.10521 0.10420
# Poissons Ratio (y) = 0.21152 -0.03025
# Poissons Ratio (z) = 0.58592 -0.08462
#
# Static dielectric constant tensor:
#      x y z
#    x 2.060100 0.000000 0.025280 
#    y 0.000000 1.981950 0.000000 
#    z 0.025280 0.000000 1.988320 
# 
# From -- ./inp_files/56858.got.cif
#   From: 2010.05.17/outbox.cif.g08.bks.cpg/sg5_29_cif.got.tgz:56858.got - 2010.06.03 18:56:24.
