data_PCOD9121252
_publ_section_title
;
Structure prediction by ZEFSAII (Michael W. Deem and Ramdas Pophale) SiO2 
 PCOD9121252
Probable space group: C 2
;
_chemical_formula_sum "Si O2"
_cell_formula_units_Z 28
_cell_length_a 18.302212
_cell_length_b 5.549508
_cell_length_c 12.013045
_cell_angle_alpha 90.000000
_cell_angle_beta 76.293863
_cell_angle_gamma 90.000000
_cell_volume 1185.399085
_symmetry_space_group_name_H-M "C 2"
_symmetry_group_IT_number 5
_symmetry_cell_setting 'monoclinic'
loop_
_space_group_symop_operation_xyz
x,y,z
-x,y,-z
1/2+x,1/2+y,z
1/2-x,1/2+y,-z
loop_
_atom_site_type_symbol
_atom_site_label
_atom_site_fract_x
_atom_site_fract_y
_atom_site_fract_z
Si Si1 0.354720 0.464910 0.159512
Si Si2 0.911000 0.464911 0.027284
Si Si3 0.221066 0.464936 0.068272
Si Si4 0.048409 0.964925 0.661611
Si Si5 0.530627 0.964926 0.613630
Si Si6 0.668965 0.464937 0.440677
Si Si7 0.809718 0.464938 0.557114
O O1 0.385546 0.715103 0.095860
O O2 0.265954 0.464921 0.167806
O O3 0.385085 0.464918 0.273010
O O4 0.385543 0.214710 0.095867
O O5 0.867832 0.464920 0.923884
O O6 0.000000 0.464919 0.000000
O O7 0.249996 0.714947 0.000008
O O8 0.007538 0.219931 0.683330
O O9 0.087210 0.964931 0.525999
O O10 0.007536 0.709923 0.683329
O O11 0.500000 0.964924 0.500000
O O12 0.622235 0.964933 0.561035
O O13 0.732593 0.464939 0.515217
O O14 0.680169 0.210860 0.379641
O O15 0.680168 0.719015 0.379642
#
# Coordination Sequence:
#
# PCOD9121252 Si02
#       7
#     4   4   4   4   4   4   4
#     4  10  19  33  53  77 106 138 172 219 256 308
#     4  10  19  33  55  82 104 140 173 205 255 317
#     4   8  16  30  50  76 100 129 171 202 241 305
#     4  10  19  31  50  70  97 129 170 210 259 292
#     4  10  19  31  48  72  94 134 174 208 245 307
#     4   8  14  25  42  64  83 110 152 196 236 276
#     4   8  14  25  42  63  84 110 153 200 230 277
#
# _framework density 23.620733999999999
#
# number of rings (size 3 to 8) (size 9 to 14) (size 15 to 20)
#    0.000    2.857    0.000    1.714    0.000    0.000 
#    0.000    0.000    6.286    0.000    0.000    0.000 
#    0.000    0.000    0.000    0.000    0.000    0.000 
#
# Total GULP energy -78005.142439 kJ/mol
# GULP energy per Si atom -5571.795889 kJ/mol
# Density = 2.356697 g / cm^3
# Si number density = 23.620734 Si / 1000 Ang^3
#
#
#
# Elastic Constant Matrix: (Units=GPa)
#
#
# Indices 1 2 3 4 5 6 
#
# 1 126.6493 24.5111 32.5900 0.0000 23.6970 0.0000
# 2 24.5111 289.4366 37.1261 0.0000 -0.2398 0.0000
# 3 32.5900 37.1261 46.0210 0.0000 20.7890 0.0000
# 4 0.0000 0.0000 0.0000 22.5675 0.0000 8.0955
# 5 23.6970 -0.2398 20.7890 0.0000 39.8810 0.0000
# 6 0.0000 0.0000 0.0000 8.0955 0.0000 26.5263
#
#
#
# Elastic Compliance Matrix: (Units=1/GPa)
#
#
# Indices 1 2 3 4 5 6 
#
# 1 0.009912 -0.000128 -0.005566 0.000000 -0.002989 0.000000
# 2 -0.000128 0.004002 -0.004163 0.000000 0.002270 0.000000
# 3 -0.005566 -0.004163 0.036031 0.000000 -0.015500 0.000000
# 4 0.000000 0.000000 0.000000 0.049759 0.000000 -0.015186
# 5 -0.002989 0.002270 -0.015500 0.000000 0.034944 0.000000
# 6 0.000000 0.000000 0.000000 -0.015186 0.000000 0.042333
#
#
# Mechanical properties :
#
#
# Convention : Reuss Voigt Hill
#
# Bulk Modulus (GPa) = 33.07876 72.28457 52.68166
# Shear Modulus (GPa) = 24.18127 42.32028 33.25078
#
# Velocity S-wave (km/s) = 3.20305 4.23739 3.75600
# Velocity P-wave (km/s) = 5.26440 7.38981 6.41573
#
# Compressibility (1/GPa) = 0.03023088
#
# Stress axis : x y z
#
# Youngs Moduli (GPa) = 100.88690 249.89261 27.75395
#
# Poissons Ratio (x) = 0.03198 0.15447
# Poissons Ratio (y) = 0.01291 0.11554
# Poissons Ratio (z) = 0.56151 1.04035
#
# Static dielectric constant tensor:
#      x y z
#    x 1.888750 0.000000 0.001040 
#    y 0.000000 2.034090 0.000000 
#    z 0.001040 0.000000 1.853900 
# 
# From -- ./inp_files/45458.got.cif
#   From: 2010.05.17/outbox.cif.g08.bks.cpg/sg5_23_cif.got.tgz:45458.got - 2010.06.03 18:56:24.
