data_PCOD9121204
_publ_section_title
;
Structure prediction by ZEFSAII (Michael W. Deem and Ramdas Pophale) SiO2 
 PCOD9121204
Probable space group: C 2
;
_chemical_formula_sum "Si O2"
_cell_formula_units_Z 20
_cell_length_a 15.574189
_cell_length_b 10.778006
_cell_length_c 5.195906
_cell_angle_alpha 90.000000
_cell_angle_beta 111.700120
_cell_angle_gamma 90.000000
_cell_volume 810.368349
_symmetry_space_group_name_H-M "C 2"
_symmetry_group_IT_number 5
_symmetry_cell_setting 'monoclinic'
loop_
_space_group_symop_operation_xyz
x,y,z
-x,y,-z
1/2+x,1/2+y,z
1/2-x,1/2+y,-z
loop_
_atom_site_type_symbol
_atom_site_label
_atom_site_fract_x
_atom_site_fract_y
_atom_site_fract_z
Si Si1 0.249978 0.543430 0.423156
Si Si2 0.000000 0.562655 0.500000
Si Si3 0.095105 0.153286 0.696220
Si Si4 0.590785 0.228300 0.251773
Si Si5 0.000000 0.972345 0.000000
Si Si6 0.170012 0.413588 0.851445
O O1 0.352983 0.592172 0.489026
O O2 0.185918 0.664425 0.285766
O O3 0.219031 0.471697 0.648946
O O4 0.227660 0.453537 0.161713
O O5 0.923368 0.665302 0.490844
O O6 0.934086 0.471505 0.261832
O O7 0.000000 0.213029 0.500000
O O8 0.341798 0.765842 0.142222
O O9 0.940068 0.052669 0.134792
O O10 0.500000 0.175460 0.000000
O O11 0.571676 0.373066 0.210563
#
# Coordination Sequence:
#
# PCOD9121204 Si02
#       6
#     4   2   4   4   2   4
#     4  11  27  47  77 106 151 199 261 298 379 447
#     4  10  18  42  74 104 144 188 254 300 374 436
#     4  12  30  47  73 112 156 202 242 322 388 442
#     4   9  20  41  69 105 137 195 240 306 356 450
#     4  10  26  44  72 106 156 186 250 302 392 438
#     4  11  25  47  76 107 148 196 253 312 365 460
#
# _framework density 24.680133999999999
#
# number of rings (size 3 to 8) (size 9 to 14) (size 15 to 20)
#    0.600    0.800    3.000    0.000    9.800    0.000 
#    3.600    0.000    0.000    0.000    0.000    0.000 
#    0.000    0.000    0.000    0.000    0.000    0.000 
#
# Total GULP energy -55705.734477 kJ/mol
# GULP energy per Si atom -5570.573448 kJ/mol
# Density = 2.462396 g / cm^3
# Si number density = 24.680134 Si / 1000 Ang^3
#
#
#
# Elastic Constant Matrix: (Units=GPa)
#
#
# Indices 1 2 3 4 5 6 
#
# 1 147.0282 52.2375 14.7179 0.0000 -19.1905 0.0000
# 2 52.2375 177.1416 14.9287 0.0000 -31.8856 0.0000
# 3 14.7179 14.9287 55.6630 0.0000 -22.7376 0.0000
# 4 0.0000 0.0000 0.0000 32.3051 0.0000 1.4954
# 5 -19.1905 -31.8856 -22.7376 0.0000 32.5060 0.0000
# 6 0.0000 0.0000 0.0000 1.4954 0.0000 -21.1594
#
#
#
# Elastic Compliance Matrix: (Units=1/GPa)
#
#
# Indices 1 2 3 4 5 6 
#
# 1 0.007824 -0.001822 -0.000593 0.000000 0.002417 0.000000
# 2 -0.001822 0.007345 0.001422 0.000000 0.007124 0.000000
# 3 -0.000593 0.001422 0.025435 0.000000 0.018836 0.000000
# 4 0.000000 0.000000 0.000000 0.030854 0.000000 0.002181
# 5 0.002417 0.007124 0.018836 0.000000 0.052354 0.000000
# 6 0.000000 0.000000 0.000000 0.002181 0.000000 -0.047106
#
#
# Mechanical properties :
#
#
# Convention : Reuss Voigt Hill
#
# Bulk Modulus (GPa) = 25.89497 60.40011 43.14754
# Shear Modulus (GPa) = 54.60681 28.59359 41.60020
#
# Velocity S-wave (km/s) = 4.70891 3.40747 4.11003
# Velocity P-wave (km/s) = 6.33089 6.32514 6.32801
#
# Compressibility (1/GPa) = 0.03861753
#
# Stress axis : x y z
#
# Youngs Moduli (GPa) = 127.81879 136.14789 39.31579
#
# Poissons Ratio (x) = 0.24808 0.02330
# Poissons Ratio (y) = 0.23290 -0.05590
# Poissons Ratio (z) = 0.07576 -0.19357
#
# Static dielectric constant tensor:
#      x y z
#    x 2.497360 0.000000 -0.244060 
#    y 0.000000 1.975020 0.000000 
#    z -0.244060 0.000000 2.259150 
# 
# From -- ./inp_files/6966.got.cif
#   From: 2010.05.17/outbox.cif.g08.bks.cpg/sg5_4_cif.got.tgz:6966.got - 2010.06.03 18:56:24.
