data_PCOD9121410
_publ_section_title
;
Structure prediction by ZEFSAII (Michael W. Deem and Ramdas Pophale) SiO2 
 PCOD9121410
Probable space group: C 2
;
_chemical_formula_sum "Si O2"
_cell_formula_units_Z 32
_cell_length_a 11.878414
_cell_length_b 8.102379
_cell_length_c 31.614759
_cell_angle_alpha 90.000000
_cell_angle_beta 151.342953
_cell_angle_gamma 90.000000
_cell_volume 1459.180722
_symmetry_space_group_name_H-M "C 2"
_symmetry_group_IT_number 5
_symmetry_cell_setting 'monoclinic'
loop_
_space_group_symop_operation_xyz
x,y,z
-x,y,-z
1/2+x,1/2+y,z
1/2-x,1/2+y,-z
loop_
_atom_site_type_symbol
_atom_site_label
_atom_site_fract_x
_atom_site_fract_y
_atom_site_fract_z
Si Si1 0.739745 0.237860 0.735844
Si Si2 0.988065 0.429885 0.890675
Si Si3 0.050856 0.876735 0.434457
Si Si4 0.417923 0.635423 0.223364
Si Si5 0.713491 0.736238 0.037805
Si Si6 0.295048 0.104757 0.408324
Si Si7 0.698639 0.372931 0.222042
Si Si8 0.510540 0.728143 0.613301
O O1 0.528612 0.304627 0.637283
O O2 0.823259 0.359015 0.799718
O O3 0.957556 0.216164 0.775332
O O4 0.702156 0.057308 0.742898
O O5 0.166545 0.558541 0.928625
O O6 0.808184 0.527978 0.861705
O O7 0.120559 0.294791 0.961647
O O8 0.331097 0.860282 0.533870
O O9 0.920096 0.760037 0.425633
O O10 0.968277 0.066464 0.408794
O O11 0.623255 0.534947 0.315990
O O12 0.324674 0.771669 0.226022
O O13 0.922560 0.857635 0.121914
O O14 0.500000 0.732030 0.000000
O O15 0.500000 0.006095 0.500000
O O16 0.132922 0.163789 0.393058
O O17 0.757772 0.294935 0.287556
#
# Coordination Sequence:
#
# PCOD9121410 Si02
#       8
#     4   4   4   4   4   4   4   4
#     4  11  21  37  61  88 118 154 190 232 288 345
#     4  11  24  40  61  87 115 149 195 238 290 349
#     4  10  19  33  59  86 115 157 192 228 286 338
#     4   9  20  38  58  84 119 154 187 237 288 337
#     4  11  24  42  62  86 115 150 193 244 291 342
#     4   8  16  31  54  80 113 150 187 228 274 329
#     4  10  21  39  61  85 116 152 193 239 289 341
#     4  10  19  36  58  84 118 152 192 238 279 337
#
# _framework density 21.930115000000001
#
# number of rings (size 3 to 8) (size 9 to 14) (size 15 to 20)
#    0.000    2.000    0.000    4.500    0.000    3.000 
#    0.000    6.875    0.000   30.750    0.000    0.000 
#    0.000    0.000    0.000    0.000    0.000    0.000 
#
# Total GULP energy -89329.183968 kJ/mol
# GULP energy per Si atom -5583.073998 kJ/mol
# Density = 2.188020 g / cm^3
# Si number density = 21.930115 Si / 1000 Ang^3
#
#
#
# Elastic Constant Matrix: (Units=GPa)
#
#
# Indices 1 2 3 4 5 6 
#
# 1 50.8404 -2.2682 24.1011 -0.0001 -10.8867 0.0000
# 2 -2.2682 52.7858 -4.3175 -0.0001 -14.7020 0.0000
# 3 24.1011 -4.3175 68.8690 -0.0003 0.6339 0.0001
# 4 -0.0001 -0.0001 -0.0003 34.4130 0.0000 -10.3546
# 5 -10.8867 -14.7020 0.6339 0.0000 20.9218 0.0000
# 6 0.0000 0.0000 0.0001 -10.3546 0.0000 21.5060
#
#
#
# Elastic Compliance Matrix: (Units=1/GPa)
#
#
# Indices 1 2 3 4 5 6 
#
# 1 0.028754 0.005817 -0.009876 0.000000 0.019349 0.000000
# 2 0.005817 0.024853 -0.000666 0.000000 0.020511 0.000000
# 3 -0.009876 -0.000666 0.017991 0.000000 -0.006152 0.000000
# 4 0.000000 0.000000 0.000000 0.033982 0.000000 0.016361
# 5 0.019349 0.020511 -0.006152 0.000000 0.072465 0.000000
# 6 0.000000 0.000000 0.000000 0.016361 0.000000 0.054376
#
#
# Mechanical properties :
#
#
# Convention : Reuss Voigt Hill
#
# Bulk Modulus (GPa) = 16.09090 23.05845 19.57468
# Shear Modulus (GPa) = 19.04127 25.70016 22.37071
#
# Velocity S-wave (km/s) = 2.94984 3.42703 3.19735
# Velocity P-wave (km/s) = 4.35377 5.11828 4.75143
#
# Compressibility (1/GPa) = 0.06214691
#
# Stress axis : x y z
#
# Youngs Moduli (GPa) = 34.77787 40.23702 55.58239
#
# Poissons Ratio (x) = -0.23405 0.54893
# Poissons Ratio (y) = -0.20230 0.03704
# Poissons Ratio (z) = 0.34347 0.02681
#
# Static dielectric constant tensor:
#      x y z
#    x 1.778960 0.000000 0.001840 
#    y 0.000000 1.837910 0.000000 
#    z 0.001840 0.000000 1.854770 
# 
# From -- ./inp_files/71749.got.cif
#   From: 2010.05.17/outbox.cif.g08.bks.cpg/sg5_36_cif.got.tgz:71749.got - 2010.06.03 18:56:24.
