data_PCOD9121211
_publ_section_title
;
Structure prediction by ZEFSAII (Michael W. Deem and Ramdas Pophale) SiO2 
 PCOD9121211
Probable space group: C 2
;
_chemical_formula_sum "Si O2"
_cell_formula_units_Z 26
_cell_length_a 15.446289
_cell_length_b 15.185176
_cell_length_c 9.380899
_cell_angle_alpha 90.000000
_cell_angle_beta 35.354250
_cell_angle_gamma 90.000000
_cell_volume 1273.179043
_symmetry_space_group_name_H-M "C 2"
_symmetry_group_IT_number 5
_symmetry_cell_setting 'monoclinic'
loop_
_space_group_symop_operation_xyz
x,y,z
-x,y,-z
1/2+x,1/2+y,z
1/2-x,1/2+y,-z
loop_
_atom_site_type_symbol
_atom_site_label
_atom_site_fract_x
_atom_site_fract_y
_atom_site_fract_z
Si Si1 0.884371 0.689010 0.029963
Si Si2 0.734982 0.822172 0.015678
Si Si3 0.500000 0.896248 0.000000
Si Si4 0.350493 0.730064 0.157293
Si Si5 0.129455 0.579850 0.539978
Si Si6 0.246219 0.024578 0.332814
Si Si7 0.500000 0.426378 0.500000
Si Si8 0.000000 0.442462 0.500000
O O1 0.808255 0.764914 0.042654
O O2 0.977968 0.623578 0.802669
O O3 0.761284 0.624959 0.263171
O O4 0.000000 0.717102 0.000000
O O5 0.661677 0.762904 0.988686
O O6 0.873608 0.870742 0.751659
O O7 0.608082 0.884096 0.254788
O O8 0.377257 0.821200 0.213137
O O9 0.383429 0.964343 0.084782
O O10 0.216759 0.666118 0.370442
O O11 0.500000 0.678289 0.000000
O O12 0.216075 0.530388 0.551223
O O13 0.099280 0.507828 0.461722
O O14 0.091783 0.983969 0.490487
#
# Coordination Sequence:
#
# PCOD9121211 Si02
#       8
#     4   4   2   4   4   4   2   2
#     4  10  23  41  64  94 133 177 222 274 337 395
#     4  12  25  43  66  99 136 174 227 274 334 399
#     4  10  18  44  64  92 130 174 220 266 340 398
#     4  10  23  39  67  92 127 173 224 270 332 404
#     4  11  22  43  66  94 129 180 223 280 333 399
#     4  11  22  42  68  96 138 173 225 275 342 393
#     4  12  24  42  70 100 128 182 224 284 320 406
#     4  12  28  42  68  98 138 180 222 280 340 396
#
# _framework density 20.421323000000001
#
# number of rings (size 3 to 8) (size 9 to 14) (size 15 to 20)
#    0.462    0.615    3.846    3.692    0.000    6.769 
#    0.000    0.000    0.000    0.000    0.000    0.000 
#    0.000    0.000    0.000    0.000    0.000    0.000 
#
# Total GULP energy -72413.262864 kJ/mol
# GULP energy per Si atom -5570.250990 kJ/mol
# Density = 2.037484 g / cm^3
# Si number density = 20.421323 Si / 1000 Ang^3
#
#
#
# Elastic Constant Matrix: (Units=GPa)
#
#
# Indices 1 2 3 4 5 6 
#
# 1 122.1860 62.9639 40.2669 0.0000 0.6950 0.0000
# 2 62.9639 106.3144 42.6266 0.0000 2.3914 0.0000
# 3 40.2669 42.6266 82.0804 0.0000 2.1379 0.0000
# 4 0.0000 0.0000 0.0000 15.6682 0.0000 5.7755
# 5 0.6950 2.3914 2.1379 0.0000 26.2622 0.0000
# 6 0.0000 0.0000 0.0000 5.7755 0.0000 42.3178
#
#
#
# Elastic Compliance Matrix: (Units=1/GPa)
#
#
# Indices 1 2 3 4 5 6 
#
# 1 0.012287 -0.006145 -0.002848 0.000000 0.000466 0.000000
# 2 -0.006145 0.014962 -0.004734 0.000000 -0.000814 0.000000
# 3 -0.002848 -0.004734 0.016060 0.000000 -0.000801 0.000000
# 4 0.000000 0.000000 0.000000 0.067205 0.000000 -0.009172
# 5 0.000466 -0.000814 -0.000801 0.000000 0.038205 0.000000
# 6 0.000000 0.000000 0.000000 -0.009172 0.000000 0.024882
#
#
# Mechanical properties :
#
#
# Convention : Reuss Voigt Hill
#
# Bulk Modulus (GPa) = 63.07906 66.92175 65.00040
# Shear Modulus (GPa) = 24.23169 27.83121 26.03145
#
# Velocity S-wave (km/s) = 3.44843 3.69569 3.57419
# Velocity P-wave (km/s) = 6.84189 7.14510 6.99514
#
# Compressibility (1/GPa) = 0.01585312
#
# Stress axis : x y z
#
# Youngs Moduli (GPa) = 81.38629 66.83554 62.26619
#
# Poissons Ratio (x) = 0.41073 0.17736
# Poissons Ratio (y) = 0.50015 0.29478
# Poissons Ratio (z) = 0.23183 0.31642
#
# Static dielectric constant tensor:
#      x y z
#    x 1.754660 0.000000 0.003860 
#    y 0.000000 1.724330 0.000000 
#    z 0.003860 0.000000 1.792130 
# 
# From -- ./inp_files/24810.got.cif
#   From: 2010.05.17/outbox.cif.g08.bks.cpg/sg5_13_cif.got.tgz:24810.got - 2010.06.03 18:56:24.
