data_PCOD9121202
_publ_section_title
;
Structure prediction by ZEFSAII (Michael W. Deem and Ramdas Pophale) SiO2 
 PCOD9121202
Probable space group: C 2
;
_chemical_formula_sum "Si O2"
_cell_formula_units_Z 26
_cell_length_a 26.241531
_cell_length_b 7.483968
_cell_length_c 11.689026
_cell_angle_alpha 90.000000
_cell_angle_beta 27.664124
_cell_angle_gamma 90.000000
_cell_volume 1065.826379
_symmetry_space_group_name_H-M "C 2"
_symmetry_group_IT_number 5
_symmetry_cell_setting 'monoclinic'
loop_
_space_group_symop_operation_xyz
x,y,z
-x,y,-z
1/2+x,1/2+y,z
1/2-x,1/2+y,-z
loop_
_atom_site_type_symbol
_atom_site_label
_atom_site_fract_x
_atom_site_fract_y
_atom_site_fract_z
Si Si1 0.486250 0.468660 0.775766
Si Si2 0.800809 0.026997 0.521577
Si Si3 0.553953 0.051445 0.611073
Si Si4 0.500000 0.464699 0.500000
Si Si5 0.174866 0.390252 0.974608
Si Si6 0.759912 0.929634 0.340901
Si Si7 0.686979 0.171102 0.138380
O O1 0.571533 0.538349 0.699982
O O2 0.511300 0.254963 0.713763
O O3 0.512341 0.551833 0.599416
O O4 0.362486 0.496346 0.062145
O O5 0.748187 0.886137 0.715142
O O6 0.744365 0.215733 0.658101
O O7 0.780429 0.977519 0.431745
O O8 0.615782 0.048499 0.365895
O O9 0.643830 0.001269 0.526302
O O10 0.449896 0.921730 0.813139
O O11 0.607672 0.338960 0.272377
O O12 0.209217 0.237769 0.995944
O O13 0.208377 0.568082 0.979873
#
# Coordination Sequence:
#
# PCOD9121202 Si02
#       7
#     4   4   4   2   4   4   4
#     4  11  23  48  72 101 143 187 232 295 358 418
#     4  12  26  47  71 104 139 193 244 287 356 418
#     4  11  24  46  73 102 141 187 233 292 361 415
#     4  10  18  42  70  98 136 178 224 284 350 416
#     4  12  24  46  74 106 144 186 233 290 359 427
#     4  12  28  47  72 100 145 188 241 298 347 416
#     4  11  23  42  73 104 144 181 228 290 359 423
#
# _framework density 24.394217999999999
#
# number of rings (size 3 to 8) (size 9 to 14) (size 15 to 20)
#    0.000    0.615    7.692    1.385    4.308    1.846 
#    2.769    0.000    0.000    0.000    0.000    0.000 
#    0.000    0.000    0.000    0.000    0.000    0.000 
#
# Total GULP energy -72885.202146 kJ/mol
# GULP energy per Si atom -5606.554011 kJ/mol
# Density = 2.433870 g / cm^3
# Si number density = 24.394218 Si / 1000 Ang^3
#
#
#
# Elastic Constant Matrix: (Units=GPa)
#
#
# Indices 1 2 3 4 5 6 
#
# 1 220.9789 29.8741 76.8847 0.0000 -15.8367 0.0000
# 2 29.8741 51.9358 25.8537 0.0000 -0.7204 0.0000
# 3 76.8847 25.8537 113.4196 0.0000 -21.5200 0.0000
# 4 0.0000 0.0000 0.0000 31.6718 0.0000 -9.3052
# 5 -15.8367 -0.7204 -21.5200 0.0000 53.7125 0.0000
# 6 0.0000 0.0000 0.0000 -9.3052 0.0000 37.0748
#
#
#
# Elastic Compliance Matrix: (Units=1/GPa)
#
#
# Indices 1 2 3 4 5 6 
#
# 1 0.006045 -0.001648 -0.003667 0.000000 0.000291 0.000000
# 2 -0.001648 0.022336 -0.004340 0.000000 -0.001925 0.000000
# 3 -0.003667 -0.004340 0.013069 0.000000 0.004097 0.000000
# 4 0.000000 0.000000 0.000000 0.034087 0.000000 0.008555
# 5 0.000291 -0.001925 0.004097 0.000000 0.020319 0.000000
# 6 0.000000 0.000000 0.000000 0.008555 0.000000 0.029120
#
#
# Mechanical properties :
#
#
# Convention : Reuss Voigt Hill
#
# Bulk Modulus (GPa) = 45.16449 72.39548 58.77998
# Shear Modulus (GPa) = 32.96751 41.40662 37.18706
#
# Velocity S-wave (km/s) = 3.68019 4.12441 3.90862
# Velocity P-wave (km/s) = 6.05087 7.24036 6.67217
#
# Compressibility (1/GPa) = 0.02214129
#
# Stress axis : x y z
#
# Youngs Moduli (GPa) = 165.43443 44.77101 76.51700
#
# Poissons Ratio (x) = 0.07377 0.28057
# Poissons Ratio (y) = 0.27257 0.33206
# Poissons Ratio (z) = 0.60661 0.19429
#
# Static dielectric constant tensor:
#      x y z
#    x 1.894660 0.000000 -0.026430 
#    y 0.000000 2.015800 0.000000 
#    z -0.026430 0.000000 1.895030 
# 
# From -- ./inp_files/47262.got.cif
#   From: 2010.05.17/outbox.cif.g08.bks.cpg/sg5_24_cif.got.tgz:47262.got - 2010.06.03 18:56:24.
