data_PCOD9121162
_publ_section_title
;
Structure prediction by ZEFSAII (Michael W. Deem and Ramdas Pophale) SiO2 
 PCOD9121162
Probable space group: C 2
;
_chemical_formula_sum "Si O2"
_cell_formula_units_Z 18
_cell_length_a 20.926288
_cell_length_b 7.629726
_cell_length_c 7.713592
_cell_angle_alpha 90.000000
_cell_angle_beta 146.347973
_cell_angle_gamma 90.000000
_cell_volume 682.469580
_symmetry_space_group_name_H-M "C 2"
_symmetry_group_IT_number 5
_symmetry_cell_setting 'monoclinic'
loop_
_space_group_symop_operation_xyz
x,y,z
-x,y,-z
1/2+x,1/2+y,z
1/2-x,1/2+y,-z
loop_
_atom_site_type_symbol
_atom_site_label
_atom_site_fract_x
_atom_site_fract_y
_atom_site_fract_z
Si Si1 0.697300 0.802110 0.494682
Si Si2 0.500000 0.850572 0.500000
Si Si3 0.860973 0.922613 0.562720
Si Si4 0.557564 0.088993 0.346641
Si Si5 0.253503 0.265473 0.005660
O O1 0.776677 0.824232 0.507431
O O2 0.628157 0.618631 0.342937
O O3 0.770081 0.796943 0.838851
O O4 0.612921 0.968944 0.322444
O O5 0.616113 0.744739 0.724345
O O6 0.474665 0.970622 0.273795
O O7 0.966694 0.789123 0.760989
O O8 0.796129 0.922381 0.231154
O O9 0.662742 0.120985 0.720523
#
# Coordination Sequence:
#
# PCOD9121162 Si02
#       5
#     4   2   4   4   4
#     4  11  17  35  60  86 123 162 200 253 310 357
#     4  10  18  40  68  88 126 166 200 254 316 358
#     4  10  20  33  61  91 118 163 205 249 309 364
#     4   9  21  36  59  92 119 160 204 248 308 364
#     4   9  21  37  61  89 118 161 203 248 309 359
#
# _framework density 26.374803
#
# number of rings (size 3 to 8) (size 9 to 14) (size 15 to 20)
#    1.333    0.889    2.222    2.667    0.000    0.000 
#    0.000    8.889    0.000    0.000    0.000    0.000 
#    0.000    0.000    0.000    0.000    0.000    0.000 
#
# Total GULP energy -50217.456361 kJ/mol
# GULP energy per Si atom -5579.717373 kJ/mol
# Density = 2.631477 g / cm^3
# Si number density = 26.374803 Si / 1000 Ang^3
#
#
#
# Elastic Constant Matrix: (Units=GPa)
#
#
# Indices 1 2 3 4 5 6 
#
# 1 133.6213 31.3782 19.6489 0.0000 -6.9070 0.0000
# 2 31.3782 146.2094 -11.8723 0.0000 11.6067 0.0000
# 3 19.6489 -11.8723 108.7451 0.0000 -15.6866 0.0000
# 4 0.0000 0.0000 0.0000 2.1073 0.0000 -5.1062
# 5 -6.9070 11.6067 -15.6866 0.0000 43.9892 0.0000
# 6 0.0000 0.0000 0.0000 -5.1062 0.0000 44.9467
#
#
#
# Elastic Compliance Matrix: (Units=1/GPa)
#
#
# Indices 1 2 3 4 5 6 
#
# 1 0.008242 -0.001994 -0.001523 0.000000 0.001277 0.000000
# 2 -0.001994 0.007497 0.000894 0.000000 -0.001972 0.000000
# 3 -0.001523 0.000894 0.010015 0.000000 0.003096 0.000000
# 4 0.000000 0.000000 0.000000 0.654785 0.000000 0.074387
# 5 0.001277 -0.001972 0.003096 0.000000 0.024558 0.000000
# 6 0.000000 0.000000 0.000000 0.074387 0.000000 0.030699
#
#
# Mechanical properties :
#
#
# Convention : Reuss Voigt Hill
#
# Bulk Modulus (GPa) = 48.75862 51.87615 50.31739
# Shear Modulus (GPa) = 6.68559 41.50338 24.09449
#
# Velocity S-wave (km/s) = 1.59385 3.97117 3.02576
# Velocity P-wave (km/s) = 4.68125 6.38266 5.59699
#
# Compressibility (1/GPa) = 0.02050919
#
# Stress axis : x y z
#
# Youngs Moduli (GPa) = 121.33014 133.39421 99.84789
#
# Poissons Ratio (x) = 0.26597 0.15204
# Poissons Ratio (y) = 0.24191 -0.08929
# Poissons Ratio (z) = 0.18475 -0.11928
#
# Static dielectric constant tensor:
#      x y z
#    x 1.980910 0.000000 -0.063290 
#    y 0.000000 2.187650 0.000000 
#    z -0.063290 0.000000 2.075720 
# 
# From -- ./inp_files/26358.got.cif
#   From: 2010.05.17/outbox.cif.g08.bks.cpg/sg5_14_cif.got.tgz:26358.got - 2010.06.03 18:56:24.
