data_PCOD9121632
_publ_section_title
;
Structure prediction by ZEFSAII (Michael W. Deem and Ramdas Pophale) SiO2 
 PCOD9121632
Probable space group: C 2
;
_chemical_formula_sum "Si O2"
_cell_formula_units_Z 30
_cell_length_a 18.601671
_cell_length_b 14.684952
_cell_length_c 13.408127
_cell_angle_alpha 90.000000
_cell_angle_beta 156.786775
_cell_angle_gamma 90.000000
_cell_volume 1443.638989
_symmetry_space_group_name_H-M "C 2"
_symmetry_group_IT_number 5
_symmetry_cell_setting 'monoclinic'
loop_
_space_group_symop_operation_xyz
x,y,z
-x,y,-z
1/2+x,1/2+y,z
1/2-x,1/2+y,-z
loop_
_atom_site_type_symbol
_atom_site_label
_atom_site_fract_x
_atom_site_fract_y
_atom_site_fract_z
Si Si1 0.848794 0.135370 0.656421
Si Si2 0.000000 0.756300 0.500000
Si Si3 0.307983 0.941495 0.200203
Si Si4 0.117371 0.927741 0.283013
Si Si5 0.256736 0.747025 0.118358
Si Si6 0.636432 0.293466 0.473006
Si Si7 0.719509 0.629500 0.027972
Si Si8 0.293420 0.242777 0.716993
O O1 0.780383 0.211666 0.645672
O O2 0.779523 0.175307 0.461257
O O3 0.806315 0.030315 0.631791
O O4 0.063207 0.133821 0.911130
O O5 0.898653 0.812326 0.456102
O O6 0.875723 0.690972 0.274730
O O7 0.500000 0.958890 0.500000
O O8 0.331070 0.844493 0.177773
O O9 0.278728 0.026096 0.091320
O O10 0.108553 0.932750 0.003869
O O11 0.174617 0.886789 0.463475
O O12 0.192925 0.847363 0.307308
O O13 0.708168 0.740155 0.719142
O O14 0.334423 0.669737 0.147104
O O15 0.040780 0.754596 0.814942
O O16 0.500000 0.214235 0.000000
#
# Coordination Sequence:
#
# PCOD9121632 Si02
#       8
#     4   2   4   4   4   4   4   4
#     4  10  21  37  62  89 122 150 202 253 301 355
#     4  10  20  38  58  78 124 164 188 244 316 356
#     4  10  19  35  59  88 117 154 205 247 298 360
#     4   9  20  38  59  90 119 154 203 254 294 361
#     4  10  21  37  58  88 125 157 198 249 304 357
#     4   9  19  39  59  81 118 162 196 246 301 356
#     4  10  22  37  55  91 125 155 201 254 297 361
#     4  11  19  39  64  86 120 162 196 249 306 354
#
# _framework density 20.780816999999999
#
# number of rings (size 3 to 8) (size 9 to 14) (size 15 to 20)
#    0.000    2.133    4.667    0.000    1.867    1.600 
#    0.000    5.333    5.867    0.000    0.000    0.000 
#    0.000    0.000    0.000    0.000    0.000    0.000 
#
# Total GULP energy -83523.884650 kJ/mol
# GULP energy per Si atom -5568.258977 kJ/mol
# Density = 2.073352 g / cm^3
# Si number density = 20.780817 Si / 1000 Ang^3
#
#
#
# Elastic Constant Matrix: (Units=GPa)
#
#
# Indices 1 2 3 4 5 6 
#
# 1 110.4974 31.3769 13.2848 0.0000 -22.3750 0.0000
# 2 31.3769 95.3838 41.7601 0.0000 -8.3505 0.0000
# 3 13.2848 41.7601 42.0355 0.0000 -2.1821 0.0000
# 4 0.0000 0.0000 0.0000 18.5614 0.0000 -3.2641
# 5 -22.3750 -8.3505 -2.1821 0.0000 25.9312 0.0000
# 6 0.0000 0.0000 0.0000 -3.2641 0.0000 23.2974
#
#
#
# Elastic Compliance Matrix: (Units=1/GPa)
#
#
# Indices 1 2 3 4 5 6 
#
# 1 0.011783 -0.002919 -0.000346 0.000000 0.009198 0.000000
# 2 -0.002919 0.019801 -0.018630 0.000000 0.002290 0.000000
# 3 -0.000346 -0.018630 0.042264 0.000000 -0.002742 0.000000
# 4 0.000000 0.000000 0.000000 0.055236 0.000000 0.007739
# 5 0.009198 0.002290 -0.002742 0.000000 0.047007 0.000000
# 6 0.000000 0.000000 0.000000 0.007739 0.000000 0.044007
#
#
# Mechanical properties :
#
#
# Convention : Reuss Voigt Hill
#
# Bulk Modulus (GPa) = 33.26937 46.75114 40.01026
# Shear Modulus (GPa) = 18.25425 24.32436 21.28930
#
# Velocity S-wave (km/s) = 2.96703 3.42500 3.20421
# Velocity P-wave (km/s) = 5.27087 6.17956 5.74321
#
# Compressibility (1/GPa) = 0.03005768
#
# Stress axis : x y z
#
# Youngs Moduli (GPa) = 84.86735 50.50228 23.66060
#
# Poissons Ratio (x) = 0.14743 0.00819
# Poissons Ratio (y) = 0.24775 0.44079
# Poissons Ratio (z) = 0.02939 0.94085
#
# Static dielectric constant tensor:
#      x y z
#    x 1.846370 0.000000 0.068330 
#    y 0.000000 1.757060 0.000000 
#    z 0.068330 0.000000 1.802590 
# 
# From -- ./inp_files/57141.got.cif
#   From: 2010.05.17/outbox.cif.g08.bks.cpg/sg5_29_cif.got.tgz:57141.got - 2010.06.03 18:56:24.
