data_PCOD9121209
_publ_section_title
;
Structure prediction by ZEFSAII (Michael W. Deem and Ramdas Pophale) SiO2 
 PCOD9121209
Probable space group: C 2
;
_chemical_formula_sum "Si O2"
_cell_formula_units_Z 18
_cell_length_a 6.412131
_cell_length_b 16.046810
_cell_length_c 9.896478
_cell_angle_alpha 90.000000
_cell_angle_beta 48.417472
_cell_angle_gamma 90.000000
_cell_volume 761.681939
_symmetry_space_group_name_H-M "C 2"
_symmetry_group_IT_number 5
_symmetry_cell_setting 'monoclinic'
loop_
_space_group_symop_operation_xyz
x,y,z
-x,y,-z
1/2+x,1/2+y,z
1/2-x,1/2+y,-z
loop_
_atom_site_type_symbol
_atom_site_label
_atom_site_fract_x
_atom_site_fract_y
_atom_site_fract_z
Si Si1 0.590390 0.643710 0.809877
Si Si2 0.687506 0.306389 0.194310
Si Si3 0.500000 0.015614 0.500000
Si Si4 0.500000 0.103646 0.000000
Si Si5 0.500000 0.355659 0.000000
Si Si6 0.424424 0.954877 0.243429
O O1 0.805289 0.721158 0.724122
O O2 0.746940 0.570954 0.665553
O O3 0.500000 0.617730 0.000000
O O4 0.281502 0.658115 0.883490
O O5 0.485328 0.310083 0.152413
O O6 0.703297 0.391109 0.272634
O O7 0.000000 0.299737 0.000000
O O8 0.386644 0.967682 0.418454
O O9 0.447413 0.040440 0.148712
O O10 0.226456 0.411595 0.101186
#
# Coordination Sequence:
#
# PCOD9121209 Si02
#       6
#     4   4   2   2   2   4
#     4  11  25  46  67 104 148 188 234 293 360 424
#     4   9  21  41  72 101 137 187 243 289 354 423
#     4  12  26  46  68 108 150 186 238 294 360 424
#     4  12  22  45  76  99 148 194 230 298 361 422
#     4  10  18  43  78  97 136 188 248 286 357 412
#     4  11  22  42  69 106 137 190 238 293 350 430
#
# _framework density 23.631910000000001
#
# number of rings (size 3 to 8) (size 9 to 14) (size 15 to 20)
#    0.000    1.333    5.556    1.333    0.000    8.889 
#    4.000    0.000    0.000    0.000    0.000    0.000 
#    0.000    0.000    0.000    0.000    0.000    0.000 
#
# Total GULP energy -50265.093462 kJ/mol
# GULP energy per Si atom -5585.010385 kJ/mol
# Density = 2.357812 g / cm^3
# Si number density = 23.631910 Si / 1000 Ang^3
#
#
#
# Elastic Constant Matrix: (Units=GPa)
#
#
# Indices 1 2 3 4 5 6 
#
# 1 141.1459 47.2451 24.9387 0.0000 24.9160 0.0000
# 2 47.2451 83.8384 28.8483 0.0000 27.0275 0.0000
# 3 24.9387 28.8483 103.6302 0.0000 22.7939 0.0000
# 4 0.0000 0.0000 0.0000 5.3908 0.0000 11.1994
# 5 24.9160 27.0275 22.7939 0.0000 50.1459 0.0000
# 6 0.0000 0.0000 0.0000 11.1994 0.0000 47.5170
#
#
#
# Elastic Compliance Matrix: (Units=1/GPa)
#
#
# Indices 1 2 3 4 5 6 
#
# 1 0.008935 -0.004230 -0.000553 0.000000 -0.001909 0.000000
# 2 -0.004230 0.017078 -0.002415 0.000000 -0.006005 0.000000
# 3 -0.000553 -0.002415 0.011231 0.000000 -0.003529 0.000000
# 4 0.000000 0.000000 0.000000 0.363484 0.000000 -0.085670
# 5 -0.001909 -0.006005 -0.003529 0.000000 0.025731 0.000000
# 6 0.000000 0.000000 0.000000 -0.085670 0.000000 0.041237
#
#
# Mechanical properties :
#
#
# Convention : Reuss Voigt Hill
#
# Bulk Modulus (GPa) = 43.76634 58.96428 51.36531
# Shear Modulus (GPa) = 10.21014 35.78288 22.99651
#
# Velocity S-wave (km/s) = 2.08083 3.89546 3.12286
# Velocity P-wave (km/s) = 4.93289 6.72593 5.89795
#
# Compressibility (1/GPa) = 0.02284861
#
# Stress axis : x y z
#
# Youngs Moduli (GPa) = 111.91594 58.55365 89.03673
#
# Poissons Ratio (x) = 0.24766 0.04924
# Poissons Ratio (y) = 0.47337 0.21506
# Poissons Ratio (z) = 0.06189 0.14143
#
# Static dielectric constant tensor:
#      x y z
#    x 1.964430 0.000000 0.025880 
#    y 0.000000 2.013170 0.000000 
#    z 0.025880 0.000000 1.923510 
# 
# From -- ./inp_files/11940.got.cif
#   From: 2010.05.17/outbox.cif.g08.bks.cpg/sg5_6_cif.got.tgz:11940.got - 2010.06.03 18:56:24.
