data_PCOD9121845
_publ_section_title
;
Structure prediction by ZEFSAII (Michael W. Deem and Ramdas Pophale) SiO2 
 PCOD9121845
Probable space group: C 2
;
_chemical_formula_sum "Si O2"
_cell_formula_units_Z 30
_cell_length_a 10.934051
_cell_length_b 9.481518
_cell_length_c 16.829141
_cell_angle_alpha 90.000000
_cell_angle_beta 40.830373
_cell_angle_gamma 90.000000
_cell_volume 1140.723311
_symmetry_space_group_name_H-M "C 2"
_symmetry_group_IT_number 5
_symmetry_cell_setting 'monoclinic'
loop_
_space_group_symop_operation_xyz
x,y,z
-x,y,-z
1/2+x,1/2+y,z
1/2-x,1/2+y,-z
loop_
_atom_site_type_symbol
_atom_site_label
_atom_site_fract_x
_atom_site_fract_y
_atom_site_fract_z
Si Si1 0.116281 0.538620 0.218000
Si Si2 0.897691 0.669677 0.178222
Si Si3 0.742461 0.996462 0.503451
Si Si4 0.794677 0.373959 0.632100
Si Si5 0.000000 0.459345 0.000000
Si Si6 0.791536 0.908652 0.994370
Si Si7 0.291439 0.259926 0.584391
Si Si8 0.090653 0.131650 0.818740
O O1 0.992343 0.600192 0.208517
O O2 0.282097 0.643245 0.165264
O O3 0.973964 0.503893 0.359168
O O4 0.216360 0.411511 0.121802
O O5 0.046181 0.793105 0.085664
O O6 0.716553 0.741864 0.304692
O O7 0.875176 0.561748 0.117504
O O8 0.806431 0.883526 0.403922
O O9 0.822922 0.919007 0.540319
O O10 0.784512 0.148615 0.444696
O O11 0.694600 0.499990 0.725968
O O12 0.000000 0.395933 0.500000
O O13 0.864875 0.387738 0.998772
O O14 0.886274 0.064783 0.932815
O O15 0.500000 0.205251 0.500000
O O16 0.148098 0.253431 0.729031
#
# Coordination Sequence:
#
# PCOD9121845 Si02
#       8
#     4   4   4   4   2   4   4   4
#     4  11  21  42  64  99 134 176 234 282 346 417
#     4  10  24  41  68  95 137 179 219 290 346 401
#     4  11  22  41  69  97 139 183 227 288 344 410
#     4  10  19  36  63  94 126 174 223 271 335 403
#     4  10  24  48  64 100 138 160 236 282 332 422
#     4  10  24  43  66  96 132 180 221 286 349 406
#     4  11  23  44  69 100 142 180 231 291 341 411
#     4  10  20  40  65  96 128 176 229 274 345 413
#
# _framework density 26.299101
#
# number of rings (size 3 to 8) (size 9 to 14) (size 15 to 20)
#    0.000    1.600    2.667    2.000    3.733    3.200 
#    9.600    4.667    0.000    0.000    0.000    0.000 
#    0.000    0.000    0.000    0.000    0.000    0.000 
#
# Total GULP energy -83645.638961 kJ/mol
# GULP energy per Si atom -5576.375931 kJ/mol
# Density = 2.623924 g / cm^3
# Si number density = 26.299101 Si / 1000 Ang^3
#
#
#
# Elastic Constant Matrix: (Units=GPa)
#
#
# Indices 1 2 3 4 5 6 
#
# 1 88.8133 17.6296 16.3733 0.0000 10.7722 0.0000
# 2 17.6296 48.5766 15.5172 0.0000 9.1645 0.0000
# 3 16.3733 15.5172 117.6589 0.0000 15.6847 0.0000
# 4 0.0000 0.0000 0.0000 36.8293 0.0000 10.0898
# 5 10.7722 9.1645 15.6847 0.0000 39.9468 0.0000
# 6 0.0000 0.0000 0.0000 10.0898 0.0000 31.8101
#
#
#
# Elastic Compliance Matrix: (Units=1/GPa)
#
#
# Indices 1 2 3 4 5 6 
#
# 1 0.012448 -0.003817 -0.000948 0.000000 -0.002109 0.000000
# 2 -0.003817 0.023294 -0.002074 0.000000 -0.003500 0.000000
# 3 -0.000948 -0.002074 0.009294 0.000000 -0.002918 0.000000
# 4 0.000000 0.000000 0.000000 0.029736 0.000000 -0.009432
# 5 -0.002109 -0.003500 -0.002918 0.000000 0.027551 0.000000
# 6 0.000000 0.000000 0.000000 -0.009432 0.000000 0.034428
#
#
# Mechanical properties :
#
#
# Convention : Reuss Voigt Hill
#
# Bulk Modulus (GPa) = 31.89021 39.34322 35.61671
# Shear Modulus (GPa) = 31.07879 35.41915 33.24897
#
# Velocity S-wave (km/s) = 3.44138 3.67383 3.55950
# Velocity P-wave (km/s) = 5.28612 5.74356 5.51958
#
# Compressibility (1/GPa) = 0.03135759
#
# Stress axis : x y z
#
# Youngs Moduli (GPa) = 80.33572 42.92888 107.60179
#
# Poissons Ratio (x) = 0.16386 0.10197
# Poissons Ratio (y) = 0.30664 0.22320
# Poissons Ratio (z) = 0.07613 0.08905
#
# Static dielectric constant tensor:
#      x y z
#    x 2.196560 0.000000 0.029610 
#    y 0.000000 2.177650 0.000000 
#    z 0.029610 0.000000 2.111510 
# 
# From -- ./inp_files/60474.got.cif
#   From: 2010.05.17/outbox.cif.g08.bks.cpg/sg5_31_cif.got.tgz:60474.got - 2010.06.03 18:56:24.
