data_PCOD9121824
_publ_section_title
;
Structure prediction by ZEFSAII (Michael W. Deem and Ramdas Pophale) SiO2 
 PCOD9121824
Probable space group: C 2
;
_chemical_formula_sum "Si O2"
_cell_formula_units_Z 24
_cell_length_a 17.924791
_cell_length_b 9.305276
_cell_length_c 22.003878
_cell_angle_alpha 90.000000
_cell_angle_beta 18.006995
_cell_angle_gamma 90.000000
_cell_volume 1134.561653
_symmetry_space_group_name_H-M "C 2"
_symmetry_group_IT_number 5
_symmetry_cell_setting 'monoclinic'
loop_
_space_group_symop_operation_xyz
x,y,z
-x,y,-z
1/2+x,1/2+y,z
1/2-x,1/2+y,-z
loop_
_atom_site_type_symbol
_atom_site_label
_atom_site_fract_x
_atom_site_fract_y
_atom_site_fract_z
Si Si1 0.999979 0.060910 0.927959
Si Si2 0.407273 0.399381 0.428916
Si Si3 0.956040 0.646713 0.311297
Si Si4 0.079173 0.828189 0.102834
Si Si5 0.802071 0.524932 0.029357
Si Si6 0.811803 0.358452 0.203706
O O1 0.171608 0.197378 0.783246
O O2 0.054309 0.923560 0.844110
O O3 0.732906 0.116920 0.115666
O O4 0.000000 0.026566 0.000000
O O5 0.181712 0.501514 0.596051
O O6 0.352517 0.239718 0.447345
O O7 0.607719 0.466976 0.227953
O O8 0.547394 0.393629 0.384037
O O9 0.933531 0.746523 0.268906
O O10 0.243505 0.939248 0.013219
O O11 0.213851 0.695068 0.966869
O O12 0.064950 0.475369 0.848644
O O13 0.000000 0.351282 0.000000
#
# Coordination Sequence:
#
# PCOD9121824 Si02
#       6
#     4   4   4   4   4   4
#     4  11  20  39  68  94 123 173 223 259 312 394
#     4  10  22  37  63  92 130 168 210 271 328 382
#     4  11  22  40  63  98 129 165 218 269 325 376
#     4  11  21  36  63  94 126 164 222 273 306 380
#     4  10  19  36  62  88 121 173 220 256 314 388
#     4   9  16  38  61  87 118 167 219 254 309 389
#
# _framework density 21.153542999999999
#
# number of rings (size 3 to 8) (size 9 to 14) (size 15 to 20)
#    0.000    1.667    8.333    0.000    2.333    2.000 
#    0.000    0.833    3.667    0.000    0.000    0.000 
#    0.000    0.000    0.000    0.000    0.000    0.000 
#
# Total GULP energy -66983.162499 kJ/mol
# GULP energy per Si atom -5581.930208 kJ/mol
# Density = 2.110540 g / cm^3
# Si number density = 21.153543 Si / 1000 Ang^3
#
#
#
# Elastic Constant Matrix: (Units=GPa)
#
#
# Indices 1 2 3 4 5 6 
#
# 1 108.5251 35.4169 19.1431 -0.0063 -19.3674 -0.0006
# 2 35.4169 91.6824 11.8111 -0.0462 -11.1387 -0.0023
# 3 19.1431 11.8111 45.3350 -0.0388 -14.6807 0.0000
# 4 -0.0063 -0.0462 -0.0388 34.6447 0.0010 -0.1808
# 5 -19.3674 -11.1387 -14.6807 0.0010 20.1961 0.0020
# 6 -0.0006 -0.0023 0.0000 -0.1808 0.0020 47.8324
#
#
#
# Elastic Compliance Matrix: (Units=1/GPa)
#
#
# Indices 1 2 3 4 5 6 
#
# 1 0.012145 -0.003451 -0.001405 -0.000004 0.008722 0.000000
# 2 -0.003451 0.012726 -0.000859 0.000015 0.003085 0.000001
# 3 -0.001405 -0.000859 0.029146 0.000031 0.019366 -0.000001
# 4 -0.000004 0.000015 0.000031 0.028865 0.000025 0.000109
# 5 0.008722 0.003085 0.019366 0.000025 0.073657 -0.000003
# 6 0.000000 0.000001 -0.000001 0.000109 -0.000003 0.020907
#
#
# Mechanical properties :
#
#
# Convention : Reuss Voigt Hill
#
# Bulk Modulus (GPa) = 23.48144 42.03165 32.75654
# Shear Modulus (GPa) = 24.62183 32.47938 28.55060
#
# Velocity S-wave (km/s) = 3.41538 3.92268 3.67779
# Velocity P-wave (km/s) = 5.16505 6.35842 5.79255
#
# Compressibility (1/GPa) = 0.04258683
#
# Stress axis : x y z
#
# Youngs Moduli (GPa) = 82.33814 78.58051 34.30981
#
# Poissons Ratio (x) = 0.27118 0.04820
# Poissons Ratio (y) = 0.28415 0.02948
# Poissons Ratio (z) = 0.11567 0.06753
#
# Static dielectric constant tensor:
#      x y z
#    x 1.817140 0.000000 0.056080 
#    y 0.000000 1.762200 0.000010 
#    z 0.056080 0.000010 1.784490 
# 
# From -- ./inp_files/32461.got.cif
#   From: 2010.05.17/outbox.cif.g08.bks.cpg/sg5_17_cif.got.tgz:32461.got - 2010.06.03 18:56:24.
