data_PCOD9121786
_publ_section_title
;
Structure prediction by ZEFSAII (Michael W. Deem and Ramdas Pophale) SiO2 
 PCOD9121786
Probable space group: C 2
;
_chemical_formula_sum "Si O2"
_cell_formula_units_Z 30
_cell_length_a 13.989984
_cell_length_b 13.651133
_cell_length_c 15.763189
_cell_angle_alpha 90.000000
_cell_angle_beta 153.011410
_cell_angle_gamma 90.000000
_cell_volume 1366.177041
_symmetry_space_group_name_H-M "C 2"
_symmetry_group_IT_number 5
_symmetry_cell_setting 'monoclinic'
loop_
_space_group_symop_operation_xyz
x,y,z
-x,y,-z
1/2+x,1/2+y,z
1/2-x,1/2+y,-z
loop_
_atom_site_type_symbol
_atom_site_label
_atom_site_fract_x
_atom_site_fract_y
_atom_site_fract_z
Si Si1 0.952415 0.303990 0.646884
Si Si2 0.878704 0.152338 0.097202
Si Si3 0.956562 0.759461 0.279835
Si Si4 0.837641 0.609692 0.810461
Si Si5 0.000000 0.264925 0.500000
Si Si6 0.152112 0.451028 0.309575
Si Si7 0.181519 0.265013 0.213885
Si Si8 0.918762 0.985381 0.253869
O O1 0.707500 0.268922 0.464810
O O2 0.994455 0.323297 0.582416
O O3 0.994007 0.397631 0.738376
O O4 0.094877 0.218098 0.797179
O O5 0.902579 0.044316 0.153447
O O6 0.072589 0.185486 0.189524
O O7 0.668639 0.186502 0.881487
O O8 0.883848 0.734415 0.318455
O O9 0.871389 0.871092 0.201131
O O10 0.694227 0.689900 0.654055
O O11 0.931988 0.538643 0.813737
O O12 0.716843 0.536138 0.779061
O O13 0.000000 0.661911 0.000000
O O14 0.219603 0.362923 0.299133
O O15 0.348841 0.487981 0.520444
O O16 0.000000 0.285869 0.000000
#
# Coordination Sequence:
#
# PCOD9121786 Si02
#       8
#     4   4   4   4   2   4   4   4
#     4  10  23  36  60  83 125 165 202 253 315 367
#     4  10  21  39  57  92 134 158 200 264 316 371
#     4  10  22  38  64  92 122 167 212 256 309 381
#     4  12  23  34  63  93 123 153 208 263 317 366
#     4  12  24  44  54  90 130 162 208 264 310 376
#     4  10  19  36  60  92 121 154 201 259 309 366
#     4   9  18  34  61  93 127 157 205 261 311 363
#     4  11  21  37  58  95 127 161 203 262 315 364
#
# _framework density 21.959088000000001
#
# number of rings (size 3 to 8) (size 9 to 14) (size 15 to 20)
#    0.000    1.600    4.000    0.400    7.467    1.600 
#    0.000    0.000    0.000   19.200    0.000    0.000 
#    0.000    0.000    0.000    0.000    0.000    0.000 
#
# Total GULP energy -83811.237276 kJ/mol
# GULP energy per Si atom -5587.415818 kJ/mol
# Density = 2.190911 g / cm^3
# Si number density = 21.959088 Si / 1000 Ang^3
#
#
#
# Elastic Constant Matrix: (Units=GPa)
#
#
# Indices 1 2 3 4 5 6 
#
# 1 105.8902 27.4005 16.4353 -0.0025 -26.1117 -0.0005
# 2 27.4005 62.1706 17.9897 -0.0020 -16.9858 0.0003
# 3 16.4353 17.9897 67.0365 -0.0074 -24.5040 -0.0026
# 4 -0.0025 -0.0020 -0.0074 19.7321 -0.0019 -15.3203
# 5 -26.1117 -16.9858 -24.5040 -0.0019 34.5740 -0.0004
# 6 -0.0005 0.0003 -0.0026 -15.3203 -0.0004 31.7672
#
#
#
# Elastic Compliance Matrix: (Units=1/GPa)
#
#
# Indices 1 2 3 4 5 6 
#
# 1 0.012203 -0.003405 0.000917 0.000004 0.008193 0.000002
# 2 -0.003405 0.019778 -0.002512 0.000001 0.005365 0.000000
# 3 0.000917 -0.002512 0.020472 0.000017 0.013968 0.000010
# 4 0.000004 0.000001 0.000017 0.081013 0.000021 0.039070
# 5 0.008193 0.005365 0.013968 0.000021 0.047647 0.000012
# 6 0.000002 0.000000 0.000010 0.039070 0.000012 0.050321
#
#
# Mechanical properties :
#
#
# Convention : Reuss Voigt Hill
#
# Bulk Modulus (GPa) = 23.55527 39.86092 31.70809
# Shear Modulus (GPa) = 19.56291 28.76612 24.16452
#
# Velocity S-wave (km/s) = 2.98800 3.62330 3.32088
# Velocity P-wave (km/s) = 4.75966 5.97463 5.40141
#
# Compressibility (1/GPa) = 0.04245335
#
# Stress axis : x y z
#
# Youngs Moduli (GPa) = 81.94775 50.56120 48.84660
#
# Poissons Ratio (x) = 0.17216 -0.04478
# Poissons Ratio (y) = 0.27903 0.12269
# Poissons Ratio (z) = -0.07513 0.12700
#
# Static dielectric constant tensor:
#      x y z
#    x 1.860120 0.000000 0.034980 
#    y 0.000000 1.812530 0.000000 
#    z 0.034980 0.000000 1.856640 
# 
# From -- ./inp_files/54796.got.cif
#   From: 2010.05.17/outbox.cif.g08.bks.cpg/sg5_28_cif.got.tgz:54796.got - 2010.06.03 18:56:24.
