data_PCOD9121636
_publ_section_title
;
Structure prediction by ZEFSAII (Michael W. Deem and Ramdas Pophale) SiO2 
 PCOD9121636
Probable space group: C 2
;
_chemical_formula_sum "Si O2"
_cell_formula_units_Z 24
_cell_length_a 11.858393
_cell_length_b 7.322111
_cell_length_c 12.352618
_cell_angle_alpha 90.000000
_cell_angle_beta 65.242298
_cell_angle_gamma 90.000000
_cell_volume 973.976690
_symmetry_space_group_name_H-M "C 2"
_symmetry_group_IT_number 5
_symmetry_cell_setting 'monoclinic'
loop_
_space_group_symop_operation_xyz
x,y,z
-x,y,-z
1/2+x,1/2+y,z
1/2-x,1/2+y,-z
loop_
_atom_site_type_symbol
_atom_site_label
_atom_site_fract_x
_atom_site_fract_y
_atom_site_fract_z
Si Si1 0.000000 0.830920 0.000000
Si Si2 0.083890 0.033670 0.609312
Si Si3 0.030094 0.658683 0.318171
Si Si4 0.671663 0.312443 0.745428
Si Si5 0.370867 0.690030 0.836805
Si Si6 0.821569 0.582295 0.930068
Si Si7 0.500000 0.835828 0.500000
O O1 0.913282 0.914152 0.128873
O O2 0.096430 0.701040 0.023096
O O3 0.996585 0.126859 0.733671
O O4 0.097716 0.185946 0.511264
O O5 0.004740 0.850754 0.611373
O O6 0.197452 0.952204 0.635038
O O7 0.157725 0.668317 0.197778
O O8 0.917443 0.660724 0.275093
O O9 0.029436 0.480091 0.392374
O O10 0.779901 0.219985 0.769976
O O11 0.377976 0.883674 0.892089
O O12 0.309269 0.566696 0.955284
#
# Coordination Sequence:
#
# PCOD9121636 Si02
#       7
#     2   4   4   4   4   4   2
#     4   8  16  36  58  80 130 164 184 264 320 376
#     4  10  22  39  65  91 120 176 209 261 329 378
#     4   9  20  40  60  89 124 165 207 272 311 383
#     4   8  20  37  59  86 128 160 205 262 323 374
#     4  11  20  38  62  95 126 165 211 263 325 404
#     4  10  19  35  59  90 125 158 205 259 322 380
#     4  12  20  40  68  88 124 170 224 250 326 378
#
# _framework density 24.641245000000001
#
# number of rings (size 3 to 8) (size 9 to 14) (size 15 to 20)
#    1.000    1.333    1.667    1.500    2.333    0.000 
#    3.000    3.333    0.000    0.000    0.000    0.000 
#    0.000    0.000    0.000    0.000    0.000    0.000 
#
# Total GULP energy -66822.210416 kJ/mol
# GULP energy per Si atom -5568.517535 kJ/mol
# Density = 2.458516 g / cm^3
# Si number density = 24.641245 Si / 1000 Ang^3
#
#
#
# Elastic Constant Matrix: (Units=GPa)
#
#
# Indices 1 2 3 4 5 6 
#
# 1 54.5718 27.3582 28.4865 0.0000 4.2260 0.0000
# 2 27.3582 147.9957 62.0318 0.0000 16.5879 0.0000
# 3 28.4865 62.0318 130.0440 0.0000 28.5388 0.0000
# 4 0.0000 0.0000 0.0000 70.1104 0.0000 2.2514
# 5 4.2260 16.5879 28.5388 0.0000 20.5326 0.0000
# 6 0.0000 0.0000 0.0000 2.2514 0.0000 27.0389
#
#
#
# Elastic Compliance Matrix: (Units=1/GPa)
#
#
# Indices 1 2 3 4 5 6 
#
# 1 0.021582 -0.002600 -0.004278 0.000000 0.003606 0.000000
# 2 -0.002600 0.008803 -0.003146 0.000000 -0.002204 0.000000
# 3 -0.004278 -0.003146 0.013492 0.000000 -0.015331 0.000000
# 4 0.000000 0.000000 0.000000 0.014301 0.000000 -0.001191
# 5 0.003606 -0.002204 -0.015331 0.000000 0.071050 0.000000
# 6 0.000000 0.000000 0.000000 -0.001191 0.000000 0.037083
#
#
# Mechanical properties :
#
#
# Convention : Reuss Voigt Hill
#
# Bulk Modulus (GPa) = 41.96758 63.15158 52.55958
# Shear Modulus (GPa) = 25.73280 37.85206 31.79243
#
# Velocity S-wave (km/s) = 3.23507 3.92360 3.59585
# Velocity P-wave (km/s) = 5.56979 6.79781 6.21421
#
# Compressibility (1/GPa) = 0.02382792
#
# Stress axis : x y z
#
# Youngs Moduli (GPa) = 46.33419 113.59369 74.11840
#
# Poissons Ratio (x) = 0.29540 0.31712
# Poissons Ratio (y) = 0.12049 0.23317
# Poissons Ratio (z) = 0.19824 0.35735
#
# Static dielectric constant tensor:
#      x y z
#    x 2.024310 0.000000 -0.069110 
#    y 0.000000 1.953120 0.000000 
#    z -0.069110 0.000000 2.052130 
# 
# From -- ./inp_files/41319.got.cif
#   From: 2010.05.17/outbox.cif.g08.bks.cpg/sg5_21_cif.got.tgz:41319.got - 2010.06.03 18:56:24.
