data_PCOD9121821
_publ_section_title
;
Structure prediction by ZEFSAII (Michael W. Deem and Ramdas Pophale) SiO2 
 PCOD9121821
Probable space group: C 2
;
_chemical_formula_sum "Si O2"
_cell_formula_units_Z 28
_cell_length_a 13.315435
_cell_length_b 9.521812
_cell_length_c 19.827253
_cell_angle_alpha 90.000000
_cell_angle_beta 34.055762
_cell_angle_gamma 90.000000
_cell_volume 1407.748703
_symmetry_space_group_name_H-M "C 2"
_symmetry_group_IT_number 5
_symmetry_cell_setting 'monoclinic'
loop_
_space_group_symop_operation_xyz
x,y,z
-x,y,-z
1/2+x,1/2+y,z
1/2-x,1/2+y,-z
loop_
_atom_site_type_symbol
_atom_site_label
_atom_site_fract_x
_atom_site_fract_y
_atom_site_fract_z
Si Si1 0.194116 0.946710 0.900698
Si Si2 0.733003 0.448238 0.032075
Si Si3 0.514865 0.479558 0.285673
Si Si4 0.139426 0.246947 0.290323
Si Si5 0.985818 0.663843 0.850638
Si Si6 0.437460 0.162663 0.722148
Si Si7 0.407166 0.987840 0.483500
O O1 0.330749 0.831215 0.796848
O O2 0.246036 0.082689 0.827949
O O3 0.191458 0.993463 0.979043
O O4 0.000000 0.883723 0.000000
O O5 0.617419 0.506017 0.158161
O O6 0.673519 0.283180 0.061273
O O7 0.927403 0.525856 0.926398
O O8 0.558481 0.598377 0.315356
O O9 0.578921 0.327941 0.275570
O O10 0.303534 0.469030 0.389764
O O11 0.331622 0.228681 0.220282
O O12 0.006562 0.342865 0.408028
O O13 0.013463 0.631899 0.755455
O O14 0.556550 0.094704 0.597901
O O15 0.500000 0.040573 0.500000
#
# Coordination Sequence:
#
# PCOD9121821 Si02
#       7
#     4   4   4   4   4   4   4
#     4  10  19  36  62  86 121 164 207 239 297 382
#     4  10  20  35  59  91 126 158 199 253 302 364
#     4  11  23  39  59  94 127 155 207 266 307 361
#     4  11  23  40  67  90 121 169 211 254 305 373
#     4  10  20  40  61  90 126 162 202 251 312 367
#     4   9  22  40  57  89 124 156 203 253 310 360
#     4  11  23  43  68  85 116 169 212 253 307 379
#
# _framework density 19.889913
#
# number of rings (size 3 to 8) (size 9 to 14) (size 15 to 20)
#    0.000    1.714    1.429    3.429    2.000    0.000 
#    7.714    6.429    0.000    0.000    0.000    0.000 
#    0.000    0.000    0.000    0.000    0.000    0.000 
#
# Total GULP energy -77959.872148 kJ/mol
# GULP energy per Si atom -5568.562296 kJ/mol
# Density = 1.984464 g / cm^3
# Si number density = 19.889913 Si / 1000 Ang^3
#
#
#
# Elastic Constant Matrix: (Units=GPa)
#
#
# Indices 1 2 3 4 5 6 
#
# 1 46.1093 34.2054 33.1256 0.0000 10.0989 0.0000
# 2 34.2054 102.9712 36.4758 0.0000 -0.2089 0.0000
# 3 33.1256 36.4758 85.8385 -0.0001 15.3439 0.0000
# 4 0.0000 0.0000 -0.0001 26.4928 0.0000 2.9692
# 5 10.0989 -0.2089 15.3439 0.0000 27.4852 0.0000
# 6 0.0000 0.0000 0.0000 2.9692 0.0000 27.5363
#
#
#
# Elastic Compliance Matrix: (Units=1/GPa)
#
#
# Indices 1 2 3 4 5 6 
#
# 1 0.036576 -0.009082 -0.008710 0.000000 -0.008646 0.000000
# 2 -0.009082 0.013932 -0.003367 0.000000 0.005322 0.000000
# 3 -0.008710 -0.003367 0.017634 0.000000 -0.006669 0.000000
# 4 0.000000 0.000000 0.000000 0.038208 0.000000 -0.004120
# 5 -0.008646 0.005322 -0.006669 0.000000 0.043324 0.000000
# 6 0.000000 0.000000 0.000000 -0.004120 0.000000 0.036760
#
#
# Mechanical properties :
#
#
# Convention : Reuss Voigt Hill
#
# Bulk Modulus (GPa) = 38.72385 49.17027 43.94706
# Shear Modulus (GPa) = 21.06513 25.04368 23.05440
#
# Velocity S-wave (km/s) = 3.25789 3.55225 3.40825
# Velocity P-wave (km/s) = 5.80200 6.44977 6.13444
#
# Compressibility (1/GPa) = 0.02582388
#
# Stress axis : x y z
#
# Youngs Moduli (GPa) = 27.34021 71.77848 56.70888
#
# Poissons Ratio (x) = 0.65190 0.49395
# Poissons Ratio (y) = 0.24831 0.19092
# Poissons Ratio (z) = 0.23814 0.24165
#
# Static dielectric constant tensor:
#      x y z
#    x 1.772430 0.000000 -0.041470 
#    y 0.000000 1.744450 0.000000 
#    z -0.041470 0.000000 1.735530 
# 
# From -- ./inp_files/41700.got.cif
#   From: 2010.05.17/outbox.cif.g08.bks.cpg/sg5_21_cif.got.tgz:41700.got - 2010.06.03 18:56:24.
