data_PCOD9121078
_publ_section_title
;
Structure prediction by ZEFSAII (Michael W. Deem and Ramdas Pophale) SiO2 
 PCOD9121078
Probable space group: C 2
;
_chemical_formula_sum "Si O2"
_cell_formula_units_Z 26
_cell_length_a 7.367303
_cell_length_b 12.223786
_cell_length_c 11.705563
_cell_angle_alpha 90.000000
_cell_angle_beta 94.445156
_cell_angle_gamma 90.000000
_cell_volume 1050.989170
_symmetry_space_group_name_H-M "C 2"
_symmetry_group_IT_number 5
_symmetry_cell_setting 'monoclinic'
loop_
_space_group_symop_operation_xyz
x,y,z
-x,y,-z
1/2+x,1/2+y,z
1/2-x,1/2+y,-z
loop_
_atom_site_type_symbol
_atom_site_label
_atom_site_fract_x
_atom_site_fract_y
_atom_site_fract_z
Si Si1 0.801870 0.910070 0.049327
Si Si2 0.292124 0.608618 0.458588
Si Si3 0.803695 0.529766 0.309738
Si Si4 0.905574 0.083657 0.215258
Si Si5 0.939190 0.773754 0.255925
Si Si6 0.000000 0.789974 0.500000
Si Si7 0.156252 0.324461 0.815811
O O1 0.807591 0.827060 0.155927
O O2 0.793794 0.029386 0.106757
O O3 0.668709 0.875700 0.942112
O O4 0.000000 0.906132 0.000000
O O5 0.500000 0.635255 0.500000
O O6 0.222770 0.527866 0.554660
O O7 0.297188 0.572613 0.328511
O O8 0.167276 0.714412 0.467500
O O9 0.603146 0.527967 0.241474
O O10 0.888512 0.647534 0.280703
O O11 0.903971 0.422331 0.270030
O O12 0.947419 0.210755 0.196739
O O13 0.936508 0.839483 0.376943
O O14 0.140782 0.786085 0.213671
#
# Coordination Sequence:
#
# PCOD9121078 Si02
#       7
#     4   4   4   4   4   2   4
#     4  10  22  40  64  96 125 177 223 271 326 403
#     4   9  20  37  65  98 130 174 217 277 338 402
#     4  10  22  42  64  96 131 164 219 277 330 394
#     4  11  21  42  68  92 133 171 224 269 337 397
#     4  10  21  40  66  91 128 169 215 268 333 394
#     4  10  18  38  66  98 130 170 220 274 342 400
#     4  11  23  42  67  92 129 178 218 270 331 397
#
# _framework density 24.738600000000002
#
# number of rings (size 3 to 8) (size 9 to 14) (size 15 to 20)
#    0.000    1.846    4.615    0.000    2.154    1.231 
#    2.769    0.000   13.538    0.000    0.000    0.000 
#    0.000    0.000    0.000    0.000    0.000    0.000 
#
# Total GULP energy -72727.712484 kJ/mol
# GULP energy per Si atom -5594.439422 kJ/mol
# Density = 2.468229 g / cm^3
# Si number density = 24.738600 Si / 1000 Ang^3
#
#
#
# Elastic Constant Matrix: (Units=GPa)
#
#
# Indices 1 2 3 4 5 6 
#
# 1 64.2587 21.1800 20.4784 0.0000 -18.3116 0.0000
# 2 21.1800 158.0200 59.5257 0.0000 -7.3743 0.0000
# 3 20.4784 59.5257 191.9584 0.0000 -6.9105 0.0000
# 4 0.0000 0.0000 0.0000 34.5819 0.0000 1.8993
# 5 -18.3116 -7.3743 -6.9105 0.0000 25.8984 0.0000
# 6 0.0000 0.0000 0.0000 1.8993 0.0000 25.8602
#
#
#
# Elastic Compliance Matrix: (Units=1/GPa)
#
#
# Indices 1 2 3 4 5 6 
#
# 1 0.020359 -0.001653 -0.001169 0.000000 0.013612 0.000000
# 2 -0.001653 0.007355 -0.002091 0.000000 0.000367 0.000000
# 3 -0.001169 -0.002091 0.005989 0.000000 0.000176 0.000000
# 4 0.000000 0.000000 0.000000 0.029034 0.000000 -0.002132
# 5 0.013612 0.000367 0.000176 0.000000 0.048388 0.000000
# 6 0.000000 0.000000 0.000000 -0.002132 0.000000 0.038826
#
#
# Mechanical properties :
#
#
# Convention : Reuss Voigt Hill
#
# Bulk Modulus (GPa) = 41.88407 68.51171 55.19789
# Shear Modulus (GPa) = 29.80875 38.13829 33.97352
#
# Velocity S-wave (km/s) = 3.47500 3.93065 3.70983
# Velocity P-wave (km/s) = 5.75050 6.95373 6.38054
#
# Compressibility (1/GPa) = 0.02387543
#
# Stress axis : x y z
#
# Youngs Moduli (GPa) = 49.11952 135.96683 166.97348
#
# Poissons Ratio (x) = 0.22476 0.19523
# Poissons Ratio (y) = 0.08120 0.34916
# Poissons Ratio (z) = 0.05743 0.28432
#
# Static dielectric constant tensor:
#      x y z
#    x 1.991690 0.000000 0.014470 
#    y 0.000000 1.980060 0.000000 
#    z 0.014470 0.000000 1.968930 
# 
# From -- ./inp_files/35445.got.cif
#   From: 2010.05.17/outbox.cif.g08.bks.cpg/sg5_18_cif.got.tgz:35445.got - 2010.06.03 18:56:24.
