data_PCOD9121325
_publ_section_title
;
Structure prediction by ZEFSAII (Michael W. Deem and Ramdas Pophale) SiO2 
 PCOD9121325
Probable space group: C 2
;
_chemical_formula_sum "Si O2"
_cell_formula_units_Z 24
_cell_length_a 15.138060
_cell_length_b 14.847027
_cell_length_c 7.743612
_cell_angle_alpha 90.000000
_cell_angle_beta 36.530292
_cell_angle_gamma 90.000000
_cell_volume 1035.979186
_symmetry_space_group_name_H-M "C 2"
_symmetry_group_IT_number 5
_symmetry_cell_setting 'monoclinic'
loop_
_space_group_symop_operation_xyz
x,y,z
-x,y,-z
1/2+x,1/2+y,z
1/2-x,1/2+y,-z
loop_
_atom_site_type_symbol
_atom_site_label
_atom_site_fract_x
_atom_site_fract_y
_atom_site_fract_z
Si Si1 0.558630 0.398280 0.598314
Si Si2 0.183129 0.773006 0.942207
Si Si3 0.373719 0.550127 0.093146
Si Si4 0.607654 0.892988 0.161925
Si Si5 0.687468 0.895023 0.560616
Si Si6 0.158263 0.596504 0.154227
O O1 0.500000 0.417339 0.500000
O O2 0.476829 0.473880 0.841464
O O3 0.730322 0.392543 0.382888
O O4 0.485322 0.304525 0.768634
O O5 0.271852 0.819242 0.964735
O O6 0.241967 0.817787 0.674416
O O7 0.186107 0.666774 0.958082
O O8 0.500000 0.603014 0.000000
O O9 0.246422 0.491377 0.390589
O O10 0.287591 0.609078 0.091135
O O11 0.500000 0.891400 0.500000
O O12 0.486586 0.884994 0.200394
O O13 0.671064 0.994285 0.068753
O O14 0.000000 0.608794 0.500000
#
# Coordination Sequence:
#
# PCOD9121325 Si02
#       6
#     4   4   4   4   4   4
#     4  10  19  34  57  82 113 150 192 239 286 334
#     4  10  19  32  58  86 113 149 191 237 281 342
#     4   9  17  33  59  83 106 151 194 231 284 345
#     4   9  16  34  58  82 111 151 194 228 284 345
#     4   9  17  36  62  79 108 152 195 229 289 344
#     4  11  18  33  59  87 117 154 194 231 284 345
#
# _framework density 23.166488999999999
#
# number of rings (size 3 to 8) (size 9 to 14) (size 15 to 20)
#    0.000    2.333    6.667    2.000    0.000    0.000 
#    0.000    6.667    7.333    0.000    0.000    0.000 
#    0.000    0.000    0.000    0.000    0.000    0.000 
#
# Total GULP energy -66944.433334 kJ/mol
# GULP energy per Si atom -5578.702778 kJ/mol
# Density = 2.311376 g / cm^3
# Si number density = 23.166489 Si / 1000 Ang^3
#
#
#
# Elastic Constant Matrix: (Units=GPa)
#
#
# Indices 1 2 3 4 5 6 
#
# 1 184.4758 -0.6859 43.3892 0.0000 -29.5148 0.0000
# 2 -0.6859 55.1558 6.4861 0.0000 -4.3978 0.0000
# 3 43.3892 6.4861 69.5462 0.0000 -38.2159 0.0000
# 4 0.0000 0.0000 0.0000 6.3149 0.0000 7.5592
# 5 -29.5148 -4.3978 -38.2159 0.0000 47.3312 0.0000
# 6 0.0000 0.0000 0.0000 7.5592 0.0000 21.5217
#
#
#
# Elastic Compliance Matrix: (Units=1/GPa)
#
#
# Indices 1 2 3 4 5 6 
#
# 1 0.006421 0.000578 -0.003290 0.000000 0.001401 0.000000
# 2 0.000578 0.018393 -0.001688 0.000000 0.000707 0.000000
# 3 -0.003290 -0.001688 0.027637 0.000000 0.020107 0.000000
# 4 0.000000 0.000000 0.000000 0.273232 0.000000 -0.095968
# 5 0.001401 0.000707 0.020107 0.000000 0.038302 0.000000
# 6 0.000000 0.000000 0.000000 -0.095968 0.000000 0.080172
#
#
# Mechanical properties :
#
#
# Convention : Reuss Voigt Hill
#
# Bulk Modulus (GPa) = 22.90809 45.28407 34.09608
# Shear Modulus (GPa) = 10.69507 32.36613 21.53060
#
# Velocity S-wave (km/s) = 2.15096 3.74185 3.05189
# Velocity P-wave (km/s) = 4.00983 6.18532 5.21234
#
# Compressibility (1/GPa) = 0.04365270
#
# Stress axis : x y z
#
# Youngs Moduli (GPa) = 155.74126 54.36999 36.18276
#
# Poissons Ratio (x) = -0.03145 0.11903
# Poissons Ratio (y) = -0.09009 0.06107
# Poissons Ratio (z) = 0.51235 0.09176
#
# Static dielectric constant tensor:
#      x y z
#    x 1.987420 0.000000 0.045760 
#    y 0.000000 1.790730 0.000000 
#    z 0.045760 0.000000 1.965680 
# 
# From -- ./inp_files/24506.got.cif
#   From: 2010.05.17/outbox.cif.g08.bks.cpg/sg5_13_cif.got.tgz:24506.got - 2010.06.03 18:56:24.
