data_PCOD9121035
_publ_section_title
;
Structure prediction by ZEFSAII (Michael W. Deem and Ramdas Pophale) SiO2 
 PCOD9121035
Probable space group: C 2
;
_chemical_formula_sum "Si O2"
_cell_formula_units_Z 26
_cell_length_a 19.350412
_cell_length_b 13.797893
_cell_length_c 5.069664
_cell_angle_alpha 90.000000
_cell_angle_beta 113.915102
_cell_angle_gamma 90.000000
_cell_volume 1237.366258
_symmetry_space_group_name_H-M "C 2"
_symmetry_group_IT_number 5
_symmetry_cell_setting 'monoclinic'
loop_
_space_group_symop_operation_xyz
x,y,z
-x,y,-z
1/2+x,1/2+y,z
1/2-x,1/2+y,-z
loop_
_atom_site_type_symbol
_atom_site_label
_atom_site_fract_x
_atom_site_fract_y
_atom_site_fract_z
Si Si1 0.622189 0.012070 0.323559
Si Si2 0.587214 0.237497 0.224984
Si Si3 0.688111 0.913688 0.898762
Si Si4 0.000000 0.380675 0.000000
Si Si5 0.144687 0.846035 0.831967
Si Si6 0.445407 0.535375 0.167052
Si Si7 0.918375 0.244967 0.227292
O O1 0.603742 0.124957 0.305582
O O2 0.683237 0.981377 0.634830
O O3 0.543995 0.953207 0.262598
O O4 0.649120 0.974126 0.077348
O O5 0.604556 0.302268 0.510131
O O6 0.500000 0.249936 0.000000
O O7 0.639470 0.268818 0.060053
O O8 0.644469 0.814158 0.747325
O O9 0.771218 0.880058 0.106902
O O10 0.936780 0.306188 0.996156
O O11 0.103761 0.939603 0.894007
O O12 0.500000 0.529915 0.500000
O O13 0.398616 0.635002 0.129634
O O14 0.500000 0.542237 0.000000
O O15 0.000000 0.244707 0.500000
#
# Coordination Sequence:
#
# PCOD9121035 Si02
#       7
#     4   4   4   2   4   4   4
#     4  11  23  41  69  99 134 167 231 272 346 391
#     4  12  25  45  72 100 131 184 234 284 326 401
#     4  11  25  42  66 100 138 179 208 285 345 411
#     4  10  18  38  62  98 126 160 210 290 328 388
#     4  12  26  45  64  96 145 180 225 270 341 408
#     4  11  23  40  66  92 120 171 222 274 319 386
#     4  10  20  37  65  94 125 162 223 272 336 385
#
# _framework density 21.012371999999999
#
# number of rings (size 3 to 8) (size 9 to 14) (size 15 to 20)
#    0.000    0.923    3.077    4.615    0.000    2.462 
#    0.000    1.538    0.000    0.000    0.000    0.000 
#    0.000    0.000    0.000    0.000    0.000    0.000 
#
# Total GULP energy -72552.452834 kJ/mol
# GULP energy per Si atom -5580.957910 kJ/mol
# Density = 2.096455 g / cm^3
# Si number density = 21.012372 Si / 1000 Ang^3
#
#
#
# Elastic Constant Matrix: (Units=GPa)
#
#
# Indices 1 2 3 4 5 6 
#
# 1 35.7346 13.8796 9.1617 0.0000 3.4759 0.0000
# 2 13.8796 140.7851 34.9777 0.0000 13.6235 0.0000
# 3 9.1617 34.9777 96.8139 0.0000 -7.6877 0.0000
# 4 0.0000 0.0000 0.0000 18.0995 0.0000 -12.0332
# 5 3.4759 13.6235 -7.6877 0.0000 32.2374 0.0000
# 6 0.0000 0.0000 0.0000 -12.0332 0.0000 16.8473
#
#
#
# Elastic Compliance Matrix: (Units=1/GPa)
#
#
# Indices 1 2 3 4 5 6 
#
# 1 0.029655 -0.002080 -0.002282 0.000000 -0.002863 0.000000
# 2 -0.002080 0.008504 -0.003204 0.000000 -0.004134 0.000000
# 3 -0.002282 -0.003204 0.012058 0.000000 0.004476 0.000000
# 4 0.000000 0.000000 0.000000 0.105210 0.000000 0.075147
# 5 -0.002863 -0.004134 0.004476 0.000000 0.034143 0.000000
# 6 0.000000 0.000000 0.000000 0.075147 0.000000 0.113030
#
#
# Mechanical properties :
#
#
# Convention : Reuss Voigt Hill
#
# Bulk Modulus (GPa) = 28.50148 43.26351 35.88249
# Shear Modulus (GPa) = 15.17784 27.79114 21.48449
#
# Velocity S-wave (km/s) = 2.69053 3.64071 3.20108
# Velocity P-wave (km/s) = 4.82136 6.18929 5.54765
#
# Compressibility (1/GPa) = 0.03508589
#
# Stress axis : x y z
#
# Youngs Moduli (GPa) = 33.72062 117.59132 82.93267
#
# Poissons Ratio (x) = 0.24454 0.18929
# Poissons Ratio (y) = 0.07012 0.26570
# Poissons Ratio (z) = 0.07696 0.37674
#
# Static dielectric constant tensor:
#      x y z
#    x 1.818260 0.000000 -0.020780 
#    y 0.000000 1.768690 0.000000 
#    z -0.020780 0.000000 1.764800 
# 
# From -- ./inp_files/9626.got.cif
#   From: 2010.05.17/outbox.cif.g08.bks.cpg/sg5_5_cif.got.tgz:9626.got - 2010.06.03 18:56:24.
