data_PCOD9121582
_publ_section_title
;
Structure prediction by ZEFSAII (Michael W. Deem and Ramdas Pophale) SiO2 
 PCOD9121582
Probable space group: C 2
;
_chemical_formula_sum "Si O2"
_cell_formula_units_Z 32
_cell_length_a 20.966152
_cell_length_b 10.179274
_cell_length_c 9.425895
_cell_angle_alpha 90.000000
_cell_angle_beta 134.051109
_cell_angle_gamma 90.000000
_cell_volume 1445.831828
_symmetry_space_group_name_H-M "C 2"
_symmetry_group_IT_number 5
_symmetry_cell_setting 'monoclinic'
loop_
_space_group_symop_operation_xyz
x,y,z
-x,y,-z
1/2+x,1/2+y,z
1/2-x,1/2+y,-z
loop_
_atom_site_type_symbol
_atom_site_label
_atom_site_fract_x
_atom_site_fract_y
_atom_site_fract_z
Si Si1 0.137142 0.680210 0.151463
Si Si2 0.517407 0.876887 0.173955
Si Si3 0.143924 0.214161 0.004847
Si Si4 0.600865 0.565687 0.667012
Si Si5 0.968584 0.653328 0.719809
Si Si6 0.326835 0.808162 0.409727
Si Si7 0.211488 0.486739 0.056827
Si Si8 0.324545 0.105217 0.293186
O O1 0.100352 0.668587 0.254416
O O2 0.225145 0.768610 0.277327
O O3 0.172483 0.541898 0.142951
O O4 0.057283 0.721459 0.919341
O O5 0.444602 0.763083 0.056952
O O6 0.613682 0.820964 0.356688
O O7 0.503752 0.999115 0.259296
O O8 0.500000 0.948306 0.000000
O O9 0.114787 0.103667 0.851457
O O10 0.172501 0.345332 0.964097
O O11 0.234078 0.166997 0.217383
O O12 0.500000 0.521477 0.500000
O O13 0.622523 0.696717 0.606069
O O14 0.682978 0.471747 0.761102
O O15 0.910733 0.679255 0.489116
O O16 0.328350 0.952931 0.345249
O O17 0.189414 0.592617 0.898721
#
# Coordination Sequence:
#
# PCOD9121582 Si02
#       8
#     4   4   4   4   4   4   4   4
#     4  10  20  38  61  82 116 149 193 239 296 338
#     4  11  20  34  58  87 111 147 195 240 278 342
#     4  11  20  36  59  84 117 146 189 243 285 341
#     4  10  19  35  56  82 112 152 191 226 286 343
#     4  10  20  39  58  87 110 151 198 239 282 342
#     4  10  21  36  59  82 115 155 187 234 292 343
#     4  10  20  36  60  86 116 149 188 244 292 335
#     4  10  23  36  58  89 117 149 194 238 287 347
#
# _framework density 22.132588999999999
#
# number of rings (size 3 to 8) (size 9 to 14) (size 15 to 20)
#    0.000    1.750    5.000    0.000    1.750    0.500 
#    0.000    2.500    2.750    0.000    0.000    0.000 
#    0.000    0.000    0.000    0.000    0.000    0.000 
#
# Total GULP energy -89108.879207 kJ/mol
# GULP energy per Si atom -5569.304950 kJ/mol
# Density = 2.208221 g / cm^3
# Si number density = 22.132589 Si / 1000 Ang^3
#
#
#
# Elastic Constant Matrix: (Units=GPa)
#
#
# Indices 1 2 3 4 5 6 
#
# 1 61.4711 2.6319 34.3966 0.0000 25.0624 0.0000
# 2 2.6319 14.2127 9.7066 0.0000 2.4142 0.0000
# 3 34.3966 9.7066 173.2461 0.0000 24.6843 0.0000
# 4 0.0000 0.0000 0.0000 31.7788 0.0000 11.8054
# 5 25.0624 2.4142 24.6843 0.0000 32.0010 0.0000
# 6 0.0000 0.0000 0.0000 11.8054 0.0000 20.1135
#
#
#
# Elastic Compliance Matrix: (Units=1/GPa)
#
#
# Indices 1 2 3 4 5 6 
#
# 1 0.024770 0.000046 -0.002422 0.000000 -0.017535 0.000000
# 2 0.000046 0.073360 -0.003736 0.000000 -0.002688 0.000000
# 3 -0.002422 -0.003736 0.006912 0.000000 -0.003152 0.000000
# 4 0.000000 0.000000 0.000000 0.040242 0.000000 -0.023619
# 5 -0.017535 -0.002688 -0.003152 0.000000 0.047616 0.000000
# 6 0.000000 0.000000 0.000000 -0.023619 0.000000 0.063581
#
#
# Mechanical properties :
#
#
# Convention : Reuss Voigt Hill
#
# Bulk Modulus (GPa) = 10.77400 38.04448 24.40924
# Shear Modulus (GPa) = 16.68645 30.25832 23.47239
#
# Velocity S-wave (km/s) = 2.74876 3.70150 3.26012
# Velocity P-wave (km/s) = 3.86688 5.95775 5.02232
#
# Compressibility (1/GPa) = 0.09281604
#
# Stress axis : x y z
#
# Youngs Moduli (GPa) = 40.37113 13.63146 144.68576
#
# Poissons Ratio (x) = -0.00062 0.35045
# Poissons Ratio (y) = -0.00185 0.54058
# Poissons Ratio (z) = 0.09778 0.05093
#
# Static dielectric constant tensor:
#      x y z
#    x 1.912530 0.000000 0.028130 
#    y 0.000000 1.809320 0.000000 
#    z 0.028130 0.000000 1.879520 
# 
# From -- ./inp_files/42471.got.cif
#   From: 2010.05.17/outbox.cif.g08.bks.cpg/sg5_22_cif.got.tgz:42471.got - 2010.06.03 18:56:24.
