data_PCOD9121741
_publ_section_title
;
Structure prediction by ZEFSAII (Michael W. Deem and Ramdas Pophale) SiO2 
 PCOD9121741
Probable space group: C 2
;
_chemical_formula_sum "Si O2"
_cell_formula_units_Z 28
_cell_length_a 22.485497
_cell_length_b 11.890118
_cell_length_c 19.420884
_cell_angle_alpha 90.000000
_cell_angle_beta 162.726096
_cell_angle_gamma 90.000000
_cell_volume 1541.793943
_symmetry_space_group_name_H-M "C 2"
_symmetry_group_IT_number 5
_symmetry_cell_setting 'monoclinic'
loop_
_space_group_symop_operation_xyz
x,y,z
-x,y,-z
1/2+x,1/2+y,z
1/2-x,1/2+y,-z
loop_
_atom_site_type_symbol
_atom_site_label
_atom_site_fract_x
_atom_site_fract_y
_atom_site_fract_z
Si Si1 0.499928 0.727210 0.417162
Si Si2 0.576972 0.986652 0.857493
Si Si3 0.951402 0.717572 0.109704
Si Si4 0.271373 0.812576 0.576423
Si Si5 0.367563 0.372995 0.791242
Si Si6 0.957474 0.020742 0.638868
Si Si7 0.700636 0.571866 0.382935
O O1 0.500000 0.704939 0.500000
O O2 0.646039 0.832478 0.565462
O O3 0.562233 0.616946 0.441008
O O4 0.279271 0.755376 0.143324
O O5 0.460143 0.872768 0.747946
O O6 0.554270 0.082724 0.891189
O O7 0.438302 0.043767 0.646059
O O8 0.810304 0.982846 0.099526
O O9 0.100827 0.771700 0.332297
O O10 0.033421 0.760061 0.128541
O O11 0.334646 0.697160 0.682218
O O12 0.173196 0.908210 0.515077
O O13 0.386174 0.469120 0.755029
O O14 0.500000 0.413254 0.000000
O O15 0.883808 0.066584 0.632060
#
# Coordination Sequence:
#
# PCOD9121741 Si02
#       7
#     4   4   4   4   4   4   4
#     4  11  23  38  60  89 118 150 191 246 297 341
#     4   9  19  33  58  85 112 146 189 245 287 331
#     4  10  20  37  56  90 114 148 193 235 301 335
#     4  10  19  36  58  83 116 149 195 241 283 341
#     4  12  22  37  60  82 119 155 189 241 287 354
#     4  10  21  35  60  87 114 149 195 243 289 340
#     4  10  22  36  55  85 119 152 194 234 285 347
#
# _framework density 18.160663
#
# number of rings (size 3 to 8) (size 9 to 14) (size 15 to 20)
#    0.000    1.714    4.286    2.571    2.000    2.286 
#    0.000    0.000    6.286    0.000    0.000    0.000 
#    0.000    0.000    0.000    0.000    0.000    0.000 
#
# Total GULP energy -77938.977529 kJ/mol
# GULP energy per Si atom -5567.069824 kJ/mol
# Density = 1.811933 g / cm^3
# Si number density = 18.160663 Si / 1000 Ang^3
#
#
#
# Elastic Constant Matrix: (Units=GPa)
#
#
# Indices 1 2 3 4 5 6 
#
# 1 77.1989 32.5642 20.8258 0.0003 1.4506 0.0004
# 2 32.5642 93.3660 35.0007 -0.0019 8.6013 0.0002
# 3 20.8258 35.0007 77.8266 -0.0002 22.4967 0.0065
# 4 0.0003 -0.0019 -0.0002 14.6538 0.0008 7.2851
# 5 1.4506 8.6013 22.4967 0.0008 27.2389 0.0019
# 6 0.0004 0.0002 0.0065 7.2851 0.0019 5.4201
#
#
#
# Elastic Compliance Matrix: (Units=1/GPa)
#
#
# Indices 1 2 3 4 5 6 
#
# 1 0.015656 -0.004618 -0.003012 -0.000006 0.003112 0.000009
# 2 -0.004618 0.014263 -0.005186 -0.000003 0.000025 0.000011
# 3 -0.003012 -0.005186 0.020318 0.000029 -0.014983 -0.000058
# 4 -0.000006 -0.000003 0.000029 0.205672 -0.000009 -0.276440
# 5 0.003112 0.000025 -0.014983 -0.000009 0.048913 0.000012
# 6 0.000009 0.000011 -0.000058 -0.276440 0.000012 0.556054
#
#
# Mechanical properties :
#
#
# Convention : Reuss Voigt Hill
#
# Bulk Modulus (GPa) = 40.64235 47.24144 43.94189
# Shear Modulus (GPa) = 5.58841 20.12931 12.85886
#
# Velocity S-wave (km/s) = 1.75610 3.33288 2.66383
# Velocity P-wave (km/s) = 5.15168 6.39377 5.80603
#
# Compressibility (1/GPa) = 0.02460488
#
# Stress axis : x y z
#
# Youngs Moduli (GPa) = 63.87499 70.11175 49.21640
#
# Poissons Ratio (x) = 0.32377 0.14825
# Poissons Ratio (y) = 0.29497 0.25524
# Poissons Ratio (z) = 0.19240 0.36360
#
# Static dielectric constant tensor:
#      x y z
#    x 1.645430 0.000000 -0.001650 
#    y 0.000000 1.666520 0.000000 
#    z -0.001650 0.000000 1.709820 
# 
# From -- ./inp_files/62914.got.cif
#   From: 2010.05.17/outbox.cif.g08.bks.cpg/sg5_32_cif.got.tgz:62914.got - 2010.06.03 18:56:24.
