data_PCOD9121774
_publ_section_title
;
Structure prediction by ZEFSAII (Michael W. Deem and Ramdas Pophale) SiO2 
 PCOD9121774
Probable space group: C 2
;
_chemical_formula_sum "Si O2"
_cell_formula_units_Z 24
_cell_length_a 18.027763
_cell_length_b 8.721421
_cell_length_c 28.412970
_cell_angle_alpha 90.000000
_cell_angle_beta 164.150657
_cell_angle_gamma 90.000000
_cell_volume 1220.060671
_symmetry_space_group_name_H-M "C 2"
_symmetry_group_IT_number 5
_symmetry_cell_setting 'monoclinic'
loop_
_space_group_symop_operation_xyz
x,y,z
-x,y,-z
1/2+x,1/2+y,z
1/2-x,1/2+y,-z
loop_
_atom_site_type_symbol
_atom_site_label
_atom_site_fract_x
_atom_site_fract_y
_atom_site_fract_z
Si Si1 0.578812 0.728800 0.830554
Si Si2 0.412918 0.010012 0.499308
Si Si3 0.355598 0.738805 0.537707
Si Si4 0.247216 0.301994 0.275818
Si Si5 0.911452 0.552115 0.891691
Si Si6 0.202120 0.434578 0.405642
O O1 0.364646 0.604802 0.678529
O O2 0.469415 0.784582 0.814292
O O3 0.547195 0.873276 0.776740
O O4 0.868586 0.650026 0.003503
O O5 0.500000 0.963175 0.500000
O O6 0.389511 0.867275 0.518954
O O7 0.628492 0.131524 0.651989
O O8 0.630905 0.646569 0.717840
O O9 0.165386 0.605708 0.401321
O O10 0.261083 0.825982 0.526490
O O11 0.124234 0.388316 0.155794
O O12 0.516531 0.406495 0.451587
O O13 0.000000 0.538079 0.000000
#
# Coordination Sequence:
#
# PCOD9121774 Si02
#       6
#     4   4   4   4   4   4
#     4  10  20  40  62  87 123 157 201 256 309 364
#     4   9  20  39  62  90 118 156 210 257 304 365
#     4  11  22  36  63  88 123 162 205 257 308 367
#     4   9  21  38  63  84 119 165 200 248 305 362
#     4  11  23  40  61  90 128 166 199 253 310 365
#     4  10  19  36  60  88 118 158 211 248 307 360
#
# _framework density 19.671153
#
# number of rings (size 3 to 8) (size 9 to 14) (size 15 to 20)
#    0.000    2.000    1.667    3.500    2.333    5.333 
#    0.000    2.500    0.000    0.000    0.000    0.000 
#    0.000    0.000    0.000    0.000    0.000    0.000 
#
# Total GULP energy -66948.415512 kJ/mol
# GULP energy per Si atom -5579.034626 kJ/mol
# Density = 1.962638 g / cm^3
# Si number density = 19.671153 Si / 1000 Ang^3
#
#
#
# Elastic Constant Matrix: (Units=GPa)
#
#
# Indices 1 2 3 4 5 6 
#
# 1 117.3643 63.6262 20.7682 -0.0170 -7.8239 0.0591
# 2 63.6262 90.5004 12.5546 -0.1117 -15.8057 0.0231
# 3 20.7682 12.5546 46.6297 0.0426 -4.2556 0.1010
# 4 -0.0170 -0.1117 0.0426 25.4012 0.0661 -10.3210
# 5 -7.8239 -15.8057 -4.2556 0.0661 23.9623 -0.0047
# 6 0.0591 0.0231 0.1010 -10.3210 -0.0047 34.9510
#
#
#
# Elastic Compliance Matrix: (Units=1/GPa)
#
#
# Indices 1 2 3 4 5 6 
#
# 1 0.014544 -0.010133 -0.003991 -0.000027 -0.002644 -0.000015
# 2 -0.010133 0.019880 0.000056 0.000065 0.009814 0.000024
# 3 -0.003991 0.000056 0.023473 -0.000084 0.002903 -0.000086
# 4 -0.000027 0.000065 -0.000084 0.044737 -0.000102 0.013211
# 5 -0.002644 0.009814 0.002903 -0.000102 0.047858 -0.000034
# 6 -0.000015 0.000024 -0.000086 0.013211 -0.000034 0.032513
#
#
# Mechanical properties :
#
#
# Convention : Reuss Voigt Hill
#
# Bulk Modulus (GPa) = 33.60008 49.82139 41.71073
# Shear Modulus (GPa) = 22.61818 27.36590 24.99204
#
# Velocity S-wave (km/s) = 3.39457 3.73388 3.56826
# Velocity P-wave (km/s) = 5.69931 6.63109 6.18278
#
# Compressibility (1/GPa) = 0.02976184
#
# Stress axis : x y z
#
# Youngs Moduli (GPa) = 68.75744 50.30140 42.60216
#
# Poissons Ratio (x) = 0.50972 0.17001
# Poissons Ratio (y) = 0.69674 -0.00240
# Poissons Ratio (z) = 0.27438 -0.00283
#
# Static dielectric constant tensor:
#      x y z
#    x 1.727640 -0.000010 0.020200 
#    y -0.000010 1.674040 -0.000050 
#    z 0.020200 -0.000050 1.702630 
# 
# From -- ./inp_files/44092.got.cif
#   From: 2010.05.17/outbox.cif.g08.bks.cpg/sg5_23_cif.got.tgz:44092.got - 2010.06.03 18:56:24.
