data_PCOD9121236
_publ_section_title
;
Structure prediction by ZEFSAII (Michael W. Deem and Ramdas Pophale) SiO2 
 PCOD9121236
Probable space group: C 2
;
_chemical_formula_sum "Si O2"
_cell_formula_units_Z 32
_cell_length_a 16.622783
_cell_length_b 19.264903
_cell_length_c 16.070151
_cell_angle_alpha 90.000000
_cell_angle_beta 162.633246
_cell_angle_gamma 90.000000
_cell_volume 1536.087665
_symmetry_space_group_name_H-M "C 2"
_symmetry_group_IT_number 5
_symmetry_cell_setting 'monoclinic'
loop_
_space_group_symop_operation_xyz
x,y,z
-x,y,-z
1/2+x,1/2+y,z
1/2-x,1/2+y,-z
loop_
_atom_site_type_symbol
_atom_site_label
_atom_site_fract_x
_atom_site_fract_y
_atom_site_fract_z
Si Si1 0.366963 0.595890 0.959951
Si Si2 0.561813 0.762593 0.327103
Si Si3 0.588275 0.234313 0.745594
Si Si4 0.520705 0.917198 0.225973
Si Si5 0.269299 0.244650 0.711021
Si Si6 0.275974 0.401619 0.721334
Si Si7 0.850547 0.522762 0.517873
Si Si8 0.042482 0.883704 0.636998
O O1 0.209336 0.668248 0.818300
O O2 0.120939 0.543100 0.735029
O O3 0.500000 0.593744 0.000000
O O4 0.613248 0.578381 0.267144
O O5 0.519335 0.847634 0.285199
O O6 0.667347 0.727908 0.516820
O O7 0.780244 0.739867 0.472755
O O8 0.269859 0.738229 0.008333
O O9 0.627452 0.302759 0.728319
O O10 0.761808 0.896917 0.404043
O O11 0.565198 0.993280 0.309552
O O12 0.257560 0.920298 0.908992
O O13 0.366966 0.323917 0.791254
O O14 0.000000 0.244375 0.500000
O O15 0.500000 0.212702 0.000000
O O16 0.260943 0.451615 0.629867
O O17 0.000000 0.398070 0.500000
O O18 0.500000 0.434625 0.000000
O O19 0.000000 0.904334 0.500000
#
# Coordination Sequence:
#
# PCOD9121236 Si02
#       8
#     4   4   4   4   4   4   4   4
#     4  12  26  40  58  87 123 166 208 236 275 352
#     4  10  19  38  57  83 117 153 198 248 303 347
#     4  10  23  38  60  83 116 159 202 245 293 348
#     4  10  21  36  58  88 117 153 195 243 304 370
#     4  10  19  30  51  83 115 147 185 231 286 349
#     4  10  19  30  47  75 112 154 184 215 268 330
#     4  12  22  38  57  82 124 161 199 238 282 348
#     4  10  21  38  62  89 117 149 192 258 315 352
#
# _framework density 20.832145000000001
#
# number of rings (size 3 to 8) (size 9 to 14) (size 15 to 20)
#    0.000    1.500    1.250    4.875    0.000    4.000 
#    0.000    0.000    0.000    0.000    0.000   30.625 
#    0.000    0.000    0.000    0.000    0.000    0.000 
#
# Total GULP energy -89131.969520 kJ/mol
# GULP energy per Si atom -5570.748095 kJ/mol
# Density = 2.078473 g / cm^3
# Si number density = 20.832145 Si / 1000 Ang^3
#
#
#
# Elastic Constant Matrix: (Units=GPa)
#
#
# Indices 1 2 3 4 5 6 
#
# 1 60.5886 19.2541 30.8795 0.0017 -14.7486 0.0014
# 2 19.2541 67.5558 30.8780 -0.0006 -2.7162 0.0002
# 3 30.8795 30.8780 174.6218 0.0012 -21.2699 0.0016
# 4 0.0017 -0.0006 0.0012 0.8889 0.0002 -13.3219
# 5 -14.7486 -2.7162 -21.2699 0.0002 36.5754 0.0002
# 6 0.0014 0.0002 0.0016 -13.3219 0.0002 9.0206
#
#
#
# Elastic Compliance Matrix: (Units=1/GPa)
#
#
# Indices 1 2 3 4 5 6 
#
# 1 0.020679 -0.004709 -0.001992 0.000004 0.006830 0.000003
# 2 -0.004709 0.017185 -0.002456 -0.000002 -0.002051 -0.000002
# 3 -0.001992 -0.002456 0.006881 0.000001 0.003016 0.000001
# 4 0.000004 -0.000002 0.000001 -0.053233 0.000003 -0.078616
# 5 0.006830 -0.002051 0.003016 0.000003 0.031696 0.000002
# 6 0.000003 -0.000002 0.000001 -0.078616 0.000002 -0.005246
#
#
# Mechanical properties :
#
#
# Convention : Reuss Voigt Hill
#
# Bulk Modulus (GPa) = 37.83441 51.64328 44.73884
# Shear Modulus (GPa) = 110.90113 24.08062 67.49087
#
# Velocity S-wave (km/s) = 7.30419 3.40359 5.69805
# Velocity P-wave (km/s) = 9.45176 6.34744 8.05065
#
# Compressibility (1/GPa) = 0.02643097
#
# Stress axis : x y z
#
# Youngs Moduli (GPa) = 48.35807 58.19155 145.33742
#
# Poissons Ratio (x) = 0.27400 0.28955
# Poissons Ratio (y) = 0.22770 0.35693
# Poissons Ratio (z) = 0.09634 0.14291
#
# Static dielectric constant tensor:
#      x y z
#    x 1.799600 0.000000 -0.076800 
#    y 0.000000 1.785070 0.000000 
#    z -0.076800 0.000000 1.771650 
# 
# From -- ./inp_files/55047.got.cif
#   From: 2010.05.17/outbox.cif.g08.bks.cpg/sg5_28_cif.got.tgz:55047.got - 2010.06.03 18:56:24.
