data_PCOD9121375
_publ_section_title
;
Structure prediction by ZEFSAII (Michael W. Deem and Ramdas Pophale) SiO2 
 PCOD9121375
Probable space group: C 2
;
_chemical_formula_sum "Si O2"
_cell_formula_units_Z 24
_cell_length_a 9.858379
_cell_length_b 27.885989
_cell_length_c 5.249119
_cell_angle_alpha 90.000000
_cell_angle_beta 133.006250
_cell_angle_gamma 90.000000
_cell_volume 1055.264340
_symmetry_space_group_name_H-M "C 2"
_symmetry_group_IT_number 5
_symmetry_cell_setting 'monoclinic'
loop_
_space_group_symop_operation_xyz
x,y,z
-x,y,-z
1/2+x,1/2+y,z
1/2-x,1/2+y,-z
loop_
_atom_site_type_symbol
_atom_site_label
_atom_site_fract_x
_atom_site_fract_y
_atom_site_fract_z
Si Si1 0.724196 0.065770 0.284727
Si Si2 0.724782 0.720427 0.244443
Si Si3 0.775259 0.509131 0.214270
Si Si4 0.378895 0.817243 0.097296
Si Si5 0.118525 0.904280 0.908707
Si Si6 0.784737 0.175574 0.265861
O O1 0.786574 0.035106 0.606785
O O2 0.778670 0.121195 0.354273
O O3 0.500000 0.065108 0.000000
O O4 0.786487 0.040494 0.105514
O O5 0.798824 0.708589 0.618895
O O6 0.500000 0.716535 0.000000
O O7 0.750190 0.773063 0.158266
O O8 0.793222 0.683443 0.117055
O O9 0.000000 0.507827 0.500000
O O10 0.704465 0.455239 0.097037
O O11 0.500000 0.802265 0.500000
O O12 0.500000 0.827809 0.000000
O O13 0.270287 0.864351 0.040292
O O14 0.000000 0.910700 0.500000
O O15 0.000000 0.887460 0.000000
O O16 0.000000 0.188257 0.500000
#
# Coordination Sequence:
#
# PCOD9121375 Si02
#       6
#     4   4   4   4   4   4
#     4  10  21  37  58  85 116 154 202 246 288 353
#     4   9  18  34  57  84 113 150 198 242 279 343
#     4  10  22  41  62  83 115 162 207 241 289 367
#     4  11  22  41  68  90 118 165 212 245 293 368
#     4  12  26  42  62  94 129 153 194 261 320 360
#     4  10  19  33  55  84 116 150 190 241 295 343
#
# _framework density 22.743115
#
# number of rings (size 3 to 8) (size 9 to 14) (size 15 to 20)
#    0.000    1.667    0.000    6.000    0.000    4.000 
#    0.000    2.500    0.000    0.000    0.000    0.000 
#    0.000    0.000    0.000    0.000    0.000    0.000 
#
# Total GULP energy -67133.368718 kJ/mol
# GULP energy per Si atom -5594.447393 kJ/mol
# Density = 2.269135 g / cm^3
# Si number density = 22.743115 Si / 1000 Ang^3
#
#
#
# Elastic Constant Matrix: (Units=GPa)
#
#
# Indices 1 2 3 4 5 6 
#
# 1 104.3261 49.6576 65.4194 0.0000 -41.0370 0.0000
# 2 49.6576 169.7018 53.1800 0.0000 -32.6970 0.0000
# 3 65.4194 53.1800 120.2628 0.0000 -38.2406 0.0000
# 4 0.0000 0.0000 0.0000 5125.9042 0.0000 1566.0575
# 5 -41.0370 -32.6970 -38.2406 0.0000 45.8233 0.0000
# 6 0.0000 0.0000 0.0000 1566.0575 0.0000 525.3403
#
#
#
# Elastic Compliance Matrix: (Units=1/GPa)
#
#
# Indices 1 2 3 4 5 6 
#
# 1 0.017964 -0.001455 -0.005912 0.000000 0.010116 0.000000
# 2 -0.001455 0.007323 -0.001633 0.000000 0.002560 0.000000
# 3 -0.005912 -0.001633 0.013883 0.000000 0.005126 0.000000
# 4 0.000000 0.000000 0.000000 0.002186 0.000000 -0.006517
# 5 0.010116 0.002560 0.005126 0.000000 0.036987 0.000000
# 6 0.000000 0.000000 0.000000 -0.006517 0.000000 0.021331
#
#
# Mechanical properties :
#
#
# Convention : Reuss Voigt Hill
#
# Bulk Modulus (GPa) = 47.23449 81.20051 64.21750
# Shear Modulus (GPa) = 40.08626 1154.48245 597.28436
#
# Velocity S-wave (km/s) = 4.20285 22.55483 16.22320
# Velocity P-wave (km/s) = 6.66076 26.72218 19.47358
#
# Compressibility (1/GPa) = 0.02117097
#
# Stress axis : x y z
#
# Youngs Moduli (GPa) = 55.66619 136.54915 72.02962
#
# Poissons Ratio (x) = 0.19866 0.42584
# Poissons Ratio (y) = 0.08099 0.11762
# Poissons Ratio (z) = 0.32910 0.22298
#
# Static dielectric constant tensor:
#      x y z
#    x -7.687000 0.000000 -2.272350 
#    y 0.000000 1.798490 0.000000 
#    z -2.272350 0.000000 1.319510 
# 
# From -- ./inp_files/6001.got.cif
#   From: 2010.05.17/outbox.cif.g08.bks.cpg/sg5_4_cif.got.tgz:6001.got - 2010.06.03 18:56:24.
