data_PCOD9121725
_publ_section_title
;
Structure prediction by ZEFSAII (Michael W. Deem and Ramdas Pophale) SiO2 
 PCOD9121725
Probable space group: C 2
;
_chemical_formula_sum "Si O2"
_cell_formula_units_Z 28
_cell_length_a 13.495811
_cell_length_b 14.507707
_cell_length_c 5.358611
_cell_angle_alpha 90.000000
_cell_angle_beta 82.280889
_cell_angle_gamma 90.000000
_cell_volume 1039.672786
_symmetry_space_group_name_H-M "C 2"
_symmetry_group_IT_number 5
_symmetry_cell_setting 'monoclinic'
loop_
_space_group_symop_operation_xyz
x,y,z
-x,y,-z
1/2+x,1/2+y,z
1/2-x,1/2+y,-z
loop_
_atom_site_type_symbol
_atom_site_label
_atom_site_fract_x
_atom_site_fract_y
_atom_site_fract_z
Si Si1 0.338549 0.550700 0.971205
Si Si2 0.892686 0.485020 0.883300
Si Si3 0.628353 0.905581 0.601638
Si Si4 0.144338 0.960390 0.532796
Si Si5 0.604876 0.153427 0.485984
Si Si6 0.607582 0.285031 0.844458
Si Si7 0.281922 0.743594 0.127240
O O1 0.389377 0.502016 0.717518
O O2 0.225498 0.509361 0.027987
O O3 0.384475 0.521885 0.220626
O O4 0.334838 0.661632 0.958047
O O5 0.906009 0.400624 0.676075
O O6 0.919593 0.568446 0.685265
O O7 0.925643 0.466275 0.161692
O O8 0.735094 0.956188 0.529892
O O9 0.648006 0.809813 0.735140
O O10 0.117228 0.856225 0.613679
O O11 0.500000 0.208176 0.500000
O O12 0.619976 0.175697 0.773159
O O13 0.706973 0.191717 0.340732
O O14 0.500000 0.299247 0.000000
O O15 0.703846 0.302691 0.986881
#
# Coordination Sequence:
#
# PCOD9121725 Si02
#       7
#     4   4   4   4   4   4   4
#     4   9  21  34  56  78 109 149 192 243 290 330
#     4   9  21  34  55  78 112 153 196 229 289 341
#     4  10  19  36  56  81 110 149 191 248 286 337
#     4  10  20  37  52  78 114 153 193 232 282 345
#     4  11  23  37  54  82 124 161 193 230 286 364
#     4  12  24  36  55  83 123 162 194 229 286 365
#     4  11  22  36  57  86 117 149 195 244 298 347
#
# _framework density 26.931550000000001
#
# number of rings (size 3 to 8) (size 9 to 14) (size 15 to 20)
#    0.000    1.714    2.857    2.571   10.000    0.000 
#    0.000    0.000    0.000    0.000    0.000    4.000 
#    0.000    0.000    0.000    0.000    0.000    0.000 
#
# Total GULP energy -78145.387519 kJ/mol
# GULP energy per Si atom -5581.813394 kJ/mol
# Density = 2.687025 g / cm^3
# Si number density = 26.931550 Si / 1000 Ang^3
#
#
#
# Elastic Constant Matrix: (Units=GPa)
#
#
# Indices 1 2 3 4 5 6 
#
# 1 52.0349 26.3095 56.4884 0.0000 24.8454 0.0000
# 2 26.3095 141.1489 73.7162 0.0000 25.5596 0.0000
# 3 56.4884 73.7162 209.3569 0.0000 21.1354 0.0000
# 4 0.0000 0.0000 0.0000 16.4558 0.0000 26.8925
# 5 24.8454 25.5596 21.1354 0.0000 35.0777 0.0000
# 6 0.0000 0.0000 0.0000 26.8925 0.0000 20.4689
#
#
#
# Elastic Compliance Matrix: (Units=1/GPa)
#
#
# Indices 1 2 3 4 5 6 
#
# 1 0.039201 0.001530 -0.008731 0.000000 -0.023620 0.000000
# 2 0.001530 0.009563 -0.003159 0.000000 -0.006148 0.000000
# 3 -0.008731 -0.003159 0.007867 0.000000 0.003747 0.000000
# 4 0.000000 0.000000 0.000000 -0.052977 0.000000 0.069602
# 5 -0.023620 -0.006148 0.003747 0.000000 0.047461 0.000000
# 6 0.000000 0.000000 0.000000 0.069602 0.000000 -0.042590
#
#
# Mechanical properties :
#
#
# Convention : Reuss Voigt Hill
#
# Bulk Modulus (GPa) = 27.84788 79.50767 53.67777
# Shear Modulus (GPa) = 121.31777 30.80225 76.06001
#
# Velocity S-wave (km/s) = 6.71897 3.38557 5.32008
# Velocity P-wave (km/s) = 8.39972 6.69843 7.59685
#
# Compressibility (1/GPa) = 0.03590938
#
# Stress axis : x y z
#
# Youngs Moduli (GPa) = 25.50971 104.57154 127.11924
#
# Poissons Ratio (x) = -0.16003 1.10993
# Poissons Ratio (y) = -0.03904 0.40162
# Poissons Ratio (z) = 0.22274 0.33038
#
# Static dielectric constant tensor:
#      x y z
#    x 2.362220 0.000000 0.062750 
#    y 0.000000 2.261470 0.000000 
#    z 0.062750 0.000000 2.143150 
# 
# From -- ./inp_files/8621.got.cif
#   From: 2010.05.17/outbox.cif.g08.bks.cpg/sg5_5_cif.got.tgz:8621.got - 2010.06.03 18:56:24.
