data_PCOD9121152
_publ_section_title
;
Structure prediction by ZEFSAII (Michael W. Deem and Ramdas Pophale) SiO2 
 PCOD9121152
Probable space group: C 2
;
_chemical_formula_sum "Si O2"
_cell_formula_units_Z 16
_cell_length_a 11.374937
_cell_length_b 8.851231
_cell_length_c 11.226989
_cell_angle_alpha 90.000000
_cell_angle_beta 146.624746
_cell_angle_gamma 90.000000
_cell_volume 621.832620
_symmetry_space_group_name_H-M "C 2"
_symmetry_group_IT_number 5
_symmetry_cell_setting 'monoclinic'
loop_
_space_group_symop_operation_xyz
x,y,z
-x,y,-z
1/2+x,1/2+y,z
1/2-x,1/2+y,-z
loop_
_atom_site_type_symbol
_atom_site_label
_atom_site_fract_x
_atom_site_fract_y
_atom_site_fract_z
Si Si1 0.500000 0.370560 0.000000
Si Si2 0.825559 0.087191 0.687877
Si Si3 0.000000 0.152038 0.500000
Si Si4 0.318940 0.929504 0.675785
Si Si5 0.330382 0.762536 0.114978
O O1 0.315280 0.477895 0.791074
O O2 0.404584 0.279767 0.031652
O O3 0.734194 0.256882 0.621339
O O4 0.080585 0.121622 0.884840
O O5 0.744752 0.001538 0.504094
O O6 0.793140 0.042740 0.328470
O O7 0.974300 0.245124 0.357426
O O8 0.572729 0.899068 0.882353
#
# Coordination Sequence:
#
# PCOD9121152 Si02
#       5
#     2   4   2   4   4
#     4  12  22  40  62  88 134 160 184 256 318 350
#     4   9  22  42  60  94 117 158 209 243 300 355
#     4  10  18  40  66  88 110 166 206 246 300 338
#     4   9  20  41  62  89 118 154 215 242 283 374
#     4   9  22  38  58  93 122 155 198 249 299 359
#
# _framework density 25.730398999999998
#
# number of rings (size 3 to 8) (size 9 to 14) (size 15 to 20)
#    1.500    1.000    0.000    1.500    0.000    4.000 
#    9.000    0.000    0.000    0.000    0.000    0.000 
#    0.000    0.000    0.000    0.000    0.000    0.000 
#
# Total GULP energy -44552.803327 kJ/mol
# GULP energy per Si atom -5569.100416 kJ/mol
# Density = 2.567184 g / cm^3
# Si number density = 25.730399 Si / 1000 Ang^3
#
#
#
# Elastic Constant Matrix: (Units=GPa)
#
#
# Indices 1 2 3 4 5 6 
#
# 1 110.7524 36.8880 -3.9737 0.0005 28.0858 0.0003
# 2 36.8880 91.3419 10.2643 0.0001 26.7374 0.0001
# 3 -3.9737 10.2643 21.5652 0.0003 -3.6411 0.0004
# 4 0.0005 0.0001 0.0003 25.2411 0.0004 5.5895
# 5 28.0858 26.7374 -3.6411 0.0004 41.4308 0.0004
# 6 0.0003 0.0001 0.0004 5.5895 0.0004 56.6384
#
#
#
# Elastic Compliance Matrix: (Units=1/GPa)
#
#
# Indices 1 2 3 4 5 6 
#
# 1 0.011654 -0.003440 0.002868 0.000000 -0.005428 0.000000
# 2 -0.003440 0.016031 -0.009762 0.000000 -0.008872 0.000000
# 3 0.002868 -0.009762 0.053069 -0.000001 0.009019 0.000000
# 4 0.000000 0.000000 -0.000001 0.040503 0.000000 -0.003997
# 5 -0.005428 -0.008872 0.009019 0.000000 0.034334 0.000000
# 6 0.000000 0.000000 0.000000 -0.003997 0.000000 0.018050
#
#
# Mechanical properties :
#
#
# Convention : Reuss Voigt Hill
#
# Bulk Modulus (GPa) = 16.64259 34.44629 25.54444
# Shear Modulus (GPa) = 23.32768 36.69414 30.01091
#
# Velocity S-wave (km/s) = 3.01428 3.78047 3.41891
# Velocity P-wave (km/s) = 4.31238 5.69846 5.05317
#
# Compressibility (1/GPa) = 0.06008679
#
# Stress axis : x y z
#
# Youngs Moduli (GPa) = 85.80470 62.37967 18.84355
#
# Poissons Ratio (x) = 0.21458 -0.05405
# Poissons Ratio (y) = 0.29516 0.18395
# Poissons Ratio (z) = -0.24610 0.60894
#
# Static dielectric constant tensor:
#      x y z
#    x 2.014460 0.000000 0.122180 
#    y 0.000000 2.018790 0.000000 
#    z 0.122180 0.000000 2.000240 
# 
# From -- ./inp_files/6389.got.cif
#   From: 2010.05.17/outbox.cif.g08.bks.cpg/sg5_4_cif.got.tgz:6389.got - 2010.06.03 18:56:24.
