data_PCOD9121745
_publ_section_title
;
Structure prediction by ZEFSAII (Michael W. Deem and Ramdas Pophale) SiO2 
 PCOD9121745
Probable space group: C 2
;
_chemical_formula_sum "Si O2"
_cell_formula_units_Z 30
_cell_length_a 26.961710
_cell_length_b 9.046731
_cell_length_c 6.443016
_cell_angle_alpha 90.000000
_cell_angle_beta 70.987006
_cell_angle_gamma 90.000000
_cell_volume 1485.814044
_symmetry_space_group_name_H-M "C 2"
_symmetry_group_IT_number 5
_symmetry_cell_setting 'monoclinic'
loop_
_space_group_symop_operation_xyz
x,y,z
-x,y,-z
1/2+x,1/2+y,z
1/2-x,1/2+y,-z
loop_
_atom_site_type_symbol
_atom_site_label
_atom_site_fract_x
_atom_site_fract_y
_atom_site_fract_z
Si Si1 0.086067 0.770830 0.686505
Si Si2 0.262114 0.623592 0.062767
Si Si3 0.076077 0.541369 0.063300
Si Si4 0.755679 0.440106 0.291316
Si Si5 0.000000 0.667744 0.500000
Si Si6 0.650238 0.055910 0.330176
Si Si7 0.366683 0.847781 0.312057
Si Si8 0.338321 0.515375 0.282176
O O1 0.132936 0.692323 0.495200
O O2 0.110654 0.915105 0.756794
O O3 0.039632 0.769192 0.580158
O O4 0.069320 0.663272 0.895062
O O5 0.256093 0.793976 0.142229
O O6 0.212039 0.543647 0.232554
O O7 0.314659 0.551542 0.086506
O O8 0.255708 0.585395 0.830967
O O9 0.127368 0.574633 0.132293
O O10 0.030117 0.563584 0.293268
O O11 0.088969 0.392447 0.916468
O O12 0.813394 0.432157 0.311866
O O13 0.709631 0.442645 0.523769
O O14 0.622654 0.916483 0.477233
O O15 0.353284 0.677345 0.344016
#
# Coordination Sequence:
#
# PCOD9121745 Si02
#       8
#     4   4   4   4   2   4   4   4
#     4  10  22  40  66  91 119 158 210 268 310 369
#     4  11  23  33  55  83 126 178 214 244 294 357
#     4  10  21  39  65  92 115 154 209 262 313 368
#     4  11  23  35  52  85 128 178 214 243 293 365
#     4  10  22  42  72  92 112 152 216 276 324 360
#     4  10  19  36  58  84 121 164 208 247 298 358
#     4  10  22  36  57  87 130 168 203 248 304 373
#     4  11  24  37  57  90 134 169 207 251 307 366
#
# _framework density 20.190950999999998
#
# number of rings (size 3 to 8) (size 9 to 14) (size 15 to 20)
#    0.000    1.600    4.000    0.400    3.733    0.000 
#    0.000    0.000    0.000   19.200    0.000    0.000 
#    0.000    0.000    0.000    0.000    0.000    0.000 
#
# Total GULP energy -83622.814903 kJ/mol
# GULP energy per Si atom -5574.854327 kJ/mol
# Density = 2.014500 g / cm^3
# Si number density = 20.190951 Si / 1000 Ang^3
#
#
#
# Elastic Constant Matrix: (Units=GPa)
#
#
# Indices 1 2 3 4 5 6 
#
# 1 90.0494 34.5919 22.5880 0.0000 4.9346 0.0000
# 2 34.5919 59.5632 7.8969 0.0000 10.6110 0.0000
# 3 22.5880 7.8969 65.4547 0.0000 -0.9929 0.0000
# 4 0.0000 0.0000 0.0000 14.3634 0.0000 5.6182
# 5 4.9346 10.6110 -0.9929 0.0000 30.3386 0.0000
# 6 0.0000 0.0000 0.0000 5.6182 0.0000 20.1198
#
#
#
# Elastic Compliance Matrix: (Units=1/GPa)
#
#
# Indices 1 2 3 4 5 6 
#
# 1 0.015404 -0.008431 -0.004294 0.000000 0.000303 0.000000
# 2 -0.008431 0.022858 0.000051 0.000000 -0.006622 0.000000
# 3 -0.004294 0.000051 0.016772 0.000000 0.001229 0.000000
# 4 0.000000 0.000000 0.000000 0.078158 0.000000 -0.021825
# 5 0.000303 -0.006622 0.001229 0.000000 0.035268 0.000000
# 6 0.000000 0.000000 0.000000 -0.021825 0.000000 0.055797
#
#
# Mechanical properties :
#
#
# Convention : Reuss Voigt Hill
#
# Bulk Modulus (GPa) = 33.68488 38.35786 36.02137
# Shear Modulus (GPa) = 19.26778 22.96371 21.11575
#
# Velocity S-wave (km/s) = 3.09249 3.37609 3.23740
# Velocity P-wave (km/s) = 5.42869 5.85116 5.64388
#
# Compressibility (1/GPa) = 0.02968691
#
# Stress axis : x y z
#
# Youngs Moduli (GPa) = 64.91745 43.74848 59.62279
#
# Poissons Ratio (x) = 0.36883 0.25603
# Poissons Ratio (y) = 0.54730 -0.00305
# Poissons Ratio (z) = 0.27877 -0.00224
#
# Static dielectric constant tensor:
#      x y z
#    x 1.738740 0.000000 0.001220 
#    y 0.000000 1.717740 0.000000 
#    z 0.001220 0.000000 1.746560 
# 
# From -- ./inp_files/11227.got.cif
#   From: 2010.05.17/outbox.cif.g08.bks.cpg/sg5_6_cif.got.tgz:11227.got - 2010.06.03 18:56:24.
