data_PCOD9121137
_publ_section_title
;
Structure prediction by ZEFSAII (Michael W. Deem and Ramdas Pophale) SiO2 
 PCOD9121137
Probable space group: C 2
;
_chemical_formula_sum "Si O2"
_cell_formula_units_Z 26
_cell_length_a 23.112652
_cell_length_b 4.962563
_cell_length_c 9.261351
_cell_angle_alpha 90.000000
_cell_angle_beta 79.415471
_cell_angle_gamma 90.000000
_cell_volume 1044.184016
_symmetry_space_group_name_H-M "C 2"
_symmetry_group_IT_number 5
_symmetry_cell_setting 'monoclinic'
loop_
_space_group_symop_operation_xyz
x,y,z
-x,y,-z
1/2+x,1/2+y,z
1/2-x,1/2+y,-z
loop_
_atom_site_type_symbol
_atom_site_label
_atom_site_fract_x
_atom_site_fract_y
_atom_site_fract_z
Si Si1 0.593644 0.287960 0.599910
Si Si2 0.000000 0.410886 0.500000
Si Si3 0.872749 0.969424 0.714609
Si Si4 0.091268 0.483480 0.128799
Si Si5 0.359263 0.968128 0.194641
Si Si6 0.247459 0.744163 0.105755
Si Si7 0.480570 0.668815 0.214040
O O1 0.556077 0.082104 0.520538
O O2 0.615520 0.488459 0.463175
O O3 0.546004 0.372940 0.746515
O O4 0.647184 0.173092 0.669652
O O5 0.991803 0.225944 0.640826
O O6 0.917102 0.756187 0.775106
O O7 0.810618 0.824968 0.778289
O O8 0.873891 0.256795 0.795248
O O9 0.033987 0.309354 0.104807
O O10 0.124237 0.584685 0.970112
O O11 0.303349 0.786332 0.184625
O O12 0.418041 0.810244 0.215229
O O13 0.248353 0.453602 0.030586
#
# Coordination Sequence:
#
# PCOD9121137 Si02
#       7
#     4   2   4   4   4   4   4
#     4  11  25  43  72 109 155 194 253 314 387 455
#     4  10  18  40  64 100 144 192 228 296 370 462
#     4  12  25  48  79 107 142 207 257 305 379 467
#     4  12  25  47  77 107 148 196 254 300 389 456
#     4  11  27  46  70 110 146 193 251 323 374 446
#     4  12  25  51  78 102 148 202 260 319 378 459
#     4  11  24  42  70 106 154 190 242 310 385 453
#
# _framework density 24.899825
#
# number of rings (size 3 to 8) (size 9 to 14) (size 15 to 20)
#    0.000    0.615    4.615    2.769    8.615    0.000 
#    2.769    0.000    0.000    0.000    0.000    0.000 
#    0.000    0.000    0.000    0.000    0.000    0.000 
#
# Total GULP energy -72510.178674 kJ/mol
# GULP energy per Si atom -5577.706052 kJ/mol
# Density = 2.484315 g / cm^3
# Si number density = 24.899825 Si / 1000 Ang^3
#
#
#
# Elastic Constant Matrix: (Units=GPa)
#
#
# Indices 1 2 3 4 5 6 
#
# 1 112.1047 5.9204 19.7870 0.0000 5.0017 0.0000
# 2 5.9204 104.8456 24.2220 0.0000 11.0850 0.0000
# 3 19.7870 24.2220 116.2595 0.0000 15.1562 0.0000
# 4 0.0000 0.0000 0.0000 17.3868 0.0000 -15.8661
# 5 5.0017 11.0850 15.1562 0.0000 41.7507 0.0000
# 6 0.0000 0.0000 0.0000 -15.8661 0.0000 14.4598
#
#
#
# Elastic Compliance Matrix: (Units=1/GPa)
#
#
# Indices 1 2 3 4 5 6 
#
# 1 0.009210 -0.000123 -0.001472 0.000000 -0.000536 0.000000
# 2 -0.000123 0.010183 -0.001837 0.000000 -0.002022 0.000000
# 3 -0.001472 -0.001837 0.009603 0.000000 -0.002822 0.000000
# 4 0.000000 0.000000 0.000000-44.806499 0.000000-49.164074
# 5 -0.000536 -0.002022 -0.002822 0.000000 0.025577 0.000000
# 6 0.000000 0.000000 0.000000-49.164074 0.000000-53.876279
#
#
# Mechanical properties :
#
#
# Convention : Reuss Voigt Hill
#
# Bulk Modulus (GPa) = 45.18460 48.11874 46.65167
# Shear Modulus (GPa) = -0.05070 33.60481 16.77706
#
# Velocity S-wave (km/s) = -0.14285 3.67768 2.59855
# Velocity P-wave (km/s) = 4.26131 6.11560 5.27064
#
# Compressibility (1/GPa) = 0.02213144
#
# Stress axis : x y z
#
# Youngs Moduli (GPa) = 108.57187 98.20320 104.13883
#
# Poissons Ratio (x) = 0.01211 0.15329
# Poissons Ratio (y) = 0.01339 0.19130
# Poissons Ratio (z) = 0.15982 0.18040
#
# Static dielectric constant tensor:
#      x y z
#    x 2.384190 0.000000 -0.395810 
#    y 0.000000 2.057740 0.000000 
#    z -0.395810 0.000000 2.318820 
# 
# From -- ./inp_files/30311.got.cif
#   From: 2010.05.17/outbox.cif.g08.bks.cpg/sg5_16_cif.got.tgz:30311.got - 2010.06.03 18:56:24.
