data_PCOD9121275
_publ_section_title
;
Structure prediction by ZEFSAII (Michael W. Deem and Ramdas Pophale) SiO2 
 PCOD9121275
Probable space group: C 2
;
_chemical_formula_sum "Si O2"
_cell_formula_units_Z 32
_cell_length_a 14.585546
_cell_length_b 21.647207
_cell_length_c 7.475835
_cell_angle_alpha 90.000000
_cell_angle_beta 34.482256
_cell_angle_gamma 90.000000
_cell_volume 1336.338671
_symmetry_space_group_name_H-M "C 2"
_symmetry_group_IT_number 5
_symmetry_cell_setting 'monoclinic'
loop_
_space_group_symop_operation_xyz
x,y,z
-x,y,-z
1/2+x,1/2+y,z
1/2-x,1/2+y,-z
loop_
_atom_site_type_symbol
_atom_site_label
_atom_site_fract_x
_atom_site_fract_y
_atom_site_fract_z
Si Si1 0.314561 0.252560 0.736494
Si Si2 0.249985 0.868243 0.725826
Si Si3 0.588353 0.373863 0.599821
Si Si4 0.398667 0.993899 0.437132
Si Si5 0.593491 0.128761 0.583761
Si Si6 0.755616 0.997345 0.713300
Si Si7 0.032626 0.250708 0.726150
Si Si8 0.249290 0.132875 0.280191
O O1 0.500000 0.252503 0.500000
O O2 0.310881 0.316570 0.634909
O O3 0.312099 0.187087 0.640039
O O4 0.137636 0.252477 0.107140
O O5 0.154148 0.879394 0.695115
O O6 0.366442 0.811305 0.493856
O O7 0.338711 0.932192 0.629711
O O8 0.101968 0.856572 0.099738
O O9 0.628128 0.439319 0.447365
O O10 0.370422 0.062273 0.561941
O O11 0.306840 0.994542 0.392747
O O12 0.589555 0.990225 0.090563
O O13 0.656517 0.123598 0.684347
O O14 0.399766 0.143106 0.900978
O O15 0.826210 0.065525 0.636411
O O16 0.131144 0.189781 0.506750
O O17 0.000000 0.250355 0.000000
#
# Coordination Sequence:
#
# PCOD9121275 Si02
#       8
#     4   4   4   4   4   4   4   4
#     4  12  25  38  54  78 116 155 183 224 277 332
#     4  10  19  31  56  86 108 140 182 238 281 313
#     4  10  19  34  52  81 115 144 182 229 278 326
#     4   8  15  27  51  82 112 141 172 224 281 327
#     4   9  17  34  55  81 115 144 180 225 280 327
#     4   8  15  28  51  81 115 138 172 224 282 328
#     4  12  21  34  56  82 108 142 189 236 266 320
#     4   9  17  32  57  87 108 140 180 235 280 316
#
# _framework density 23.946024000000001
#
# number of rings (size 3 to 8) (size 9 to 14) (size 15 to 20)
#    0.000    2.250    2.500    3.000    1.750    3.000 
#    2.250    2.500    0.000    9.000    0.000    0.000 
#    0.000    0.000    0.000    0.000    0.000    0.000 
#
# Total GULP energy -89249.057312 kJ/mol
# GULP energy per Si atom -5578.066082 kJ/mol
# Density = 2.389152 g / cm^3
# Si number density = 23.946024 Si / 1000 Ang^3
#
#
#
# Elastic Constant Matrix: (Units=GPa)
#
#
# Indices 1 2 3 4 5 6 
#
# 1 63.6041 10.7964 5.9033 0.0000 -11.8644 0.0000
# 2 10.7964 230.9430 115.5908 0.0000 5.2834 0.0000
# 3 5.9033 115.5908 139.5552 0.0000 -23.2320 0.0000
# 4 0.0000 0.0000 0.0000 46.0219 0.0000 -4.2297
# 5 -11.8644 5.2834 -23.2320 0.0000 29.1338 0.0000
# 6 0.0000 0.0000 0.0000 -4.2297 0.0000 -0.3167
#
#
#
# Elastic Compliance Matrix: (Units=1/GPa)
#
#
# Indices 1 2 3 4 5 6 
#
# 1 0.017783 -0.002629 0.003125 0.000000 0.010211 0.000000
# 2 -0.002629 0.009366 -0.009348 0.000000 -0.010224 0.000000
# 3 0.003125 -0.009348 0.017608 0.000000 0.017009 0.000000
# 4 0.000000 0.000000 0.000000 0.009756 0.000000 -0.130274
# 5 0.010211 -0.010224 0.017009 0.000000 0.053900 0.000000
# 6 0.000000 0.000000 0.000000 -0.130274 0.000000 -1.417478
#
#
# Mechanical properties :
#
#
# Convention : Reuss Voigt Hill
#
# Bulk Modulus (GPa) = 36.96496 77.63147 57.29821
# Shear Modulus (GPa) = -3.89911 35.08856 15.59472
#
# Velocity S-wave (km/s) = -1.27743 3.83210 2.55472
# Velocity P-wave (km/s) = 3.64617 7.21594 5.71683
#
# Compressibility (1/GPa) = 0.02705265
#
# Stress axis : x y z
#
# Youngs Moduli (GPa) = 56.23287 106.77059 56.79237
#
# Poissons Ratio (x) = 0.28073 -0.17750
# Poissons Ratio (y) = 0.14785 0.53091
# Poissons Ratio (z) = -0.17575 0.99813
#
# Static dielectric constant tensor:
#      x y z
#    x 1.997680 0.000000 0.014150 
#    y 0.000000 1.894690 0.000000 
#    z 0.014150 0.000000 1.886550 
# 
# From -- ./inp_files/37218.got.cif
#   From: 2010.05.17/outbox.cif.g08.bks.cpg/sg5_19_cif.got.tgz:37218.got - 2010.06.03 18:56:24.
