data_PCOD9121027
_publ_section_title
;
Structure prediction by ZEFSAII (Michael W. Deem and Ramdas Pophale) SiO2 
 PCOD9121027
Probable space group: C 2
;
_chemical_formula_sum "Si O2"
_cell_formula_units_Z 30
_cell_length_a 7.375468
_cell_length_b 15.657895
_cell_length_c 12.695033
_cell_angle_alpha 90.000000
_cell_angle_beta 103.047482
_cell_angle_gamma 90.000000
_cell_volume 1428.227787
_symmetry_space_group_name_H-M "C 2"
_symmetry_group_IT_number 5
_symmetry_cell_setting 'monoclinic'
loop_
_space_group_symop_operation_xyz
x,y,z
-x,y,-z
1/2+x,1/2+y,z
1/2-x,1/2+y,-z
loop_
_atom_site_type_symbol
_atom_site_label
_atom_site_fract_x
_atom_site_fract_y
_atom_site_fract_z
Si Si1 0.996610 0.270670 0.123579
Si Si2 0.063028 0.745602 0.123608
Si Si3 0.966252 0.106555 0.754840
Si Si4 0.363167 0.113533 0.701454
Si Si5 0.017505 0.420934 0.739350
Si Si6 0.000000 0.421476 0.500000
Si Si7 0.942489 0.936121 0.872132
Si Si8 0.708068 0.569502 0.477437
O O1 0.782308 0.262093 0.133163
O O2 0.077048 0.350838 0.198237
O O3 0.079874 0.179240 0.166889
O O4 0.000000 0.284943 0.000000
O O5 0.024291 0.679550 0.211928
O O6 0.984448 0.839960 0.137954
O O7 0.000000 0.714281 0.000000
O O8 0.811281 0.101513 0.643986
O O9 0.156179 0.126822 0.719348
O O10 0.007983 0.015050 0.811396
O O11 0.333655 0.125855 0.572763
O O12 0.426604 0.015140 0.724100
O O13 0.222496 0.435100 0.815591
O O14 0.020768 0.382437 0.620122
O O15 0.815364 0.479909 0.484805
O O16 0.000000 0.953874 0.000000
O O17 0.500000 0.560303 0.500000
#
# Coordination Sequence:
#
# PCOD9121027 Si02
#       8
#     4   4   4   4   4   2   4   4
#     4  10  22  38  54  83 117 150 196 238 288 353
#     4   9  20  37  54  81 111 149 191 234 289 349
#     4  10  19  37  56  81 112 156 189 235 297 346
#     4   9  20  35  56  82 111 147 191 236 293 344
#     4  10  21  37  58  86 116 152 193 242 292 349
#     4  10  18  38  62  90 120 150 202 252 296 356
#     4  10  20  35  56  82 111 149 190 232 291 345
#     4   9  18  35  59  87 119 154 198 248 294 359
#
# _framework density 21.005054000000001
#
# number of rings (size 3 to 8) (size 9 to 14) (size 15 to 20)
#    0.000    2.400    1.333    0.400    0.000    6.933 
#    8.400    0.000    0.000    0.000    3.467    0.000 
#    0.000    0.000    0.000    0.000    0.000    0.000 
#
# Total GULP energy -83560.375509 kJ/mol
# GULP energy per Si atom -5570.691701 kJ/mol
# Density = 2.095725 g / cm^3
# Si number density = 21.005054 Si / 1000 Ang^3
#
#
#
# Elastic Constant Matrix: (Units=GPa)
#
#
# Indices 1 2 3 4 5 6 
#
# 1 47.6324 -9.3823 12.4290 0.0000 4.3181 0.0000
# 2 -9.3823 78.8292 82.8319 0.0000 -15.4844 0.0000
# 3 12.4290 82.8319 209.9181 0.0000 -3.1687 0.0000
# 4 0.0000 0.0000 0.0000 12.9887 0.0000 -20.2279
# 5 4.3181 -15.4844 -3.1687 0.0000 30.7528 0.0000
# 6 0.0000 0.0000 0.0000 -20.2279 0.0000 -28.8028
#
#
#
# Elastic Compliance Matrix: (Units=1/GPa)
#
#
# Indices 1 2 3 4 5 6 
#
# 1 0.023544 0.007262 -0.004261 0.000000 -0.000088 0.000000
# 2 0.007262 0.027527 -0.011115 0.000000 0.011695 0.000000
# 3 -0.004261 -0.011115 0.009341 0.000000 -0.004036 0.000000
# 4 0.000000 0.000000 0.000000 0.036772 0.000000 -0.025825
# 5 -0.000088 0.011695 -0.004036 0.000000 0.038003 0.000000
# 6 0.000000 0.000000 0.000000 -0.025825 0.000000 -0.016582
#
#
# Mechanical properties :
#
#
# Convention : Reuss Voigt Hill
#
# Bulk Modulus (GPa) = 22.63237 56.45967 39.54602
# Shear Modulus (GPa) = 33.43108 19.68782 26.55945
#
# Velocity S-wave (km/s) = 3.99378 3.06484 3.55974
# Velocity P-wave (km/s) = 5.66261 6.28186 5.98026
#
# Compressibility (1/GPa) = 0.04418451
#
# Stress axis : x y z
#
# Youngs Moduli (GPa) = 42.47282 36.32775 107.05271
#
# Poissons Ratio (x) = -0.26382 0.45615
# Poissons Ratio (y) = -0.30845 1.18994
# Poissons Ratio (z) = 0.18098 0.40380
#
# Static dielectric constant tensor:
#      x y z
#    x 1.865740 0.000000 0.062650 
#    y 0.000000 1.782360 0.000000 
#    z 0.062650 0.000000 1.820630 
# 
# From -- ./inp_files/36123.got.cif
#   From: 2010.05.17/outbox.cif.g08.bks.cpg/sg5_19_cif.got.tgz:36123.got - 2010.06.03 18:56:24.
