data_PCOD9121924
_publ_section_title
;
Structure prediction by ZEFSAII (Michael W. Deem and Ramdas Pophale) SiO2 
 PCOD9121924
Probable space group: C 2
;
_chemical_formula_sum "Si O2"
_cell_formula_units_Z 30
_cell_length_a 22.567422
_cell_length_b 15.147828
_cell_length_c 8.278197
_cell_angle_alpha 90.000000
_cell_angle_beta 34.006516
_cell_angle_gamma 90.000000
_cell_volume 1582.715805
_symmetry_space_group_name_H-M "C 2"
_symmetry_group_IT_number 5
_symmetry_cell_setting 'monoclinic'
loop_
_space_group_symop_operation_xyz
x,y,z
-x,y,-z
1/2+x,1/2+y,z
1/2-x,1/2+y,-z
loop_
_atom_site_type_symbol
_atom_site_label
_atom_site_fract_x
_atom_site_fract_y
_atom_site_fract_z
Si Si1 0.847397 0.659480 0.980619
Si Si2 0.000000 0.030088 0.000000
Si Si3 0.773535 0.010157 0.576090
Si Si4 0.256707 0.837984 0.827590
Si Si5 0.419930 0.157725 0.443229
Si Si6 0.389528 0.971858 0.340543
Si Si7 0.535156 0.430454 0.257575
Si Si8 0.330673 0.332229 0.632165
O O1 0.882878 0.660564 0.713583
O O2 0.953685 0.673152 0.845488
O O3 0.795339 0.566705 0.143370
O O4 0.766200 0.740135 0.186178
O O5 0.881808 0.065842 0.301205
O O6 0.024380 0.978354 0.111636
O O7 0.702305 0.992354 0.581416
O O8 0.804520 0.913445 0.574746
O O9 0.354446 0.889920 0.531094
O O10 0.152434 0.894398 0.014535
O O11 0.252512 0.832383 0.032246
O O12 0.400450 0.061144 0.418492
O O13 0.351765 0.235372 0.512150
O O14 0.500000 0.954963 0.000000
O O15 0.500000 0.482606 0.500000
O O16 0.445877 0.354246 0.450538
#
# Coordination Sequence:
#
# PCOD9121924 Si02
#       8
#     4   2   4   4   4   4   4   4
#     4  10  20  38  64  90 118 159 205 261 304 359
#     4  10  20  36  56  82 120 152 204 242 308 358
#     4  11  22  38  57  91 122 159 199 251 313 365
#     4  10  19  37  60  85 119 157 200 251 307 359
#     4  10  20  38  64  92 117 153 213 258 303 357
#     4  12  24  38  55  91 131 164 195 242 311 379
#     4   9  16  31  57  87 112 141 190 251 304 348
#     4   9  19  36  63  89 111 149 206 262 303 349
#
# _framework density 18.954761000000001
#
# number of rings (size 3 to 8) (size 9 to 14) (size 15 to 20)
#    0.000    1.867    4.000    0.800    0.000    1.067 
#    6.000    0.000    0.000    0.000    0.000    0.000 
#    0.000    0.000    0.000    0.000    0.000    0.000 
#
# Total GULP energy -83554.734890 kJ/mol
# GULP energy per Si atom -5570.315659 kJ/mol
# Density = 1.891162 g / cm^3
# Si number density = 18.954761 Si / 1000 Ang^3
#
#
#
# Elastic Constant Matrix: (Units=GPa)
#
#
# Indices 1 2 3 4 5 6 
#
# 1 52.2548 19.2334 8.9210 0.0000 -1.5503 0.0000
# 2 19.2334 104.4456 46.6366 0.0000 1.1934 0.0000
# 3 8.9210 46.6366 95.4846 0.0000 -4.3666 0.0000
# 4 0.0000 0.0000 0.0000 29.0326 0.0000 5.4016
# 5 -1.5503 1.1934 -4.3666 0.0000 22.6535 0.0000
# 6 0.0000 0.0000 0.0000 5.4016 0.0000 25.0602
#
#
#
# Elastic Compliance Matrix: (Units=1/GPa)
#
#
# Indices 1 2 3 4 5 6 
#
# 1 0.020587 -0.003816 0.000014 0.000000 0.001613 0.000000
# 2 -0.003816 0.013026 -0.006103 0.000000 -0.002124 0.000000
# 3 0.000014 -0.006103 0.013587 0.000000 0.002941 0.000000
# 4 0.000000 0.000000 0.000000 0.035883 0.000000 -0.007734
# 5 0.001613 -0.002124 0.002941 0.000000 0.044932 0.000000
# 6 0.000000 0.000000 0.000000 -0.007734 0.000000 0.041571
#
#
# Mechanical properties :
#
#
# Convention : Reuss Voigt Hill
#
# Bulk Modulus (GPa) = 36.50857 44.64080 40.57468
# Shear Modulus (GPa) = 25.18559 27.17553 26.18056
#
# Velocity S-wave (km/s) = 3.64912 3.79054 3.72050
# Velocity P-wave (km/s) = 6.08748 6.53911 6.31733
#
# Compressibility (1/GPa) = 0.02739083
#
# Stress axis : x y z
#
# Youngs Moduli (GPa) = 48.57459 76.76746 73.60031
#
# Poissons Ratio (x) = 0.29292 -0.00103
# Poissons Ratio (y) = 0.18535 0.44918
# Poissons Ratio (z) = -0.00068 0.46851
#
# Static dielectric constant tensor:
#      x y z
#    x 1.666540 0.000000 0.012450 
#    y 0.000000 1.665120 0.000000 
#    z 0.012450 0.000000 1.690300 
# 
# From -- ./inp_files/20443.got.cif
#   From: 2010.05.17/outbox.cif.g08.bks.cpg/sg5_11_cif.got.tgz:20443.got - 2010.06.03 18:56:24.
