data_PCOD9121558
_publ_section_title
;
Structure prediction by ZEFSAII (Michael W. Deem and Ramdas Pophale) SiO2 
 PCOD9121558
Probable space group: C 2
;
_chemical_formula_sum "Si O2"
_cell_formula_units_Z 28
_cell_length_a 22.091420
_cell_length_b 7.868731
_cell_length_c 5.622614
_cell_angle_alpha 90.000000
_cell_angle_beta 79.901915
_cell_angle_gamma 90.000000
_cell_volume 962.246432
_symmetry_space_group_name_H-M "C 2"
_symmetry_group_IT_number 5
_symmetry_cell_setting 'monoclinic'
loop_
_space_group_symop_operation_xyz
x,y,z
-x,y,-z
1/2+x,1/2+y,z
1/2-x,1/2+y,-z
loop_
_atom_site_type_symbol
_atom_site_label
_atom_site_fract_x
_atom_site_fract_y
_atom_site_fract_z
Si Si1 0.623532 0.017270 0.976889
Si Si2 0.658328 0.131004 0.445694
Si Si3 0.563746 0.705599 0.194772
Si Si4 0.851375 0.986687 0.180236
Si Si5 0.321747 0.748822 0.573730
Si Si6 0.024786 0.911721 0.729498
Si Si7 0.734813 0.420547 0.154421
O O1 0.623805 0.110461 0.723522
O O2 0.694476 0.947681 0.431152
O O3 0.619553 0.122431 0.226227
O O4 0.572019 0.871710 0.027162
O O5 0.705233 0.288000 0.365859
O O6 0.692390 0.933904 0.941483
O O7 0.606767 0.755765 0.387810
O O8 0.499419 0.609329 0.259152
O O9 0.602793 0.553098 0.053264
O O10 0.822385 0.148338 0.326311
O O11 0.901546 0.918230 0.333020
O O12 0.801397 0.882688 0.067842
O O13 0.285445 0.613271 0.761782
O O14 0.000000 0.835057 0.500000
O O15 0.000000 0.838343 0.000000
#
# Coordination Sequence:
#
# PCOD9121558 Si02
#       7
#     4   4   4   4   4   4   4
#     4  11  26  41  66  97 144 198 253 291 363 450
#     4  11  27  44  64  99 142 197 245 300 366 438
#     4   9  19  38  62 100 136 181 242 303 350 440
#     4  10  20  39  64 103 144 182 244 307 370 441
#     4  10  21  42  67  94 145 185 249 295 362 449
#     4  10  19  34  65 103 139 176 238 311 367 427
#     4  11  28  41  66 103 149 199 244 310 366 447
#
# _framework density 29.098573999999999
#
# number of rings (size 3 to 8) (size 9 to 14) (size 15 to 20)
#    0.000    1.714    2.857    0.000   12.000    0.000 
#    0.000    0.000    0.000    0.000    0.000  112.000 
#    0.000    0.000    0.000    0.000    0.000    0.000 
#
# Total GULP energy -78261.554357 kJ/mol
# GULP energy per Si atom -5590.111026 kJ/mol
# Density = 2.903234 g / cm^3
# Si number density = 29.098574 Si / 1000 Ang^3
#
#
#
# Elastic Constant Matrix: (Units=GPa)
#
#
# Indices 1 2 3 4 5 6 
#
# 1 123.3235 37.6479 20.8351 0.0000 -6.3576 0.0000
# 2 37.6479 173.1652 22.5664 0.0000 -1.7550 0.0000
# 3 20.8351 22.5664 191.3136 0.0000 14.6584 0.0000
# 4 0.0000 0.0000 0.0000 49.7331 0.0000 0.2513
# 5 -6.3576 -1.7550 14.6584 0.0000 38.0113 0.0000
# 6 0.0000 0.0000 0.0000 0.2513 0.0000 39.5927
#
#
#
# Elastic Compliance Matrix: (Units=1/GPa)
#
#
# Indices 1 2 3 4 5 6 
#
# 1 0.008899 -0.001801 -0.000891 0.000000 0.001749 0.000000
# 2 -0.001801 0.006241 -0.000555 0.000000 0.000201 0.000000
# 3 -0.000891 -0.000555 0.005567 0.000000 -0.002322 0.000000
# 4 0.000000 0.000000 0.000000 0.020108 0.000000 -0.000128
# 5 0.001749 0.000201 -0.002322 0.000000 0.027505 0.000000
# 6 0.000000 0.000000 0.000000 -0.000128 0.000000 0.025258
#
#
# Mechanical properties :
#
#
# Convention : Reuss Voigt Hill
#
# Bulk Modulus (GPa) = 70.35718 72.21124 71.28421
# Shear Modulus (GPa) = 47.70517 52.58426 50.14471
#
# Velocity S-wave (km/s) = 4.05338 4.25562 4.15573
# Velocity P-wave (km/s) = 6.79249 7.00122 6.89764
#
# Compressibility (1/GPa) = 0.01421319
#
# Stress axis : x y z
#
# Youngs Moduli (GPa) = 112.36973 160.23590 179.61637
#
# Poissons Ratio (x) = 0.28858 0.15999
# Poissons Ratio (y) = 0.20238 0.09976
# Poissons Ratio (z) = 0.10009 0.08900
#
# Static dielectric constant tensor:
#      x y z
#    x 2.288520 0.000000 0.069240 
#    y 0.000000 2.321360 0.000000 
#    z 0.069240 0.000000 2.465590 
# 
# From -- ./inp_files/10279.got.cif
#   From: 2010.05.17/outbox.cif.g08.bks.cpg/sg5_6_cif.got.tgz:10279.got - 2010.06.03 18:56:24.
