data_PCOD9121868
_publ_section_title
;
Structure prediction by ZEFSAII (Michael W. Deem and Ramdas Pophale) SiO2 
 PCOD9121868
Probable space group: C 2
;
_chemical_formula_sum "Si O2"
_cell_formula_units_Z 32
_cell_length_a 21.344590
_cell_length_b 8.547273
_cell_length_c 17.068340
_cell_angle_alpha 90.000000
_cell_angle_beta 150.212209
_cell_angle_gamma 90.000000
_cell_volume 1546.958574
_symmetry_space_group_name_H-M "C 2"
_symmetry_group_IT_number 5
_symmetry_cell_setting 'monoclinic'
loop_
_space_group_symop_operation_xyz
x,y,z
-x,y,-z
1/2+x,1/2+y,z
1/2-x,1/2+y,-z
loop_
_atom_site_type_symbol
_atom_site_label
_atom_site_fract_x
_atom_site_fract_y
_atom_site_fract_z
Si Si1 0.179463 0.076360 0.545711
Si Si2 0.083747 0.358912 0.525601
Si Si3 0.122964 0.330625 0.178393
Si Si4 0.792346 0.634733 0.242851
Si Si5 0.536298 0.333459 0.689783
Si Si6 0.446595 0.730822 0.734597
Si Si7 0.693902 0.541748 0.975562
Si Si8 0.018013 0.524912 0.733135
O O1 0.181245 0.236806 0.596309
O O2 0.150378 0.133925 0.425104
O O3 0.294934 0.967451 0.693707
O O4 0.057184 0.971029 0.435925
O O5 0.140035 0.511302 0.627734
O O6 0.000000 0.275361 0.500000
O O7 0.996231 0.419666 0.360322
O O8 0.203989 0.239515 0.201259
O O9 0.081072 0.215247 0.203765
O O10 0.000000 0.391589 0.000000
O O11 0.886676 0.749555 0.296567
O O12 0.721195 0.534689 0.098198
O O13 0.630229 0.404420 0.856785
O O14 0.459881 0.193222 0.649441
O O15 0.586674 0.676437 0.858946
O O16 0.449436 0.916911 0.721058
O O17 0.834058 0.558550 0.091332
#
# Coordination Sequence:
#
# PCOD9121868 Si02
#       8
#     4   4   4   4   4   4   4   4
#     4  10  26  42  66  99 134 181 228 274 336 410
#     4  11  21  39  63  97 134 165 215 281 349 385
#     4  12  26  45  69  97 138 188 226 283 330 406
#     4  11  23  41  65  99 136 173 219 283 343 398
#     4  10  21  39  66  99 126 169 225 275 344 396
#     4  10  23  45  64  95 135 180 227 265 343 409
#     4  10  19  37  61  94 127 166 214 276 328 398
#     4  10  19  36  65  94 129 167 218 275 328 406
#
# _framework density 20.685752999999998
#
# number of rings (size 3 to 8) (size 9 to 14) (size 15 to 20)
#    0.000    1.500    3.750    2.250    1.750    3.000 
#    2.250    1.875    0.000    0.000    0.000    0.000 
#    0.000    0.000    0.000    0.000    0.000    0.000 
#
# Total GULP energy -89197.994276 kJ/mol
# GULP energy per Si atom -5574.874642 kJ/mol
# Density = 2.063867 g / cm^3
# Si number density = 20.685753 Si / 1000 Ang^3
#
#
#
# Elastic Constant Matrix: (Units=GPa)
#
#
# Indices 1 2 3 4 5 6 
#
# 1 91.7217 45.2686 46.5621 0.0000 -9.6237 0.0000
# 2 45.2686 97.2376 43.0294 0.0000 2.5997 0.0000
# 3 46.5621 43.0294 130.0319 0.0000 -6.4125 0.0000
# 4 0.0000 0.0000 0.0000 38.5513 0.0000 -5.9828
# 5 -9.6237 2.5997 -6.4125 0.0000 18.9003 0.0000
# 6 0.0000 0.0000 0.0000 -5.9828 0.0000 14.6056
#
#
#
# Elastic Compliance Matrix: (Units=1/GPa)
#
#
# Indices 1 2 3 4 5 6 
#
# 1 0.016706 -0.006479 -0.003432 0.000000 0.008233 0.000000
# 2 -0.006479 0.014738 -0.002868 0.000000 -0.006299 0.000000
# 3 -0.003432 -0.002868 0.009968 0.000000 0.002029 0.000000
# 4 0.000000 0.000000 0.000000 0.027700 0.000000 0.011347
# 5 0.008233 -0.006299 0.002029 0.000000 0.058656 0.000000
# 6 0.000000 0.000000 0.000000 0.011347 0.000000 0.073115
#
#
# Mechanical properties :
#
#
# Convention : Reuss Voigt Hill
#
# Bulk Modulus (GPa) = 63.07144 65.41237 64.24190
# Shear Modulus (GPa) = 21.57717 26.68685 24.13201
#
# Velocity S-wave (km/s) = 3.23320 3.59570 3.41926
# Velocity P-wave (km/s) = 6.67043 6.99495 6.83462
#
# Compressibility (1/GPa) = 0.01585504
#
# Stress axis : x y z
#
# Youngs Moduli (GPa) = 59.85735 67.85347 100.31662
#
# Poissons Ratio (x) = 0.43961 0.34432
# Poissons Ratio (y) = 0.38781 0.28766
# Poissons Ratio (z) = 0.20545 0.19457
#
# Static dielectric constant tensor:
#      x y z
#    x 1.764900 0.000000 0.020870 
#    y 0.000000 1.754300 0.000000 
#    z 0.020870 0.000000 1.777290 
# 
# From -- ./inp_files/63253.got.cif
#   From: 2010.05.17/outbox.cif.g08.bks.cpg/sg5_32_cif.got.tgz:63253.got - 2010.06.03 18:56:24.
