data_PCOD9121118
_publ_section_title
;
Structure prediction by ZEFSAII (Michael W. Deem and Ramdas Pophale) SiO2 
 PCOD9121118
Probable space group: C 2
;
_chemical_formula_sum "Si O2"
_cell_formula_units_Z 22
_cell_length_a 12.919085
_cell_length_b 17.512879
_cell_length_c 8.140381
_cell_angle_alpha 90.000000
_cell_angle_beta 144.560905
_cell_angle_gamma 90.000000
_cell_volume 1067.923469
_symmetry_space_group_name_H-M "C 2"
_symmetry_group_IT_number 5
_symmetry_cell_setting 'monoclinic'
loop_
_space_group_symop_operation_xyz
x,y,z
-x,y,-z
1/2+x,1/2+y,z
1/2-x,1/2+y,-z
loop_
_atom_site_type_symbol
_atom_site_label
_atom_site_fract_x
_atom_site_fract_y
_atom_site_fract_z
Si Si1 0.406746 0.468280 0.146757
Si Si2 0.500000 0.588717 0.000000
Si Si3 0.082429 0.514790 0.931875
Si Si4 0.898650 0.655772 0.539839
Si Si5 0.375416 0.890150 0.463641
Si Si6 0.598084 0.321689 0.306186
O O1 0.533647 0.394423 0.330732
O O2 0.499452 0.535969 0.163885
O O3 0.290602 0.500527 0.150122
O O4 0.274616 0.431592 0.838493
O O5 0.310909 0.633383 0.749508
O O6 0.006904 0.599227 0.800349
O O7 0.985512 0.459100 0.679919
O O8 0.000000 0.492454 0.000000
O O9 0.918441 0.742518 0.623406
O O10 0.000000 0.644826 0.500000
O O11 0.500000 0.843968 0.500000
O O12 0.298116 0.839683 0.508013
O O13 0.500000 0.316576 0.000000
#
# Coordination Sequence:
#
# PCOD9121118 Si02
#       6
#     4   2   4   4   4   4
#     4  10  18  39  70  87 118 178 217 246 314 397
#     4  12  20  44  72  88 118 182 226 244 314 408
#     4  11  21  37  64  96 127 164 221 269 310 376
#     4  12  24  42  64  92 133 172 211 267 328 376
#     4   9  17  36  61  87 120 169 215 250 307 392
#     4  10  21  40  63  93 128 165 211 267 323 374
#
# _framework density 20.600725000000001
#
# number of rings (size 3 to 8) (size 9 to 14) (size 15 to 20)
#    0.000    1.455    6.364    1.091    0.000    1.455 
#   11.455    2.727    0.000    0.000    0.000    0.000 
#    0.000    0.000    0.000    0.000    0.000    0.000 
#
# Total GULP energy -61301.074453 kJ/mol
# GULP energy per Si atom -5572.824950 kJ/mol
# Density = 2.055384 g / cm^3
# Si number density = 20.600725 Si / 1000 Ang^3
#
#
#
# Elastic Constant Matrix: (Units=GPa)
#
#
# Indices 1 2 3 4 5 6 
#
# 1 157.9514 47.0685 36.4030 0.0000 27.1778 0.0000
# 2 47.0685 94.1764 28.8897 0.0000 15.0795 0.0000
# 3 36.4030 28.8897 32.5414 0.0000 20.2182 0.0000
# 4 0.0000 0.0000 0.0000 10.2244 0.0000 -19.9605
# 5 27.1778 15.0795 20.2182 0.0000 31.4622 0.0000
# 6 0.0000 0.0000 0.0000 -19.9605 0.0000 6.9129
#
#
#
# Elastic Compliance Matrix: (Units=1/GPa)
#
#
# Indices 1 2 3 4 5 6 
#
# 1 0.008879 -0.002014 -0.006624 0.000000 -0.002448 0.000000
# 2 -0.002014 0.015143 -0.012921 0.000000 0.002785 0.000000
# 3 -0.006624 -0.012921 0.070261 0.000000 -0.033236 0.000000
# 4 0.000000 0.000000 0.000000 -0.021093 0.000000 -0.060903
# 5 -0.002448 0.002785 -0.033236 0.000000 0.053922 0.000000
# 6 0.000000 0.000000 0.000000 -0.060903 0.000000 -0.031197
#
#
# Mechanical properties :
#
#
# Convention : Reuss Voigt Hill
#
# Bulk Modulus (GPa) = 19.54449 56.59906 38.07177
# Shear Modulus (GPa) = 32.03326 21.20711 26.62019
#
# Velocity S-wave (km/s) = 3.94757 3.21196 3.59861
# Velocity P-wave (km/s) = 5.50324 6.42569 5.98227
#
# Compressibility (1/GPa) = 0.05116532
#
# Stress axis : x y z
#
# Youngs Moduli (GPa) = 112.62592 66.03913 14.23263
#
# Poissons Ratio (x) = 0.13298 0.09427
# Poissons Ratio (y) = 0.22679 0.18390
# Poissons Ratio (z) = 0.74602 0.85330
#
# Static dielectric constant tensor:
#      x y z
#    x 1.831860 0.000000 0.050110 
#    y 0.000000 1.705770 0.000000 
#    z 0.050110 0.000000 1.862670 
# 
# From -- ./inp_files/19935.got.cif
#   From: 2010.05.17/outbox.cif.g08.bks.cpg/sg5_10_cif.got.tgz:19935.got - 2010.06.03 18:56:24.
