data_PCOD9121147
_publ_section_title
;
Structure prediction by ZEFSAII (Michael W. Deem and Ramdas Pophale) SiO2 
 PCOD9121147
Probable space group: C 2
;
_chemical_formula_sum "Si O2"
_cell_formula_units_Z 30
_cell_length_a 22.967636
_cell_length_b 9.614383
_cell_length_c 11.267893
_cell_angle_alpha 90.000000
_cell_angle_beta 34.977216
_cell_angle_gamma 90.000000
_cell_volume 1426.346320
_symmetry_space_group_name_H-M "C 2"
_symmetry_group_IT_number 5
_symmetry_cell_setting 'monoclinic'
loop_
_space_group_symop_operation_xyz
x,y,z
-x,y,-z
1/2+x,1/2+y,z
1/2-x,1/2+y,-z
loop_
_atom_site_type_symbol
_atom_site_label
_atom_site_fract_x
_atom_site_fract_y
_atom_site_fract_z
Si Si1 0.739186 0.348750 0.154180
Si Si2 0.033064 0.921671 0.575455
Si Si3 0.431560 0.936948 0.496581
Si Si4 0.238106 0.576216 0.069022
Si Si5 0.392639 0.677201 0.393187
Si Si6 0.500000 0.832837 0.000000
Si Si7 0.822658 0.539449 0.227231
Si Si8 0.077725 0.669510 0.142139
O O1 0.628247 0.319074 0.390237
O O2 0.798152 0.208414 0.020717
O O3 0.789591 0.439186 0.172690
O O4 0.718882 0.447704 0.075605
O O5 0.000000 0.969023 0.500000
O O6 0.959535 0.822320 0.768781
O O7 0.061724 0.050291 0.608129
O O8 0.500000 0.900930 0.500000
O O9 0.394151 0.806597 0.482476
O O10 0.332520 0.012962 0.712117
O O11 0.498496 0.045436 0.307219
O O12 0.167629 0.645692 0.086049
O O13 0.278574 0.615684 0.551221
O O14 0.465169 0.730507 0.165578
O O15 0.597982 0.938274 0.838979
O O16 0.887153 0.655762 0.051150
#
# Coordination Sequence:
#
# PCOD9121147 Si02
#       8
#     4   4   4   4   4   2   4   4
#     4  10  21  35  58  98 139 175 229 275 331 431
#     4  11  20  37  66 105 147 171 213 283 348 428
#     4  10  19  37  67  99 140 183 221 270 362 431
#     4  10  20  32  57  96 141 180 213 260 337 430
#     4  11  26  45  72 107 129 180 243 286 356 417
#     4  12  26  58  70  92 146 186 238 328 336 396
#     4  10  25  47  71  95 135 180 245 290 359 409
#     4  10  18  40  64  96 137 188 209 266 354 419
#
# _framework density 21.03276
#
# number of rings (size 3 to 8) (size 9 to 14) (size 15 to 20)
#    0.000    1.600    4.000    0.800    5.600    1.067 
#    9.600    0.000    0.000    0.000    0.000    0.000 
#    0.000    0.000    0.000    0.000    0.000    0.000 
#
# Total GULP energy -83544.650513 kJ/mol
# GULP energy per Si atom -5569.643368 kJ/mol
# Density = 2.098489 g / cm^3
# Si number density = 21.032760 Si / 1000 Ang^3
#
#
#
# Elastic Constant Matrix: (Units=GPa)
#
#
# Indices 1 2 3 4 5 6 
#
# 1 40.6086 35.1057 22.2330 0.0000 -1.8244 0.0000
# 2 35.1057 117.8626 30.6697 0.0000 3.8381 0.0000
# 3 22.2330 30.6697 66.0156 0.0000 4.6522 0.0000
# 4 0.0000 0.0000 0.0000 33.6623 0.0000 0.7774
# 5 -1.8244 3.8381 4.6522 0.0000 23.4233 0.0000
# 6 0.0000 0.0000 0.0000 0.7774 0.0000 21.6300
#
#
#
# Elastic Compliance Matrix: (Units=1/GPa)
#
#
# Indices 1 2 3 4 5 6 
#
# 1 0.037633 -0.009099 -0.008883 0.000000 0.006186 0.000000
# 2 -0.009099 0.011863 -0.002292 0.000000 -0.002197 0.000000
# 3 -0.008883 -0.002292 0.019499 0.000000 -0.004189 0.000000
# 4 0.000000 0.000000 0.000000 0.029731 0.000000 -0.001069
# 5 0.006186 -0.002197 -0.004189 0.000000 0.044366 0.000000
# 6 0.000000 0.000000 0.000000 -0.001069 0.000000 0.046270
#
#
# Mechanical properties :
#
#
# Convention : Reuss Voigt Hill
#
# Bulk Modulus (GPa) = 35.15272 44.50042 39.82657
# Shear Modulus (GPa) = 20.88618 24.84169 22.86394
#
# Velocity S-wave (km/s) = 3.15466 3.44043 3.30064
# Velocity P-wave (km/s) = 5.47894 6.08159 5.78811
#
# Compressibility (1/GPa) = 0.02844730
#
# Stress axis : x y z
#
# Youngs Moduli (GPa) = 26.57274 84.29883 51.28342
#
# Poissons Ratio (x) = 0.76703 0.45554
# Poissons Ratio (y) = 0.24179 0.11754
# Poissons Ratio (z) = 0.23604 0.19320
#
# Static dielectric constant tensor:
#      x y z
#    x 1.802980 0.000000 -0.058340 
#    y 0.000000 1.794860 0.000000 
#    z -0.058340 0.000000 1.827950 
# 
# From -- ./inp_files/47310.got.cif
#   From: 2010.05.17/outbox.cif.g08.bks.cpg/sg5_24_cif.got.tgz:47310.got - 2010.06.03 18:56:24.
