data_PCOD9121203
_publ_section_title
;
Structure prediction by ZEFSAII (Michael W. Deem and Ramdas Pophale) SiO2 
 PCOD9121203
Probable space group: C 2
;
_chemical_formula_sum "Si O2"
_cell_formula_units_Z 28
_cell_length_a 11.915715
_cell_length_b 14.058536
_cell_length_c 8.572778
_cell_angle_alpha 90.000000
_cell_angle_beta 52.568636
_cell_angle_gamma 90.000000
_cell_volume 1140.373575
_symmetry_space_group_name_H-M "C 2"
_symmetry_group_IT_number 5
_symmetry_cell_setting 'monoclinic'
loop_
_space_group_symop_operation_xyz
x,y,z
-x,y,-z
1/2+x,1/2+y,z
1/2-x,1/2+y,-z
loop_
_atom_site_type_symbol
_atom_site_label
_atom_site_fract_x
_atom_site_fract_y
_atom_site_fract_z
Si Si1 0.751484 0.259810 0.218209
Si Si2 0.990454 0.698823 0.251302
Si Si3 0.372086 0.026529 0.006967
Si Si4 0.698204 0.873433 0.142390
Si Si5 0.842330 0.945804 0.572700
Si Si6 0.500000 0.737971 0.500000
Si Si7 0.317652 0.620913 0.405322
Si Si8 0.500000 0.357756 0.000000
O O1 0.596560 0.224790 0.299516
O O2 0.735945 0.344216 0.359023
O O3 0.833871 0.171494 0.223695
O O4 0.804256 0.312169 0.017230
O O5 0.846273 0.644422 0.412176
O O6 0.953681 0.791781 0.184316
O O7 0.092471 0.634960 0.055583
O O8 0.374144 0.972035 0.842053
O O9 0.500000 0.985842 0.000000
O O10 0.234255 0.008013 0.226264
O O11 0.619241 0.807453 0.330242
O O12 0.856559 0.902271 0.057312
O O13 0.000000 0.930174 0.500000
O O14 0.837583 0.008728 0.420528
O O15 0.426027 0.672677 0.431618
#
# Coordination Sequence:
#
# PCOD9121203 Si02
#       8
#     4   4   4   4   4   2   4   2
#     4  10  26  45  72 100 144 188 237 291 353 429
#     4  11  20  42  70  95 139 185 240 282 349 428
#     4  11  23  43  70 101 141 194 233 295 360 422
#     4  10  25  45  70 105 142 189 234 299 362 419
#     4  11  23  44  69 101 140 187 237 285 361 421
#     4  12  26  42  72 108 144 178 242 300 360 420
#     4  12  23  41  69 107 135 184 237 290 356 421
#     4  10  18  42  72  96 130 190 234 282 350 426
#
# _framework density 24.553356999999998
#
# number of rings (size 3 to 8) (size 9 to 14) (size 15 to 20)
#    0.000    1.143    4.286    1.286    6.000    0.000 
#    5.143    0.000    0.000    0.000    0.000    0.000 
#    0.000    0.000    0.000    0.000    0.000    0.000 
#
# Total GULP energy -78319.906059 kJ/mol
# GULP energy per Si atom -5594.279004 kJ/mol
# Density = 2.449747 g / cm^3
# Si number density = 24.553357 Si / 1000 Ang^3
#
#
#
# Elastic Constant Matrix: (Units=GPa)
#
#
# Indices 1 2 3 4 5 6 
#
# 1 110.6569 34.2637 2.6795 0.0000 13.4335 0.0000
# 2 34.2637 81.2229 -0.1806 0.0000 10.0413 0.0000
# 3 2.6795 -0.1806 55.9625 0.0000 -4.7216 0.0000
# 4 0.0000 0.0000 0.0000 17.6674 0.0000 5.5423
# 5 13.4335 10.0413 -4.7216 0.0000 39.9064 0.0000
# 6 0.0000 0.0000 0.0000 5.5423 0.0000 32.1273
#
#
#
# Elastic Compliance Matrix: (Units=1/GPa)
#
#
# Indices 1 2 3 4 5 6 
#
# 1 0.010667 -0.004177 -0.000746 0.000000 -0.002628 0.000000
# 2 -0.004177 0.014345 0.000061 0.000000 -0.002196 0.000000
# 3 -0.000746 0.000061 0.018106 0.000000 0.002378 0.000000
# 4 0.000000 0.000000 0.000000 0.059840 0.000000 -0.010323
# 5 -0.002628 -0.002196 0.002378 0.000000 0.026777 0.000000
# 6 0.000000 0.000000 0.000000 -0.010323 0.000000 0.032907
#
#
# Mechanical properties :
#
#
# Convention : Reuss Voigt Hill
#
# Bulk Modulus (GPa) = 29.94469 35.70749 32.82609
# Shear Modulus (GPa) = 27.24830 32.01219 29.63025
#
# Velocity S-wave (km/s) = 3.33492 3.61471 3.47763
# Velocity P-wave (km/s) = 5.20107 5.65649 5.43355
#
# Compressibility (1/GPa) = 0.03339491
#
# Stress axis : x y z
#
# Youngs Moduli (GPa) = 93.74405 69.70867 55.23141
#
# Poissons Ratio (x) = 0.29115 0.04120
# Poissons Ratio (y) = 0.39154 -0.00337
# Poissons Ratio (z) = 0.06993 -0.00425
#
# Static dielectric constant tensor:
#      x y z
#    x 1.919260 0.000000 0.053000 
#    y 0.000000 1.962110 0.000000 
#    z 0.053000 0.000000 2.032420 
# 
# From -- ./inp_files/20574.got.cif
#   From: 2010.05.17/outbox.cif.g08.bks.cpg/sg5_11_cif.got.tgz:20574.got - 2010.06.03 18:56:24.
