data_PCOD9121172
_publ_section_title
;
Structure prediction by ZEFSAII (Michael W. Deem and Ramdas Pophale) SiO2 
 PCOD9121172
Probable space group: C 2
;
_chemical_formula_sum "Si O2"
_cell_formula_units_Z 20
_cell_length_a 7.823187
_cell_length_b 12.752367
_cell_length_c 11.895522
_cell_angle_alpha 90.000000
_cell_angle_beta 124.088746
_cell_angle_gamma 90.000000
_cell_volume 982.828504
_symmetry_space_group_name_H-M "C 2"
_symmetry_group_IT_number 5
_symmetry_cell_setting 'monoclinic'
loop_
_space_group_symop_operation_xyz
x,y,z
-x,y,-z
1/2+x,1/2+y,z
1/2-x,1/2+y,-z
loop_
_atom_site_type_symbol
_atom_site_label
_atom_site_fract_x
_atom_site_fract_y
_atom_site_fract_z
Si Si1 0.724136 0.667350 0.640274
Si Si2 0.580127 0.798838 0.800009
Si Si3 0.125003 0.542362 0.777474
Si Si4 0.500000 0.998115 0.500000
Si Si5 0.000000 0.184370 0.000000
Si Si6 0.796376 0.837129 0.482923
O O1 0.500000 0.640592 0.500000
O O2 0.690824 0.729011 0.744911
O O3 0.824825 0.746407 0.585755
O O4 0.892060 0.577379 0.724548
O O5 0.579302 0.753583 0.924391
O O6 0.345516 0.796971 0.670095
O O7 0.654328 0.919553 0.817701
O O8 0.306202 0.611939 0.894353
O O9 0.122533 0.557095 0.641456
O O10 0.663148 0.924769 0.496783
O O11 0.000000 0.877834 0.500000
#
# Coordination Sequence:
#
# PCOD9121172 Si02
#       6
#     4   4   4   2   2   4
#     4  10  21  41  71 105 136 175 231 293 342 404
#     4  10  24  47  61  99 146 173 233 282 337 416
#     4  11  25  44  70  99 134 185 227 284 343 409
#     4  10  22  44  66 108 136 168 246 288 334 408
#     4  12  28  44  66  98 142 190 224 272 350 424
#     4  10  18  40  72 102 137 177 221 296 348 384
#
# _framework density 20.349430000000002
#
# number of rings (size 3 to 8) (size 9 to 14) (size 15 to 20)
#    0.000    1.600    5.000    1.200    7.000    7.200 
#    3.600    0.000    0.000    0.000    0.000    0.000 
#    0.000    0.000    0.000    0.000    0.000    0.000 
#
# Total GULP energy -55818.929559 kJ/mol
# GULP energy per Si atom -5581.892956 kJ/mol
# Density = 2.030311 g / cm^3
# Si number density = 20.349430 Si / 1000 Ang^3
#
#
#
# Elastic Constant Matrix: (Units=GPa)
#
#
# Indices 1 2 3 4 5 6 
#
# 1 123.3763 41.8175 55.3439 0.0000 1.7698 0.0000
# 2 41.8175 95.8854 65.6573 0.0000 -8.0076 0.0000
# 3 55.3439 65.6573 137.0374 0.0000 -28.1183 0.0000
# 4 0.0000 0.0000 0.0000 37.8511 0.0000 -6.7753
# 5 1.7698 -8.0076 -28.1183 0.0000 27.3766 0.0000
# 6 0.0000 0.0000 0.0000 -6.7753 0.0000 7.0192
#
#
#
# Elastic Compliance Matrix: (Units=1/GPa)
#
#
# Indices 1 2 3 4 5 6 
#
# 1 0.011016 -0.002094 -0.004710 0.000000 -0.006163 0.000000
# 2 -0.002094 0.016259 -0.007527 0.000000 -0.002840 0.000000
# 3 -0.004710 -0.007527 0.015732 0.000000 0.014261 0.000000
# 4 0.000000 0.000000 0.000000 0.031937 0.000000 0.030828
# 5 -0.006163 -0.002840 0.014261 0.000000 0.050743 0.000000
# 6 0.000000 0.000000 0.000000 0.030828 0.000000 0.172222
#
#
# Mechanical properties :
#
#
# Convention : Reuss Voigt Hill
#
# Bulk Modulus (GPa) = 69.70999 75.77073 72.74036
# Shear Modulus (GPa) = 15.08955 27.34809 21.21882
#
# Velocity S-wave (km/s) = 2.72604 3.66993 3.23263
# Velocity P-wave (km/s) = 6.65126 7.43462 7.05382
#
# Compressibility (1/GPa) = 0.01434515
#
# Stress axis : x y z
#
# Youngs Moduli (GPa) = 90.77452 61.50297 63.56294
#
# Poissons Ratio (x) = 0.12876 0.29941
# Poissons Ratio (y) = 0.19005 0.47847
# Poissons Ratio (z) = 0.42759 0.46296
#
# Static dielectric constant tensor:
#      x y z
#    x 1.804090 0.000000 0.012720 
#    y 0.000000 1.767300 0.000000 
#    z 0.012720 0.000000 1.722530 
# 
# From -- ./inp_files/34990.got.cif
#   From: 2010.05.17/outbox.cif.g08.bks.cpg/sg5_18_cif.got.tgz:34990.got - 2010.06.03 18:56:24.
