data_PCOD9121372
_publ_section_title
;
Structure prediction by ZEFSAII (Michael W. Deem and Ramdas Pophale) SiO2 
 PCOD9121372
Probable space group: C 2
;
_chemical_formula_sum "Si O2"
_cell_formula_units_Z 32
_cell_length_a 8.473229
_cell_length_b 21.875139
_cell_length_c 15.876912
_cell_angle_alpha 90.000000
_cell_angle_beta 146.344404
_cell_angle_gamma 90.000000
_cell_volume 1630.917273
_symmetry_space_group_name_H-M "C 2"
_symmetry_group_IT_number 5
_symmetry_cell_setting 'monoclinic'
loop_
_space_group_symop_operation_xyz
x,y,z
-x,y,-z
1/2+x,1/2+y,z
1/2-x,1/2+y,-z
loop_
_atom_site_type_symbol
_atom_site_label
_atom_site_fract_x
_atom_site_fract_y
_atom_site_fract_z
Si Si1 0.549658 0.346390 0.422565
Si Si2 0.531039 0.022159 0.710352
Si Si3 0.405293 0.211769 0.360817
Si Si4 0.518605 0.620960 0.908600
Si Si5 0.391687 0.911677 0.363029
Si Si6 0.372381 0.613246 0.534814
Si Si7 0.379697 0.059957 0.834479
Si Si8 0.789914 0.929497 0.170596
O O1 0.500000 0.351999 0.500000
O O2 0.433870 0.280639 0.340723
O O3 0.375873 0.398614 0.296802
O O4 0.886391 0.355634 0.550277
O O5 0.297025 0.049638 0.542853
O O6 0.440797 0.033988 0.766508
O O7 0.812990 0.061501 0.816210
O O8 0.565915 0.952897 0.700045
O O9 0.500000 0.216270 0.500000
O O10 0.650600 0.167239 0.438014
O O11 0.118391 0.175339 0.208089
O O12 0.500000 0.640061 0.000000
O O13 0.828447 0.596744 0.017318
O O14 0.500000 0.940735 0.500000
O O15 0.054088 0.909868 0.228436
O O16 0.500000 0.618312 0.500000
O O17 0.620951 0.607936 0.712547
O O18 0.268703 0.001816 0.838469
O O19 0.500000 0.906118 0.000000
#
# Coordination Sequence:
#
# PCOD9121372 Si02
#       8
#     4   4   4   4   4   4   4   4
#     4  10  22  42  61  77 108 156 202 241 284 339
#     4   9  17  32  52  78 112 153 189 222 274 344
#     4  10  22  39  59  81 106 145 197 242 281 329
#     4   9  19  35  56  84 116 151 186 225 284 349
#     4  10  20  34  56  84 113 150 196 241 285 332
#     4   9  18  31  52  81 111 146 187 227 277 339
#     4  10  19  33  55  83 119 152 180 223 288 353
#     4  11  23  36  55  90 121 147 186 239 295 343
#
# _framework density 19.620858999999999
#
# number of rings (size 3 to 8) (size 9 to 14) (size 15 to 20)
#    0.000    2.250    0.000    3.750    0.000    8.000 
#    0.000    3.125    0.000    3.000    0.000    0.000 
#    0.000    0.000    0.000    0.000    0.000    0.000 
#
# Total GULP energy -89088.529714 kJ/mol
# GULP energy per Si atom -5568.033107 kJ/mol
# Density = 1.957620 g / cm^3
# Si number density = 19.620859 Si / 1000 Ang^3
#
#
#
# Elastic Constant Matrix: (Units=GPa)
#
#
# Indices 1 2 3 4 5 6 
#
# 1 52.3976 21.7691 35.2702 -0.0032 13.0255 0.0017
# 2 21.7691 86.1574 36.3329 -0.0015 3.9867 0.0020
# 3 35.2702 36.3329 119.1341 0.0294 25.2525 0.0060
# 4 -0.0032 -0.0015 0.0294 34.5121 -0.0018 -7.4067
# 5 13.0255 3.9867 25.2525 -0.0018 30.8650 0.0014
# 6 0.0017 0.0020 0.0060 -7.4067 0.0014 9.1320
#
#
#
# Elastic Compliance Matrix: (Units=1/GPa)
#
#
# Indices 1 2 3 4 5 6 
#
# 1 0.025724 -0.004080 -0.005060 0.000008 -0.006189 0.000007
# 2 -0.004080 0.014063 -0.003703 0.000004 0.002935 0.000003
# 3 -0.005060 -0.003703 0.012663 -0.000016 -0.007747 -0.000018
# 4 0.000008 0.000004 -0.000016 0.035082 0.000010 0.028454
# 5 -0.006189 0.002935 -0.007747 0.000010 0.040970 0.000007
# 6 0.000007 0.000003 -0.000018 0.028454 0.000007 0.132583
#
#
# Mechanical properties :
#
#
# Convention : Reuss Voigt Hill
#
# Bulk Modulus (GPa) = 37.36110 49.38149 43.37129
# Shear Modulus (GPa) = 16.90940 25.85628 21.38284
#
# Velocity S-wave (km/s) = 2.93884 3.63408 3.30480
# Velocity P-wave (km/s) = 5.53160 6.54456 6.05928
#
# Compressibility (1/GPa) = 0.02676581
#
# Stress axis : x y z
#
# Youngs Moduli (GPa) = 38.87401 71.10689 78.96789
#
# Poissons Ratio (x) = 0.29009 0.39955
# Poissons Ratio (y) = 0.15859 0.29244
# Poissons Ratio (z) = 0.19669 0.26333
#
# Static dielectric constant tensor:
#      x y z
#    x 1.639470 0.000000 -0.014200 
#    y 0.000000 1.749310 0.000000 
#    z -0.014200 0.000000 1.747330 
# 
# From -- ./inp_files/28009.got.cif
#   From: 2010.05.17/outbox.cif.g08.bks.cpg/sg5_15_cif.got.tgz:28009.got - 2010.06.03 18:56:24.
