data_PCOD9121525
_publ_section_title
;
Structure prediction by ZEFSAII (Michael W. Deem and Ramdas Pophale) SiO2 
 PCOD9121525
Probable space group: C 2
;
_chemical_formula_sum "Si O2"
_cell_formula_units_Z 32
_cell_length_a 24.072791
_cell_length_b 13.213208
_cell_length_c 9.043942
_cell_angle_alpha 90.000000
_cell_angle_beta 149.856323
_cell_angle_gamma 90.000000
_cell_volume 1444.585790
_symmetry_space_group_name_H-M "C 2"
_symmetry_group_IT_number 5
_symmetry_cell_setting 'monoclinic'
loop_
_space_group_symop_operation_xyz
x,y,z
-x,y,-z
1/2+x,1/2+y,z
1/2-x,1/2+y,-z
loop_
_atom_site_type_symbol
_atom_site_label
_atom_site_fract_x
_atom_site_fract_y
_atom_site_fract_z
Si Si1 0.818080 0.973170 0.790441
Si Si2 0.142397 0.044627 0.443641
Si Si3 0.164707 0.417645 0.675791
Si Si4 0.008380 0.835606 0.178669
Si Si5 0.888547 0.151704 0.148691
Si Si6 0.805731 0.601811 0.071780
Si Si7 0.491947 0.753810 0.813281
Si Si8 0.385974 0.306852 0.288090
O O1 0.701077 0.955106 0.597075
O O2 0.817130 0.028628 0.630870
O O3 0.883372 0.866938 0.932272
O O4 0.882040 0.044268 0.052685
O O5 0.072008 0.146692 0.308666
O O6 0.067199 0.945885 0.296966
O O7 0.241088 0.051998 0.787151
O O8 0.130540 0.513688 0.694643
O O9 0.078666 0.329099 0.450889
O O10 0.277169 0.372662 0.009472
O O11 0.084481 0.782447 0.473806
O O12 0.000000 0.784790 0.000000
O O13 0.000000 0.161145 0.500000
O O14 0.899182 0.229745 0.035228
O O15 0.785639 0.149362 0.024135
O O16 0.872969 0.699765 0.176479
O O17 0.500000 0.793874 0.000000
O O18 0.500000 0.359873 0.500000
#
# Coordination Sequence:
#
# PCOD9121525 Si02
#       8
#     4   4   4   4   4   4   4   4
#     4  10  20  34  58  97 120 159 204 271 319 360
#     4  11  18  37  65  94 129 152 215 279 323 366
#     4  11  24  41  64  94 131 170 221 255 320 395
#     4  10  19  34  59  94 125 155 206 270 321 364
#     4  11  19  34  62  90 122 159 208 272 319 361
#     4  11  24  41  63  97 129 164 217 268 326 387
#     4  12  22  41  65  96 129 170 213 273 324 383
#     4  12  23  41  65  93 129 171 209 265 322 388
#
# _framework density 22.151676999999999
#
# number of rings (size 3 to 8) (size 9 to 14) (size 15 to 20)
#    0.000    1.000    7.500    0.375    1.750    0.000 
#    4.500    6.250    0.000    0.000    0.000    0.000 
#    0.000    0.000    0.000    0.000    0.000    0.000 
#
# Total GULP energy -89320.518719 kJ/mol
# GULP energy per Si atom -5582.532420 kJ/mol
# Density = 2.210126 g / cm^3
# Si number density = 22.151677 Si / 1000 Ang^3
#
#
#
# Elastic Constant Matrix: (Units=GPa)
#
#
# Indices 1 2 3 4 5 6 
#
# 1 74.5156 7.3904 19.9063 0.0000 -21.1186 0.0000
# 2 7.3904 70.6441 16.3168 0.0000 -4.4770 0.0000
# 3 19.9063 16.3168 59.5428 0.0000 -20.2369 0.0000
# 4 0.0000 0.0000 0.0000 31.7723 0.0000 -6.5835
# 5 -21.1186 -4.4770 -20.2369 0.0000 27.7353 0.0000
# 6 0.0000 0.0000 0.0000 -6.5835 0.0000 19.3015
#
#
#
# Elastic Compliance Matrix: (Units=1/GPa)
#
#
# Indices 1 2 3 4 5 6 
#
# 1 0.017278 -0.000698 -0.001532 0.000000 0.011926 0.000000
# 2 -0.000698 0.015153 -0.004346 0.000000 -0.001257 0.000000
# 3 -0.001532 -0.004346 0.023753 0.000000 0.015463 0.000000
# 4 0.000000 0.000000 0.000000 0.033868 0.000000 0.011552
# 5 0.011926 -0.001257 0.015463 0.000000 0.056216 0.000000
# 6 0.000000 0.000000 0.000000 0.011552 0.000000 0.055750
#
#
# Mechanical properties :
#
#
# Convention : Reuss Voigt Hill
#
# Bulk Modulus (GPa) = 23.23831 32.43661 27.83746
# Shear Modulus (GPa) = 21.78518 26.50108 24.14313
#
# Velocity S-wave (km/s) = 3.13941 3.46258 3.30495
# Velocity P-wave (km/s) = 4.86359 5.53721 5.21129
#
# Compressibility (1/GPa) = 0.04303238
#
# Stress axis : x y z
#
# Youngs Moduli (GPa) = 57.87570 65.99490 42.09923
#
# Poissons Ratio (x) = 0.04606 0.06449
# Poissons Ratio (y) = 0.04039 0.18297
# Poissons Ratio (z) = 0.08866 0.28682
#
# Static dielectric constant tensor:
#      x y z
#    x 1.941600 0.000000 0.005680 
#    y 0.000000 1.803090 0.000000 
#    z 0.005680 0.000000 1.835660 
# 
# From -- ./inp_files/31093.got.cif
#   From: 2010.05.17/outbox.cif.g08.bks.cpg/sg5_16_cif.got.tgz:31093.got - 2010.06.03 18:56:24.
