data_PCOD9121577
_publ_section_title
;
Structure prediction by ZEFSAII (Michael W. Deem and Ramdas Pophale) SiO2 
 PCOD9121577
Probable space group: C 2
;
_chemical_formula_sum "Si O2"
_cell_formula_units_Z 18
_cell_length_a 6.717693
_cell_length_b 14.023872
_cell_length_c 8.180713
_cell_angle_alpha 90.000000
_cell_angle_beta 102.726864
_cell_angle_gamma 90.000000
_cell_volume 751.754371
_symmetry_space_group_name_H-M "C 2"
_symmetry_group_IT_number 5
_symmetry_cell_setting 'monoclinic'
loop_
_space_group_symop_operation_xyz
x,y,z
-x,y,-z
1/2+x,1/2+y,z
1/2-x,1/2+y,-z
loop_
_atom_site_type_symbol
_atom_site_label
_atom_site_fract_x
_atom_site_fract_y
_atom_site_fract_z
Si Si1 0.107677 0.588070 0.852170
Si Si2 0.000000 0.504974 0.500000
Si Si3 0.755378 0.772083 0.269226
Si Si4 0.255063 0.377855 0.957879
Si Si5 0.764156 0.824990 0.616812
O O1 0.258411 0.670382 0.819868
O O2 0.204610 0.487420 0.915995
O O3 0.977943 0.565765 0.662539
O O4 0.000000 0.622035 0.000000
O O5 0.806347 0.433703 0.440858
O O6 0.684527 0.770046 0.442975
O O7 0.995998 0.801551 0.329640
O O8 0.679423 0.848709 0.123443
O O9 0.189402 0.313888 0.789756
O O10 0.500000 0.369438 0.000000
#
# Coordination Sequence:
#
# PCOD9121577 Si02
#       5
#     4   2   4   4   4
#     4  11  21  34  56  82 108 140 180 221 263 318
#     4  10  20  34  54  82 110 138 176 222 266 312
#     4  10  19  35  56  76 106 146 179 212 264 322
#     4   9  19  36  54  77 107 140 177 219 267 314
#     4   9  18  33  54  75 103 140 174 213 261 312
#
# _framework density 23.943991
#
# number of rings (size 3 to 8) (size 9 to 14) (size 15 to 20)
#    0.000    2.222    0.000    4.667    0.000    0.000 
#    0.000    7.778    0.000   13.333    0.000    0.000 
#    0.000    0.000    0.000    0.000    0.000    0.000 
#
# Total GULP energy -50205.086369 kJ/mol
# GULP energy per Si atom -5578.342930 kJ/mol
# Density = 2.388949 g / cm^3
# Si number density = 23.943991 Si / 1000 Ang^3
#
#
#
# Elastic Constant Matrix: (Units=GPa)
#
#
# Indices 1 2 3 4 5 6 
#
# 1 71.3260 -1.1772 42.5146 0.0000 -16.6913 0.0000
# 2 -1.1772 109.3006 62.4147 0.0000 -5.6543 0.0000
# 3 42.5146 62.4147 225.5558 0.0000 -34.8726 0.0000
# 4 0.0000 0.0000 0.0000 32.9420 0.0000 -0.2427
# 5 -16.6913 -5.6543 -34.8726 0.0000 58.9050 0.0000
# 6 0.0000 0.0000 0.0000 -0.2427 0.0000 16.3392
#
#
#
# Elastic Compliance Matrix: (Units=1/GPa)
#
#
# Indices 1 2 3 4 5 6 
#
# 1 0.016728 0.002222 -0.003305 0.000000 0.002997 0.000000
# 2 0.002222 0.011197 -0.003581 0.000000 -0.000416 0.000000
# 3 -0.003305 -0.003581 0.006439 0.000000 0.002532 0.000000
# 4 0.000000 0.000000 0.000000 0.030360 0.000000 0.000451
# 5 0.002997 -0.000416 0.002532 0.000000 0.019285 0.000000
# 6 0.000000 0.000000 0.000000 0.000451 0.000000 0.061209
#
#
# Mechanical properties :
#
#
# Convention : Reuss Voigt Hill
#
# Bulk Modulus (GPa) = 39.94281 68.18741 54.06511
# Shear Modulus (GPa) = 30.69562 41.79924 36.24743
#
# Velocity S-wave (km/s) = 3.58435 4.18270 3.89503
# Velocity P-wave (km/s) = 5.81791 7.20183 6.54654
#
# Compressibility (1/GPa) = 0.02503579
#
# Stress axis : x y z
#
# Youngs Moduli (GPa) = 59.78043 89.31253 155.30780
#
# Poissons Ratio (x) = -0.19847 0.51323
# Poissons Ratio (y) = -0.13285 0.55622
# Poissons Ratio (z) = 0.19755 0.31987
#
# Static dielectric constant tensor:
#      x y z
#    x 2.222750 0.000000 -0.084640 
#    y 0.000000 1.865000 0.000000 
#    z -0.084640 0.000000 1.998300 
# 
# From -- ./inp_files/13979.got.cif
#   From: 2010.05.17/outbox.cif.g08.bks.cpg/sg5_7_cif.got.tgz:13979.got - 2010.06.03 18:56:24.
