data_PCOD9121808
_publ_section_title
;
Structure prediction by ZEFSAII (Michael W. Deem and Ramdas Pophale) SiO2 
 PCOD9121808
Probable space group: C 2
;
_chemical_formula_sum "Si O2"
_cell_formula_units_Z 30
_cell_length_a 17.477956
_cell_length_b 6.424558
_cell_length_c 11.953103
_cell_angle_alpha 90.000000
_cell_angle_beta 104.728684
_cell_angle_gamma 90.000000
_cell_volume 1298.088103
_symmetry_space_group_name_H-M "C 2"
_symmetry_group_IT_number 5
_symmetry_cell_setting 'monoclinic'
loop_
_space_group_symop_operation_xyz
x,y,z
-x,y,-z
1/2+x,1/2+y,z
1/2-x,1/2+y,-z
loop_
_atom_site_type_symbol
_atom_site_label
_atom_site_fract_x
_atom_site_fract_y
_atom_site_fract_z
Si Si1 0.026448 0.732310 0.672991
Si Si2 0.636877 0.404765 0.364004
Si Si3 0.859398 0.034286 0.407841
Si Si4 0.773861 0.057595 0.160589
Si Si5 0.146460 0.854798 0.010834
Si Si6 0.941707 0.620402 0.840430
Si Si7 0.000000 0.354915 0.500000
Si Si8 0.359305 0.728580 0.823143
O O1 0.953911 0.891732 0.625420
O O2 0.019533 0.696523 0.803710
O O3 0.004919 0.514285 0.606476
O O4 0.100026 0.838977 0.641421
O O5 0.682405 0.435617 0.497679
O O6 0.627333 0.212695 0.271682
O O7 0.654896 0.602048 0.294989
O O8 0.922081 0.211943 0.466473
O O9 0.807297 0.137210 0.290861
O O10 0.711121 0.880011 0.169098
O O11 0.728836 0.237853 0.074935
O O12 0.839274 0.945881 0.107168
O O13 0.082410 0.701886 0.046442
O O14 0.131348 0.059924 0.077989
O O15 0.935667 0.373829 0.838605
#
# Coordination Sequence:
#
# PCOD9121808 Si02
#       8
#     4   4   4   4   4   4   2   4
#     4  10  19  36  61  91 122 162 196 236 306 368
#     4   9  18  37  58  89 122 153 197 238 309 366
#     4  12  23  38  62  95 126 161 199 248 302 374
#     4  11  24  40  64  91 118 163 212 248 308 358
#     4  10  20  41  62  85 117 162 208 257 297 349
#     4   8  18  33  63  89 110 164 201 239 313 353
#     4  12  18  36  60  88 134 160 188 246 302 366
#     4  10  19  39  66  81 121 164 196 265 300 353
#
# _framework density 23.110910000000001
#
# number of rings (size 3 to 8) (size 9 to 14) (size 15 to 20)
#    0.800    1.067    4.000    0.800    0.000    1.067 
#    7.200    0.667    0.000    0.000    0.000    0.000 
#    0.000    0.000    0.000    0.000    0.000    0.000 
#
# Total GULP energy -83529.735236 kJ/mol
# GULP energy per Si atom -5568.649016 kJ/mol
# Density = 2.305831 g / cm^3
# Si number density = 23.110910 Si / 1000 Ang^3
#
#
#
# Elastic Constant Matrix: (Units=GPa)
#
#
# Indices 1 2 3 4 5 6 
#
# 1 30.5513 9.0852 -12.3333 0.0000 -10.9338 0.0000
# 2 9.0852 93.1323 14.9160 0.0000 -11.5817 0.0000
# 3 -12.3333 14.9160 110.4197 0.0000 -23.1327 0.0000
# 4 0.0000 0.0000 0.0000 17.5449 0.0000 -15.3215
# 5 -10.9338 -11.5817 -23.1327 0.0000 30.0477 0.0000
# 6 0.0000 0.0000 0.0000 -15.3215 0.0000 16.7242
#
#
#
# Elastic Compliance Matrix: (Units=1/GPa)
#
#
# Indices 1 2 3 4 5 6 
#
# 1 0.046543 -0.003277 0.010641 0.000000 0.023865 0.000000
# 2 -0.003277 0.011558 -0.001483 0.000000 0.002121 0.000000
# 3 0.010641 -0.001483 0.013278 0.000000 0.013523 0.000000
# 4 0.000000 0.000000 0.000000 0.285020 0.000000 0.261114
# 5 0.023865 0.002121 0.013523 0.000000 0.053193 0.000000
# 6 0.000000 0.000000 0.000000 0.261114 0.000000 0.299006
#
#
# Mechanical properties :
#
#
# Convention : Reuss Voigt Hill
#
# Bulk Modulus (GPa) = 12.02766 28.60437 20.31602
# Shear Modulus (GPa) = 6.90083 27.69238 17.29661
#
# Velocity S-wave (km/s) = 1.72987 3.46531 2.73869
# Velocity P-wave (km/s) = 3.03406 5.33058 4.33709
#
# Compressibility (1/GPa) = 0.08314167
#
# Stress axis : x y z
#
# Youngs Moduli (GPa) = 21.48558 86.51759 75.31128
#
# Poissons Ratio (x) = 0.28350 -0.80138
# Poissons Ratio (y) = 0.07040 0.11169
# Poissons Ratio (z) = -0.22863 0.12831
#
# Static dielectric constant tensor:
#      x y z
#    x 1.954950 0.000000 0.071520 
#    y 0.000000 1.830470 0.000000 
#    z 0.071520 0.000000 1.997020 
# 
# From -- ./inp_files/46974.got.cif
#   From: 2010.05.17/outbox.cif.g08.bks.cpg/sg5_24_cif.got.tgz:46974.got - 2010.06.03 18:56:24.
