data_PCOD9121897
_publ_section_title
;
Structure prediction by ZEFSAII (Michael W. Deem and Ramdas Pophale) SiO2 
 PCOD9121897
Probable space group: C 2
;
_chemical_formula_sum "Si O2"
_cell_formula_units_Z 32
_cell_length_a 22.567416
_cell_length_b 10.643142
_cell_length_c 11.419869
_cell_angle_alpha 90.000000
_cell_angle_beta 144.806105
_cell_angle_gamma 90.000000
_cell_volume 1580.867703
_symmetry_space_group_name_H-M "C 2"
_symmetry_group_IT_number 5
_symmetry_cell_setting 'monoclinic'
loop_
_space_group_symop_operation_xyz
x,y,z
-x,y,-z
1/2+x,1/2+y,z
1/2-x,1/2+y,-z
loop_
_atom_site_type_symbol
_atom_site_label
_atom_site_fract_x
_atom_site_fract_y
_atom_site_fract_z
Si Si1 0.968661 0.966950 0.242876
Si Si2 0.542002 0.670296 0.201354
Si Si3 0.642043 0.092675 0.991174
Si Si4 0.597842 0.301886 0.084395
Si Si5 0.199364 0.892989 0.672168
Si Si6 0.451813 0.965287 0.791820
Si Si7 0.276302 0.476948 0.538030
Si Si8 0.885472 0.766013 0.270818
O O1 0.894806 0.904047 0.221416
O O2 0.083414 0.946705 0.477573
O O3 0.951883 0.876732 0.104286
O O4 0.969537 0.103569 0.182713
O O5 0.554432 0.817004 0.247383
O O6 0.648603 0.592068 0.372819
O O7 0.500000 0.656667 0.000000
O O8 0.648584 0.168121 0.881800
O O9 0.528200 0.037684 0.828897
O O10 0.659945 0.188750 0.127619
O O11 0.723076 0.983326 0.136176
O O12 0.666765 0.394416 0.272232
O O13 0.500000 0.255999 0.000000
O O14 0.236279 0.889130 0.597922
O O15 0.186887 0.771424 0.732689
O O16 0.336691 0.018416 0.606407
O O17 0.500000 0.971850 0.000000
O O18 0.000000 0.734708 0.500000
#
# Coordination Sequence:
#
# PCOD9121897 Si02
#       8
#     4   4   4   4   4   4   4   4
#     4   9  17  37  63  90 115 155 209 253 298 364
#     4  10  19  37  57  89 132 155 198 249 309 382
#     4  11  24  41  62  90 127 158 214 258 311 372
#     4  11  19  34  63  97 121 162 202 251 300 380
#     4  10  20  39  61  90 119 159 207 254 306 362
#     4  11  24  38  54  91 135 166 191 252 328 366
#     4  11  21  37  61  97 128 163 207 241 314 386
#     4   9  21  43  65  81 114 166 219 262 299 361
#
# _framework density 20.242046999999999
#
# number of rings (size 3 to 8) (size 9 to 14) (size 15 to 20)
#    0.000    1.750    5.000    0.375    3.500    0.000 
#    2.250    2.500    0.000    0.000    0.000    0.000 
#    0.000    0.000    0.000    0.000    0.000    0.000 
#
# Total GULP energy -89286.400147 kJ/mol
# GULP energy per Si atom -5580.400009 kJ/mol
# Density = 2.019598 g / cm^3
# Si number density = 20.242047 Si / 1000 Ang^3
#
#
#
# Elastic Constant Matrix: (Units=GPa)
#
#
# Indices 1 2 3 4 5 6 
#
# 1 66.5015 10.6150 35.9231 0.0000 -9.1682 0.0000
# 2 10.6150 52.6727 13.9937 0.0000 -0.5662 0.0000
# 3 35.9231 13.9937 85.4848 0.0000 -1.3001 0.0000
# 4 0.0000 0.0000 0.0000 13.2666 0.0000 -4.2922
# 5 -9.1682 -0.5662 -1.3001 0.0000 32.6287 0.0000
# 6 0.0000 0.0000 0.0000 -4.2922 0.0000 26.2919
#
#
#
# Elastic Compliance Matrix: (Units=1/GPa)
#
#
# Indices 1 2 3 4 5 6 
#
# 1 0.020535 -0.001892 -0.008237 0.000000 0.005409 0.000000
# 2 -0.001892 0.020024 -0.002487 0.000000 -0.000283 0.000000
# 3 -0.008237 -0.002487 0.015540 0.000000 -0.001738 0.000000
# 4 0.000000 0.000000 0.000000 0.079580 0.000000 0.012992
# 5 0.005409 -0.000283 -0.001738 0.000000 0.032093 0.000000
# 6 0.000000 0.000000 0.000000 0.012992 0.000000 0.040156
#
#
# Mechanical properties :
#
#
# Convention : Reuss Voigt Hill
#
# Bulk Modulus (GPa) = 32.39767 36.19141 34.29454
# Shear Modulus (GPa) = 20.53812 24.04592 22.29202
#
# Velocity S-wave (km/s) = 3.18878 3.45036 3.32214
# Velocity P-wave (km/s) = 5.44037 5.81304 5.62979
#
# Compressibility (1/GPa) = 0.03086642
#
# Stress axis : x y z
#
# Youngs Moduli (GPa) = 48.69838 49.93972 64.34904
#
# Poissons Ratio (x) = 0.09447 0.53006
# Poissons Ratio (y) = 0.09212 0.16005
# Poissons Ratio (z) = 0.40114 0.12421
#
# Static dielectric constant tensor:
#      x y z
#    x 1.748490 0.000000 -0.002230 
#    y 0.000000 1.733910 0.000000 
#    z -0.002230 0.000000 1.702520 
# 
# From -- ./inp_files/47519.got.cif
#   From: 2010.05.17/outbox.cif.g08.bks.cpg/sg5_24_cif.got.tgz:47519.got - 2010.06.03 18:56:24.
