data_PCOD9121489
_publ_section_title
;
Structure prediction by ZEFSAII (Michael W. Deem and Ramdas Pophale) SiO2 
 PCOD9121489
Probable space group: C 2
;
_chemical_formula_sum "Si O2"
_cell_formula_units_Z 32
_cell_length_a 8.037606
_cell_length_b 23.357764
_cell_length_c 12.707884
_cell_angle_alpha 90.000000
_cell_angle_beta 34.841418
_cell_angle_gamma 90.000000
_cell_volume 1363.015440
_symmetry_space_group_name_H-M "C 2"
_symmetry_group_IT_number 5
_symmetry_cell_setting 'monoclinic'
loop_
_space_group_symop_operation_xyz
x,y,z
-x,y,-z
1/2+x,1/2+y,z
1/2-x,1/2+y,-z
loop_
_atom_site_type_symbol
_atom_site_label
_atom_site_fract_x
_atom_site_fract_y
_atom_site_fract_z
Si Si1 0.673898 0.998980 0.296955
Si Si2 0.702927 0.426485 0.214473
Si Si3 0.180969 0.310158 0.799255
Si Si4 0.873002 0.712834 0.448359
Si Si5 0.794326 0.260705 0.813240
Si Si6 0.744150 0.095007 0.549583
Si Si7 0.845545 0.045173 0.816535
Si Si8 0.248892 0.376193 0.286398
O O1 0.500000 0.995601 0.500000
O O2 0.676146 0.933346 0.256342
O O3 0.491182 0.044263 0.325377
O O4 0.998843 0.021725 0.157374
O O5 0.739312 0.374897 0.276946
O O6 0.606520 0.490728 0.289152
O O7 0.505987 0.397917 0.226990
O O8 0.000000 0.438519 0.000000
O O9 0.460445 0.270266 0.672915
O O10 0.981705 0.280635 0.816114
O O11 0.000000 0.314247 0.000000
O O12 0.528618 0.725292 0.625984
O O13 0.921181 0.655431 0.358198
O O14 0.000000 0.702401 0.500000
O O15 0.698920 0.318829 0.804032
O O16 0.500000 0.229344 0.000000
O O17 0.000000 0.090974 0.500000
O O18 0.928675 0.092301 0.343798
O O19 0.500000 0.059960 0.000000
O O20 0.000000 0.363639 0.500000
#
# Coordination Sequence:
#
# PCOD9121489 Si02
#       8
#     4   4   4   4   4   4   4   4
#     4   8  17  36  58  80 113 152 186 228 283 338
#     4   9  17  32  56  84 114 146 179 223 282 340
#     4  10  21  39  61  85 115 150 187 236 292 342
#     4  10  23  42  59  77 109 153 195 236 286 341
#     4  11  23  36  57  88 117 151 192 232 281 342
#     4  11  23  38  57  82 110 145 190 239 287 335
#     4   9  18  35  60  84 110 149 187 223 278 341
#     4  10  19  34  57  84 115 152 188 229 281 335
#
# _framework density 23.477357999999999
#
# number of rings (size 3 to 8) (size 9 to 14) (size 15 to 20)
#    0.000    2.250    0.000    4.125    0.000    4.000 
#    0.000    4.375    0.000    0.000    0.000    0.000 
#    0.000    0.000    0.000    0.000    0.000    0.000 
#
# Total GULP energy -89304.473369 kJ/mol
# GULP energy per Si atom -5581.529586 kJ/mol
# Density = 2.342392 g / cm^3
# Si number density = 23.477358 Si / 1000 Ang^3
#
#
#
# Elastic Constant Matrix: (Units=GPa)
#
#
# Indices 1 2 3 4 5 6 
#
# 1 35.0754 -4.8263 1.2892 0.0000 -12.2602 0.0000
# 2 -4.8263 65.3324 2.5856 0.0000 -3.2128 0.0000
# 3 1.2892 2.5856 102.4155 0.0000 -26.5605 0.0000
# 4 0.0000 0.0000 0.0000 11.5935 0.0000 5.3482
# 5 -12.2602 -3.2128 -26.5605 0.0000 30.8929 0.0000
# 6 0.0000 0.0000 0.0000 5.3482 0.0000 12.2640
#
#
#
# Elastic Compliance Matrix: (Units=1/GPa)
#
#
# Indices 1 2 3 4 5 6 
#
# 1 0.035017 0.003298 0.004078 0.000000 0.017746 0.000000
# 2 0.003298 0.015696 0.000418 0.000000 0.003301 0.000000
# 3 0.004078 0.000418 0.013041 0.000000 0.012874 0.000000
# 4 0.000000 0.000000 0.000000 0.107977 0.000000 -0.047087
# 5 0.017746 0.003301 0.012874 0.000000 0.050825 0.000000
# 6 0.000000 0.000000 0.000000 -0.047087 0.000000 0.102073
#
#
# Mechanical properties :
#
#
# Convention : Reuss Voigt Hill
#
# Bulk Modulus (GPa) = 12.60354 22.32450 17.46402
# Shear Modulus (GPa) = 14.90370 24.53507 19.71939
#
# Velocity S-wave (km/s) = 2.52228 3.23623 2.90130
# Velocity P-wave (km/s) = 3.72325 4.84705 4.32183
#
# Compressibility (1/GPa) = 0.07934280
#
# Stress axis : x y z
#
# Youngs Moduli (GPa) = 28.55765 63.71154 76.68105
#
# Poissons Ratio (x) = -0.21013 -0.31272
# Poissons Ratio (y) = -0.09419 -0.03207
# Poissons Ratio (z) = -0.11646 -0.02665
#
# Static dielectric constant tensor:
#      x y z
#    x 1.957930 0.000000 0.026270 
#    y 0.000000 1.947380 0.000000 
#    z 0.026270 0.000000 1.886240 
# 
# From -- ./inp_files/59918.got.cif
#   From: 2010.05.17/outbox.cif.g08.bks.cpg/sg5_30_cif.got.tgz:59918.got - 2010.06.03 18:56:24.
