data_PCOD9121801
_publ_section_title
;
Structure prediction by ZEFSAII (Michael W. Deem and Ramdas Pophale) SiO2 
 PCOD9121801
Probable space group: C 2
;
_chemical_formula_sum "Si O2"
_cell_formula_units_Z 32
_cell_length_a 16.942049
_cell_length_b 11.306553
_cell_length_c 24.888269
_cell_angle_alpha 90.000000
_cell_angle_beta 17.149363
_cell_angle_gamma 90.000000
_cell_volume 1405.763053
_symmetry_space_group_name_H-M "C 2"
_symmetry_group_IT_number 5
_symmetry_cell_setting 'monoclinic'
loop_
_space_group_symop_operation_xyz
x,y,z
-x,y,-z
1/2+x,1/2+y,z
1/2-x,1/2+y,-z
loop_
_atom_site_type_symbol
_atom_site_label
_atom_site_fract_x
_atom_site_fract_y
_atom_site_fract_z
Si Si1 0.438043 0.835660 0.424342
Si Si2 0.631228 0.346809 0.084752
Si Si3 0.648776 0.069669 0.190069
Si Si4 0.972945 0.293002 0.078303
Si Si5 0.263717 0.529530 0.365412
Si Si6 0.119755 0.719143 0.540127
Si Si7 0.953421 0.835767 0.976602
Si Si8 0.769978 0.143475 0.612326
O O1 0.311600 0.807663 0.448442
O O2 0.414818 0.710209 0.469389
O O3 0.744065 0.869586 0.235729
O O4 0.261955 0.931330 0.570527
O O5 0.502497 0.478542 0.173285
O O6 0.691858 0.306994 0.984567
O O7 0.403577 0.249544 0.248408
O O8 0.865135 0.346343 0.976950
O O9 0.492512 0.121306 0.343413
O O10 0.442131 0.057071 0.275633
O O11 0.872904 0.167167 0.029410
O O12 0.788918 0.946493 0.105321
O O13 0.659879 0.279971 0.294720
O O14 0.000000 0.347950 0.000000
O O15 0.264055 0.652512 0.397380
O O16 0.000000 0.527561 0.500000
O O17 0.000000 0.755401 0.000000
O O18 0.000000 0.093525 0.500000
#
# Coordination Sequence:
#
# PCOD9121801 Si02
#       8
#     4   4   4   4   4   4   4   4
#     4  10  19  36  61  88 120 159 199 246 307 365
#     4  10  20  33  59  87 112 159 202 242 296 372
#     4   9  19  30  58  87 110 148 197 245 291 354
#     4   9  17  35  59  85 117 153 195 241 304 366
#     4  11  19  34  62  93 117 153 210 257 293 363
#     4  10  21  37  61  92 115 152 202 259 300 354
#     4  12  21  35  56  82 118 156 196 241 299 357
#     4   9  15  33  58  83 111 148 202 244 288 355
#
# _framework density 22.763437
#
# number of rings (size 3 to 8) (size 9 to 14) (size 15 to 20)
#    0.000    2.000    2.500    5.625    0.000    0.000 
#    2.250    0.000   13.750    0.000    0.000    0.000 
#    0.000    0.000    0.000    0.000    0.000    0.000 
#
# Total GULP energy -89182.393156 kJ/mol
# GULP energy per Si atom -5573.899572 kJ/mol
# Density = 2.271163 g / cm^3
# Si number density = 22.763437 Si / 1000 Ang^3
#
#
#
# Elastic Constant Matrix: (Units=GPa)
#
#
# Indices 1 2 3 4 5 6 
#
# 1 192.7513 28.3979 41.5990 0.0438 -37.0581 0.0128
# 2 28.3979 25.8095 22.2994 0.1892 -5.3614 0.1136
# 3 41.5990 22.2994 72.1534 0.0451 -23.6281 0.0265
# 4 0.0438 0.1892 0.0451 12.9563 -0.0197 2.5682
# 5 -37.0581 -5.3614 -23.6281 -0.0197 43.1703 -0.0062
# 6 0.0128 0.1136 0.0265 2.5682 -0.0062 21.3964
#
#
#
# Elastic Compliance Matrix: (Units=1/GPa)
#
#
# Indices 1 2 3 4 5 6 
#
# 1 0.007235 -0.006472 -0.000488 0.000075 0.005140 0.000023
# 2 -0.006472 0.058956 -0.016948 -0.000752 -0.007510 -0.000200
# 3 -0.000488 -0.016948 0.022603 0.000177 0.009848 0.000044
# 4 0.000075 -0.000752 0.000177 0.079073 0.000102 -0.009488
# 5 0.005140 -0.007510 0.009848 0.000102 0.032033 0.000022
# 6 0.000023 -0.000200 0.000044 -0.009488 0.000022 0.047877
#
#
# Mechanical properties :
#
#
# Convention : Reuss Voigt Hill
#
# Bulk Modulus (GPa) = 24.40330 52.81186 38.60758
# Shear Modulus (GPa) = 16.16801 28.73248 22.45024
#
# Velocity S-wave (km/s) = 2.66797 3.55663 3.14385
# Velocity P-wave (km/s) = 4.49826 6.33378 5.49323
#
# Compressibility (1/GPa) = 0.04097806
#
# Stress axis : x y z
#
# Youngs Moduli (GPa) = 138.21670 16.96186 44.24138
#
# Poissons Ratio (x) = 0.10978 0.02159
# Poissons Ratio (y) = 0.89453 0.74981
# Poissons Ratio (z) = 0.06744 0.28747
#
# Static dielectric constant tensor:
#      x y z
#    x 1.967490 0.000120 0.058960 
#    y 0.000120 1.864520 0.000250 
#    z 0.058960 0.000250 1.871220 
# 
# From -- ./inp_files/70947.got.cif
#   From: 2010.05.17/outbox.cif.g08.bks.cpg/sg5_36_cif.got.tgz:70947.got - 2010.06.03 18:56:24.
