data_PCOD9121936
_publ_section_title
;
Structure prediction by ZEFSAII (Michael W. Deem and Ramdas Pophale) SiO2 
 PCOD9121936
Probable space group: C 2
;
_chemical_formula_sum "Si O2"
_cell_formula_units_Z 32
_cell_length_a 11.541248
_cell_length_b 12.676384
_cell_length_c 11.691630
_cell_angle_alpha 90.000000
_cell_angle_beta 66.257724
_cell_angle_gamma 90.000000
_cell_volume 1565.733661
_symmetry_space_group_name_H-M "C 2"
_symmetry_group_IT_number 5
_symmetry_cell_setting 'monoclinic'
loop_
_space_group_symop_operation_xyz
x,y,z
-x,y,-z
1/2+x,1/2+y,z
1/2-x,1/2+y,-z
loop_
_atom_site_type_symbol
_atom_site_label
_atom_site_fract_x
_atom_site_fract_y
_atom_site_fract_z
Si Si1 0.852136 0.750000 0.544398
Si Si2 0.082552 0.713883 0.084601
Si Si3 0.024510 0.476747 0.125713
Si Si4 0.242407 0.471004 0.647335
Si Si5 0.180998 0.278185 0.143836
Si Si6 0.548229 0.637997 0.363292
Si Si7 0.140559 0.822208 0.717391
Si Si8 0.292536 0.541827 0.388697
O O1 0.816091 0.860124 0.618432
O O2 0.828330 0.771410 0.418224
O O3 0.769704 0.651866 0.622141
O O4 0.000000 0.727695 0.500000
O O5 0.071895 0.594910 0.133958
O O6 0.005556 0.794866 0.195914
O O7 0.226954 0.740258 0.994838
O O8 0.000000 0.715669 0.000000
O O9 0.888041 0.462278 0.235788
O O10 0.121401 0.389320 0.132563
O O11 0.000000 0.467253 0.000000
O O12 0.330330 0.564398 0.661585
O O13 0.211714 0.499335 0.527884
O O14 0.069800 0.205506 0.240081
O O15 0.272545 0.276116 0.217838
O O16 0.500000 0.696060 0.500000
O O17 0.430444 0.562678 0.386215
O O18 0.180696 0.944668 0.704343
#
# Coordination Sequence:
#
# PCOD9121936 Si02
#       8
#     4   4   4   4   4   4   4   4
#     4  11  22  37  59  91 127 160 198 252 312 367
#     4   9  20  40  61  82 116 162 203 239 301 384
#     4  11  23  39  60  88 118 155 206 259 306 366
#     4  10  20  38  61  86 120 166 207 237 301 384
#     4  11  23  39  62  88 115 153 201 254 304 359
#     4  10  19  37  61  85 118 160 196 237 297 371
#     4  10  21  39  60  85 118 159 202 240 299 372
#     4  10  21  35  58  91 121 151 197 252 297 351
#
# _framework density 20.437704
#
# number of rings (size 3 to 8) (size 9 to 14) (size 15 to 20)
#    0.000    1.750    0.000    7.125    0.000    6.000 
#    0.000    1.250    0.000    0.750    0.000    0.000 
#    0.000    0.000    0.000    0.000    0.000    0.000 
#
# Total GULP energy -89253.958684 kJ/mol
# GULP energy per Si atom -5578.372418 kJ/mol
# Density = 2.039119 g / cm^3
# Si number density = 20.437704 Si / 1000 Ang^3
#
#
#
# Elastic Constant Matrix: (Units=GPa)
#
#
# Indices 1 2 3 4 5 6 
#
# 1 63.8286 23.9750 22.8882 0.0000 -17.5164 0.0000
# 2 23.9750 132.9013 41.7029 0.0000 -16.4482 0.0000
# 3 22.8882 41.7029 88.8531 0.0000 -31.3482 0.0000
# 4 0.0000 0.0000 0.0000 30.5808 0.0000 -3.0114
# 5 -17.5164 -16.4482 -31.3482 0.0000 30.7379 0.0000
# 6 0.0000 0.0000 0.0000 -3.0114 0.0000 31.6776
#
#
#
# Elastic Compliance Matrix: (Units=1/GPa)
#
#
# Indices 1 2 3 4 5 6 
#
# 1 0.019214 -0.002105 -0.000774 0.000000 0.009033 0.000000
# 2 -0.002105 0.009067 -0.003787 0.000000 -0.000211 0.000000
# 3 -0.000774 -0.003787 0.019308 0.000000 0.017224 0.000000
# 4 0.000000 0.000000 0.000000 0.033009 0.000000 0.003138
# 5 0.009033 -0.000211 0.017224 0.000000 0.055134 0.000000
# 6 0.000000 0.000000 0.000000 0.003138 0.000000 0.031866
#
#
# Mechanical properties :
#
#
# Convention : Reuss Voigt Hill
#
# Bulk Modulus (GPa) = 29.19275 51.41278 40.30276
# Shear Modulus (GPa) = 25.99417 31.73373 28.86395
#
# Velocity S-wave (km/s) = 3.57020 3.94471 3.76212
# Velocity P-wave (km/s) = 5.59553 6.77924 6.21563
#
# Compressibility (1/GPa) = 0.03425509
#
# Stress axis : x y z
#
# Youngs Moduli (GPa) = 52.04423 110.29591 51.79136
#
# Poissons Ratio (x) = 0.23220 0.04011
# Poissons Ratio (y) = 0.10957 0.19615
# Poissons Ratio (z) = 0.04031 0.41773
#
# Static dielectric constant tensor:
#      x y z
#    x 1.722710 0.000000 0.006930 
#    y 0.000000 1.724280 0.000000 
#    z 0.006930 0.000000 1.787510 
# 
# From -- ./inp_files/39404.got.cif
#   From: 2010.05.17/outbox.cif.g08.bks.cpg/sg5_20_cif.got.tgz:39404.got - 2010.06.03 18:56:24.
