data_PCOD9121388
_publ_section_title
;
Structure prediction by ZEFSAII (Michael W. Deem and Ramdas Pophale) SiO2 
 PCOD9121388
Probable space group: C 2
;
_chemical_formula_sum "Si O2"
_cell_formula_units_Z 24
_cell_length_a 16.079973
_cell_length_b 8.059202
_cell_length_c 8.657067
_cell_angle_alpha 90.000000
_cell_angle_beta 135.988383
_cell_angle_gamma 90.000000
_cell_volume 779.490046
_symmetry_space_group_name_H-M "C 2"
_symmetry_group_IT_number 5
_symmetry_cell_setting 'monoclinic'
loop_
_space_group_symop_operation_xyz
x,y,z
-x,y,-z
1/2+x,1/2+y,z
1/2-x,1/2+y,-z
loop_
_atom_site_type_symbol
_atom_site_label
_atom_site_fract_x
_atom_site_fract_y
_atom_site_fract_z
Si Si1 0.240660 0.250000 0.154271
Si Si2 0.506467 0.072171 0.842578
Si Si3 0.737272 0.755553 0.809983
Si Si4 0.500000 0.535414 0.500000
Si Si5 0.005772 0.021151 0.837275
Si Si6 0.500000 0.063693 0.500000
Si Si7 0.799417 0.859628 0.563332
O O1 0.370587 0.157958 0.327044
O O2 0.239383 0.345032 0.315706
O O3 0.236553 0.339682 0.980211
O O4 0.117585 0.142901 0.990389
O O5 0.499111 0.978639 0.668542
O O6 0.397703 0.207250 0.695534
O O7 0.500000 0.981973 0.000000
O O8 0.636063 0.160146 0.018574
O O9 0.618258 0.646032 0.649173
O O10 0.740237 0.854707 0.652834
O O11 0.514072 0.438917 0.678763
O O12 0.861897 0.044790 0.639582
O O13 0.000000 0.941990 0.000000
#
# Coordination Sequence:
#
# PCOD9121388 Si02
#       7
#     4   4   4   2   4   2   4
#     4   9  19  34  54  84 118 156 206 256 311 378
#     4   8  14  25  46  73  98 136 192 237 281 354
#     4   9  17  33  52  79 115 158 205 250 309 379
#     4  10  22  35  54  87 128 164 204 266 324 372
#     4  11  22  35  56  90 126 160 208 265 315 377
#     4   8  14  27  48  71 102 146 188 232 294 358
#     4  10  19  33  56  83 114 154 202 257 313 374
#
# _framework density 30.789358
#
# number of rings (size 3 to 8) (size 9 to 14) (size 15 to 20)
#    0.000    2.667    0.000    2.500    0.000    5.333 
#    0.000    0.000    0.000    4.000    0.000   59.500 
#    0.000    0.000    0.000    0.000    0.000    0.000 
#
# Total GULP energy -66926.464066 kJ/mol
# GULP energy per Si atom -5577.205339 kJ/mol
# Density = 3.071928 g / cm^3
# Si number density = 30.789358 Si / 1000 Ang^3
#
#
#
# Elastic Constant Matrix: (Units=GPa)
#
#
# Indices 1 2 3 4 5 6 
#
# 1 272.1070 64.6896 159.0020 0.0000 -62.0822 0.0000
# 2 64.6896 48.5309 73.0629 0.0000 15.7361 0.0000
# 3 159.0020 73.0629 238.4241 0.0000 -23.1323 0.0000
# 4 0.0000 0.0000 0.0000 57.1154 0.0000 39.8659
# 5 -62.0822 15.7361 -23.1323 0.0000 145.2729 0.0000
# 6 0.0000 0.0000 0.0000 39.8659 0.0000 47.7348
#
#
#
# Elastic Compliance Matrix: (Units=1/GPa)
#
#
# Indices 1 2 3 4 5 6 
#
# 1 0.007906 -0.008226 -0.002374 0.000000 0.003891 0.000000
# 2 -0.008226 0.053005 -0.011838 0.000000 -0.011142 0.000000
# 3 -0.002374 -0.011838 0.009579 0.000000 0.001793 0.000000
# 4 0.000000 0.000000 0.000000 0.041979 0.000000 -0.035059
# 5 0.003891 -0.011142 0.001793 0.000000 0.010039 0.000000
# 6 0.000000 0.000000 0.000000 -0.035059 0.000000 0.050229
#
#
# Mechanical properties :
#
#
# Convention : Reuss Voigt Hill
#
# Bulk Modulus (GPa) = 39.04115 128.06345 83.55230
# Shear Modulus (GPa) = 22.10911 67.51178 44.81044
#
# Velocity S-wave (km/s) = 2.68260 4.68771 3.81909
# Velocity P-wave (km/s) = 4.72258 8.42515 6.82956
#
# Compressibility (1/GPa) = 0.02561400
#
# Stress axis : x y z
#
# Youngs Moduli (GPa) = 126.49323 18.86602 104.39467
#
# Poissons Ratio (x) = 0.15519 0.24782
# Poissons Ratio (y) = 1.04050 1.23586
# Poissons Ratio (z) = 0.30028 0.22334
#
# Static dielectric constant tensor:
#      x y z
#    x 2.326710 0.000000 0.084690 
#    y 0.000000 2.410950 0.000000 
#    z 0.084690 0.000000 2.402680 
# 
# From -- ./inp_files/24743.got.cif
#   From: 2010.05.17/outbox.cif.g08.bks.cpg/sg5_13_cif.got.tgz:24743.got - 2010.06.03 18:56:24.
