data_PCOD9121584
_publ_section_title
;
Structure prediction by ZEFSAII (Michael W. Deem and Ramdas Pophale) SiO2 
 PCOD9121584
Probable space group: C 2
;
_chemical_formula_sum "Si O2"
_cell_formula_units_Z 32
_cell_length_a 13.417510
_cell_length_b 12.646704
_cell_length_c 7.002483
_cell_angle_alpha 90.000000
_cell_angle_beta 102.787853
_cell_angle_gamma 90.000000
_cell_volume 1158.759720
_symmetry_space_group_name_H-M "C 2"
_symmetry_group_IT_number 5
_symmetry_cell_setting 'monoclinic'
loop_
_space_group_symop_operation_xyz
x,y,z
-x,y,-z
1/2+x,1/2+y,z
1/2-x,1/2+y,-z
loop_
_atom_site_type_symbol
_atom_site_label
_atom_site_fract_x
_atom_site_fract_y
_atom_site_fract_z
Si Si1 0.185105 0.179620 0.948033
Si Si2 0.805799 0.395957 0.952004
Si Si3 0.165791 0.241351 0.488344
Si Si4 0.885238 0.601642 0.912466
Si Si5 0.883924 0.009219 0.616079
Si Si6 0.909575 0.964289 0.175205
Si Si7 0.651288 0.962144 0.610670
Si Si8 0.105854 0.699088 0.472628
O O1 0.153573 0.278866 0.061467
O O2 0.178898 0.212601 0.721178
O O3 0.304064 0.147813 0.028849
O O4 0.119430 0.074991 0.937755
O O5 0.858998 0.435241 0.169978
O O6 0.827888 0.493964 0.822015
O O7 0.682967 0.388251 0.923609
O O8 0.109565 0.138021 0.379572
O O9 0.117335 0.358048 0.477436
O O10 0.281071 0.246391 0.449123
O O11 0.899354 0.688703 0.756670
O O12 0.000000 0.570156 0.000000
O O13 0.894976 0.980334 0.397946
O O14 0.969153 0.950467 0.779254
O O15 0.772426 0.975441 0.632375
O O16 0.607033 0.076818 0.543853
O O17 0.000000 0.749266 0.500000
#
# Coordination Sequence:
#
# PCOD9121584 Si02
#       8
#     4   4   4   4   4   4   4   4
#     4   8  17  35  57  79 110 150 188 227 282 337
#     4  10  19  35  58  83 112 150 189 234 283 342
#     4   8  17  35  55  80 112 145 186 233 281 334
#     4  10  20  38  58  81 115 152 190 235 287 337
#     4   9  18  36  57  80 112 149 189 235 288 339
#     4   9  18  36  58  80 110 151 189 235 286 339
#     4  10  19  35  56  83 114 148 189 235 286 336
#     4  10  20  38  58  84 114 151 190 236 285 342
#
# _framework density 27.615734
#
# number of rings (size 3 to 8) (size 9 to 14) (size 15 to 20)
#    0.000    2.750    0.000    3.000    0.000    0.500 
#   18.000   11.250    0.000    0.000    0.000    0.000 
#    0.000    0.000    0.000    0.000    0.000    0.000 
#
# Total GULP energy -89522.020531 kJ/mol
# GULP energy per Si atom -5595.126283 kJ/mol
# Density = 2.755288 g / cm^3
# Si number density = 27.615734 Si / 1000 Ang^3
#
#
#
# Elastic Constant Matrix: (Units=GPa)
#
#
# Indices 1 2 3 4 5 6 
#
# 1 114.7339 -9.1272 9.6557 0.0000 14.9566 0.0000
# 2 -9.1272 150.8196 13.8334 0.0000 0.8395 0.0000
# 3 9.6557 13.8334 53.1267 0.0000 -7.0540 0.0000
# 4 0.0000 0.0000 0.0000 35.7016 0.0000 -10.7801
# 5 14.9566 0.8395 -7.0540 0.0000 37.4474 0.0000
# 6 0.0000 0.0000 0.0000 -10.7801 0.0000 4.9243
#
#
#
# Elastic Compliance Matrix: (Units=1/GPa)
#
#
# Indices 1 2 3 4 5 6 
#
# 1 0.009557 0.000834 -0.002527 0.000000 -0.004312 0.000000
# 2 0.000834 0.006875 -0.002058 0.000000 -0.000875 0.000000
# 3 -0.002527 -0.002058 0.020470 0.000000 0.004911 0.000000
# 4 0.000000 0.000000 0.000000 0.082629 0.000000 0.180887
# 5 -0.004312 -0.000875 0.004911 0.000000 0.029371 0.000000
# 6 0.000000 0.000000 0.000000 0.180887 0.000000 0.599063
#
#
# Mechanical properties :
#
#
# Convention : Reuss Voigt Hill
#
# Bulk Modulus (GPa) = 34.01266 38.60046 36.30656
# Shear Modulus (GPa) = 6.53369 35.90255 21.21812
#
# Velocity S-wave (km/s) = 1.53983 3.60957 2.77489
# Velocity P-wave (km/s) = 3.93758 5.60179 4.84172
#
# Compressibility (1/GPa) = 0.02940082
#
# Stress axis : x y z
#
# Youngs Moduli (GPa) = 104.63673 145.46449 48.85186
#
# Poissons Ratio (x) = -0.12133 0.12343
# Poissons Ratio (y) = -0.08728 0.10053
# Poissons Ratio (z) = 0.26438 0.29933
#
# Static dielectric constant tensor:
#      x y z
#    x 2.115770 0.000000 -0.036610 
#    y 0.000000 2.116590 0.000000 
#    z -0.036610 0.000000 2.250090 
# 
# From -- ./inp_files/24419.got.cif
#   From: 2010.05.17/outbox.cif.g08.bks.cpg/sg5_13_cif.got.tgz:24419.got - 2010.06.03 18:56:24.
