data_PCOD9121131
_publ_section_title
;
Structure prediction by ZEFSAII (Michael W. Deem and Ramdas Pophale) SiO2 
 PCOD9121131
Probable space group: C 2
;
_chemical_formula_sum "Si O2"
_cell_formula_units_Z 30
_cell_length_a 12.420342
_cell_length_b 16.078894
_cell_length_c 7.756464
_cell_angle_alpha 90.000000
_cell_angle_beta 72.819138
_cell_angle_gamma 90.000000
_cell_volume 1479.886221
_symmetry_space_group_name_H-M "C 2"
_symmetry_group_IT_number 5
_symmetry_cell_setting 'monoclinic'
loop_
_space_group_symop_operation_xyz
x,y,z
-x,y,-z
1/2+x,1/2+y,z
1/2-x,1/2+y,-z
loop_
_atom_site_type_symbol
_atom_site_label
_atom_site_fract_x
_atom_site_fract_y
_atom_site_fract_z
Si Si1 0.783885 0.326420 0.667342
Si Si2 0.518632 0.600199 0.196848
Si Si3 0.890666 0.695448 0.122943
Si Si4 0.000000 0.236001 0.500000
Si Si5 0.262012 0.055181 0.003901
Si Si6 0.921446 0.411146 0.896381
Si Si7 0.710362 0.508687 0.635318
Si Si8 0.935426 0.550462 0.356617
O O1 0.692653 0.255225 0.736572
O O2 0.890603 0.291834 0.512039
O O3 0.841825 0.352992 0.821559
O O4 0.724543 0.409367 0.626373
O O5 0.524599 0.678741 0.321814
O O6 0.638235 0.553327 0.143916
O O7 0.415281 0.544259 0.316020
O O8 0.500000 0.619463 0.000000
O O9 0.816145 0.644084 0.020957
O O10 0.944434 0.623287 0.214855
O O11 0.000000 0.743037 0.000000
O O12 0.343212 0.980712 0.026005
O O13 0.251067 0.039650 0.805086
O O14 0.002390 0.466391 0.734676
O O15 0.000000 0.368058 0.000000
O O16 0.802793 0.541053 0.457472
O O17 0.000000 0.574688 0.500000
#
# Coordination Sequence:
#
# PCOD9121131 Si02
#       8
#     4   4   4   2   4   4   4   4
#     4  11  24  38  62  95 132 155 204 268 328 360
#     4  10  23  39  66  91 125 169 219 254 308 392
#     4  12  22  38  65  92 125 159 208 261 321 368
#     4  12  22  42  62  92 128 166 206 266 318 372
#     4  10  18  40  61  90 118 159 216 251 296 385
#     4  11  21  39  66  93 122 166 215 260 310 381
#     4  10  22  39  62  90 123 167 206 258 313 371
#     4  12  19  37  69  91 119 164 222 254 297 392
#
# _framework density 20.271829
#
# number of rings (size 3 to 8) (size 9 to 14) (size 15 to 20)
#    0.000    1.067    6.667    1.600    0.000    3.200 
#    0.000    0.000    4.400    0.000    0.000    0.000 
#    0.000    0.000    0.000    0.000    0.000    0.000 
#
# Total GULP energy -83758.967445 kJ/mol
# GULP energy per Si atom -5583.931163 kJ/mol
# Density = 2.022569 g / cm^3
# Si number density = 20.271829 Si / 1000 Ang^3
#
#
#
# Elastic Constant Matrix: (Units=GPa)
#
#
# Indices 1 2 3 4 5 6 
#
# 1 86.9817 8.1564 23.9306 0.0000 -30.5163 0.0000
# 2 8.1564 57.1483 16.9196 0.0000 -9.7797 0.0000
# 3 23.9306 16.9196 59.7634 0.0000 -25.5787 0.0000
# 4 0.0000 0.0000 0.0000 16.7498 0.0000 -2.8335
# 5 -30.5163 -9.7797 -25.5787 0.0000 45.3685 0.0000
# 6 0.0000 0.0000 0.0000 -2.8335 0.0000 24.6143
#
#
#
# Elastic Compliance Matrix: (Units=1/GPa)
#
#
# Indices 1 2 3 4 5 6 
#
# 1 0.015277 0.000033 -0.002274 0.000000 0.009001 0.000000
# 2 0.000033 0.019168 -0.004827 0.000000 0.001433 0.000000
# 3 -0.002274 -0.004827 0.023606 0.000000 0.010739 0.000000
# 4 0.000000 0.000000 0.000000 0.060888 0.000000 0.007009
# 5 0.009001 0.001433 0.010739 0.000000 0.034459 0.000000
# 6 0.000000 0.000000 0.000000 0.007009 0.000000 0.041434
#
#
# Mechanical properties :
#
#
# Convention : Reuss Voigt Hill
#
# Bulk Modulus (GPa) = 22.77109 33.54519 28.15814
# Shear Modulus (GPa) = 22.36082 27.67232 25.01657
#
# Velocity S-wave (km/s) = 3.32482 3.69868 3.51672
# Velocity P-wave (km/s) = 5.09868 5.90118 5.51455
#
# Compressibility (1/GPa) = 0.04391534
#
# Stress axis : x y z
#
# Youngs Moduli (GPa) = 65.45770 52.17086 42.36214
#
# Poissons Ratio (x) = -0.00174 0.09635
# Poissons Ratio (y) = -0.00218 0.20446
# Poissons Ratio (z) = 0.14888 0.25181
#
# Static dielectric constant tensor:
#      x y z
#    x 1.737610 0.000000 0.009430 
#    y 0.000000 1.695860 0.000000 
#    z 0.009430 0.000000 1.756100 
# 
# From -- ./inp_files/20611.got.cif
#   From: 2010.05.17/outbox.cif.g08.bks.cpg/sg5_11_cif.got.tgz:20611.got - 2010.06.03 18:56:24.
