data_PCOD9121482
_publ_section_title
;
Structure prediction by ZEFSAII (Michael W. Deem and Ramdas Pophale) SiO2 
 PCOD9121482
Probable space group: C 2
;
_chemical_formula_sum "Si O2"
_cell_formula_units_Z 32
_cell_length_a 7.441992
_cell_length_b 17.235975
_cell_length_c 17.545814
_cell_angle_alpha 90.000000
_cell_angle_beta 38.022736
_cell_angle_gamma 90.000000
_cell_volume 1386.312196
_symmetry_space_group_name_H-M "C 2"
_symmetry_group_IT_number 5
_symmetry_cell_setting 'monoclinic'
loop_
_space_group_symop_operation_xyz
x,y,z
-x,y,-z
1/2+x,1/2+y,z
1/2-x,1/2+y,-z
loop_
_atom_site_type_symbol
_atom_site_label
_atom_site_fract_x
_atom_site_fract_y
_atom_site_fract_z
Si Si1 0.723217 0.828390 0.768435
Si Si2 0.841143 0.835018 0.975666
Si Si3 0.729804 0.119515 0.754682
Si Si4 0.895142 0.297409 0.723216
Si Si5 0.871218 0.654325 0.726932
Si Si6 0.716918 0.887898 0.492444
Si Si7 0.716986 0.559419 0.500512
Si Si8 0.695975 0.652519 0.012495
O O1 0.516139 0.802755 0.767910
O O2 0.876015 0.747027 0.739774
O O3 0.962941 0.883312 0.650818
O O4 0.497111 0.861480 0.906743
O O5 0.084605 0.844192 0.828034
O O6 0.797083 0.741197 0.991694
O O7 0.000000 0.863508 0.000000
O O8 0.833643 0.208566 0.724868
O O9 0.535403 0.114780 0.742805
O O10 0.019169 0.071631 0.641251
O O11 0.491542 0.104896 0.900025
O O12 0.143651 0.332964 0.587239
O O13 0.531828 0.630675 0.845582
O O14 0.046230 0.626328 0.594654
O O15 0.500000 0.860336 0.500000
O O16 0.643792 0.975083 0.541255
O O17 0.500000 0.559733 0.500000
O O18 0.500000 0.652511 0.000000
#
# Coordination Sequence:
#
# PCOD9121482 Si02
#       8
#     4   4   4   4   4   4   4   4
#     4  10  19  34  57  82 107 135 170 211 257 308
#     4   8  16  30  51  80 107 131 163 207 255 304
#     4   9  17  31  53  79 105 133 167 207 252 304
#     4  10  19  34  57  82 107 135 170 211 257 308
#     4   9  17  31  53  79 105 133 167 207 252 304
#     4  12  25  38  51  71 103 141 181 220 259 304
#     4  10  21  36  51  69  99 137 175 214 255 300
#     4   8  14  26  47  76 105 131 161 201 249 300
#
# _framework density 23.082823000000001
#
# number of rings (size 3 to 8) (size 9 to 14) (size 15 to 20)
#    0.000    2.500    0.000    2.625    0.000    3.000 
#    0.000    1.250    0.000    4.500    0.000    0.000 
#    0.000    0.000    0.000    0.000    0.000    0.000 
#
# Total GULP energy -89202.951738 kJ/mol
# GULP energy per Si atom -5575.184484 kJ/mol
# Density = 2.303029 g / cm^3
# Si number density = 23.082823 Si / 1000 Ang^3
#
#
#
# Elastic Constant Matrix: (Units=GPa)
#
#
# Indices 1 2 3 4 5 6 
#
# 1 37.5194 -10.7329 10.4716 0.0018 -6.4049 -0.0005
# 2 -10.7329 25.9299 21.3977 0.0031 -0.3079 -0.0026
# 3 10.4716 21.3977 122.8016 0.0085 -1.5238 -0.0067
# 4 0.0018 0.0031 0.0085 1.1276 -0.0044 -2.1615
# 5 -6.4049 -0.3079 -1.5238 -0.0044 19.5015 0.0025
# 6 -0.0005 -0.0026 -0.0067 -2.1615 0.0025 9.8759
#
#
#
# Elastic Compliance Matrix: (Units=1/GPa)
#
#
# Indices 1 2 3 4 5 6 
#
# 1 0.036381 0.020600 -0.006546 -0.000039 0.011762 -0.000009
# 2 0.020600 0.056707 -0.011554 -0.000114 0.006758 -0.000019
# 3 -0.006546 -0.011554 0.010696 -0.000061 -0.001497 -0.000009
# 4 -0.000039 -0.000114 -0.000061 1.527835 0.000280 0.334394
# 5 0.011762 0.006758 -0.001497 0.000280 0.055131 0.000048
# 6 -0.000009 -0.000019 -0.000009 0.334394 0.000048 0.174444
#
#
# Mechanical properties :
#
#
# Convention : Reuss Voigt Hill
#
# Bulk Modulus (GPa) = 9.19249 25.39151 17.29200
# Shear Modulus (GPa) = 2.64207 17.10865 9.87536
#
# Velocity S-wave (km/s) = 1.07102 2.72543 2.07063
# Velocity P-wave (km/s) = 2.34957 4.57471 3.63651
#
# Compressibility (1/GPa) = 0.10878446
#
# Stress axis : x y z
#
# Youngs Moduli (GPa) = 27.48719 17.63457 93.49276
#
# Poissons Ratio (x) = -0.36327 0.61198
# Poissons Ratio (y) = -0.56624 1.08019
# Poissons Ratio (z) = 0.17993 0.20374
#
# Static dielectric constant tensor:
#      x y z
#    x 1.923840 0.000000 0.023050 
#    y 0.000000 1.787890 0.000000 
#    z 0.023050 0.000000 2.016360 
# 
# From -- ./inp_files/64785.got.cif
#   From: 2010.05.17/outbox.cif.g08.bks.cpg/sg5_33_cif.got.tgz:64785.got - 2010.06.03 18:56:24.
