data_PCOD9121939
_publ_section_title
;
Structure prediction by ZEFSAII (Michael W. Deem and Ramdas Pophale) SiO2 
 PCOD9121939
Probable space group: C 2
;
_chemical_formula_sum "Si O2"
_cell_formula_units_Z 30
_cell_length_a 12.364046
_cell_length_b 6.636180
_cell_length_c 15.252465
_cell_angle_alpha 90.000000
_cell_angle_beta 109.911712
_cell_angle_gamma 90.000000
_cell_volume 1176.650849
_symmetry_space_group_name_H-M "C 2"
_symmetry_group_IT_number 5
_symmetry_cell_setting 'monoclinic'
loop_
_space_group_symop_operation_xyz
x,y,z
-x,y,-z
1/2+x,1/2+y,z
1/2-x,1/2+y,-z
loop_
_atom_site_type_symbol
_atom_site_label
_atom_site_fract_x
_atom_site_fract_y
_atom_site_fract_z
Si Si1 0.128335 0.633680 0.367526
Si Si2 0.524999 0.790503 0.736803
Si Si3 0.500000 0.092604 0.500000
Si Si4 0.071691 0.299432 0.106381
Si Si5 0.107249 0.192005 0.584659
Si Si6 0.790505 0.932555 0.087951
Si Si7 0.736215 0.896749 0.876031
Si Si8 0.954902 0.765980 0.843289
O O1 0.065430 0.702356 0.439069
O O2 0.265919 0.632454 0.408984
O O3 0.089644 0.751098 0.269092
O O4 0.079821 0.407848 0.338689
O O5 0.472273 0.713851 0.813405
O O6 0.580513 0.648119 0.678964
O O7 0.624951 0.954460 0.788559
O O8 0.593433 0.935383 0.567343
O O9 0.206924 0.289994 0.121524
O O10 0.051579 0.541003 0.116939
O O11 0.000000 0.240568 0.000000
O O12 0.000000 0.110583 0.500000
O O13 0.790174 0.154066 0.127860
O O14 0.916102 0.842778 0.112594
O O15 0.734721 0.957741 0.976576
O O16 0.863113 0.900401 0.871282
#
# Coordination Sequence:
#
# PCOD9121939 Si02
#       8
#     4   4   2   4   4   4   4   4
#     4  10  19  39  69  92 123 165 206 260 331 377
#     4  10  20  38  65  90 124 168 205 256 318 379
#     4   8  20  38  64  94 122 156 206 254 330 388
#     4  10  19  37  61  87 126 168 209 262 311 362
#     4   9  19  40  67  90 120 164 202 258 330 384
#     4  11  23  39  62  95 128 175 224 255 314 368
#     4  11  22  41  63  90 134 171 218 264 310 370
#     4  10  21  38  63  89 127 170 215 257 309 378
#
# _framework density 25.496093999999999
#
# number of rings (size 3 to 8) (size 9 to 14) (size 15 to 20)
#    0.400    1.600    2.667    2.000    1.867    0.000 
#    7.200    1.333    1.467    0.000    0.000    0.000 
#    0.000    0.000    0.000    0.000    0.000    0.000 
#
# Total GULP energy -83955.539510 kJ/mol
# GULP energy per Si atom -5597.035967 kJ/mol
# Density = 2.543806 g / cm^3
# Si number density = 25.496094 Si / 1000 Ang^3
#
#
#
# Elastic Constant Matrix: (Units=GPa)
#
#
# Indices 1 2 3 4 5 6 
#
# 1 251.3096 14.9720 78.6461 0.0000 0.2256 0.0000
# 2 14.9720 35.2796 4.5487 0.0000 -2.8956 0.0000
# 3 78.6461 4.5487 169.7938 0.0000 -16.1614 0.0000
# 4 0.0000 0.0000 0.0000 19.1251 0.0000 0.9574
# 5 0.2256 -2.8956 -16.1614 0.0000 60.6996 0.0000
# 6 0.0000 0.0000 0.0000 0.9574 0.0000 35.5717
#
#
#
# Elastic Compliance Matrix: (Units=1/GPa)
#
#
# Indices 1 2 3 4 5 6 
#
# 1 0.004787 -0.001800 -0.002235 0.000000 -0.000699 0.000000
# 2 -0.001800 0.029204 0.000190 0.000000 0.001450 0.000000
# 3 -0.002235 0.000190 0.007101 0.000000 0.001908 0.000000
# 4 0.000000 0.000000 0.000000 0.052358 0.000000 -0.001409
# 5 -0.000699 0.001450 0.001908 0.000000 0.017054 0.000000
# 6 0.000000 0.000000 0.000000 -0.001409 0.000000 0.028150
#
#
# Mechanical properties :
#
#
# Convention : Reuss Voigt Hill
#
# Bulk Modulus (GPa) = 29.94079 72.52407 51.23243
# Shear Modulus (GPa) = 31.75013 46.96035 39.35524
#
# Velocity S-wave (km/s) = 3.53270 4.29635 3.93310
# Velocity P-wave (km/s) = 5.32999 7.28824 6.38464
#
# Compressibility (1/GPa) = 0.03339925
#
# Stress axis : x y z
#
# Youngs Moduli (GPa) = 208.91673 34.24232 140.81669
#
# Poissons Ratio (x) = 0.06165 0.31478
# Poissons Ratio (y) = 0.37615 -0.02671
# Poissons Ratio (z) = 0.46701 -0.00649
#
# Static dielectric constant tensor:
#      x y z
#    x 2.026360 0.000000 0.018180 
#    y 0.000000 2.226990 0.000000 
#    z 0.018180 0.000000 2.005450 
# 
# From -- ./inp_files/52480.got.cif
#   From: 2010.05.17/outbox.cif.g08.bks.cpg/sg5_27_cif.got.tgz:52480.got - 2010.06.03 18:56:24.
