data_PCOD9121043
_publ_section_title
;
Structure prediction by ZEFSAII (Michael W. Deem and Ramdas Pophale) SiO2 
 PCOD9121043
Probable space group: C 2
;
_chemical_formula_sum "Si O2"
_cell_formula_units_Z 24
_cell_length_a 20.247993
_cell_length_b 5.134814
_cell_length_c 14.151222
_cell_angle_alpha 90.000000
_cell_angle_beta 38.955012
_cell_angle_gamma 90.000000
_cell_volume 925.019748
_symmetry_space_group_name_H-M "C 2"
_symmetry_group_IT_number 5
_symmetry_cell_setting 'monoclinic'
loop_
_space_group_symop_operation_xyz
x,y,z
-x,y,-z
1/2+x,1/2+y,z
1/2-x,1/2+y,-z
loop_
_atom_site_type_symbol
_atom_site_label
_atom_site_fract_x
_atom_site_fract_y
_atom_site_fract_z
Si Si1 0.938570 0.694040 0.390795
Si Si2 0.223603 0.231569 0.218723
Si Si3 0.899636 0.978796 0.928363
Si Si4 0.239202 0.246148 0.703338
Si Si5 0.000000 0.767227 0.000000
Si Si6 0.500000 0.851204 0.500000
Si Si7 0.435149 0.868818 0.229434
O O1 0.839978 0.862190 0.535158
O O2 0.887226 0.486823 0.376229
O O3 0.027282 0.834721 0.229610
O O4 0.984468 0.542222 0.428306
O O5 0.226997 0.475745 0.287036
O O6 0.098921 0.179146 0.354799
O O7 0.277596 0.966535 0.196705
O O8 0.282986 0.354622 0.060507
O O9 0.929973 0.928750 0.005423
O O10 0.949565 0.267115 0.867881
O O11 0.145878 0.181682 0.733624
O O12 0.055420 0.583740 0.862281
#
# Coordination Sequence:
#
# PCOD9121043 Si02
#       7
#     4   4   4   4   2   2   4
#     4  10  27  44  70 102 146 188 253 299 369 430
#     4  11  25  48  77 102 146 197 247 301 374 434
#     4  11  23  41  69 110 139 196 236 306 366 445
#     4  11  25  45  73 109 147 192 234 305 378 452
#     4  10  18  38  64 102 150 170 226 294 366 448
#     4  10  26  56  68 100 142 202 250 316 352 440
#     4  11  23  39  71 109 147 185 239 302 375 452
#
# _framework density 25.945391999999998
#
# number of rings (size 3 to 8) (size 9 to 14) (size 15 to 20)
#    0.000    1.333    1.667    2.500   11.667    2.667 
#    3.000    0.000    0.000    0.000    0.000    0.000 
#    0.000    0.000    0.000    0.000    0.000    0.000 
#
# Total GULP energy -66919.740241 kJ/mol
# GULP energy per Si atom -5576.645020 kJ/mol
# Density = 2.588634 g / cm^3
# Si number density = 25.945392 Si / 1000 Ang^3
#
#
#
# Elastic Constant Matrix: (Units=GPa)
#
#
# Indices 1 2 3 4 5 6 
#
# 1 51.4512 -0.3258 7.9363 0.0086 16.4973 0.0549
# 2 -0.3258 69.5988 -9.8567 0.0248 7.7443 0.1255
# 3 7.9363 -9.8567 154.7882 0.0321 -10.8220 0.0178
# 4 0.0086 0.0248 0.0321 27.4372 0.0035 2.8588
# 5 16.4973 7.7443 -10.8220 0.0035 53.3620 -0.0126
# 6 0.0549 0.1255 0.0178 2.8588 -0.0126 25.8301
#
#
#
# Elastic Compliance Matrix: (Units=1/GPa)
#
#
# Indices 1 2 3 4 5 6 
#
# 1 0.022002 0.000682 -0.001590 0.000001 -0.007223 -0.000053
# 2 0.000682 0.014722 0.000749 -0.000006 -0.002195 -0.000074
# 3 -0.001590 0.000749 0.006712 -0.000008 0.001744 -0.000003
# 4 0.000001 -0.000006 -0.000008 0.036872 -0.000004 -0.004081
# 5 -0.007223 -0.002195 0.001744 -0.000004 0.021645 0.000036
# 6 -0.000053 -0.000074 -0.000003 -0.004081 0.000036 0.039167
#
#
# Mechanical properties :
#
#
# Convention : Reuss Voigt Hill
#
# Bulk Modulus (GPa) = 23.19271 30.14954 26.67112
# Shear Modulus (GPa) = 32.09052 39.86481 35.97767
#
# Velocity S-wave (km/s) = 3.52070 3.92406 3.72784
# Velocity P-wave (km/s) = 5.04832 5.67244 5.36946
#
# Compressibility (1/GPa) = 0.04311701
#
# Stress axis : x y z
#
# Youngs Moduli (GPa) = 45.45137 67.92669 148.99651
#
# Poissons Ratio (x) = -0.04631 0.23685
# Poissons Ratio (y) = -0.03098 -0.11160
# Poissons Ratio (z) = 0.07225 -0.05088
#
# Static dielectric constant tensor:
#      x y z
#    x 2.276470 -0.000060 -0.332780 
#    y -0.000060 2.083810 0.000050 
#    z -0.332780 0.000050 2.326500 
# 
# From -- ./inp_files/56481.got.cif
#   From: 2010.05.17/outbox.cif.g08.bks.cpg/sg5_29_cif.got.tgz:56481.got - 2010.06.03 18:56:24.
