data_PCOD9121265
_publ_section_title
;
Structure prediction by ZEFSAII (Michael W. Deem and Ramdas Pophale) SiO2 
 PCOD9121265
Probable space group: C 2
;
_chemical_formula_sum "Si O2"
_cell_formula_units_Z 24
_cell_length_a 22.230704
_cell_length_b 5.579346
_cell_length_c 20.443307
_cell_angle_alpha 90.000000
_cell_angle_beta 20.404642
_cell_angle_gamma 90.000000
_cell_volume 884.045909
_symmetry_space_group_name_H-M "C 2"
_symmetry_group_IT_number 5
_symmetry_cell_setting 'monoclinic'
loop_
_space_group_symop_operation_xyz
x,y,z
-x,y,-z
1/2+x,1/2+y,z
1/2-x,1/2+y,-z
loop_
_atom_site_type_symbol
_atom_site_label
_atom_site_fract_x
_atom_site_fract_y
_atom_site_fract_z
Si Si1 0.360105 0.094560 0.989958
Si Si2 0.867390 0.780392 0.451922
Si Si3 0.772030 0.780337 0.395363
Si Si4 0.291982 0.558561 0.203893
Si Si5 0.746838 0.096643 0.093082
Si Si6 0.209338 0.557271 0.793487
O O1 0.551347 0.177011 0.813457
O O2 0.289238 0.328538 0.024580
O O3 0.258132 0.061944 0.161713
O O4 0.366395 0.827158 0.953788
O O5 0.807613 0.789688 0.437226
O O6 0.758354 0.556661 0.592775
O O7 0.059032 0.679677 0.263681
O O8 0.857994 0.058143 0.483903
O O9 0.261643 0.564338 0.156661
O O10 0.222249 0.308611 0.302183
O O11 0.220240 0.807384 0.304315
O O12 0.500000 0.555369 0.000000
O O13 0.000000 0.548536 0.000000
#
# Coordination Sequence:
#
# PCOD9121265 Si02
#       6
#     4   4   4   4   4   4
#     4  10  19  31  51  78  98 125 169 212 246 286
#     4  10  21  36  51  70 102 139 167 199 251 303
#     4  10  21  36  51  70 102 139 167 199 251 303
#     4   8  14  25  42  68  94 118 150 197 243 283
#     4  10  19  31  51  78  98 125 169 212 246 286
#     4   8  14  25  42  68  94 118 150 197 243 283
#
# _framework density 27.147911000000001
#
# number of rings (size 3 to 8) (size 9 to 14) (size 15 to 20)
#    0.000    2.667    0.000    2.000    0.000    1.333 
#    0.000    0.000    0.000    0.000    0.000  112.000 
#    0.000    0.000    0.000    0.000    0.000    0.000 
#
# Total GULP energy -67050.163782 kJ/mol
# GULP energy per Si atom -5587.513649 kJ/mol
# Density = 2.708612 g / cm^3
# Si number density = 27.147911 Si / 1000 Ang^3
#
#
#
# Elastic Constant Matrix: (Units=GPa)
#
#
# Indices 1 2 3 4 5 6 
#
# 1 92.4729 39.4956 -8.8152 0.0026 8.1264 0.0000
# 2 39.4956 308.5284 25.2265 -0.0093 5.5017 0.0185
# 3 -8.8152 25.2265 39.2335 -0.0098 -15.0314 0.0085
# 4 0.0026 -0.0093 -0.0098 43.4683 0.0026 4.4241
# 5 8.1264 5.5017 -15.0314 0.0026 26.0821 0.0001
# 6 0.0000 0.0185 0.0085 4.4241 0.0001 45.6496
#
#
#
# Elastic Compliance Matrix: (Units=1/GPa)
#
#
# Indices 1 2 3 4 5 6 
#
# 1 0.012017 -0.001780 0.003277 0.000000 -0.001480 0.000000
# 2 -0.001780 0.003822 -0.003791 0.000000 -0.002437 -0.000001
# 3 0.003277 -0.003791 0.036676 0.000007 0.020915 -0.000006
# 4 0.000000 0.000000 0.000007 0.023234 0.000002 -0.002252
# 5 -0.001480 -0.002437 0.020915 0.000002 0.051369 -0.000003
# 6 0.000000 -0.000001 -0.000006 -0.002252 -0.000003 0.022124
#
#
# Mechanical properties :
#
#
# Convention : Reuss Voigt Hill
#
# Bulk Modulus (GPa) = 20.86487 61.33873 41.10180
# Shear Modulus (GPa) = 29.44543 48.66189 39.05366
#
# Velocity S-wave (km/s) = 3.29694 4.23835 3.79694
# Velocity P-wave (km/s) = 4.71120 6.82604 5.86474
#
# Compressibility (1/GPa) = 0.04792745
#
# Stress axis : x y z
#
# Youngs Moduli (GPa) = 83.21798 261.61027 27.26603
#
# Poissons Ratio (x) = 0.46563 -0.08936
# Poissons Ratio (y) = 0.14812 0.10337
# Poissons Ratio (z) = -0.27274 0.99183
#
# Static dielectric constant tensor:
#      x y z
#    x 1.334680 0.000080 -0.126250 
#    y 0.000080 2.227650 0.000030 
#    z -0.126250 0.000030 2.033530 
# 
# From -- ./inp_files/31283.got.cif
#   From: 2010.05.17/outbox.cif.g08.bks.cpg/sg5_16_cif.got.tgz:31283.got - 2010.06.03 18:56:24.
