data_PCOD9121976
_publ_section_title
;
Structure prediction by ZEFSAII (Michael W. Deem and Ramdas Pophale) SiO2 
 PCOD9121976
Probable space group: C 2
;
_chemical_formula_sum "Si O2"
_cell_formula_units_Z 32
_cell_length_a 17.001926
_cell_length_b 11.951068
_cell_length_c 17.465169
_cell_angle_alpha 90.000000
_cell_angle_beta 155.483296
_cell_angle_gamma 90.000000
_cell_volume 1472.591578
_symmetry_space_group_name_H-M "C 2"
_symmetry_group_IT_number 5
_symmetry_cell_setting 'monoclinic'
loop_
_space_group_symop_operation_xyz
x,y,z
-x,y,-z
1/2+x,1/2+y,z
1/2-x,1/2+y,-z
loop_
_atom_site_type_symbol
_atom_site_label
_atom_site_fract_x
_atom_site_fract_y
_atom_site_fract_z
Si Si1 0.421353 0.217660 0.041303
Si Si2 0.911056 0.468013 0.056750
Si Si3 0.522940 0.815784 0.686841
Si Si4 0.207807 0.341292 0.650988
Si Si5 0.805608 0.540902 0.133355
Si Si6 0.684006 0.790467 0.341442
Si Si7 0.082957 0.786501 0.778914
Si Si8 0.096210 0.072228 0.167764
O O1 0.599124 0.277363 0.159392
O O2 0.422540 0.261697 0.133325
O O3 0.431557 0.085580 0.033187
O O4 0.210776 0.251637 0.829468
O O5 0.877431 0.516061 0.112231
O O6 0.102787 0.395572 0.222327
O O7 0.733665 0.383191 0.889950
O O8 0.331974 0.802206 0.471250
O O9 0.472973 0.781985 0.729486
O O10 0.581646 0.944682 0.723319
O O11 0.255108 0.471631 0.705276
O O12 0.000000 0.315103 0.500000
O O13 0.848722 0.667123 0.194232
O O14 0.581097 0.525229 0.939961
O O15 0.677641 0.680591 0.282989
O O16 0.882182 0.810068 0.560090
O O17 0.000000 0.096643 0.000000
#
# Coordination Sequence:
#
# PCOD9121976 Si02
#       8
#     4   4   4   4   4   4   4   4
#     4  11  22  39  63  97 137 179 219 279 338 400
#     4  10  21  38  63  97 130 173 224 276 345 386
#     4  11  21  40  65  99 133 177 224 280 338 394
#     4  12  26  42  68 100 136 179 226 276 343 414
#     4  10  19  37  63  91 134 172 214 271 344 394
#     4  11  22  38  67 101 132 176 230 282 332 399
#     4  11  19  38  63  99 135 170 219 289 336 396
#     4  12  24  43  70  97 142 185 219 284 350 405
#
# _framework density 21.730397
#
# number of rings (size 3 to 8) (size 9 to 14) (size 15 to 20)
#    0.000    1.000    6.250    2.250    0.000    1.000 
#    2.250    0.000    2.750    0.750    0.000    0.000 
#    0.000    0.000    0.000    0.000    0.000    0.000 
#
# Total GULP energy -89214.062602 kJ/mol
# GULP energy per Si atom -5575.878913 kJ/mol
# Density = 2.168094 g / cm^3
# Si number density = 21.730397 Si / 1000 Ang^3
#
#
#
# Elastic Constant Matrix: (Units=GPa)
#
#
# Indices 1 2 3 4 5 6 
#
# 1 30.5671 36.4145 13.5113 0.0008 -4.1622 -0.0006
# 2 36.4145 169.8163 71.4505 0.0031 9.7951 0.0009
# 3 13.5113 71.4505 161.4145 0.0031 0.9830 0.0005
# 4 0.0008 0.0031 0.0031 20.6455 0.0008 5.8464
# 5 -4.1622 9.7951 0.9830 0.0008 30.6756 0.0001
# 6 -0.0006 0.0009 0.0005 5.8464 0.0001 6.1753
#
#
#
# Elastic Compliance Matrix: (Units=1/GPa)
#
#
# Indices 1 2 3 4 5 6 
#
# 1 0.046708 -0.010951 0.000878 -0.000003 0.009806 0.000009
# 2 -0.010951 0.009957 -0.003463 0.000000 -0.004554 -0.000002
# 3 0.000878 -0.003463 0.007649 -0.000001 0.000980 0.000001
# 4 -0.000003 0.000000 -0.000001 0.066180 -0.000002 -0.062655
# 5 0.009806 -0.004554 0.000980 -0.000002 0.035352 0.000003
# 6 0.000009 -0.000002 0.000001 -0.062655 0.000003 0.221255
#
#
# Mechanical properties :
#
#
# Convention : Reuss Voigt Hill
#
# Bulk Modulus (GPa) = 26.85180 67.17226 47.01203
# Shear Modulus (GPa) = 11.72099 27.52739 19.62419
#
# Velocity S-wave (km/s) = 2.32498 3.56303 3.00838
# Velocity P-wave (km/s) = 4.42617 6.92139 5.80933
#
# Compressibility (1/GPa) = 0.03724145
#
# Stress axis : x y z
#
# Youngs Moduli (GPa) = 21.40979 100.43517 130.74182
#
# Poissons Ratio (x) = 1.09984 -0.11479
# Poissons Ratio (y) = 0.23445 0.45275
# Poissons Ratio (z) = -0.01880 0.34780
#
# Static dielectric constant tensor:
#      x y z
#    x 1.912930 0.000000 -0.069080 
#    y 0.000000 1.821940 0.000000 
#    z -0.069080 0.000000 1.810220 
# 
# From -- ./inp_files/67139.got.cif
#   From: 2010.05.17/outbox.cif.g08.bks.cpg/sg5_34_cif.got.tgz:67139.got - 2010.06.03 18:56:24.
