data_PCOD9121263
_publ_section_title
;
Structure prediction by ZEFSAII (Michael W. Deem and Ramdas Pophale) SiO2 
 PCOD9121263
Probable space group: C 2
;
_chemical_formula_sum "Si O2"
_cell_formula_units_Z 32
_cell_length_a 20.232274
_cell_length_b 12.240174
_cell_length_c 19.409804
_cell_angle_alpha 90.000000
_cell_angle_beta 159.014523
_cell_angle_gamma 90.000000
_cell_volume 1721.455173
_symmetry_space_group_name_H-M "C 2"
_symmetry_group_IT_number 5
_symmetry_cell_setting 'monoclinic'
loop_
_space_group_symop_operation_xyz
x,y,z
-x,y,-z
1/2+x,1/2+y,z
1/2-x,1/2+y,-z
loop_
_atom_site_type_symbol
_atom_site_label
_atom_site_fract_x
_atom_site_fract_y
_atom_site_fract_z
Si Si1 0.638307 0.125000 0.238387
Si Si2 0.666193 0.980189 0.016807
Si Si3 0.492500 0.515822 0.415035
Si Si4 0.057444 0.769941 0.293474
Si Si5 0.253538 0.616611 0.963961
Si Si6 0.181018 0.246754 0.711762
Si Si7 0.467586 0.800794 0.738646
Si Si8 0.241141 0.890169 0.084716
O O1 0.616574 0.193847 0.286588
O O2 0.692670 0.201184 0.227167
O O3 0.802869 0.038926 0.410486
O O4 0.453304 0.055675 0.048476
O O5 0.539900 0.882927 0.867346
O O6 0.857150 0.945945 0.237046
O O7 0.719104 0.053402 0.002464
O O8 0.500000 0.473612 0.500000
O O9 0.403350 0.638394 0.333359
O O10 0.248677 0.803402 0.514930
O O11 0.916564 0.701708 0.204459
O O12 0.929561 0.860959 0.132211
O O13 0.443513 0.683460 0.156256
O O14 0.249115 0.521068 0.903145
O O15 0.272914 0.325413 0.857162
O O16 0.000000 0.300445 0.500000
O O17 0.575842 0.842088 0.775111
#
# Coordination Sequence:
#
# PCOD9121263 Si02
#       8
#     4   4   4   4   4   4   4   4
#     4   9  18  30  49  76 104 131 168 210 257 312
#     4  10  19  31  51  75 103 138 170 213 262 304
#     4   9  18  30  47  73 103 131 162 208 260 307
#     4  10  19  32  52  75 103 139 170 210 260 306
#     4   9  20  34  49  72 108 139 172 213 257 312
#     4   9  17  31  51  75 104 132 163 212 264 309
#     4  10  20  34  50  74 106 138 177 214 255 313
#     4  10  20  33  51  77 106 137 171 214 264 311
#
# _framework density 18.588923999999999
#
# number of rings (size 3 to 8) (size 9 to 14) (size 15 to 20)
#    0.000    2.750    0.000    4.500    0.000   10.500 
#    0.000    0.000    0.000    0.750    0.000    7.000 
#    0.000    0.000    0.000    0.000    0.000    0.000 
#
# Total GULP energy -89213.108522 kJ/mol
# GULP energy per Si atom -5575.819283 kJ/mol
# Density = 1.854662 g / cm^3
# Si number density = 18.588924 Si / 1000 Ang^3
#
#
#
# Elastic Constant Matrix: (Units=GPa)
#
#
# Indices 1 2 3 4 5 6 
#
# 1 45.8855 24.9932 18.0194 -0.0017 -0.0272 0.0000
# 2 24.9932 62.7692 38.0685 -0.0113 -11.5062 -0.0022
# 3 18.0194 38.0685 158.5185 -0.0085 -6.8368 -0.0019
# 4 -0.0017 -0.0113 -0.0085 16.0275 -0.0064 -7.8638
# 5 -0.0272 -11.5062 -6.8368 -0.0064 25.1113 -0.0010
# 6 0.0000 -0.0022 -0.0019 -7.8638 -0.0010 20.8399
#
#
#
# Elastic Compliance Matrix: (Units=1/GPa)
#
#
# Indices 1 2 3 4 5 6 
#
# 1 0.028594 -0.012060 -0.000598 -0.000011 -0.005658 -0.000006
# 2 -0.012060 0.025205 -0.004234 0.000024 0.010383 0.000012
# 3 -0.000598 -0.004234 0.007396 0.000001 0.000073 0.000001
# 4 -0.000011 0.000024 0.000001 0.076569 0.000032 0.028893
# 5 -0.005658 0.010383 0.000073 0.000032 0.044594 0.000015
# 6 -0.000006 0.000012 0.000001 0.028893 0.000015 0.058887
#
#
# Mechanical properties :
#
#
# Convention : Reuss Voigt Hill
#
# Bulk Modulus (GPa) = 36.48240 47.70391 42.09316
# Shear Modulus (GPa) = 17.59536 24.80187 21.19861
#
# Velocity S-wave (km/s) = 3.07994 3.65667 3.38063
# Velocity P-wave (km/s) = 5.68477 6.59898 6.15886
#
# Compressibility (1/GPa) = 0.02741048
#
# Stress axis : x y z
#
# Youngs Moduli (GPa) = 34.97276 39.67541 135.20053
#
# Poissons Ratio (x) = 0.47847 0.08088
# Poissons Ratio (y) = 0.42176 0.57247
# Poissons Ratio (z) = 0.02092 0.16799
#
# Static dielectric constant tensor:
#      x y z
#    x 1.665570 0.000000 0.001650 
#    y 0.000000 1.665350 0.000000 
#    z 0.001650 0.000000 1.687150 
# 
# From -- ./inp_files/67137.got.cif
#   From: 2010.05.17/outbox.cif.g08.bks.cpg/sg5_34_cif.got.tgz:67137.got - 2010.06.03 18:56:24.
