data_PCOD9121843
_publ_section_title
;
Structure prediction by ZEFSAII (Michael W. Deem and Ramdas Pophale) SiO2 
 PCOD9121843
Probable space group: C 2
;
_chemical_formula_sum "Si O2"
_cell_formula_units_Z 32
_cell_length_a 12.579968
_cell_length_b 14.929035
_cell_length_c 17.977331
_cell_angle_alpha 90.000000
_cell_angle_beta 26.224674
_cell_angle_gamma 90.000000
_cell_volume 1491.945066
_symmetry_space_group_name_H-M "C 2"
_symmetry_group_IT_number 5
_symmetry_cell_setting 'monoclinic'
loop_
_space_group_symop_operation_xyz
x,y,z
-x,y,-z
1/2+x,1/2+y,z
1/2-x,1/2+y,-z
loop_
_atom_site_type_symbol
_atom_site_label
_atom_site_fract_x
_atom_site_fract_y
_atom_site_fract_z
Si Si1 0.228422 0.215940 0.800675
Si Si2 0.369010 0.524737 0.160911
Si Si3 0.228239 0.143558 0.300750
Si Si4 0.631013 0.834817 0.339079
Si Si5 0.175795 0.843220 0.530018
Si Si6 0.824277 0.516311 0.969933
Si Si7 0.353009 0.491227 0.754379
Si Si8 0.647113 0.868289 0.745574
O O1 0.293822 0.113502 0.742681
O O2 0.464515 0.271150 0.678199
O O3 0.136235 0.270015 0.786406
O O4 0.000000 0.219071 0.000000
O O5 0.250083 0.429768 0.249965
O O6 0.572307 0.545316 0.094445
O O7 0.500000 0.517744 0.000000
O O8 0.293604 0.246001 0.242816
O O9 0.000000 0.140383 0.500000
O O10 0.136046 0.089507 0.286479
O O11 0.464387 0.088368 0.178229
O O12 0.500000 0.841816 0.500000
O O13 0.427844 0.814260 0.405425
O O14 0.208163 0.861780 0.421801
O O15 0.097437 0.937363 0.616534
O O16 0.791819 0.497723 0.078202
O O17 0.902723 0.422169 0.883384
O O18 0.250083 0.429760 0.749960
#
# Coordination Sequence:
#
# PCOD9121843 Si02
#       8
#     4   4   4   4   4   4   4   4
#     4  10  22  39  62  91 121 158 206 252 304 370
#     4  11  26  43  61  88 123 164 209 253 306 371
#     4  10  22  39  62  91 121 158 206 252 304 370
#     4  11  26  43  61  88 123 164 209 253 306 371
#     4  11  22  39  64  91 124 163 200 257 312 352
#     4  11  22  39  64  91 124 163 200 257 312 352
#     4  10  19  36  63  92 121 155 201 251 304 365
#     4  10  19  36  63  92 121 155 201 251 304 365
#
# _framework density 21.448512999999998
#
# number of rings (size 3 to 8) (size 9 to 14) (size 15 to 20)
#    0.000    1.500    0.000    7.500    0.000    9.000 
#    0.000    0.000    0.000    0.000    0.000    0.000 
#    0.000    0.000    0.000    0.000    0.000    0.000 
#
# Total GULP energy -89258.250951 kJ/mol
# GULP energy per Si atom -5578.640684 kJ/mol
# Density = 2.139969 g / cm^3
# Si number density = 21.448513 Si / 1000 Ang^3
#
#
#
# Elastic Constant Matrix: (Units=GPa)
#
#
# Indices 1 2 3 4 5 6 
#
# 1 78.6556 17.2204 33.9979 0.1349 6.7640 0.1098
# 2 17.2204 181.3634 50.2923 0.0053 8.1789 -0.0227
# 3 33.9979 50.2923 85.5580 0.3502 17.4094 0.1940
# 4 0.1349 0.0053 0.3502 26.6929 -0.1488 -7.1732
# 5 6.7640 8.1789 17.4094 -0.1488 38.5850 -0.1191
# 6 0.1098 -0.0227 0.1940 -7.1732 -0.1191 12.0137
#
#
#
# Elastic Compliance Matrix: (Units=1/GPa)
#
#
# Indices 1 2 3 4 5 6 
#
# 1 0.015362 0.000281 -0.006286 -0.000006 0.000084 -0.000041
# 2 0.000281 0.006598 -0.004070 0.000088 0.000389 0.000132
# 3 -0.006286 -0.004070 0.017818 -0.000375 -0.006078 -0.000523
# 4 -0.000006 0.000088 -0.000375 0.044635 0.000406 0.026661
# 5 0.000084 0.000389 -0.006078 0.000406 0.028565 0.000624
# 6 -0.000041 0.000132 -0.000523 0.026661 0.000624 0.099173
#
#
# Mechanical properties :
#
#
# Convention : Reuss Voigt Hill
#
# Bulk Modulus (GPa) = 50.95004 60.95536 55.95270
# Shear Modulus (GPa) = 20.93409 31.72941 26.33175
#
# Velocity S-wave (km/s) = 3.12751 3.85038 3.50762
# Velocity P-wave (km/s) = 6.07025 6.94610 6.52289
#
# Compressibility (1/GPa) = 0.01962707
#
# Stress axis : x y z
#
# Youngs Moduli (GPa) = 65.09458 151.55654 56.12364
#
# Poissons Ratio (x) = -0.04256 0.35282
# Poissons Ratio (y) = -0.01828 0.22842
# Poissons Ratio (z) = 0.40921 0.61683
#
# Static dielectric constant tensor:
#      x y z
#    x 2.256770 0.000990 0.892820 
#    y 0.000990 1.810870 0.002550 
#    z 0.892820 0.002550 4.346080 
# 
# From -- ./inp_files/66251.got.cif
#   From: 2010.05.17/outbox.cif.g08.bks.cpg/sg5_34_cif.got.tgz:66251.got - 2010.06.03 18:56:24.
