data_PCOD9121038
_publ_section_title
;
Structure prediction by ZEFSAII (Michael W. Deem and Ramdas Pophale) SiO2 
 PCOD9121038
Probable space group: C 2
;
_chemical_formula_sum "Si O2"
_cell_formula_units_Z 28
_cell_length_a 9.744108
_cell_length_b 11.732709
_cell_length_c 18.230254
_cell_angle_alpha 90.000000
_cell_angle_beta 32.792586
_cell_angle_gamma 90.000000
_cell_volume 1128.785215
_symmetry_space_group_name_H-M "C 2"
_symmetry_group_IT_number 5
_symmetry_cell_setting 'monoclinic'
loop_
_space_group_symop_operation_xyz
x,y,z
-x,y,-z
1/2+x,1/2+y,z
1/2-x,1/2+y,-z
loop_
_atom_site_type_symbol
_atom_site_label
_atom_site_fract_x
_atom_site_fract_y
_atom_site_fract_z
Si Si1 0.434294 0.563590 0.742132
Si Si2 0.739700 0.744775 0.068493
Si Si3 0.997049 0.843264 0.653731
Si Si4 0.563488 0.872940 0.365636
Si Si5 0.902597 0.432984 0.273912
Si Si6 0.034029 0.622341 0.564202
Si Si7 0.450337 0.167625 0.193462
O O1 0.423821 0.646872 0.816546
O O2 0.417239 0.426848 0.755270
O O3 0.666746 0.590708 0.580175
O O4 0.182437 0.598620 0.812850
O O5 0.592939 0.864022 0.135721
O O6 0.000000 0.760581 0.000000
O O7 0.796025 0.709642 0.959659
O O8 0.871394 0.903940 0.638151
O O9 0.300197 0.841480 0.521511
O O10 0.942152 0.710830 0.665989
O O11 0.478270 0.881981 0.318708
O O12 0.771826 0.777202 0.285132
O O13 0.616079 0.003062 0.365900
O O14 0.949836 0.568497 0.254019
O O15 0.000000 0.679134 0.500000
#
# Coordination Sequence:
#
# PCOD9121038 Si02
#       7
#     4   4   4   4   4   4   4
#     4   9  18  35  62  90 121 161 209 265 319 383
#     4  10  18  38  63  86 127 174 217 273 328 384
#     4  10  20  36  64  93 122 161 217 258 325 408
#     4  11  21  40  61  93 132 165 210 275 325 394
#     4  11  21  39  66  93 121 176 219 266 335 395
#     4  11  21  36  57  91 128 172 205 257 339 400
#     4  10  21  39  63  95 123 166 223 265 328 388
#
# _framework density 24.805429
#
# number of rings (size 3 to 8) (size 9 to 14) (size 15 to 20)
#    0.000    1.714    4.286    2.143    0.000    0.000 
#   10.286    0.000    0.000    0.000    0.000    0.000 
#    0.000    0.000    0.000    0.000    0.000    0.000 
#
# Total GULP energy -78098.203763 kJ/mol
# GULP energy per Si atom -5578.443126 kJ/mol
# Density = 2.474897 g / cm^3
# Si number density = 24.805429 Si / 1000 Ang^3
#
#
#
# Elastic Constant Matrix: (Units=GPa)
#
#
# Indices 1 2 3 4 5 6 
#
# 1 57.6953 49.3346 11.1580 -0.0007 -2.1936 0.0004
# 2 49.3346 223.0015 60.1645 -0.0001 5.4731 0.0001
# 3 11.1580 60.1645 67.8231 -0.0025 -5.4031 0.0025
# 4 -0.0007 -0.0001 -0.0025 32.8288 0.0012 -13.0803
# 5 -2.1936 5.4731 -5.4031 0.0012 17.2582 -0.0008
# 6 0.0004 0.0001 0.0025 -13.0803 -0.0008 31.6177
#
#
#
# Elastic Compliance Matrix: (Units=1/GPa)
#
#
# Indices 1 2 3 4 5 6 
#
# 1 0.021810 -0.005371 0.001572 0.000000 0.004968 0.000000
# 2 -0.005371 0.007444 -0.006115 0.000000 -0.004958 0.000000
# 3 0.001572 -0.006115 0.020594 0.000001 0.008586 -0.000001
# 4 0.000000 0.000000 0.000001 0.036473 -0.000002 0.015089
# 5 0.004968 -0.004958 0.008586 -0.000002 0.062835 0.000000
# 6 0.000000 0.000000 -0.000001 0.015089 0.000000 0.037870
#
#
# Mechanical properties :
#
#
# Convention : Reuss Voigt Hill
#
# Bulk Modulus (GPa) = 33.31034 65.53711 49.42372
# Shear Modulus (GPa) = 23.05632 31.53179 27.29405
#
# Velocity S-wave (km/s) = 3.05206 3.56921 3.32071
# Velocity P-wave (km/s) = 5.08703 6.59268 5.88818
#
# Compressibility (1/GPa) = 0.03002071
#
# Stress axis : x y z
#
# Youngs Moduli (GPa) = 45.85043 134.33812 48.55834
#
# Poissons Ratio (x) = 0.72155 -0.07635
# Poissons Ratio (y) = 0.24627 0.29692
# Poissons Ratio (z) = -0.07209 0.82143
#
# Static dielectric constant tensor:
#      x y z
#    x 2.129200 0.000000 0.033110 
#    y 0.000000 2.040190 0.000000 
#    z 0.033110 0.000000 1.993260 
# 
# From -- ./inp_files/65284.got.cif
#   From: 2010.05.17/outbox.cif.g08.bks.cpg/sg5_33_cif.got.tgz:65284.got - 2010.06.03 18:56:24.
