data_PCOD9121218
_publ_section_title
;
Structure prediction by ZEFSAII (Michael W. Deem and Ramdas Pophale) SiO2 
 PCOD9121218
Probable space group: C 2
;
_chemical_formula_sum "Si O2"
_cell_formula_units_Z 24
_cell_length_a 12.296065
_cell_length_b 6.901752
_cell_length_c 25.372025
_cell_angle_alpha 90.000000
_cell_angle_beta 25.766837
_cell_angle_gamma 90.000000
_cell_volume 936.009336
_symmetry_space_group_name_H-M "C 2"
_symmetry_group_IT_number 5
_symmetry_cell_setting 'monoclinic'
loop_
_space_group_symop_operation_xyz
x,y,z
-x,y,-z
1/2+x,1/2+y,z
1/2-x,1/2+y,-z
loop_
_atom_site_type_symbol
_atom_site_label
_atom_site_fract_x
_atom_site_fract_y
_atom_site_fract_z
Si Si1 0.483869 0.759120 0.229300
Si Si2 0.734462 0.520719 0.472221
Si Si3 0.000000 0.711351 0.500000
Si Si4 0.108833 0.408494 0.849089
Si Si5 0.564982 0.197498 0.706797
Si Si6 0.500000 0.032066 0.000000
Si Si7 0.170758 0.254399 0.300693
O O1 0.265194 0.644655 0.358018
O O2 0.438681 0.802866 0.186328
O O3 0.491331 0.971134 0.254163
O O4 0.752219 0.659534 0.117297
O O5 0.588693 0.344790 0.509628
O O6 0.738856 0.688662 0.426769
O O7 0.557370 0.598679 0.594541
O O8 0.016025 0.450990 0.359344
O O9 0.337054 0.306400 0.779830
O O10 0.924132 0.412001 0.980178
O O11 0.151525 0.636233 0.816063
O O12 0.677595 0.272187 0.711741
#
# Coordination Sequence:
#
# PCOD9121218 Si02
#       7
#     4   4   2   4   4   2   4
#     4  10  24  46  73 100 141 182 232 294 356 413
#     4  11  19  37  65  94 140 174 218 284 351 407
#     4  10  18  44  70  98 136 176 218 288 350 408
#     4  11  24  44  69  97 138 184 239 286 346 420
#     4  10  22  42  64  98 134 178 231 287 343 415
#     4  12  28  46  68 106 140 186 242 286 346 432
#     4  11  22  39  62  98 137 180 226 283 345 414
#
# _framework density 25.640771000000001
#
# number of rings (size 3 to 8) (size 9 to 14) (size 15 to 20)
#    0.000    1.333    5.000    3.000    0.000    6.000 
#    3.000    0.000    0.000    0.000    0.000    0.000 
#    0.000    0.000    0.000    0.000    0.000    0.000 
#
# Total GULP energy -66933.301576 kJ/mol
# GULP energy per Si atom -5577.775131 kJ/mol
# Density = 2.558241 g / cm^3
# Si number density = 25.640771 Si / 1000 Ang^3
#
#
#
# Elastic Constant Matrix: (Units=GPa)
#
#
# Indices 1 2 3 4 5 6 
#
# 1 168.4411 34.6239 35.2021 0.0003 14.8150 0.0016
# 2 34.6239 61.5849 16.9471 0.0009 -2.4106 0.0026
# 3 35.2021 16.9471 112.0275 0.0014 6.7119 0.0006
# 4 0.0003 0.0009 0.0014 -17.5197 0.0000 -8.4062
# 5 14.8150 -2.4106 6.7119 0.0000 48.7200 0.0006
# 6 0.0016 0.0026 0.0006 -8.4062 0.0006 36.7765
#
#
#
# Elastic Compliance Matrix: (Units=1/GPa)
#
#
# Indices 1 2 3 4 5 6 
#
# 1 0.007219 -0.003709 -0.001578 0.000000 -0.002161 0.000000
# 2 -0.003709 0.018919 -0.001835 0.000001 0.002317 -0.000001
# 3 -0.001578 -0.001835 0.009757 0.000001 -0.000955 0.000000
# 4 0.000000 0.000001 0.000001 -0.051437 0.000000 -0.011757
# 5 -0.002161 0.002317 -0.000955 0.000000 0.021429 0.000000
# 6 0.000000 -0.000001 0.000000 -0.011757 0.000000 0.024504
#
#
# Mechanical properties :
#
#
# Convention : Reuss Voigt Hill
#
# Bulk Modulus (GPa) = 46.18828 57.28884 51.73856
# Shear Modulus (GPa) = 96.42944 30.61407 63.52176
#
# Velocity S-wave (km/s) = 6.13918 3.45912 4.98272
# Velocity P-wave (km/s) = 8.26471 6.19237 7.30242
#
# Compressibility (1/GPa) = 0.02165051
#
# Stress axis : x y z
#
# Youngs Moduli (GPa) = 138.52220 52.85761 102.49009
#
# Poissons Ratio (x) = 0.19605 0.16171
# Poissons Ratio (y) = 0.51379 0.18810
# Poissons Ratio (z) = 0.21857 0.09701
#
# Static dielectric constant tensor:
#      x y z
#    x 2.132310 0.000000 0.088900 
#    y 0.000000 2.140440 0.000000 
#    z 0.088900 0.000000 2.178250 
# 
# From -- ./inp_files/68258.got.cif
#   From: 2010.05.17/outbox.cif.g08.bks.cpg/sg5_35_cif.got.tgz:68258.got - 2010.06.03 18:56:24.
