data_PCOD9121945
_publ_section_title
;
Structure prediction by ZEFSAII (Michael W. Deem and Ramdas Pophale) SiO2 
 PCOD9121945
Probable space group: C 2
;
_chemical_formula_sum "Si O2"
_cell_formula_units_Z 18
_cell_length_a 18.495288
_cell_length_b 7.327383
_cell_length_c 15.517938
_cell_angle_alpha 90.000000
_cell_angle_beta 158.291684
_cell_angle_gamma 90.000000
_cell_volume 777.869497
_symmetry_space_group_name_H-M "C 2"
_symmetry_group_IT_number 5
_symmetry_cell_setting 'monoclinic'
loop_
_space_group_symop_operation_xyz
x,y,z
-x,y,-z
1/2+x,1/2+y,z
1/2-x,1/2+y,-z
loop_
_atom_site_type_symbol
_atom_site_label
_atom_site_fract_x
_atom_site_fract_y
_atom_site_fract_z
Si Si1 0.252266 0.470660 0.916277
Si Si2 0.946569 0.675074 0.686116
Si Si3 0.669261 0.196575 0.253356
Si Si4 0.074885 0.132058 0.174410
Si Si5 0.500000 0.757729 0.500000
O O1 0.075369 0.523753 0.781472
O O2 0.158083 0.377062 0.727415
O O3 0.400606 0.335783 0.127477
O O4 0.391149 0.632002 0.035599
O O5 0.862474 0.620659 0.686307
O O6 0.764914 0.723715 0.424498
O O7 0.640524 0.417737 0.234125
O O8 0.874621 0.156277 0.434325
O O9 0.500000 0.138912 0.000000
O O10 0.000000 0.200417 0.000000
#
# Coordination Sequence:
#
# PCOD9121945 Si02
#       5
#     4   4   4   4   2
#     4  11  23  37  67  95 126 166 212 261 314 371
#     4  11  23  37  64 100 128 161 214 264 313 369
#     4  10  20  37  61  95 122 167 213 257 299 376
#     4  10  19  37  61  92 125 164 213 258 305 372
#     4  12  18  40  68  94 116 174 226 246 298 392
#
# _framework density 23.140129000000002
#
# number of rings (size 3 to 8) (size 9 to 14) (size 15 to 20)
#    0.000    1.333    8.889    0.000    3.111    0.000 
#    0.000    0.000    0.000   32.000    0.000    0.000 
#    0.000    0.000    0.000    0.000    0.000    0.000 
#
# Total GULP energy -50331.953897 kJ/mol
# GULP energy per Si atom -5592.439322 kJ/mol
# Density = 2.308746 g / cm^3
# Si number density = 23.140129 Si / 1000 Ang^3
#
#
#
# Elastic Constant Matrix: (Units=GPa)
#
#
# Indices 1 2 3 4 5 6 
#
# 1 202.0881 26.6011 73.8372 0.0000 20.7955 0.0000
# 2 26.6011 43.1356 26.3318 0.0000 -5.5617 0.0000
# 3 73.8372 26.3318 208.1545 0.0000 -13.2600 0.0000
# 4 0.0000 0.0000 0.0000 5.8740 0.0000 11.0222
# 5 20.7955 -5.5617 -13.2600 0.0000 57.9043 0.0000
# 6 0.0000 0.0000 0.0000 11.0222 0.0000 25.1033
#
#
#
# Elastic Compliance Matrix: (Units=1/GPa)
#
#
# Indices 1 2 3 4 5 6 
#
# 1 0.006436 -0.003092 -0.002088 0.000000 -0.003087 0.000000
# 2 -0.003092 0.026776 -0.002086 0.000000 0.003205 0.000000
# 3 -0.002088 -0.002086 0.005930 0.000000 0.001908 0.000000
# 4 0.000000 0.000000 0.000000 0.966681 0.000000 -0.424445
# 5 -0.003087 0.003205 0.001908 0.000000 0.019123 0.000000
# 6 0.000000 0.000000 0.000000 -0.424445 0.000000 0.226198
#
#
# Mechanical properties :
#
#
# Convention : Reuss Voigt Hill
#
# Bulk Modulus (GPa) = 40.63543 78.54648 59.59095
# Shear Modulus (GPa) = 3.92501 39.55021 21.73761
#
# Velocity S-wave (km/s) = 1.30379 4.13869 3.06827
# Velocity P-wave (km/s) = 4.45704 7.54028 6.19359
#
# Compressibility (1/GPa) = 0.02460907
#
# Stress axis : x y z
#
# Youngs Moduli (GPa) = 155.37462 37.34643 168.62266
#
# Poissons Ratio (x) = 0.11548 0.35217
# Poissons Ratio (y) = 0.48043 0.35179
# Poissons Ratio (z) = 0.32450 0.07791
#
# Static dielectric constant tensor:
#      x y z
#    x 1.888620 0.000000 0.014270 
#    y 0.000000 1.925380 0.000000 
#    z 0.014270 0.000000 1.815130 
# 
# From -- ./inp_files/38569.got.cif
#   From: 2010.05.17/outbox.cif.g08.bks.cpg/sg5_20_cif.got.tgz:38569.got - 2010.06.03 18:56:24.
