data_PCOD9121178
_publ_section_title
;
Structure prediction by ZEFSAII (Michael W. Deem and Ramdas Pophale) SiO2 
 PCOD9121178
Probable space group: C 2
;
_chemical_formula_sum "Si O2"
_cell_formula_units_Z 24
_cell_length_a 6.227782
_cell_length_b 13.970757
_cell_length_c 12.086668
_cell_angle_alpha 90.000000
_cell_angle_beta 69.834123
_cell_angle_gamma 90.000000
_cell_volume 987.156611
_symmetry_space_group_name_H-M "C 2"
_symmetry_group_IT_number 5
_symmetry_cell_setting 'monoclinic'
loop_
_space_group_symop_operation_xyz
x,y,z
-x,y,-z
1/2+x,1/2+y,z
1/2-x,1/2+y,-z
loop_
_atom_site_type_symbol
_atom_site_label
_atom_site_fract_x
_atom_site_fract_y
_atom_site_fract_z
Si Si1 0.152369 0.897580 0.807281
Si Si2 0.229807 0.268047 0.909138
Si Si3 0.889071 0.371664 0.402192
Si Si4 0.792468 0.187769 0.324876
Si Si5 0.862302 0.023974 0.695676
Si Si6 0.383246 0.074031 0.843122
O O1 0.965921 0.823069 0.881891
O O2 0.022594 0.950606 0.731092
O O3 0.385853 0.857748 0.714949
O O4 0.231146 0.979926 0.877153
O O5 0.170352 0.253318 0.790909
O O6 0.281125 0.158533 0.935143
O O7 0.000000 0.310342 0.000000
O O8 0.749599 0.271501 0.421398
O O9 0.000000 0.390696 0.500000
O O10 0.742542 0.462593 0.386628
O O11 0.628705 0.112797 0.285442
O O12 0.990362 0.120786 0.341078
O O13 0.646425 0.049990 0.811887
#
# Coordination Sequence:
#
# PCOD9121178 Si02
#       6
#     4   4   4   4   4   4
#     4  10  20  39  63  85 129 162 197 264 309 357
#     4  10  20  40  63  94 121 163 213 247 313 374
#     4  11  23  40  64  92 122 167 210 250 311 372
#     4   9  20  38  61  87 124 161 199 259 308 356
#     4  10  18  41  62  84 126 162 202 256 311 361
#     4   8  19  36  62  83 121 166 194 258 310 354
#
# _framework density 24.312253999999999
#
# number of rings (size 3 to 8) (size 9 to 14) (size 15 to 20)
#    1.000    1.333    1.667    1.000    0.000    0.667 
#   12.000    3.333    0.000    0.000    0.000    0.000 
#    0.000    0.000    0.000    0.000    0.000    0.000 
#
# Total GULP energy -66859.795757 kJ/mol
# GULP energy per Si atom -5571.649646 kJ/mol
# Density = 2.425692 g / cm^3
# Si number density = 24.312254 Si / 1000 Ang^3
#
#
#
# Elastic Constant Matrix: (Units=GPa)
#
#
# Indices 1 2 3 4 5 6 
#
# 1 115.2480 61.5040 40.9762 0.0000 -10.7415 0.0000
# 2 61.5040 123.8914 31.0185 0.0000 -18.8357 0.0000
# 3 40.9762 31.0185 27.3711 0.0000 -15.1233 0.0000
# 4 0.0000 0.0000 0.0000 906.7949 0.0000 -742.0686
# 5 -10.7415 -18.8357 -15.1233 0.0000 43.0545 0.0000
# 6 0.0000 0.0000 0.0000 -742.0686 0.0000 644.3529
#
#
#
# Elastic Compliance Matrix: (Units=1/GPa)
#
#
# Indices 1 2 3 4 5 6 
#
# 1 0.021249 -0.003751 -0.031688 0.000000 -0.007470 0.000000
# 2 -0.003751 0.011942 -0.006884 0.000000 0.001870 0.000000
# 3 -0.031688 -0.006884 0.106392 0.000000 0.026454 0.000000
# 4 0.000000 0.000000 0.000000 0.019160 0.000000 0.022066
# 5 -0.007470 0.001870 0.026454 0.000000 0.031473 0.000000
# 6 0.000000 0.000000 0.000000 0.022066 0.000000 0.026964
#
#
# Mechanical properties :
#
#
# Convention : Reuss Voigt Hill
#
# Bulk Modulus (GPa) = 18.20290 59.27865 38.74077
# Shear Modulus (GPa) = 15.61830 327.70790 171.66310
#
# Velocity S-wave (km/s) = 2.53732 11.62256 8.41195
# Velocity P-wave (km/s) = 4.01091 14.30199 10.50320
#
# Compressibility (1/GPa) = 0.05493631
#
# Stress axis : x y z
#
# Youngs Moduli (GPa) = 47.06122 83.74100 9.39922
#
# Poissons Ratio (x) = 0.31410 0.29784
# Poissons Ratio (y) = 0.17652 0.06471
# Poissons Ratio (z) = 1.49127 0.57650
#
# Static dielectric constant tensor:
#      x y z
#    x -0.256770 0.000000 -0.357600 
#    y 0.000000 1.978100 0.000000 
#    z -0.357600 0.000000 1.926670 
# 
# From -- ./inp_files/48885.got.cif
#   From: 2010.05.17/outbox.cif.g08.bks.cpg/sg5_25_cif.got.tgz:48885.got - 2010.06.03 18:56:24.
