data_PCOD9121690
_publ_section_title
;
Structure prediction by ZEFSAII (Michael W. Deem and Ramdas Pophale) SiO2 
 PCOD9121690
Probable space group: C 2
;
_chemical_formula_sum "Si O2"
_cell_formula_units_Z 26
_cell_length_a 10.086829
_cell_length_b 22.235182
_cell_length_c 7.464715
_cell_angle_alpha 90.000000
_cell_angle_beta 48.996392
_cell_angle_gamma 90.000000
_cell_volume 1263.469220
_symmetry_space_group_name_H-M "C 2"
_symmetry_group_IT_number 5
_symmetry_cell_setting 'monoclinic'
loop_
_space_group_symop_operation_xyz
x,y,z
-x,y,-z
1/2+x,1/2+y,z
1/2-x,1/2+y,-z
loop_
_atom_site_type_symbol
_atom_site_label
_atom_site_fract_x
_atom_site_fract_y
_atom_site_fract_z
Si Si1 0.563949 0.474370 0.750059
Si Si2 0.430319 0.677590 0.745234
Si Si3 0.243651 0.248810 0.563437
Si Si4 0.375692 0.258539 0.853418
Si Si5 0.646311 0.882842 0.615505
Si Si6 0.244282 0.389043 0.951546
Si Si7 0.500000 0.560781 0.500000
O O1 0.722471 0.425655 0.612005
O O2 0.390024 0.439155 0.844339
O O3 0.603384 0.520782 0.553268
O O4 0.500000 0.499831 0.000000
O O5 0.500000 0.706419 0.500000
O O6 0.600161 0.695760 0.711898
O O7 0.400458 0.608253 0.718776
O O8 0.255477 0.710166 0.952035
O O9 0.320355 0.259481 0.693381
O O10 0.423110 0.239725 0.293888
O O11 0.161283 0.311399 0.567519
O O12 0.329282 0.326819 0.948277
O O13 0.703909 0.886721 0.774270
O O14 0.442040 0.900214 0.788225
#
# Coordination Sequence:
#
# PCOD9121690 Si02
#       7
#     4   4   4   4   4   4   2
#     4  12  24  42  68  94 128 176 225 269 322 394
#     4  10  23  40  59  86 125 175 211 267 312 387
#     4  10  19  35  63  96 129 164 209 268 332 390
#     4  10  19  35  63  96 129 164 209 268 332 390
#     4  10  19  36  64  96 135 169 205 271 337 388
#     4  10  19  36  64  96 135 169 205 271 337 388
#     4  10  26  50  64  90 134 188 226 264 316 396
#
# _framework density 20.578261000000001
#
# number of rings (size 3 to 8) (size 9 to 14) (size 15 to 20)
#    0.462    1.231    4.615    0.462    0.000    3.692 
#    0.000    3.077    0.000    0.000    0.000    0.000 
#    0.000    0.000    0.000    0.000    0.000    0.000 
#
# Total GULP energy -72398.364609 kJ/mol
# GULP energy per Si atom -5569.104970 kJ/mol
# Density = 2.053142 g / cm^3
# Si number density = 20.578261 Si / 1000 Ang^3
#
#
#
# Elastic Constant Matrix: (Units=GPa)
#
#
# Indices 1 2 3 4 5 6 
#
# 1 61.7938 24.9415 21.7169 0.0000 -14.0580 0.0000
# 2 24.9415 87.5973 27.9763 0.0000 -3.2550 0.0000
# 3 21.7169 27.9763 100.8410 0.0000 -26.3588 0.0000
# 4 0.0000 0.0000 0.0000 -1.0445 0.0000 50.0445
# 5 -14.0580 -3.2550 -26.3588 0.0000 33.2295 0.0000
# 6 0.0000 0.0000 0.0000 50.0445 0.0000 -20.9118
#
#
#
# Elastic Compliance Matrix: (Units=1/GPa)
#
#
# Indices 1 2 3 4 5 6 
#
# 1 0.020286 -0.005175 -0.001037 0.000000 0.007252 0.000000
# 2 -0.005175 0.013945 -0.003746 0.000000 -0.003795 0.000000
# 3 -0.001037 -0.003746 0.013838 0.000000 0.010171 0.000000
# 4 0.000000 0.000000 0.000000 0.008423 0.000000 0.020158
# 5 0.007252 -0.003795 0.010171 0.000000 0.040858 0.000000
# 6 0.000000 0.000000 0.000000 0.020158 0.000000 0.000421
#
#
# Mechanical properties :
#
#
# Convention : Reuss Voigt Hill
#
# Bulk Modulus (GPa) = 35.52221 44.38904 39.95562
# Shear Modulus (GPa) = 39.34766 13.96113 26.65439
#
# Velocity S-wave (km/s) = 4.37750 2.60752 3.60289
# Velocity P-wave (km/s) = 6.54595 5.53924 6.06352
#
# Compressibility (1/GPa) = 0.02815140
#
# Stress axis : x y z
#
# Youngs Moduli (GPa) = 49.29461 71.71108 72.26554
#
# Poissons Ratio (x) = 0.37113 0.07496
# Poissons Ratio (y) = 0.25511 0.27072
# Poissons Ratio (z) = 0.05113 0.26864
#
# Static dielectric constant tensor:
#      x y z
#    x 1.837040 0.000000 0.105990 
#    y 0.000000 1.726690 0.000000 
#    z 0.105990 0.000000 1.762930 
# 
# From -- ./inp_files/22076.got.cif
#   From: 2010.05.17/outbox.cif.g08.bks.cpg/sg5_12_cif.got.tgz:22076.got - 2010.06.03 18:56:24.
