data_PCOD9121068
_publ_section_title
;
Structure prediction by ZEFSAII (Michael W. Deem and Ramdas Pophale) SiO2 
 PCOD9121068
Probable space group: C 2
;
_chemical_formula_sum "Si O2"
_cell_formula_units_Z 24
_cell_length_a 21.633865
_cell_length_b 8.788485
_cell_length_c 8.643710
_cell_angle_alpha 90.000000
_cell_angle_beta 38.178447
_cell_angle_gamma 90.000000
_cell_volume 1015.818249
_symmetry_space_group_name_H-M "C 2"
_symmetry_group_IT_number 5
_symmetry_cell_setting 'monoclinic'
loop_
_space_group_symop_operation_xyz
x,y,z
-x,y,-z
1/2+x,1/2+y,z
1/2-x,1/2+y,-z
loop_
_atom_site_type_symbol
_atom_site_label
_atom_site_fract_x
_atom_site_fract_y
_atom_site_fract_z
Si Si1 0.000000 0.320280 0.500000
Si Si2 0.694565 0.944622 0.980771
Si Si3 0.500000 0.078288 0.000000
Si Si4 0.370882 0.794387 0.168553
Si Si5 0.926899 0.148223 0.356119
Si Si6 0.047496 0.803876 0.639164
Si Si7 0.658218 0.274025 0.107516
O O1 0.922154 0.420246 0.748263
O O2 0.934250 0.218570 0.512798
O O3 0.706386 0.124355 0.937597
O O4 0.709425 0.827700 0.807333
O O5 0.760471 0.895260 0.997678
O O6 0.546436 0.184076 0.778038
O O7 0.583350 0.962619 0.898045
O O8 0.354117 0.727439 0.373112
O O9 0.460036 0.687599 0.927216
O O10 0.910528 0.969116 0.399035
O O11 0.931087 0.833319 0.823405
O O12 0.102750 0.738164 0.379905
#
# Coordination Sequence:
#
# PCOD9121068 Si02
#       7
#     2   4   2   4   4   4   4
#     4  10  20  38  72  86 126 170 220 260 336 376
#     4  11  24  43  62  96 126 173 215 275 316 393
#     4  10  18  38  66  90 122 176 216 254 326 394
#     4   9  20  38  62  91 128 168 216 260 327 386
#     4   9  19  34  65  94 121 164 215 260 319 381
#     4  11  22  41  66  97 130 171 213 272 320 386
#     4  11  26  40  65  95 135 166 224 264 327 380
#
# _framework density 23.626275
#
# number of rings (size 3 to 8) (size 9 to 14) (size 15 to 20)
#    0.000    2.000    1.667    3.000   11.667    0.000 
#    0.000    3.333    0.000    0.000    0.000    0.000 
#    0.000    0.000    0.000    0.000    0.000    0.000 
#
# Total GULP energy -67043.665866 kJ/mol
# GULP energy per Si atom -5586.972156 kJ/mol
# Density = 2.357250 g / cm^3
# Si number density = 23.626275 Si / 1000 Ang^3
#
#
#
# Elastic Constant Matrix: (Units=GPa)
#
#
# Indices 1 2 3 4 5 6 
#
# 1 89.5160 27.5582 13.0316 0.0000 3.2040 0.0000
# 2 27.5582 106.7535 22.7984 0.0000 19.0262 0.0000
# 3 13.0316 22.7984 55.2527 0.0000 13.9990 0.0000
# 4 0.0000 0.0000 0.0000 30.3959 0.0000 10.1399
# 5 3.2040 19.0262 13.9990 0.0000 41.9017 0.0000
# 6 0.0000 0.0000 0.0000 10.1399 0.0000 38.1069
#
#
#
# Elastic Compliance Matrix: (Units=1/GPa)
#
#
# Indices 1 2 3 4 5 6 
#
# 1 0.012327 -0.002952 -0.001956 0.000000 0.001051 0.000000
# 2 -0.002952 0.011486 -0.003036 0.000000 -0.003976 0.000000
# 3 -0.001956 -0.003036 0.021222 0.000000 -0.005562 0.000000
# 4 0.000000 0.000000 0.000000 0.036104 0.000000 -0.009607
# 5 0.001051 -0.003976 -0.005562 0.000000 0.027448 0.000000
# 6 0.000000 0.000000 0.000000 -0.009607 0.000000 0.028798
#
#
# Mechanical properties :
#
#
# Convention : Reuss Voigt Hill
#
# Bulk Modulus (GPa) = 34.30770 42.03316 38.17043
# Shear Modulus (GPa) = 30.67691 34.62317 32.65004
#
# Velocity S-wave (km/s) = 3.60727 3.83228 3.72148
# Velocity P-wave (km/s) = 5.64822 6.11647 5.88701
#
# Compressibility (1/GPa) = 0.02914798
#
# Stress axis : x y z
#
# Youngs Moduli (GPa) = 81.12252 87.06011 47.12129
#
# Poissons Ratio (x) = 0.25699 0.09215
# Poissons Ratio (y) = 0.23946 0.14306
# Poissons Ratio (z) = 0.15865 0.26432
#
# Static dielectric constant tensor:
#      x y z
#    x 1.956410 0.000000 -0.003090 
#    y 0.000000 1.830360 0.000000 
#    z -0.003090 0.000000 1.954290 
# 
# From -- ./inp_files/28898.got.cif
#   From: 2010.05.17/outbox.cif.g08.bks.cpg/sg5_15_cif.got.tgz:28898.got - 2010.06.03 18:56:24.
