data_PCOD9121796
_publ_section_title
;
Structure prediction by ZEFSAII (Michael W. Deem and Ramdas Pophale) SiO2 
 PCOD9121796
Probable space group: C 2
;
_chemical_formula_sum "Si O2"
_cell_formula_units_Z 28
_cell_length_a 8.771289
_cell_length_b 12.960741
_cell_length_c 17.012991
_cell_angle_alpha 90.000000
_cell_angle_beta 38.569409
_cell_angle_gamma 90.000000
_cell_volume 1205.824442
_symmetry_space_group_name_H-M "C 2"
_symmetry_group_IT_number 5
_symmetry_cell_setting 'monoclinic'
loop_
_space_group_symop_operation_xyz
x,y,z
-x,y,-z
1/2+x,1/2+y,z
1/2-x,1/2+y,-z
loop_
_atom_site_type_symbol
_atom_site_label
_atom_site_fract_x
_atom_site_fract_y
_atom_site_fract_z
Si Si1 0.629334 0.635410 0.635928
Si Si2 0.969678 0.352292 0.327773
Si Si3 0.601596 0.832559 0.097626
Si Si4 0.175977 0.523032 0.861565
Si Si5 0.263200 0.069240 0.422703
Si Si6 0.713462 0.636158 0.788182
Si Si7 0.532716 0.420179 0.838430
O O1 0.672362 0.751510 0.588822
O O2 0.340803 0.606176 0.751429
O O3 0.754687 0.564606 0.521067
O O4 0.712280 0.629939 0.692727
O O5 0.198530 0.380325 0.289896
O O6 0.091022 0.322882 0.195202
O O7 0.805203 0.451677 0.379731
O O8 0.441562 0.737445 0.128489
O O9 0.481354 0.943271 0.125128
O O10 0.870177 0.840651 0.953204
O O11 0.372701 0.451891 0.828120
O O12 0.000000 0.569230 0.000000
O O13 0.504459 0.132045 0.299619
O O14 0.000000 0.107761 0.500000
O O15 0.583122 0.528497 0.864432
#
# Coordination Sequence:
#
# PCOD9121796 Si02
#       7
#     4   4   4   4   4   4   4
#     4  10  21  38  60  80 111 155 190 233 287 346
#     4  10  22  37  57  84 111 149 197 236 285 343
#     4  10  19  36  61  85 117 153 187 237 290 343
#     4   9  19  35  56  85 116 149 189 232 284 342
#     4  11  23  39  57  83 115 147 195 249 286 330
#     4   9  21  39  59  84 115 156 196 228 286 353
#     4   9  19  36  56  85 118 147 186 237 288 345
#
# _framework density 23.220628000000001
#
# number of rings (size 3 to 8) (size 9 to 14) (size 15 to 20)
#    0.000    2.286    0.000    1.714    0.000    9.143 
#    0.000   11.429    0.000    0.000    0.000    0.000 
#    0.000    0.000    0.000    0.000    0.000    0.000 
#
# Total GULP energy -78170.317533 kJ/mol
# GULP energy per Si atom -5583.594109 kJ/mol
# Density = 2.316778 g / cm^3
# Si number density = 23.220628 Si / 1000 Ang^3
#
#
#
# Elastic Constant Matrix: (Units=GPa)
#
#
# Indices 1 2 3 4 5 6 
#
# 1 56.3398 -5.0678 14.3605 -0.0012 -27.0572 0.0005
# 2 -5.0678 87.4454 30.4444 -0.0012 -11.6023 0.0006
# 3 14.3605 30.4444 70.9709 -0.0042 -20.0315 0.0018
# 4 -0.0012 -0.0012 -0.0042 23.9025 0.0018 1.3099
# 5 -27.0572 -11.6023 -20.0315 0.0018 40.8994 -0.0007
# 6 0.0005 0.0006 0.0018 1.3099 -0.0007 14.5534
#
#
#
# Elastic Compliance Matrix: (Units=1/GPa)
#
#
# Indices 1 2 3 4 5 6 
#
# 1 0.027722 0.004934 -0.002500 0.000000 0.018515 0.000000
# 2 0.004934 0.014368 -0.005907 0.000000 0.004447 0.000000
# 3 -0.002500 -0.005907 0.018787 0.000003 0.005872 -0.000002
# 4 0.000000 0.000000 0.000003 0.042044 -0.000001 -0.003784
# 5 0.018515 0.004447 0.005872 -0.000001 0.040836 0.000001
# 6 0.000000 0.000000 -0.000002 -0.003784 0.000001 0.069053
#
#
# Mechanical properties :
#
#
# Convention : Reuss Voigt Hill
#
# Bulk Modulus (GPa) = 18.54203 32.69225 25.61714
# Shear Modulus (GPa) = 21.03190 27.53900 24.28545
#
# Velocity S-wave (km/s) = 3.01282 3.44753 3.23748
# Velocity P-wave (km/s) = 4.48389 5.47328 5.00310
#
# Compressibility (1/GPa) = 0.05393153
#
# Stress axis : x y z
#
# Youngs Moduli (GPa) = 36.07215 69.59892 53.22744
#
# Poissons Ratio (x) = -0.34337 0.13307
# Poissons Ratio (y) = -0.17796 0.31439
# Poissons Ratio (z) = 0.09018 0.41109
#
# Static dielectric constant tensor:
#      x y z
#    x 1.905690 0.000000 0.008830 
#    y 0.000000 1.899620 0.000000 
#    z 0.008830 0.000000 1.877130 
# 
# From -- ./inp_files/59708.got.cif
#   From: 2010.05.17/outbox.cif.g08.bks.cpg/sg5_30_cif.got.tgz:59708.got - 2010.06.03 18:56:24.
