data_PCOD9121908
_publ_section_title
;
Structure prediction by ZEFSAII (Michael W. Deem and Ramdas Pophale) SiO2 
 PCOD9121908
Probable space group: C 2
;
_chemical_formula_sum "Si O2"
_cell_formula_units_Z 26
_cell_length_a 9.414782
_cell_length_b 19.273163
_cell_length_c 12.370318
_cell_angle_alpha 90.000000
_cell_angle_beta 144.104008
_cell_angle_gamma 90.000000
_cell_volume 1316.059861
_symmetry_space_group_name_H-M "C 2"
_symmetry_group_IT_number 5
_symmetry_cell_setting 'monoclinic'
loop_
_space_group_symop_operation_xyz
x,y,z
-x,y,-z
1/2+x,1/2+y,z
1/2-x,1/2+y,-z
loop_
_atom_site_type_symbol
_atom_site_label
_atom_site_fract_x
_atom_site_fract_y
_atom_site_fract_z
Si Si1 0.824645 0.078310 0.171902
Si Si2 0.500000 0.953278 0.000000
Si Si3 0.095667 0.848698 0.705433
Si Si4 0.838207 0.283688 0.679973
Si Si5 0.904239 0.810420 0.052341
Si Si6 0.023910 0.654847 0.172994
Si Si7 0.322274 0.133967 0.490448
O O1 0.709333 0.111621 0.210682
O O2 0.109567 0.077100 0.358502
O O3 0.688139 0.006754 0.060845
O O4 0.741518 0.130852 0.027753
O O5 0.692032 0.906025 0.184477
O O6 0.227356 0.781598 0.733326
O O7 0.831881 0.841307 0.486174
O O8 0.063490 0.848546 0.813747
O O9 0.797250 0.210021 0.599091
O O10 0.118373 0.300333 0.859015
O O11 0.000000 0.842499 0.000000
O O12 0.037344 0.736107 0.152606
O O13 0.062092 0.637392 0.320342
O O14 0.500000 0.122569 0.500000
#
# Coordination Sequence:
#
# PCOD9121908 Si02
#       7
#     4   2   4   4   4   4   4
#     4  10  23  41  61  90 115 171 214 247 301 362
#     4  10  22  46  68  76 124 174 228 250 274 384
#     4  11  22  40  61  90 119 165 212 251 304 366
#     4  11  21  36  61  96 122 156 203 258 317 369
#     4  12  20  34  60  92 127 159 193 260 322 366
#     4  10  19  37  58  88 125 160 197 250 308 375
#     4  12  21  35  61  98 128 150 196 263 325 366
#
# _framework density 19.755939999999999
#
# number of rings (size 3 to 8) (size 9 to 14) (size 15 to 20)
#    0.000    1.231    7.692    0.462    0.000    1.231 
#   11.077    0.000   10.154    0.000    0.000    0.000 
#    0.000    0.000    0.000    0.000    0.000    0.000 
#
# Total GULP energy -72375.433888 kJ/mol
# GULP energy per Si atom -5567.341068 kJ/mol
# Density = 1.971097 g / cm^3
# Si number density = 19.755940 Si / 1000 Ang^3
#
#
#
# Elastic Constant Matrix: (Units=GPa)
#
#
# Indices 1 2 3 4 5 6 
#
# 1 103.5202 -2.6451 59.4401 -0.0003 -16.0798 -0.0002
# 2 -2.6451 49.6634 13.0794 -0.0001 -0.2830 -0.0001
# 3 59.4401 13.0794 112.3157 -0.0002 -5.9855 -0.0002
# 4 -0.0003 -0.0001 -0.0002 20.2713 -0.0001 9.8312
# 5 -16.0798 -0.2830 -5.9855 -0.0001 38.0440 -0.0002
# 6 -0.0002 -0.0001 -0.0002 9.8312 -0.0002 14.0781
#
#
#
# Elastic Compliance Matrix: (Units=1/GPa)
#
#
# Indices 1 2 3 4 5 6 
#
# 1 0.015198 0.002976 -0.008114 0.000000 0.005169 0.000000
# 2 0.002976 0.021357 -0.004020 0.000000 0.000784 0.000000
# 3 -0.008114 -0.004020 0.013595 0.000000 -0.001320 0.000000
# 4 0.000000 0.000000 0.000000 0.074595 0.000000 -0.052092
# 5 0.005169 0.000784 -0.001320 0.000000 0.028268 0.000000
# 6 0.000000 0.000000 0.000000 -0.052092 0.000000 0.107410
#
#
# Mechanical properties :
#
#
# Convention : Reuss Voigt Hill
#
# Bulk Modulus (GPa) = 31.41325 45.02755 38.22040
# Shear Modulus (GPa) = 17.28000 27.52033 22.40017
#
# Velocity S-wave (km/s) = 2.96070 3.73636 3.37091
# Velocity P-wave (km/s) = 5.25574 6.43857 5.87699
#
# Compressibility (1/GPa) = 0.03183370
#
# Stress axis : x y z
#
# Youngs Moduli (GPa) = 65.79818 46.82241 73.55385
#
# Poissons Ratio (x) = -0.13934 0.59683
# Poissons Ratio (y) = -0.19581 0.29570
# Poissons Ratio (z) = 0.53390 0.18824
#
# Static dielectric constant tensor:
#      x y z
#    x 1.720940 0.000000 0.004710 
#    y 0.000000 1.758420 0.000000 
#    z 0.004710 0.000000 1.723980 
# 
# From -- ./inp_files/37300.got.cif
#   From: 2010.05.17/outbox.cif.g08.bks.cpg/sg5_19_cif.got.tgz:37300.got - 2010.06.03 18:56:24.
