data_PCOD9121324
_publ_section_title
;
Structure prediction by ZEFSAII (Michael W. Deem and Ramdas Pophale) SiO2 
 PCOD9121324
Probable space group: C 2
;
_chemical_formula_sum "Si O2"
_cell_formula_units_Z 30
_cell_length_a 10.197616
_cell_length_b 14.189790
_cell_length_c 9.024696
_cell_angle_alpha 90.000000
_cell_angle_beta 54.651449
_cell_angle_gamma 90.000000
_cell_volume 1065.147581
_symmetry_space_group_name_H-M "C 2"
_symmetry_group_IT_number 5
_symmetry_cell_setting 'monoclinic'
loop_
_space_group_symop_operation_xyz
x,y,z
-x,y,-z
1/2+x,1/2+y,z
1/2-x,1/2+y,-z
loop_
_atom_site_type_symbol
_atom_site_label
_atom_site_fract_x
_atom_site_fract_y
_atom_site_fract_z
Si Si1 0.334271 0.339500 0.654482
Si Si2 0.590242 0.413722 0.083720
Si Si3 0.669297 0.089213 0.062257
Si Si4 0.189004 0.642341 0.703596
Si Si5 0.000000 0.640002 0.500000
Si Si6 0.620051 0.822294 0.532981
Si Si7 0.947488 0.220350 0.891859
Si Si8 0.172113 0.054025 0.655344
O O1 0.500000 0.387574 0.500000
O O2 0.328637 0.357847 0.833860
O O3 0.363294 0.229360 0.594564
O O4 0.202066 0.372465 0.620882
O O5 0.729057 0.494561 0.962454
O O6 0.428714 0.461398 0.252498
O O7 0.500000 0.365028 0.000000
O O8 0.672846 0.100083 0.878889
O O9 0.774691 0.179543 0.027029
O O10 0.649284 0.063672 0.400640
O O11 0.250639 0.749984 0.630732
O O12 0.313033 0.583359 0.525491
O O13 0.008036 0.618979 0.756051
O O14 0.500000 0.874080 0.500000
O O15 0.483222 0.763849 0.711568
O O16 0.060912 0.129298 0.811254
O O17 0.000000 0.279993 0.000000
#
# Coordination Sequence:
#
# PCOD9121324 Si02
#       8
#     4   4   4   4   2   4   4   4
#     4  10  23  45  76 101 152 210 250 305 395 467
#     4  11  26  44  72 109 155 210 263 308 386 470
#     4  10  21  35  62 109 156 184 240 324 383 439
#     4  10  20  34  66 113 144 184 240 323 386 440
#     4  10  20  38  76 110 144 188 270 318 380 446
#     4  11  21  42  72 109 146 191 254 311 383 468
#     4  10  19  32  58 101 148 179 231 312 384 419
#     4  10  21  36  70 112 139 193 260 325 368 452
#
# _framework density 28.165109000000001
#
# number of rings (size 3 to 8) (size 9 to 14) (size 15 to 20)
#    0.400    1.333    4.000    1.600    5.600    1.067 
#    0.000    1.333   22.000    1.600    0.000    0.000 
#    0.000    0.000    0.000    0.000    0.000    0.000 
#
# Total GULP energy -83500.763237 kJ/mol
# GULP energy per Si atom -5566.717549 kJ/mol
# Density = 2.810100 g / cm^3
# Si number density = 28.165109 Si / 1000 Ang^3
#
#
#
# Elastic Constant Matrix: (Units=GPa)
#
#
# Indices 1 2 3 4 5 6 
#
# 1 179.9256 42.7228 70.6690 0.0000 31.5008 0.0000
# 2 42.7228 87.3099 32.2783 0.0000 9.4551 0.0000
# 3 70.6690 32.2783 125.7038 0.0000 0.0804 0.0000
# 4 0.0000 0.0000 0.0000 36.9011 0.0000 0.2463
# 5 31.5008 9.4551 0.0804 0.0000 72.0681 0.0000
# 6 0.0000 0.0000 0.0000 0.2463 0.0000 31.7977
#
#
#
# Elastic Compliance Matrix: (Units=1/GPa)
#
#
# Indices 1 2 3 4 5 6 
#
# 1 0.008259 -0.002172 -0.004083 0.000000 -0.003320 0.000000
# 2 -0.002172 0.013427 -0.002226 0.000000 -0.000810 0.000000
# 3 -0.004083 -0.002226 0.010821 0.000000 0.002065 0.000000
# 4 0.000000 0.000000 0.000000 0.027101 0.000000 -0.000210
# 5 -0.003320 -0.000810 0.002065 0.000000 0.015431 0.000000
# 6 0.000000 0.000000 0.000000 -0.000210 0.000000 0.031450
#
#
# Mechanical properties :
#
#
# Convention : Reuss Voigt Hill
#
# Bulk Modulus (GPa) = 64.33337 76.03106 70.18222
# Shear Modulus (GPa) = 38.87041 44.63800 41.75420
#
# Velocity S-wave (km/s) = 3.71899 3.98536 3.85448
# Velocity P-wave (km/s) = 6.42902 6.94484 6.69190
#
# Compressibility (1/GPa) = 0.01554403
#
# Stress axis : x y z
#
# Youngs Moduli (GPa) = 121.08625 74.47684 92.41350
#
# Poissons Ratio (x) = 0.16177 0.37732
# Poissons Ratio (y) = 0.26301 0.20573
# Poissons Ratio (z) = 0.49439 0.16580
#
# Static dielectric constant tensor:
#      x y z
#    x 2.188150 0.000000 -0.059130 
#    y 0.000000 2.228280 0.000000 
#    z -0.059130 0.000000 1.887350 
# 
# From -- ./inp_files/21310.got.cif
#   From: 2010.05.17/outbox.cif.g08.bks.cpg/sg5_11_cif.got.tgz:21310.got - 2010.06.03 18:56:24.
