data_PCOD9121886
_publ_section_title
;
Structure prediction by ZEFSAII (Michael W. Deem and Ramdas Pophale) SiO2 
 PCOD9121886
Probable space group: C 2
;
_chemical_formula_sum "Si O2"
_cell_formula_units_Z 24
_cell_length_a 13.808835
_cell_length_b 5.750030
_cell_length_c 19.465408
_cell_angle_alpha 90.000000
_cell_angle_beta 41.586130
_cell_angle_gamma 90.000000
_cell_volume 1025.869303
_symmetry_space_group_name_H-M "C 2"
_symmetry_group_IT_number 5
_symmetry_cell_setting 'monoclinic'
loop_
_space_group_symop_operation_xyz
x,y,z
-x,y,-z
1/2+x,1/2+y,z
1/2-x,1/2+y,-z
loop_
_atom_site_type_symbol
_atom_site_label
_atom_site_fract_x
_atom_site_fract_y
_atom_site_fract_z
Si Si1 0.037140 0.952110 0.117236
Si Si2 0.304224 0.759196 0.297715
Si Si3 0.548234 0.083502 0.230458
Si Si4 0.199868 0.116732 0.557594
Si Si5 0.121057 0.960967 0.284045
Si Si6 0.727884 0.209742 0.920600
O O1 0.021836 0.792555 0.191947
O O2 0.177385 0.108494 0.065117
O O3 0.072724 0.783413 0.034747
O O4 0.894138 0.112347 0.192754
O O5 0.247389 0.603598 0.390542
O O6 0.195854 0.931863 0.317293
O O7 0.423454 0.907880 0.275630
O O8 0.560936 0.204864 0.296536
O O9 0.698536 0.952313 0.138383
O O10 0.253073 0.368195 0.500759
O O11 0.022909 0.116391 0.643074
O O12 0.237284 0.046246 0.163670
#
# Coordination Sequence:
#
# PCOD9121886 Si02
#       6
#     4   4   4   4   4   4
#     4  10  19  36  71 101 141 198 245 296 363 446
#     4  11  25  46  72 104 148 194 242 309 383 447
#     4  10  19  41  66  98 142 192 235 295 364 432
#     4  12  27  51  80 112 150 192 259 329 386 454
#     4  11  25  46  72 104 148 194 242 309 383 447
#     4  10  19  36  71 101 141 198 245 296 363 446
#
# _framework density 23.394791999999999
#
# number of rings (size 3 to 8) (size 9 to 14) (size 15 to 20)
#    0.000    1.333    6.667    1.000    0.000    2.000 
#    0.000   10.000    0.000    0.000    0.000    0.000 
#    0.000    0.000    0.000    0.000    0.000    0.000 
#
# Total GULP energy -66921.141311 kJ/mol
# GULP energy per Si atom -5576.761776 kJ/mol
# Density = 2.334154 g / cm^3
# Si number density = 23.394792 Si / 1000 Ang^3
#
#
#
# Elastic Constant Matrix: (Units=GPa)
#
#
# Indices 1 2 3 4 5 6 
#
# 1 94.6449 15.7365 45.1700 0.0000 9.2585 0.0000
# 2 15.7365 90.8262 31.7767 -0.0002 -0.0715 0.0013
# 3 45.1700 31.7767 84.8815 0.0001 16.2575 -0.0001
# 4 0.0000 -0.0002 0.0001 52.9437 -0.0001 7.6046
# 5 9.2585 -0.0715 16.2575 -0.0001 15.4792 0.0000
# 6 0.0000 0.0013 -0.0001 7.6046 0.0000 28.7757
#
#
#
# Elastic Compliance Matrix: (Units=1/GPa)
#
#
# Indices 1 2 3 4 5 6 
#
# 1 0.014171 0.000163 -0.007484 0.000000 -0.000615 0.000000
# 2 0.000163 0.013183 -0.006278 0.000000 0.006557 -0.000001
# 3 -0.007484 -0.006278 0.021609 0.000000 -0.018248 0.000000
# 4 0.000000 0.000000 0.000000 0.019633 0.000000 -0.005189
# 5 -0.000615 0.006557 -0.018248 0.000000 0.084167 0.000000
# 6 0.000000 -0.000001 0.000000 -0.005189 0.000000 0.036123
#
#
# Mechanical properties :
#
#
# Convention : Reuss Voigt Hill
#
# Bulk Modulus (GPa) = 45.94614 50.63545 48.29080
# Shear Modulus (GPa) = 22.38741 31.28435 26.83588
#
# Velocity S-wave (km/s) = 3.09680 3.66079 3.39054
# Velocity P-wave (km/s) = 5.69816 6.28963 6.00118
#
# Compressibility (1/GPa) = 0.02176461
#
# Stress axis : x y z
#
# Youngs Moduli (GPa) = 70.56770 75.85284 46.27644
#
# Poissons Ratio (x) = -0.01235 0.34635
# Poissons Ratio (y) = -0.01149 0.29052
# Poissons Ratio (z) = 0.52815 0.47620
#
# Static dielectric constant tensor:
#      x y z
#    x 1.868600 0.000000 -0.021380 
#    y 0.000000 1.913690 0.000000 
#    z -0.021380 0.000000 2.040030 
# 
# From -- ./inp_files/65620.got.cif
#   From: 2010.05.17/outbox.cif.g08.bks.cpg/sg5_33_cif.got.tgz:65620.got - 2010.06.03 18:56:24.
