data_PCOD9121036
_publ_section_title
;
Structure prediction by ZEFSAII (Michael W. Deem and Ramdas Pophale) SiO2 
 PCOD9121036
Probable space group: C 2
;
_chemical_formula_sum "Si O2"
_cell_formula_units_Z 22
_cell_length_a 11.223630
_cell_length_b 11.874892
_cell_length_c 7.529119
_cell_angle_alpha 90.000000
_cell_angle_beta 58.516279
_cell_angle_gamma 90.000000
_cell_volume 855.753233
_symmetry_space_group_name_H-M "C 2"
_symmetry_group_IT_number 5
_symmetry_cell_setting 'monoclinic'
loop_
_space_group_symop_operation_xyz
x,y,z
-x,y,-z
1/2+x,1/2+y,z
1/2-x,1/2+y,-z
loop_
_atom_site_type_symbol
_atom_site_label
_atom_site_fract_x
_atom_site_fract_y
_atom_site_fract_z
Si Si1 0.609963 0.798620 0.175810
Si Si2 0.977741 0.515730 0.229529
Si Si3 0.434476 0.263297 0.364866
Si Si4 0.500000 0.625937 0.500000
Si Si5 0.826602 0.207725 0.211024
Si Si6 0.672943 0.486941 0.650169
O O1 0.617015 0.710896 0.328844
O O2 0.465971 0.757880 0.191399
O O3 0.585668 0.928323 0.237820
O O4 0.714933 0.774892 0.934029
O O5 0.004696 0.647516 0.244703
O O6 0.824532 0.483291 0.430697
O O7 0.000000 0.497268 0.000000
O O8 0.500000 0.305362 0.500000
O O9 0.286588 0.220673 0.551014
O O10 0.394333 0.364765 0.265721
O O11 0.569464 0.548376 0.592437
O O12 0.832842 0.073230 0.179429
#
# Coordination Sequence:
#
# PCOD9121036 Si02
#       6
#     4   4   4   2   4   4
#     4  10  18  38  63  83 106 145 209 225 270 335
#     4  11  22  39  60  83 115 158 188 231 280 346
#     4  11  22  37  57  87 124 145 182 242 295 322
#     4  10  22  34  64  86 108 150 192 244 274 336
#     4   9  19  37  63  79 110 158 189 225 278 346
#     4  10  20  40  59  82 116 152 190 230 286 339
#
# _framework density 25.708348000000001
#
# number of rings (size 3 to 8) (size 9 to 14) (size 15 to 20)
#    0.000    1.818    4.545    0.000    1.273    1.455 
#    6.545    0.000    0.000    0.000    0.000    0.000 
#    0.000    0.000    0.000    0.000    0.000    0.000 
#
# Total GULP energy -61415.151338 kJ/mol
# GULP energy per Si atom -5583.195576 kJ/mol
# Density = 2.564984 g / cm^3
# Si number density = 25.708348 Si / 1000 Ang^3
#
#
#
# Elastic Constant Matrix: (Units=GPa)
#
#
# Indices 1 2 3 4 5 6 
#
# 1 40.7347 6.9057 3.4633 0.0000 -7.0866 0.0000
# 2 6.9057 216.8663 24.2771 0.0000 -1.9527 0.0000
# 3 3.4633 24.2771 78.6278 0.0000 8.3740 0.0000
# 4 0.0000 0.0000 0.0000 33.3665 0.0000 5.8401
# 5 -7.0866 -1.9527 8.3740 0.0000 21.4264 0.0000
# 6 0.0000 0.0000 0.0000 5.8401 0.0000 35.5143
#
#
#
# Elastic Compliance Matrix: (Units=1/GPa)
#
#
# Indices 1 2 3 4 5 6 
#
# 1 0.026461 -0.000532 -0.002012 0.000000 0.009490 0.000000
# 2 -0.000532 0.004810 -0.001554 0.000000 0.000870 0.000000
# 3 -0.002012 -0.001554 0.013953 0.000000 -0.006260 0.000000
# 4 0.000000 0.000000 0.000000 0.030858 0.000000 -0.005075
# 5 0.009490 0.000870 -0.006260 0.000000 0.052336 0.000000
# 6 0.000000 0.000000 0.000000 -0.005075 0.000000 0.028992
#
#
# Mechanical properties :
#
#
# Convention : Reuss Voigt Hill
#
# Bulk Modulus (GPa) = 27.00649 45.05792 36.03220
# Shear Modulus (GPa) = 28.09774 38.16695 33.13234
#
# Velocity S-wave (km/s) = 3.30955 3.85725 3.59385
# Velocity P-wave (km/s) = 5.01318 6.11575 5.59171
#
# Compressibility (1/GPa) = 0.03702813
#
# Stress axis : x y z
#
# Youngs Moduli (GPa) = 37.79114 207.90430 71.66694
#
# Poissons Ratio (x) = 0.11059 0.14419
# Poissons Ratio (y) = 0.02010 0.11139
# Poissons Ratio (z) = 0.07603 0.32315
#
# Static dielectric constant tensor:
#      x y z
#    x 2.062500 0.000000 0.003400 
#    y 0.000000 2.111640 0.000000 
#    z 0.003400 0.000000 2.147760 
# 
# From -- ./inp_files/23054.got.cif
#   From: 2010.05.17/outbox.cif.g08.bks.cpg/sg5_12_cif.got.tgz:23054.got - 2010.06.03 18:56:24.
