data_PCOD9121016
_publ_section_title
;
Structure prediction by ZEFSAII (Michael W. Deem and Ramdas Pophale) SiO2 
 PCOD9121016
Probable space group: C 2
;
_chemical_formula_sum "Si O2"
_cell_formula_units_Z 28
_cell_length_a 8.858966
_cell_length_b 14.954681
_cell_length_c 9.163557
_cell_angle_alpha 90.000000
_cell_angle_beta 125.050210
_cell_angle_gamma 90.000000
_cell_volume 993.852778
_symmetry_space_group_name_H-M "C 2"
_symmetry_group_IT_number 5
_symmetry_cell_setting 'monoclinic'
loop_
_space_group_symop_operation_xyz
x,y,z
-x,y,-z
1/2+x,1/2+y,z
1/2-x,1/2+y,-z
loop_
_atom_site_type_symbol
_atom_site_label
_atom_site_fract_x
_atom_site_fract_y
_atom_site_fract_z
Si Si1 0.662191 0.778950 0.357524
Si Si2 0.847889 0.562680 0.609024
Si Si3 0.891791 0.047987 0.094090
Si Si4 0.500000 0.641734 0.500000
Si Si5 0.500000 0.167362 0.500000
Si Si6 0.397697 0.381974 0.729735
Si Si7 0.882375 0.411836 0.158383
Si Si8 0.894908 0.703387 0.094833
O O1 0.559885 0.704682 0.401005
O O2 0.769031 0.841013 0.534001
O O3 0.501123 0.826639 0.178300
O O4 0.833482 0.739755 0.366842
O O5 0.678320 0.580647 0.619954
O O6 0.836907 0.587710 0.435140
O O7 0.955943 0.474392 0.690663
O O8 0.983710 0.650065 0.713432
O O9 0.027300 0.981524 0.264564
O O10 0.716654 0.980983 0.002087
O O11 0.000000 0.044848 0.000000
O O12 0.794098 0.146606 0.033086
O O13 0.263417 0.386057 0.796528
O O14 0.561914 0.309183 0.852987
O O15 0.000000 0.687354 0.000000
#
# Coordination Sequence:
#
# PCOD9121016 Si02
#       8
#     4   4   4   2   2   4   4   4
#     4  11  20  38  65  91 126 166 214 258 317 380
#     4  10  22  39  61  95 128 164 212 259 317 377
#     4   9  22  42  62  92 125 166 217 261 317 383
#     4  10  18  38  60  92 124 160 214 254 309 387
#     4  10  22  38  58  96 130 162 204 268 313 381
#     4  11  20  41  66  90 123 172 217 255 318 385
#     4  10  20  38  65  89 124 167 210 260 312 381
#     4  11  21  42  67  88 124 169 215 261 313 389
#
# _framework density 28.173186000000001
#
# number of rings (size 3 to 8) (size 9 to 14) (size 15 to 20)
#    0.000    1.714    4.286    1.286    2.000    0.571 
#    7.714   12.143    0.000    0.000    0.000    0.000 
#    0.000    0.000    0.000    0.000    0.000    0.000 
#
# Total GULP energy -78030.120788 kJ/mol
# GULP energy per Si atom -5573.580056 kJ/mol
# Density = 2.810906 g / cm^3
# Si number density = 28.173186 Si / 1000 Ang^3
#
#
#
# Elastic Constant Matrix: (Units=GPa)
#
#
# Indices 1 2 3 4 5 6 
#
# 1 177.6671 81.2858 33.5653 0.0000 28.5211 0.0000
# 2 81.2858 171.1007 55.9573 0.0000 35.4012 0.0000
# 3 33.5653 55.9573 79.8738 0.0000 24.4950 0.0000
# 4 0.0000 0.0000 0.0000 47.1016 0.0000 35.1736
# 5 28.5211 35.4012 24.4950 0.0000 29.5764 0.0000
# 6 0.0000 0.0000 0.0000 35.1736 0.0000 67.0105
#
#
#
# Elastic Compliance Matrix: (Units=1/GPa)
#
#
# Indices 1 2 3 4 5 6 
#
# 1 0.007525 -0.002751 -0.000026 0.000000 -0.003942 0.000000
# 2 -0.002751 0.009566 -0.003817 0.000000 -0.005636 0.000000
# 3 -0.000026 -0.003817 0.018493 0.000000 -0.010722 0.000000
# 4 0.000000 0.000000 0.000000 0.034917 0.000000 -0.018328
# 5 -0.003942 -0.005636 -0.010722 0.000000 0.053237 0.000000
# 6 0.000000 0.000000 0.000000 -0.018328 0.000000 0.024543
#
#
# Mechanical properties :
#
#
# Convention : Reuss Voigt Hill
#
# Bulk Modulus (GPa) = 44.65198 85.58429 65.11813
# Shear Modulus (GPa) = 29.59724 45.92659 37.76191
#
# Velocity S-wave (km/s) = 3.24473 4.04189 3.66505
# Velocity P-wave (km/s) = 5.47003 7.22679 6.40889
#
# Compressibility (1/GPa) = 0.02239543
#
# Stress axis : x y z
#
# Youngs Moduli (GPa) = 132.89466 104.54010 54.07454
#
# Poissons Ratio (x) = 0.28755 0.00141
# Poissons Ratio (y) = 0.36554 0.20642
# Poissons Ratio (z) = 0.00347 0.39906
#
# Static dielectric constant tensor:
#      x y z
#    x 1.961340 0.000000 0.302650 
#    y 0.000000 2.239610 0.000000 
#    z 0.302650 0.000000 2.269530 
# 
# From -- ./inp_files/36521.got.cif
#   From: 2010.05.17/outbox.cif.g08.bks.cpg/sg5_19_cif.got.tgz:36521.got - 2010.06.03 18:56:24.
