data_PCOD9121079
_publ_section_title
;
Structure prediction by ZEFSAII (Michael W. Deem and Ramdas Pophale) SiO2 
 PCOD9121079
Probable space group: C 2
;
_chemical_formula_sum "Si O2"
_cell_formula_units_Z 30
_cell_length_a 18.039459
_cell_length_b 5.040302
_cell_length_c 17.717986
_cell_angle_alpha 90.000000
_cell_angle_beta 65.980990
_cell_angle_gamma 90.000000
_cell_volume 1471.500458
_symmetry_space_group_name_H-M "C 2"
_symmetry_group_IT_number 5
_symmetry_cell_setting 'monoclinic'
loop_
_space_group_symop_operation_xyz
x,y,z
-x,y,-z
1/2+x,1/2+y,z
1/2-x,1/2+y,-z
loop_
_atom_site_type_symbol
_atom_site_label
_atom_site_fract_x
_atom_site_fract_y
_atom_site_fract_z
Si Si1 0.236069 0.158670 0.592835
Si Si2 0.328346 0.270627 0.780650
Si Si3 0.000000 0.371955 0.500000
Si Si4 0.244636 0.530495 0.051776
Si Si5 0.350502 0.150336 0.302865
Si Si6 0.006433 0.733322 0.646164
Si Si7 0.778838 0.800675 0.186456
Si Si8 0.370489 0.534017 0.496672
O O1 0.193576 0.373921 0.664023
O O2 0.327643 0.267368 0.545165
O O3 0.195547 0.186562 0.526208
O O4 0.206955 0.873894 0.634368
O O5 0.417272 0.299117 0.711175
O O6 0.277786 0.542211 0.800145
O O7 0.327236 0.154193 0.866773
O O8 0.277942 0.039513 0.758708
O O9 0.995986 0.542777 0.425488
O O10 0.917796 0.197512 0.539533
O O11 0.302532 0.411622 0.093964
O O12 0.277481 0.778995 0.990584
O O13 0.436685 0.136303 0.308752
O O14 0.348788 0.226861 0.215803
O O15 0.057722 0.977057 0.592189
#
# Coordination Sequence:
#
# PCOD9121079 Si02
#       8
#     4   4   2   4   4   4   4   4
#     4  11  24  41  63  83 114 175 225 277 317 372
#     4  10  23  39  66  98 129 162 209 261 324 385
#     4  12  26  42  58  90 126 182 226 284 328 378
#     4  10  18  38  67 100 128 158 204 258 312 384
#     4  11  24  42  65  88 129 165 221 269 326 378
#     4  11  26  43  58  93 130 177 214 275 334 375
#     4  10  22  38  64 101 119 167 205 263 303 395
#     4  11  25  42  60  84 122 169 236 283 330 375
#
# _framework density 20.387354999999999
#
# number of rings (size 3 to 8) (size 9 to 14) (size 15 to 20)
#    0.800    0.533    2.667    2.800    5.600    2.133 
#    0.000    0.000    0.000    0.800    6.933    0.000 
#    0.000    0.000    0.000    0.000    0.000    0.000 
#
# Total GULP energy -83665.481182 kJ/mol
# GULP energy per Si atom -5577.698745 kJ/mol
# Density = 2.034095 g / cm^3
# Si number density = 20.387355 Si / 1000 Ang^3
#
#
#
# Elastic Constant Matrix: (Units=GPa)
#
#
# Indices 1 2 3 4 5 6 
#
# 1 95.2027 37.3726 44.2060 0.0044 18.7756 0.0028
# 2 37.3726 113.9884 22.9399 0.0337 6.9133 -0.0108
# 3 44.2060 22.9399 58.6258 0.0010 21.0215 0.0017
# 4 0.0044 0.0337 0.0010 27.6258 -0.0072 6.8703
# 5 18.7756 6.9133 21.0215 -0.0072 23.5125 0.0029
# 6 0.0028 -0.0108 0.0017 6.8703 0.0029 33.6868
#
#
#
# Elastic Compliance Matrix: (Units=1/GPa)
#
#
# Indices 1 2 3 4 5 6 
#
# 1 0.017422 -0.003374 -0.010573 0.000001 -0.003467 -0.000002
# 2 -0.003374 0.010186 -0.001963 -0.000013 0.001454 0.000006
# 3 -0.010573 -0.001963 0.033210 -0.000003 -0.020672 0.000001
# 4 0.000001 -0.000013 -0.000003 0.038132 0.000018 -0.007777
# 5 -0.003467 0.001454 -0.020672 0.000018 0.063353 -0.000007
# 6 -0.000002 0.000006 0.000001 -0.007777 -0.000007 0.031271
#
#
# Mechanical properties :
#
#
# Convention : Reuss Voigt Hill
#
# Bulk Modulus (GPa) = 34.48603 52.98376 43.73490
# Shear Modulus (GPa) = 21.27111 27.85159 24.56135
#
# Velocity S-wave (km/s) = 3.23359 3.70012 3.47469
# Velocity P-wave (km/s) = 5.55820 6.65578 6.13160
#
# Compressibility (1/GPa) = 0.02899725
#
# Stress axis : x y z
#
# Youngs Moduli (GPa) = 57.40023 98.17547 30.11096
#
# Poissons Ratio (x) = 0.33122 0.31837
# Poissons Ratio (y) = 0.19366 0.05911
# Poissons Ratio (z) = 0.60691 0.19274
#
# Static dielectric constant tensor:
#      x y z
#    x 1.759580 0.000000 0.064770 
#    y 0.000000 1.791550 -0.000010 
#    z 0.064770 -0.000010 1.766480 
# 
# From -- ./inp_files/62004.got.cif
#   From: 2010.05.17/outbox.cif.g08.bks.cpg/sg5_32_cif.got.tgz:62004.got - 2010.06.03 18:56:24.
