data_PCOD9121701
_publ_section_title
;
Structure prediction by ZEFSAII (Michael W. Deem and Ramdas Pophale) SiO2 
 PCOD9121701
Probable space group: C 2
;
_chemical_formula_sum "Si O2"
_cell_formula_units_Z 24
_cell_length_a 17.207222
_cell_length_b 6.402799
_cell_length_c 9.441776
_cell_angle_alpha 90.000000
_cell_angle_beta 80.497099
_cell_angle_gamma 90.000000
_cell_volume 1025.966867
_symmetry_space_group_name_H-M "C 2"
_symmetry_group_IT_number 5
_symmetry_cell_setting 'monoclinic'
loop_
_space_group_symop_operation_xyz
x,y,z
-x,y,-z
1/2+x,1/2+y,z
1/2-x,1/2+y,-z
loop_
_atom_site_type_symbol
_atom_site_label
_atom_site_fract_x
_atom_site_fract_y
_atom_site_fract_z
Si Si1 0.655591 0.736450 0.492298
Si Si2 0.036761 0.566389 0.634271
Si Si3 0.067459 0.447037 0.069887
Si Si4 0.777631 0.878393 0.685660
Si Si5 0.850063 0.718402 0.179564
Si Si6 0.206979 0.468215 0.194220
O O1 0.580212 0.845795 0.584850
O O2 0.725431 0.752276 0.586180
O O3 0.656922 0.509606 0.419346
O O4 0.678613 0.884824 0.354598
O O5 0.193625 0.715882 0.206366
O O6 0.000000 0.645913 0.500000
O O7 0.972030 0.517432 0.772068
O O8 0.151968 0.358520 0.093544
O O9 0.092012 0.635102 0.958176
O O10 0.000000 0.326269 0.000000
O O11 0.900035 0.717915 0.309323
O O12 0.717701 0.044390 0.772705
O O13 0.799378 0.918807 0.154555
#
# Coordination Sequence:
#
# PCOD9121701 Si02
#       6
#     4   4   4   4   4   4
#     4  10  19  35  64  99 131 167 219 271 348 385
#     4  10  19  39  69  95 141 180 212 282 344 404
#     4  10  22  41  65  94 137 184 214 276 347 396
#     4  10  20  36  64  99 130 164 221 289 321 392
#     4   9  23  39  64  99 128 178 226 266 335 402
#     4  11  21  37  68  93 132 173 226 272 332 396
#
# _framework density 23.392569000000002
#
# number of rings (size 3 to 8) (size 9 to 14) (size 15 to 20)
#    0.000    2.000    3.333    0.000    2.333    0.000 
#    0.000    0.000   18.333   11.000    0.000    0.000 
#    0.000    0.000    0.000    0.000    0.000    0.000 
#
# Total GULP energy -66973.407848 kJ/mol
# GULP energy per Si atom -5581.117321 kJ/mol
# Density = 2.333933 g / cm^3
# Si number density = 23.392569 Si / 1000 Ang^3
#
#
#
# Elastic Constant Matrix: (Units=GPa)
#
#
# Indices 1 2 3 4 5 6 
#
# 1 136.9447 20.1506 38.1247 0.0000 18.5257 0.0000
# 2 20.1506 56.7666 11.7953 0.0000 -7.5002 0.0000
# 3 38.1247 11.7953 126.0311 0.0000 -10.6452 0.0000
# 4 0.0000 0.0000 0.0000 21.7275 0.0000 -3.5028
# 5 18.5257 -7.5002 -10.6452 0.0000 44.3640 0.0000
# 6 0.0000 0.0000 0.0000 -3.5028 0.0000 21.1634
#
#
#
# Elastic Compliance Matrix: (Units=1/GPa)
#
#
# Indices 1 2 3 4 5 6 
#
# 1 0.009316 -0.003379 -0.002938 0.000000 -0.005167 0.000000
# 2 -0.003379 0.019511 -0.000414 0.000000 0.004610 0.000000
# 3 -0.002938 -0.000414 0.009145 0.000000 0.003351 0.000000
# 4 0.000000 0.000000 0.000000 0.047286 0.000000 0.007826
# 5 -0.005167 0.004610 0.003351 0.000000 0.026282 0.000000
# 6 0.000000 0.000000 0.000000 0.007826 0.000000 0.048547
#
#
# Mechanical properties :
#
#
# Convention : Reuss Voigt Hill
#
# Bulk Modulus (GPa) = 40.80219 51.09817 45.95018
# Shear Modulus (GPa) = 27.51475 34.09579 30.80527
#
# Velocity S-wave (km/s) = 3.43332 3.82193 3.63282
# Velocity P-wave (km/s) = 5.76170 6.43174 6.10592
#
# Compressibility (1/GPa) = 0.02450849
#
# Stress axis : x y z
#
# Youngs Moduli (GPa) = 107.33731 51.25384 109.34601
#
# Poissons Ratio (x) = 0.17320 0.32130
# Poissons Ratio (y) = 0.36271 0.04531
# Poissons Ratio (z) = 0.31540 0.02124
#
# Static dielectric constant tensor:
#      x y z
#    x 1.973590 0.000000 0.015880 
#    y 0.000000 1.918180 0.000000 
#    z 0.015880 0.000000 1.868460 
# 
# From -- ./inp_files/28666.got.cif
#   From: 2010.05.17/outbox.cif.g08.bks.cpg/sg5_15_cif.got.tgz:28666.got - 2010.06.03 18:56:24.
