data_PCOD9122376
_publ_section_title
;
Structure prediction by ZEFSAII (Michael W. Deem and Ramdas Pophale) SiO2 
 PCOD9122376
Probable space group: C 2
;
_chemical_formula_sum "Si O2"
_cell_formula_units_Z 32
_cell_length_a 18.930450
_cell_length_b 14.519334
_cell_length_c 10.812423
_cell_angle_alpha 90.000000
_cell_angle_beta 26.579712
_cell_angle_gamma 90.000000
_cell_volume 1329.743396
_symmetry_space_group_name_H-M "C 2"
_symmetry_group_IT_number 5
_symmetry_cell_setting 'monoclinic'
loop_
_space_group_symop_operation_xyz
x,y,z
-x,y,-z
1/2+x,1/2+y,z
1/2-x,1/2+y,-z
loop_
_atom_site_type_symbol
_atom_site_label
_atom_site_fract_x
_atom_site_fract_y
_atom_site_fract_z
Si Si1 0.176905 0.958410 0.273026
Si Si2 0.780406 0.103353 0.005686
Si Si3 0.174099 0.432817 0.276503
Si Si4 0.192182 0.804850 0.427349
Si Si5 0.678623 0.625165 0.679015
Si Si6 0.167983 0.759194 0.044986
Si Si7 0.692523 0.416548 0.674578
Si Si8 0.141979 0.141979 0.457952
O O1 0.245075 0.866875 0.228184
O O2 0.000000 0.938296 0.500000
O O3 0.248155 0.026503 0.057893
O O4 0.165044 0.032070 0.403673
O O5 0.665688 0.188408 0.162902
O O6 0.954130 0.148191 0.726635
O O7 0.764405 0.031195 0.141567
O O8 0.237590 0.353737 0.084918
O O9 0.209501 0.389685 0.355796
O O10 0.000000 0.452564 0.500000
O O11 0.252288 0.701093 0.337805
O O12 0.232487 0.857234 0.491478
O O13 0.003891 0.793713 0.720307
O O14 0.743998 0.522266 0.571289
O O15 0.685310 0.665189 0.529594
O O16 0.500000 0.614343 0.000000
O O17 0.255803 0.699582 0.800353
O O18 0.500000 0.410020 0.000000
#
# Coordination Sequence:
#
# PCOD9122376 Si02
#       8
#     4   4   4   4   4   4   4   4
#     4   9  19  40  67  93 129 176 220 270 336 409
#     4  10  22  43  68  98 141 179 228 283 347 407
#     4  12  25  43  69 107 141 183 237 289 345 410
#     4  12  24  44  69 104 133 178 236 285 349 421
#     4  11  25  42  65  95 135 178 227 281 356 414
#     4  11  23  41  70 104 132 181 234 286 340 416
#     4  11  23  46  72  94 136 183 226 286 345 413
#     4  10  19  42  69  93 129 182 230 274 332 419
#
# _framework density 24.064793000000002
#
# number of rings (size 3 to 8) (size 9 to 14) (size 15 to 20)
#    0.000    1.250    2.500    5.625    1.750    0.000 
#   13.500    0.000    0.000    0.000    0.000    0.000 
#    0.000    0.000    0.000    0.000    0.000    0.000 
#
# Total GULP energy -89381.476130 kJ/mol
# GULP energy per Si atom -5586.342258 kJ/mol
# Density = 2.401002 g / cm^3
# Si number density = 24.064793 Si / 1000 Ang^3
#
#
#
# Elastic Constant Matrix: (Units=GPa)
#
#
# Indices 1 2 3 4 5 6 
#
# 1 96.3574 29.8743 2.8133 0.0001 7.0365 0.0000
# 2 29.8743 152.9045 0.3078 0.0001 2.5803 0.0000
# 3 2.8133 0.3078 37.3710 0.0001 -4.1586 0.0000
# 4 0.0001 0.0001 0.0001 14.7981 -0.0001 12.1139
# 5 7.0365 2.5803 -4.1586 -0.0001 15.6487 0.0000
# 6 0.0000 0.0000 0.0000 12.1139 0.0000 43.4809
#
#
#
# Elastic Compliance Matrix: (Units=1/GPa)
#
#
# Indices 1 2 3 4 5 6 
#
# 1 0.011464 -0.002150 -0.001422 0.000000 -0.005178 0.000000
# 2 -0.002150 0.006963 0.000087 0.000000 -0.000158 0.000000
# 3 -0.001422 0.000087 0.027755 0.000000 0.008001 0.000000
# 4 0.000000 0.000000 0.000000 0.087542 0.000001 -0.024389
# 5 -0.005178 -0.000158 0.008001 0.000001 0.068384 0.000000
# 6 0.000000 0.000000 0.000000 -0.024389 0.000000 0.029794
#
#
# Mechanical properties :
#
#
# Convention : Reuss Voigt Hill
#
# Bulk Modulus (GPa) = 25.50149 39.18040 32.34094
# Shear Modulus (GPa) = 19.84594 31.69470 25.77032
#
# Velocity S-wave (km/s) = 2.87485 3.63307 3.27597
# Velocity P-wave (km/s) = 4.65185 5.82370 5.27044
#
# Compressibility (1/GPa) = 0.03921340
#
# Stress axis : x y z
#
# Youngs Moduli (GPa) = 87.22858 143.62623 36.02913
#
# Poissons Ratio (x) = 0.30874 0.05122
# Poissons Ratio (y) = 0.18751 -0.00313
# Poissons Ratio (z) = 0.12400 -0.01247
#
# Static dielectric constant tensor:
#      x y z
#    x 2.046370 0.000000 0.084470 
#    y 0.000000 1.964270 0.000000 
#    z 0.084470 0.000000 1.998820 
# 
# From -- ./inp_files/44966.got.cif
#   From: 2010.05.17/outbox.cif.g08.bks.cpg/sg5_23_cif.got.tgz:44966.got - 2010.06.03 18:56:24.
