data_PCOD9122633
_publ_section_title
;
Structure prediction by ZEFSAII (Michael W. Deem and Ramdas Pophale) SiO2 
 PCOD9122633
Probable space group: C 2
;
_chemical_formula_sum "Si O2"
_cell_formula_units_Z 30
_cell_length_a 5.367932
_cell_length_b 32.767324
_cell_length_c 7.123875
_cell_angle_alpha 90.000000
_cell_angle_beta 78.966167
_cell_angle_gamma 90.000000
_cell_volume 1229.874850
_symmetry_space_group_name_H-M "C 2"
_symmetry_group_IT_number 5
_symmetry_cell_setting 'monoclinic'
loop_
_space_group_symop_operation_xyz
x,y,z
-x,y,-z
1/2+x,1/2+y,z
1/2-x,1/2+y,-z
loop_
_atom_site_type_symbol
_atom_site_label
_atom_site_fract_x
_atom_site_fract_y
_atom_site_fract_z
Si Si1 0.385647 0.476230 0.230713
Si Si2 0.723592 0.854948 0.825479
Si Si3 0.587949 0.281894 0.706840
Si Si4 0.091527 0.068308 0.767948
Si Si5 0.089460 0.607260 0.773350
Si Si6 0.000000 0.331949 0.500000
Si Si7 0.615484 0.945740 0.798331
Si Si8 0.284206 0.195418 0.371345
O O1 0.305587 0.522736 0.273654
O O2 0.641843 0.468582 0.312884
O O3 0.144218 0.445718 0.285355
O O4 0.500000 0.473471 0.000000
O O5 0.678845 0.857226 0.607037
O O6 0.743808 0.903434 0.856075
O O7 0.915649 0.817316 0.819236
O O8 0.500000 0.844487 0.000000
O O9 0.500000 0.279378 0.500000
O O10 0.630229 0.235442 0.760528
O O11 0.861128 0.302605 0.663729
O O12 0.327263 0.098892 0.700128
O O13 0.830304 0.078374 0.697621
O O14 0.000000 0.071551 0.000000
O O15 0.196462 0.653055 0.739819
O O16 0.000000 0.600520 0.000000
O O17 0.500000 0.967499 0.000000
O O18 0.500000 0.192277 0.500000
O O19 0.000000 0.201580 0.500000
#
# Coordination Sequence:
#
# PCOD9122633 Si02
#       8
#     4   4   4   4   4   2   4   4
#     4   9  16  29  50  81 115 155 191 243 298 357
#     4  10  22  38  59  93 122 161 209 261 311 371
#     4   9  20  39  59  83 114 155 206 249 300 372
#     4   9  17  31  53  81 120 153 191 240 304 356
#     4  10  20  35  55  89 119 148 193 251 296 359
#     4  10  20  40  62  80 118 166 202 252 312 364
#     4   9  18  30  50  83 120 147 197 249 295 356
#     4  11  22  40  62  85 114 159 203 244 299 364
#
# _framework density 24.392726
#
# number of rings (size 3 to 8) (size 9 to 14) (size 15 to 20)
#    0.000    2.400    0.667    1.600    1.867    3.733 
#    2.400    0.667    0.000    0.000   17.333    0.000 
#    0.000    0.000    0.000    0.000    0.000    0.000 
#
# Total GULP energy -83538.684696 kJ/mol
# GULP energy per Si atom -5569.245646 kJ/mol
# Density = 2.433721 g / cm^3
# Si number density = 24.392726 Si / 1000 Ang^3
#
#
#
# Elastic Constant Matrix: (Units=GPa)
#
#
# Indices 1 2 3 4 5 6 
#
# 1 146.8771 43.9909 17.9237 0.0000 -22.5364 0.0000
# 2 43.9909 135.8226 19.4553 0.0000 -38.2900 0.0000
# 3 17.9237 19.4553 59.2048 0.0000 -13.6967 0.0000
# 4 0.0000 0.0000 0.0000 21.6624 0.0000 -2.6346
# 5 -22.5364 -38.2900 -13.6967 0.0000 40.1445 0.0000
# 6 0.0000 0.0000 0.0000 -2.6346 0.0000 3.1750
#
#
#
# Elastic Compliance Matrix: (Units=1/GPa)
#
#
# Indices 1 2 3 4 5 6 
#
# 1 0.007831 -0.001692 -0.001271 0.000000 0.002348 0.000000
# 2 -0.001692 0.010513 -0.000915 0.000000 0.008765 0.000000
# 3 -0.001271 -0.000915 0.018684 0.000000 0.004789 0.000000
# 4 0.000000 0.000000 0.000000 0.051345 0.000000 0.042606
# 5 0.002348 0.008765 0.004789 0.000000 0.036222 0.000000
# 6 0.000000 0.000000 0.000000 0.042606 0.000000 0.350313
#
#
# Mechanical properties :
#
#
# Convention : Reuss Voigt Hill
#
# Bulk Modulus (GPa) = 34.16354 56.07159 45.11756
# Shear Modulus (GPa) = 10.15394 30.36535 20.25964
#
# Velocity S-wave (km/s) = 2.04248 3.53207 2.88507
# Velocity P-wave (km/s) = 4.42700 6.29849 5.44377
#
# Compressibility (1/GPa) = 0.02927097
#
# Stress axis : x y z
#
# Youngs Moduli (GPa) = 127.70284 95.12445 53.52247
#
# Poissons Ratio (x) = 0.16096 0.06805
# Poissons Ratio (y) = 0.21609 0.04895
# Poissons Ratio (z) = 0.16236 0.08699
#
# Static dielectric constant tensor:
#      x y z
#    x 2.104010 0.000000 0.085420 
#    y 0.000000 1.938960 0.000000 
#    z 0.085420 0.000000 2.014150 
# 
# From -- ./inp_files/13342.got.cif
#   From: 2010.05.17/outbox.cif.g08.bks.cpg/sg5_7_cif.got.tgz:13342.got - 2010.06.03 18:56:24.
