data_PCOD9122977
_publ_section_title
;
Structure prediction by ZEFSAII (Michael W. Deem and Ramdas Pophale) SiO2 
 PCOD9122977
Probable space group: C 2
;
_chemical_formula_sum "Si O2"
_cell_formula_units_Z 28
_cell_length_a 30.195024
_cell_length_b 8.781118
_cell_length_c 5.253515
_cell_angle_alpha 90.000000
_cell_angle_beta 123.628147
_cell_angle_gamma 90.000000
_cell_volume 1159.837860
_symmetry_space_group_name_H-M "C 2"
_symmetry_group_IT_number 5
_symmetry_cell_setting 'monoclinic'
loop_
_space_group_symop_operation_xyz
x,y,z
-x,y,-z
1/2+x,1/2+y,z
1/2-x,1/2+y,-z
loop_
_atom_site_type_symbol
_atom_site_label
_atom_site_fract_x
_atom_site_fract_y
_atom_site_fract_z
Si Si1 0.309252 0.551990 0.208101
Si Si2 0.619791 0.779741 0.779786
Si Si3 0.442324 0.179610 0.229138
Si Si4 0.758989 0.799986 0.754500
Si Si5 0.157462 0.795037 0.350396
Si Si6 0.650511 0.080586 0.746790
Si Si7 0.443579 0.861415 0.936463
O O1 0.344894 0.630586 0.107252
O O2 0.288417 0.688184 0.323210
O O3 0.347204 0.432177 0.465797
O O4 0.262067 0.456145 0.923250
O O5 0.595809 0.818052 0.422075
O O6 0.659707 0.923296 0.921896
O O7 0.577792 0.781991 0.873824
O O8 0.500000 0.235798 0.500000
O O9 0.410716 0.115378 0.374110
O O10 0.398192 0.294596 0.978689
O O11 0.449089 0.036574 0.056219
O O12 0.781311 0.829135 0.545132
O O13 0.811002 0.702313 0.001469
O O14 0.158005 0.625450 0.477295
O O15 0.500000 0.815388 0.000000
#
# Coordination Sequence:
#
# PCOD9122977 Si02
#       7
#     4   4   4   4   4   4   4
#     4  11  25  42  67  97 140 186 232 294 358 429
#     4  11  23  40  70 101 142 180 231 297 351 411
#     4  10  20  36  69 101 138 181 236 295 344 414
#     4  10  23  43  65  93 137 182 239 283 361 427
#     4  10  22  41  65 100 139 177 241 293 352 422
#     4   9  19  40  61 101 134 175 232 295 342 417
#     4  11  22  41  70 106 136 179 238 292 352 418
#
# _framework density 24.141303000000001
#
# number of rings (size 3 to 8) (size 9 to 14) (size 15 to 20)
#    0.000    1.714    1.429    3.000    2.000    3.429 
#    0.000    0.000    9.429    0.000    0.000    0.000 
#    0.000    0.000    0.000    0.000    0.000    0.000 
#
# Total GULP energy -78005.981365 kJ/mol
# GULP energy per Si atom -5571.855812 kJ/mol
# Density = 2.408636 g / cm^3
# Si number density = 24.141303 Si / 1000 Ang^3
#
#
#
# Elastic Constant Matrix: (Units=GPa)
#
#
# Indices 1 2 3 4 5 6 
#
# 1 150.3448 40.6207 38.0330 0.0000 -3.7896 0.0000
# 2 40.6207 91.2436 18.0021 0.0000 2.3111 0.0000
# 3 38.0330 18.0021 73.0308 0.0000 7.6742 0.0000
# 4 0.0000 0.0000 0.0000 19.0155 0.0000 -4.0643
# 5 -3.7896 2.3111 7.6742 0.0000 41.8060 0.0000
# 6 0.0000 0.0000 0.0000 -4.0643 0.0000 31.4699
#
#
#
# Elastic Compliance Matrix: (Units=1/GPa)
#
#
# Indices 1 2 3 4 5 6 
#
# 1 0.008492 -0.003065 -0.003840 0.000000 0.001644 0.000000
# 2 -0.003065 0.012627 -0.001442 0.000000 -0.000711 0.000000
# 3 -0.003840 -0.001442 0.016392 0.000000 -0.003277 0.000000
# 4 0.000000 0.000000 0.000000 0.054082 0.000000 0.006985
# 5 0.001644 -0.000711 -0.003277 0.000000 0.024710 0.000000
# 6 0.000000 0.000000 0.000000 0.006985 0.000000 0.032678
#
#
# Mechanical properties :
#
#
# Convention : Reuss Voigt Hill
#
# Bulk Modulus (GPa) = 48.03403 56.43675 52.23539
# Shear Modulus (GPa) = 28.96649 32.98915 30.97782
#
# Velocity S-wave (km/s) = 3.46768 3.70063 3.58605
# Velocity P-wave (km/s) = 5.99777 6.45663 6.23142
#
# Compressibility (1/GPa) = 0.02081857
#
# Stress axis : x y z
#
# Youngs Moduli (GPa) = 117.75451 79.19850 61.00397
#
# Poissons Ratio (x) = 0.24272 0.23425
# Poissons Ratio (y) = 0.36088 0.08795
# Poissons Ratio (z) = 0.45217 0.11418
#
# Static dielectric constant tensor:
#      x y z
#    x 2.213910 0.000000 -0.290780 
#    y 0.000000 2.001250 0.000000 
#    z -0.290780 0.000000 2.217720 
# 
# From -- ./inp_files/11158.got.cif
#   From: 2010.05.17/outbox.cif.g08.bks.cpg/sg5_6_cif.got.tgz:11158.got - 2010.06.03 18:56:24.
