data_PCOD9122225
_publ_section_title
;
Structure prediction by ZEFSAII (Michael W. Deem and Ramdas Pophale) SiO2 
 PCOD9122225
Probable space group: C 2
;
_chemical_formula_sum "Si O2"
_cell_formula_units_Z 26
_cell_length_a 25.106944
_cell_length_b 8.621936
_cell_length_c 16.991347
_cell_angle_alpha 90.000000
_cell_angle_beta 19.326981
_cell_angle_gamma 90.000000
_cell_volume 1217.307757
_symmetry_space_group_name_H-M "C 2"
_symmetry_group_IT_number 5
_symmetry_cell_setting 'monoclinic'
loop_
_space_group_symop_operation_xyz
x,y,z
-x,y,-z
1/2+x,1/2+y,z
1/2-x,1/2+y,-z
loop_
_atom_site_type_symbol
_atom_site_label
_atom_site_fract_x
_atom_site_fract_y
_atom_site_fract_z
Si Si1 0.000000 0.228161 0.000000
Si Si2 0.162981 0.563412 0.493654
Si Si3 0.971129 0.356205 0.869084
Si Si4 0.830658 0.148599 0.941182
Si Si5 0.459539 0.321481 0.718525
Si Si6 0.337937 0.525808 0.674583
Si Si7 0.441274 0.836306 0.495170
O O1 0.156980 0.124503 0.764138
O O2 0.980866 0.330206 0.948001
O O3 0.122751 0.441702 0.618832
O O4 0.118496 0.475495 0.474716
O O5 0.040507 0.708958 0.669081
O O6 0.925121 0.198290 0.887989
O O7 0.815446 0.461817 0.067126
O O8 0.921891 0.241700 0.743923
O O9 0.852163 0.965913 0.898013
O O10 0.650271 0.214724 0.185640
O O11 0.608736 0.404909 0.466646
O O12 0.500000 0.534437 0.500000
O O13 0.307614 0.701043 0.689734
O O14 0.500000 0.882861 0.500000
#
# Coordination Sequence:
#
# PCOD9122225 Si02
#       7
#     2   4   4   4   4   4   4
#     4  12  28  50  70  94 136 194 252 296 342 384
#     4  11  26  46  69  97 137 183 244 293 343 414
#     4  11  24  48  67  98 137 182 239 290 347 413
#     4  10  21  37  67 102 140 175 224 273 360 433
#     4  11  21  38  66 100 137 179 213 287 357 427
#     4  10  19  39  68 100 139 176 206 282 360 425
#     4   9  21  38  65 104 140 169 218 277 357 438
#
# _framework density 21.358609999999999
#
# number of rings (size 3 to 8) (size 9 to 14) (size 15 to 20)
#    0.000    1.538    3.077    1.846    4.308    4.308 
#    5.538    0.000    0.000    0.000    0.000    0.000 
#    0.000    0.000    0.000    0.000    0.000    0.000 
#
# Total GULP energy -72597.652341 kJ/mol
# GULP energy per Si atom -5584.434795 kJ/mol
# Density = 2.131000 g / cm^3
# Si number density = 21.358610 Si / 1000 Ang^3
#
#
#
# Elastic Constant Matrix: (Units=GPa)
#
#
# Indices 1 2 3 4 5 6 
#
# 1 101.3968 20.9905 31.2222 0.0000 8.8439 0.0000
# 2 20.9905 97.9552 39.5050 0.0000 -18.2907 0.0000
# 3 31.2222 39.5050 80.2664 0.0000 -9.8536 0.0000
# 4 0.0000 0.0000 0.0000 24.6291 0.0000 6.6720
# 5 8.8439 -18.2907 -9.8536 0.0000 22.5970 0.0000
# 6 0.0000 0.0000 0.0000 6.6720 0.0000 12.1900
#
#
#
# Elastic Compliance Matrix: (Units=1/GPa)
#
#
# Indices 1 2 3 4 5 6 
#
# 1 0.012642 -0.002452 -0.004820 0.000000 -0.009034 0.000000
# 2 -0.002452 0.014748 -0.004989 0.000000 0.010722 0.000000
# 3 -0.004820 -0.004989 0.017459 0.000000 0.005462 0.000000
# 4 0.000000 0.000000 0.000000 0.047671 0.000000 -0.026092
# 5 -0.009034 0.010722 0.005462 0.000000 0.058850 0.000000
# 6 0.000000 0.000000 0.000000 -0.026092 0.000000 0.096315
#
#
# Mechanical properties :
#
#
# Convention : Reuss Voigt Hill
#
# Bulk Modulus (GPa) = 49.19249 51.45042 50.32145
# Shear Modulus (GPa) = 17.92235 24.40995 21.16615
#
# Velocity S-wave (km/s) = 2.89989 3.38429 3.15141
# Velocity P-wave (km/s) = 5.85612 6.27793 6.07069
#
# Compressibility (1/GPa) = 0.02032831
#
# Stress axis : x y z
#
# Youngs Moduli (GPa) = 79.10197 67.80506 57.27718
#
# Poissons Ratio (x) = 0.16627 0.27605
# Poissons Ratio (y) = 0.19397 0.28573
# Poissons Ratio (z) = 0.38124 0.33825
#
# Static dielectric constant tensor:
#      x y z
#    x 1.791320 0.000000 0.023740 
#    y 0.000000 1.796680 0.000000 
#    z 0.023740 0.000000 1.809490 
# 
# From -- ./inp_files/63573.got.cif
#   From: 2010.05.17/outbox.cif.g08.bks.cpg/sg5_32_cif.got.tgz:63573.got - 2010.06.03 18:56:24.
