data_PCOD9122959
_publ_section_title
;
Structure prediction by ZEFSAII (Michael W. Deem and Ramdas Pophale) SiO2 
 PCOD9122959
Probable space group: C 2
;
_chemical_formula_sum "Si O2"
_cell_formula_units_Z 26
_cell_length_a 11.675959
_cell_length_b 13.051268
_cell_length_c 8.656230
_cell_angle_alpha 90.000000
_cell_angle_beta 80.627120
_cell_angle_gamma 90.000000
_cell_volume 1301.478189
_symmetry_space_group_name_H-M "C 2"
_symmetry_group_IT_number 5
_symmetry_cell_setting 'monoclinic'
loop_
_space_group_symop_operation_xyz
x,y,z
-x,y,-z
1/2+x,1/2+y,z
1/2-x,1/2+y,-z
loop_
_atom_site_type_symbol
_atom_site_label
_atom_site_fract_x
_atom_site_fract_y
_atom_site_fract_z
Si Si1 0.089092 0.655520 0.741867
Si Si2 0.338241 0.386291 0.302448
Si Si3 0.329170 0.160749 0.921127
Si Si4 0.630201 0.504678 0.993397
Si Si5 0.209707 0.864644 0.241470
Si Si6 0.374506 0.951167 0.454964
Si Si7 0.500000 0.395943 0.500000
O O1 0.128312 0.767887 0.676111
O O2 0.125510 0.567137 0.613372
O O3 0.950845 0.645104 0.804310
O O4 0.143982 0.649285 0.902102
O O5 0.365641 0.406838 0.120006
O O6 0.214240 0.421508 0.388923
O O7 0.427089 0.453745 0.385907
O O8 0.228750 0.079758 0.909572
O O9 0.281092 0.270331 0.876781
O O10 0.500000 0.546642 0.000000
O O11 0.668291 0.463674 0.152585
O O12 0.323433 0.887229 0.319159
O O13 0.102684 0.842232 0.380971
O O14 0.500000 0.929580 0.500000
#
# Coordination Sequence:
#
# PCOD9122959 Si02
#       7
#     4   4   4   4   4   4   2
#     4  11  22  43  71  99 127 172 236 277 325 403
#     4  11  23  39  71  94 133 175 221 280 328 402
#     4  11  23  41  71 101 124 181 228 279 328 401
#     4  12  22  42  66 101 135 176 225 281 337 400
#     4  11  22  44  68  96 136 172 234 274 335 405
#     4  11  26  44  65 102 140 177 221 283 351 399
#     4  10  20  36  66  96 114 170 214 272 326 380
#
# _framework density 19.977284999999998
#
# number of rings (size 3 to 8) (size 9 to 14) (size 15 to 20)
#    0.000    0.923    6.154    0.923    1.077    2.462 
#    2.769    0.000    8.462    0.000    0.000    0.000 
#    0.000    0.000    0.000    0.000    0.000    0.000 
#
# Total GULP energy -72406.856384 kJ/mol
# GULP energy per Si atom -5569.758183 kJ/mol
# Density = 1.993182 g / cm^3
# Si number density = 19.977285 Si / 1000 Ang^3
#
#
#
# Elastic Constant Matrix: (Units=GPa)
#
#
# Indices 1 2 3 4 5 6 
#
# 1 158.5795 53.0741 45.0121 0.0000 13.4455 0.0000
# 2 53.0741 74.6148 12.4260 0.0000 -11.0646 0.0000
# 3 45.0121 12.4260 81.8944 0.0000 2.8703 0.0000
# 4 0.0000 0.0000 0.0000 31.1550 0.0000 1.9465
# 5 13.4455 -11.0646 2.8703 0.0000 38.1682 0.0000
# 6 0.0000 0.0000 0.0000 1.9465 0.0000 17.6410
#
#
#
# Elastic Compliance Matrix: (Units=1/GPa)
#
#
# Indices 1 2 3 4 5 6 
#
# 1 0.010606 -0.007631 -0.004475 0.000000 -0.005612 0.000000
# 2 -0.007631 0.019930 0.000876 0.000000 0.008400 0.000000
# 3 -0.004475 0.000876 0.014512 0.000000 0.000739 0.000000
# 4 0.000000 0.000000 0.000000 0.032320 0.000000 -0.003566
# 5 -0.005612 0.008400 0.000739 0.000000 0.030556 0.000000
# 6 0.000000 0.000000 0.000000 -0.003566 0.000000 0.057080
#
#
# Mechanical properties :
#
#
# Convention : Reuss Voigt Hill
#
# Bulk Modulus (GPa) = 44.27241 59.56813 51.92027
# Shear Modulus (GPa) = 25.64197 31.03128 28.33663
#
# Velocity S-wave (km/s) = 3.58656 3.94550 3.77031
# Velocity P-wave (km/s) = 6.27381 7.11609 6.70818
#
# Compressibility (1/GPa) = 0.02258743
#
# Stress axis : x y z
#
# Youngs Moduli (GPa) = 94.28667 50.17580 68.91047
#
# Poissons Ratio (x) = 0.38289 0.30836
# Poissons Ratio (y) = 0.71951 -0.06036
# Poissons Ratio (z) = 0.42192 -0.04395
#
# Static dielectric constant tensor:
#      x y z
#    x 1.722870 0.000000 0.043280 
#    y 0.000000 1.724020 0.000000 
#    z 0.043280 0.000000 1.798510 
# 
# From -- ./inp_files/19401.got.cif
#   From: 2010.05.17/outbox.cif.g08.bks.cpg/sg5_10_cif.got.tgz:19401.got - 2010.06.03 18:56:24.
