data_PCOD9122745
_publ_section_title
;
Structure prediction by ZEFSAII (Michael W. Deem and Ramdas Pophale) SiO2 
 PCOD9122745
Probable space group: C 2
;
_chemical_formula_sum "Si O2"
_cell_formula_units_Z 24
_cell_length_a 13.332650
_cell_length_b 8.599321
_cell_length_c 18.627130
_cell_angle_alpha 90.000000
_cell_angle_beta 31.078936
_cell_angle_gamma 90.000000
_cell_volume 1102.453165
_symmetry_space_group_name_H-M "C 2"
_symmetry_group_IT_number 5
_symmetry_cell_setting 'monoclinic'
loop_
_space_group_symop_operation_xyz
x,y,z
-x,y,-z
1/2+x,1/2+y,z
1/2-x,1/2+y,-z
loop_
_atom_site_type_symbol
_atom_site_label
_atom_site_fract_x
_atom_site_fract_y
_atom_site_fract_z
Si Si1 0.000000 0.135950 0.000000
Si Si2 0.821219 0.958489 0.394229
Si Si3 0.177839 0.596037 0.620176
Si Si4 0.554549 0.969125 0.113036
Si Si5 0.500000 0.384482 0.500000
Si Si6 0.966327 0.097732 0.861445
Si Si7 0.209735 0.879221 0.234894
O O1 0.008838 0.049029 0.070332
O O2 0.814941 0.250951 0.122140
O O3 0.775970 0.777887 0.409639
O O4 0.033095 0.961258 0.303245
O O5 0.673384 0.035991 0.541022
O O6 0.858955 0.044684 0.296633
O O7 0.342869 0.494614 0.558085
O O8 0.995457 0.559890 0.782926
O O9 0.553107 0.784196 0.127866
O O10 0.380812 0.989038 0.161485
O O11 0.763983 0.024029 0.959440
O O12 0.610984 0.302533 0.366647
#
# Coordination Sequence:
#
# PCOD9122745 Si02
#       7
#     2   4   4   4   2   4   4
#     4  10  20  36  54  82 114 148 190 230 274 330
#     4  11  21  37  60  85 113 149 187 232 281 333
#     4  10  20  37  58  85 116 147 186 231 277 335
#     4  10  20  37  59  84 113 148 187 229 276 334
#     4   8  18  34  56  84 114 146 184 224 278 334
#     4  11  22  37  57  82 113 150 190 234 280 329
#     4   9  18  35  59  81 111 151 185 219 276 352
#
# _framework density 21.769632000000001
#
# number of rings (size 3 to 8) (size 9 to 14) (size 15 to 20)
#    0.000    2.000    0.000    5.000    0.000    1.333 
#    0.000   11.667    0.000    1.000    0.000    0.000 
#    0.000    0.000    0.000    0.000    0.000    0.000 
#
# Total GULP energy -66980.493555 kJ/mol
# GULP energy per Si atom -5581.707796 kJ/mol
# Density = 2.172008 g / cm^3
# Si number density = 21.769632 Si / 1000 Ang^3
#
#
#
# Elastic Constant Matrix: (Units=GPa)
#
#
# Indices 1 2 3 4 5 6 
#
# 1 73.5118 -4.2585 7.5905 0.0001 16.5017 0.0000
# 2 -4.2585 47.1806 -7.6628 0.0023 -1.9231 -0.0006
# 3 7.5905 -7.6628 93.3167 0.0019 38.5665 -0.0006
# 4 0.0001 0.0023 0.0019 34.1856 0.0005 5.1890
# 5 16.5017 -1.9231 38.5665 0.0005 33.8599 -0.0001
# 6 0.0000 -0.0006 -0.0006 5.1890 -0.0001 29.0139
#
#
#
# Elastic Compliance Matrix: (Units=1/GPa)
#
#
# Indices 1 2 3 4 5 6 
#
# 1 0.016005 0.001572 0.003805 0.000000 -0.012045 0.000000
# 2 0.001572 0.021676 0.002758 -0.000002 -0.002677 0.000001
# 3 0.003805 0.002758 0.021416 -0.000001 -0.026091 0.000001
# 4 0.000000 -0.000002 -0.000001 0.030068 0.000001 -0.005378
# 5 -0.012045 -0.002677 -0.026091 0.000001 0.064969 0.000000
# 6 0.000000 0.000001 0.000001 -0.005378 0.000000 0.035428
#
#
# Mechanical properties :
#
#
# Convention : Reuss Voigt Hill
#
# Bulk Modulus (GPa) = 13.26829 22.81639 18.04234
# Shear Modulus (GPa) = 25.19971 33.96787 29.58379
#
# Velocity S-wave (km/s) = 3.40599 3.95439 3.69039
# Velocity P-wave (km/s) = 4.64497 5.59939 5.14436
#
# Compressibility (1/GPa) = 0.07536766
#
# Stress axis : x y z
#
# Youngs Moduli (GPa) = 62.47958 46.13417 46.69370
#
# Poissons Ratio (x) = -0.07251 -0.17768
# Poissons Ratio (y) = -0.09820 -0.12879
# Poissons Ratio (z) = -0.23775 -0.12725
#
# Static dielectric constant tensor:
#      x y z
#    x 1.851740 0.000000 0.020690 
#    y 0.000000 1.745150 0.000000 
#    z 0.020690 0.000000 1.875920 
# 
# From -- ./inp_files/22818.got.cif
#   From: 2010.05.17/outbox.cif.g08.bks.cpg/sg5_12_cif.got.tgz:22818.got - 2010.06.03 18:56:24.
