data_PCOD9122807
_publ_section_title
;
Structure prediction by ZEFSAII (Michael W. Deem and Ramdas Pophale) SiO2 
 PCOD9122807
Probable space group: C 2
;
_chemical_formula_sum "Si O2"
_cell_formula_units_Z 32
_cell_length_a 9.739388
_cell_length_b 13.343875
_cell_length_c 22.743555
_cell_angle_alpha 90.000000
_cell_angle_beta 29.204927
_cell_angle_gamma 90.000000
_cell_volume 1442.227280
_symmetry_space_group_name_H-M "C 2"
_symmetry_group_IT_number 5
_symmetry_cell_setting 'monoclinic'
loop_
_space_group_symop_operation_xyz
x,y,z
-x,y,-z
1/2+x,1/2+y,z
1/2-x,1/2+y,-z
loop_
_atom_site_type_symbol
_atom_site_label
_atom_site_fract_x
_atom_site_fract_y
_atom_site_fract_z
Si Si1 0.491828 0.483780 0.358138
Si Si2 0.685418 0.265110 0.294108
Si Si3 0.771324 0.821095 0.131389
Si Si4 0.790331 0.486318 0.418345
Si Si5 0.192401 0.301256 0.290461
Si Si6 0.437677 0.038641 0.801219
Si Si7 0.245639 0.255898 0.867111
Si Si8 0.810883 0.646038 0.519832
O O1 0.486676 0.365070 0.364016
O O2 0.313894 0.532693 0.480666
O O3 0.308396 0.554764 0.386512
O O4 0.816207 0.511577 0.244517
O O5 0.806613 0.251673 0.182922
O O6 0.513040 0.175425 0.387235
O O7 0.955250 0.290275 0.232912
O O8 0.830911 0.785934 0.174685
O O9 0.760087 0.942590 0.132481
O O10 0.000000 0.783630 0.000000
O O11 0.500000 0.442644 0.500000
O O12 0.013046 0.402511 0.352065
O O13 0.909308 0.549604 0.319628
O O14 0.452175 0.309045 0.237623
O O15 0.975547 0.212361 0.383953
O O16 0.297208 0.142256 0.868981
O O17 0.000000 0.300170 0.000000
O O18 0.000000 0.701845 0.500000
#
# Coordination Sequence:
#
# PCOD9122807 Si02
#       8
#     4   4   4   4   4   4   4   4
#     4  10  20  36  58  89 127 155 196 249 314 371
#     4  11  24  40  63  93 126 163 206 254 311 371
#     4  10  20  39  65  87 115 167 217 248 296 360
#     4   9  17  34  60  89 119 153 196 248 303 373
#     4  11  21  37  62  85 121 160 196 250 308 356
#     4   9  19  35  60  87 117 159 209 252 299 358
#     4  12  25  41  59  90 129 163 208 258 304 358
#     4  12  22  39  63  93 125 159 202 257 311 374
#
# _framework density 22.187905000000001
#
# number of rings (size 3 to 8) (size 9 to 14) (size 15 to 20)
#    0.000    1.500    3.750    3.000    0.000    1.500 
#    0.000    0.000    0.000    0.750    0.000    0.000 
#    0.000    0.000    0.000    0.000    0.000    0.000 
#
# Total GULP energy -89112.638866 kJ/mol
# GULP energy per Si atom -5569.539929 kJ/mol
# Density = 2.213740 g / cm^3
# Si number density = 22.187905 Si / 1000 Ang^3
#
#
#
# Elastic Constant Matrix: (Units=GPa)
#
#
# Indices 1 2 3 4 5 6 
#
# 1 57.1302 -6.0440 3.1432 -0.0009 7.2657 -0.0004
# 2 -6.0440 63.4866 10.1047 -0.0039 -10.5970 -0.0005
# 3 3.1432 10.1047 84.7364 -0.0061 14.1008 0.0000
# 4 -0.0009 -0.0039 -0.0061 19.6900 0.0007 4.8564
# 5 7.2657 -10.5970 14.1008 0.0007 32.2994 0.0007
# 6 -0.0004 -0.0005 0.0000 4.8564 0.0007 14.8790
#
#
#
# Elastic Compliance Matrix: (Units=1/GPa)
#
#
# Indices 1 2 3 4 5 6 
#
# 1 0.018095 0.001155 -0.000210 0.000001 -0.003600 0.000000
# 2 0.001155 0.017542 -0.003288 0.000002 0.006931 -0.000001
# 3 -0.000210 -0.003288 0.013342 0.000004 -0.006856 -0.000001
# 4 0.000001 0.000002 0.000004 0.055234 -0.000002 -0.018028
# 5 -0.003600 0.006931 -0.006856 -0.000002 0.037037 -0.000001
# 6 0.000000 -0.000001 -0.000001 -0.018028 -0.000001 0.073093
#
#
# Mechanical properties :
#
#
# Convention : Reuss Voigt Hill
#
# Bulk Modulus (GPa) = 22.57653 24.41788 23.49720
# Shear Modulus (GPa) = 21.38648 26.58365 23.98507
#
# Velocity S-wave (km/s) = 3.10801 3.46513 3.29142
# Velocity P-wave (km/s) = 4.80384 5.19985 5.00576
#
# Compressibility (1/GPa) = 0.04429378
#
# Stress axis : x y z
#
# Youngs Moduli (GPa) = 55.26240 57.00765 74.95073
#
# Poissons Ratio (x) = -0.06586 0.01574
# Poissons Ratio (y) = -0.06384 0.24644
# Poissons Ratio (z) = 0.01160 0.18744
#
# Static dielectric constant tensor:
#      x y z
#    x 1.892970 -0.000010 0.038670 
#    y -0.000010 1.872910 0.000000 
#    z 0.038670 0.000000 1.821670 
# 
# From -- ./inp_files/57824.got.cif
#   From: 2010.05.17/outbox.cif.g08.bks.cpg/sg5_29_cif.got.tgz:57824.got - 2010.06.03 18:56:24.
