data_PCOD9122047
_publ_section_title
;
Structure prediction by ZEFSAII (Michael W. Deem and Ramdas Pophale) SiO2 
 PCOD9122047
Probable space group: C 2
;
_chemical_formula_sum "Si O2"
_cell_formula_units_Z 28
_cell_length_a 12.834720
_cell_length_b 5.227759
_cell_length_c 21.502266
_cell_angle_alpha 90.000000
_cell_angle_beta 134.207854
_cell_angle_gamma 90.000000
_cell_volume 1034.173233
_symmetry_space_group_name_H-M "C 2"
_symmetry_group_IT_number 5
_symmetry_cell_setting 'monoclinic'
loop_
_space_group_symop_operation_xyz
x,y,z
-x,y,-z
1/2+x,1/2+y,z
1/2-x,1/2+y,-z
loop_
_atom_site_type_symbol
_atom_site_label
_atom_site_fract_x
_atom_site_fract_y
_atom_site_fract_z
Si Si1 0.886339 0.183450 0.848302
Si Si2 0.403733 0.315693 0.136231
Si Si3 0.675418 0.086157 0.278916
Si Si4 0.935880 0.825097 0.417735
Si Si5 0.607625 0.035914 0.999771
Si Si6 0.613664 0.940943 0.704641
Si Si7 0.347277 0.687265 0.547576
O O1 0.835125 0.437473 0.791275
O O2 0.009835 0.288683 0.944377
O O3 0.743006 0.021020 0.806587
O O4 0.980737 0.023208 0.838691
O O5 0.509269 0.153544 0.225545
O O6 0.362570 0.162938 0.055164
O O7 0.256808 0.455053 0.094921
O O8 0.784704 0.314464 0.307566
O O9 0.769935 0.903010 0.361143
O O10 0.941927 0.694382 0.353025
O O11 0.000000 0.659885 0.500000
O O12 0.044945 0.063166 0.458077
O O13 0.500000 0.196251 0.000000
O O14 0.469891 0.766923 0.651286
O O15 0.237165 0.444542 0.509880
#
# Coordination Sequence:
#
# PCOD9122047 Si02
#       7
#     4   4   4   4   4   4   4
#     4   9  18  37  61  85 118 168 214 265 338 396
#     4  10  19  38  60  87 127 168 212 276 335 393
#     4   8  18  34  60  85 119 169 212 256 331 398
#     4  10  20  36  62  93 125 170 220 269 326 404
#     4  11  22  36  62  97 124 168 223 272 332 411
#     4   9  18  35  62  88 122 171 218 262 335 399
#     4  11  21  38  59  89 124 168 215 270 326 392
#
# _framework density 27.074766
#
# number of rings (size 3 to 8) (size 9 to 14) (size 15 to 20)
#    0.000    2.286    2.857    0.000    0.000    2.857 
#    0.000    1.429    0.000    0.000    0.000    0.000 
#    0.000    0.000    0.000    0.000    0.000    0.000 
#
# Total GULP energy -78025.440798 kJ/mol
# GULP energy per Si atom -5573.245771 kJ/mol
# Density = 2.701314 g / cm^3
# Si number density = 27.074766 Si / 1000 Ang^3
#
#
#
# Elastic Constant Matrix: (Units=GPa)
#
#
# Indices 1 2 3 4 5 6 
#
# 1 106.4239 20.1668 26.9536 0.0000 53.2673 0.0000
# 2 20.1668 111.2110 33.4488 -0.0001 24.2509 0.0003
# 3 26.9536 33.4488 116.0449 0.0000 45.4652 0.0000
# 4 0.0000 -0.0001 0.0000 44.0247 0.0000 12.2356
# 5 53.2673 24.2509 45.4652 0.0000 49.2802 0.0000
# 6 0.0000 0.0003 0.0000 12.2356 0.0000 16.4535
#
#
#
# Elastic Compliance Matrix: (Units=1/GPa)
#
#
# Indices 1 2 3 4 5 6 
#
# 1 0.023738 0.000664 0.007010 0.000000 -0.032453 0.000000
# 2 0.000664 0.010262 -0.001335 0.000000 -0.004536 0.000000
# 3 0.007010 -0.001335 0.015794 0.000000 -0.021491 0.000000
# 4 0.000000 0.000000 0.000000 0.028632 0.000000 -0.021292
# 5 -0.032453 -0.004536 -0.021491 0.000000 0.077430 0.000000
# 6 0.000000 0.000000 0.000000 -0.021292 0.000000 0.076611
#
#
# Mechanical properties :
#
#
# Convention : Reuss Voigt Hill
#
# Bulk Modulus (GPa) = 16.00741 54.97980 35.49361
# Shear Modulus (GPa) = 20.78010 38.82573 29.80291
#
# Velocity S-wave (km/s) = 2.77340 3.79095 3.32137
# Velocity P-wave (km/s) = 4.02254 6.28590 5.27699
#
# Compressibility (1/GPa) = 0.06247107
#
# Stress axis : x y z
#
# Youngs Moduli (GPa) = 42.12571 97.44518 63.31515
#
# Poissons Ratio (x) = -0.06468 -0.44381
# Poissons Ratio (y) = -0.02796 0.08453
# Poissons Ratio (z) = -0.29528 0.13010
#
# Static dielectric constant tensor:
#      x y z
#    x 2.241530 0.000000 -0.085980 
#    y 0.000000 2.256900 0.000000 
#    z -0.085980 0.000000 2.187530 
# 
# From -- ./inp_files/70498.got.cif
#   From: 2010.05.17/outbox.cif.g08.bks.cpg/sg5_36_cif.got.tgz:70498.got - 2010.06.03 18:56:24.
