data_PCOD9122992
_publ_section_title
;
Structure prediction by ZEFSAII (Michael W. Deem and Ramdas Pophale) SiO2 
 PCOD9122992
Probable space group: C 2
;
_chemical_formula_sum "Si O2"
_cell_formula_units_Z 30
_cell_length_a 9.249844
_cell_length_b 10.018111
_cell_length_c 15.453419
_cell_angle_alpha 90.000000
_cell_angle_beta 70.225587
_cell_angle_gamma 90.000000
_cell_volume 1347.563365
_symmetry_space_group_name_H-M "C 2"
_symmetry_group_IT_number 5
_symmetry_cell_setting 'monoclinic'
loop_
_space_group_symop_operation_xyz
x,y,z
-x,y,-z
1/2+x,1/2+y,z
1/2-x,1/2+y,-z
loop_
_atom_site_type_symbol
_atom_site_label
_atom_site_fract_x
_atom_site_fract_y
_atom_site_fract_z
Si Si1 0.186210 0.304430 0.564266
Si Si2 0.179584 0.312903 0.359882
Si Si3 0.259095 0.522221 0.941459
Si Si4 0.000000 0.194189 0.000000
Si Si5 0.982836 0.546401 0.879905
Si Si6 0.781436 0.776901 0.838534
Si Si7 0.142478 0.548582 0.675756
Si Si8 0.826310 0.610346 0.661499
O O1 0.204290 0.320546 0.458454
O O2 0.238750 0.436449 0.606254
O O3 0.271008 0.174485 0.583631
O O4 0.002677 0.295217 0.618857
O O5 0.266829 0.180004 0.312662
O O6 0.230496 0.457827 0.313647
O O7 0.388974 0.606717 0.961589
O O8 0.123789 0.589452 0.912713
O O9 0.334942 0.422556 0.856577
O O10 0.151233 0.465057 0.042423
O O11 0.112182 0.273154 0.913788
O O12 0.057381 0.487634 0.777406
O O13 0.891392 0.675703 0.866669
O O14 0.776108 0.716670 0.744417
O O15 0.009191 0.596543 0.636924
#
# Coordination Sequence:
#
# PCOD9122992 Si02
#       8
#     4   4   4   2   4   4   4   4
#     4  10  21  38  59  86 118 156 198 245 298 358
#     4  10  22  38  58  86 120 154 196 247 302 356
#     4  10  20  37  56  80 115 149 191 242 286 343
#     4  10  22  34  54  82 108 146 190 230 286 344
#     4   9  20  37  56  82 114 149 191 238 290 345
#     4  10  21  37  57  83 113 151 193 240 293 342
#     4  10  21  39  61  86 119 159 198 244 300 355
#     4  10  22  39  60  88 121 154 200 249 294 356
#
# _framework density 22.262402999999999
#
# number of rings (size 3 to 8) (size 9 to 14) (size 15 to 20)
#    0.000    2.133    0.000    2.400    0.000    8.000 
#    0.000   10.667    0.000    0.000    0.000    0.000 
#    0.000    0.000    0.000    0.000    0.000    0.000 
#
# Total GULP energy -83652.889954 kJ/mol
# GULP energy per Si atom -5576.859330 kJ/mol
# Density = 2.221173 g / cm^3
# Si number density = 22.262403 Si / 1000 Ang^3
#
#
#
# Elastic Constant Matrix: (Units=GPa)
#
#
# Indices 1 2 3 4 5 6 
#
# 1 54.3953 8.6440 8.6074 0.0000 20.2967 0.0000
# 2 8.6440 71.3223 17.0597 0.0000 4.4897 0.0000
# 3 8.6074 17.0597 72.2690 0.0000 8.3746 0.0000
# 4 0.0000 0.0000 0.0000 36.8322 0.0000 8.3088
# 5 20.2967 4.4897 8.3746 0.0000 28.8978 0.0000
# 6 0.0000 0.0000 0.0000 8.3088 0.0000 33.2441
#
#
#
# Elastic Compliance Matrix: (Units=1/GPa)
#
#
# Indices 1 2 3 4 5 6 
#
# 1 0.025202 -0.001832 -0.000570 0.000000 -0.017251 0.000000
# 2 -0.001832 0.015043 -0.003323 0.000000 -0.000087 0.000000
# 3 -0.000570 -0.003323 0.015090 0.000000 -0.003456 0.000000
# 4 0.000000 0.000000 0.000000 0.028772 0.000000 -0.007191
# 5 -0.017251 -0.000087 -0.003456 0.000000 0.047736 0.000000
# 6 0.000000 0.000000 0.000000 -0.007191 0.000000 0.031878
#
#
# Mechanical properties :
#
#
# Convention : Reuss Voigt Hill
#
# Bulk Modulus (GPa) = 22.78651 29.62320 26.20486
# Shear Modulus (GPa) = 26.34347 30.70654 28.52500
#
# Velocity S-wave (km/s) = 3.44367 3.71792 3.58342
# Velocity P-wave (km/s) = 5.10582 5.63612 5.37751
#
# Compressibility (1/GPa) = 0.04388561
#
# Stress axis : x y z
#
# Youngs Moduli (GPa) = 39.67899 66.47534 66.26918
#
# Poissons Ratio (x) = 0.12179 0.03778
# Poissons Ratio (y) = 0.07270 0.22019
# Poissons Ratio (z) = 0.02262 0.22088
#
# Static dielectric constant tensor:
#      x y z
#    x 1.807290 0.000000 0.000840 
#    y 0.000000 1.865850 0.000000 
#    z 0.000840 0.000000 1.886330 
# 
# From -- ./inp_files/50483.got.cif
#   From: 2010.05.17/outbox.cif.g08.bks.cpg/sg5_26_cif.got.tgz:50483.got - 2010.06.03 18:56:24.
