data_PCOD9122560
_publ_section_title
;
Structure prediction by ZEFSAII (Michael W. Deem and Ramdas Pophale) SiO2 
 PCOD9122560
Probable space group: C 2
;
_chemical_formula_sum "Si O2"
_cell_formula_units_Z 26
_cell_length_a 5.315091
_cell_length_b 19.623768
_cell_length_c 12.984258
_cell_angle_alpha 90.000000
_cell_angle_beta 111.489877
_cell_angle_gamma 90.000000
_cell_volume 1260.138734
_symmetry_space_group_name_H-M "C 2"
_symmetry_group_IT_number 5
_symmetry_cell_setting 'monoclinic'
loop_
_space_group_symop_operation_xyz
x,y,z
-x,y,-z
1/2+x,1/2+y,z
1/2-x,1/2+y,-z
loop_
_atom_site_type_symbol
_atom_site_label
_atom_site_fract_x
_atom_site_fract_y
_atom_site_fract_z
Si Si1 0.000000 0.827101 0.000000
Si Si2 0.058388 0.482541 0.623094
Si Si3 0.078052 0.325152 0.622825
Si Si4 0.018057 0.244240 0.824300
Si Si5 0.691944 0.604286 0.928466
Si Si6 0.369034 0.351297 0.195034
Si Si7 0.794765 0.991957 0.241434
O O1 0.953354 0.872590 0.093376
O O2 0.242283 0.780046 0.076390
O O3 0.964243 0.402554 0.608591
O O4 0.381689 0.487078 0.688973
O O5 0.000000 0.509704 0.500000
O O6 0.882928 0.516452 0.687917
O O7 0.005199 0.276185 0.707414
O O8 0.395030 0.338977 0.687972
O O9 0.000000 0.296281 0.500000
O O10 0.052014 0.164466 0.841040
O O11 0.757391 0.276965 0.838385
O O12 0.728310 0.538836 0.861629
O O13 0.500000 0.593811 0.000000
O O14 0.000000 0.626035 0.000000
O O15 0.191301 0.414721 0.204113
#
# Coordination Sequence:
#
# PCOD9122560 Si02
#       7
#     2   4   4   4   4   4   4
#     4  10  20  34  58  84 116 164 212 264 324 378
#     4  10  20  41  68  96 130 167 214 272 334 387
#     4   9  20  37  62  95 128 166 211 275 334 383
#     4  11  21  40  60  90 123 171 218 264 323 398
#     4  12  27  44  66  90 135 184 217 265 335 405
#     4  10  21  35  63  90 130 162 222 274 327 386
#     4  11  23  41  62  99 127 172 220 267 326 393
#
# _framework density 20.632649000000001
#
# number of rings (size 3 to 8) (size 9 to 14) (size 15 to 20)
#    0.000    1.538    2.308    2.769    3.231    1.846 
#    0.000    1.538    0.000    0.000    0.000    0.000 
#    0.000    0.000    0.000    0.000    0.000    0.000 
#
# Total GULP energy -72434.203707 kJ/mol
# GULP energy per Si atom -5571.861824 kJ/mol
# Density = 2.058569 g / cm^3
# Si number density = 20.632649 Si / 1000 Ang^3
#
#
#
# Elastic Constant Matrix: (Units=GPa)
#
#
# Indices 1 2 3 4 5 6 
#
# 1 83.3026 8.3670 34.2403 0.0000 -18.2778 0.0000
# 2 8.3670 46.1693 17.0315 0.0000 -15.5335 0.0000
# 3 34.2403 17.0315 137.1691 0.0000 -11.3487 0.0000
# 4 0.0000 0.0000 0.0000 34.2484 0.0000 -0.8791
# 5 -18.2778 -15.5335 -11.3487 0.0000 19.5536 0.0000
# 6 0.0000 0.0000 0.0000 -0.8791 0.0000 20.3398
#
#
#
# Elastic Compliance Matrix: (Units=1/GPa)
#
#
# Indices 1 2 3 4 5 6 
#
# 1 0.016610 0.003788 -0.003238 0.000000 0.016656 0.000000
# 2 0.003788 0.030861 -0.002580 0.000000 0.026560 0.000000
# 3 -0.003238 -0.002580 0.008402 0.000000 -0.000200 0.000000
# 4 0.000000 0.000000 0.000000 0.029231 0.000000 0.001263
# 5 0.016656 0.026560 -0.000200 0.000000 0.087694 0.000000
# 6 0.000000 0.000000 0.000000 0.001263 0.000000 0.049219
#
#
# Mechanical properties :
#
#
# Convention : Reuss Voigt Hill
#
# Bulk Modulus (GPa) = 19.30042 42.87986 31.09014
# Shear Modulus (GPa) = 20.54675 28.62850 24.58763
#
# Velocity S-wave (km/s) = 3.15911 3.72900 3.45582
# Velocity P-wave (km/s) = 4.76249 6.27441 5.56999
#
# Compressibility (1/GPa) = 0.05181234
#
# Stress axis : x y z
#
# Youngs Moduli (GPa) = 60.20625 32.40383 119.01284
#
# Poissons Ratio (x) = -0.12276 0.38542
# Poissons Ratio (y) = -0.22808 0.30706
# Poissons Ratio (z) = 0.19498 0.08360
#
# Static dielectric constant tensor:
#      x y z
#    x 1.859510 0.000000 -0.027970 
#    y 0.000000 1.751620 0.000000 
#    z -0.027970 0.000000 1.732920 
# 
# From -- ./inp_files/33744.got.cif
#   From: 2010.05.17/outbox.cif.g08.bks.cpg/sg5_17_cif.got.tgz:33744.got - 2010.06.03 18:56:24.
