data_PCOD9122380
_publ_section_title
;
Structure prediction by ZEFSAII (Michael W. Deem and Ramdas Pophale) SiO2 
 PCOD9122380
Probable space group: C 2
;
_chemical_formula_sum "Si O2"
_cell_formula_units_Z 18
_cell_length_a 8.037954
_cell_length_b 16.374548
_cell_length_c 8.095197
_cell_angle_alpha 90.000000
_cell_angle_beta 51.018347
_cell_angle_gamma 90.000000
_cell_volume 828.242347
_symmetry_space_group_name_H-M "C 2"
_symmetry_group_IT_number 5
_symmetry_cell_setting 'monoclinic'
loop_
_space_group_symop_operation_xyz
x,y,z
-x,y,-z
1/2+x,1/2+y,z
1/2-x,1/2+y,-z
loop_
_atom_site_type_symbol
_atom_site_label
_atom_site_fract_x
_atom_site_fract_y
_atom_site_fract_z
Si Si1 0.291837 0.434630 0.234865
Si Si2 0.175328 0.272560 0.143817
Si Si3 0.139871 0.491230 0.666066
Si Si4 0.500000 0.129501 0.000000
Si Si5 0.733847 0.321913 0.283363
O O1 0.298743 0.476076 0.410792
O O2 0.088606 0.471853 0.270803
O O3 0.500000 0.451899 0.000000
O O4 0.243308 0.336866 0.245438
O O5 0.298497 0.187995 0.086841
O O6 0.258684 0.303546 0.914320
O O7 0.918896 0.274637 0.272263
O O8 0.206509 0.417123 0.741549
O O9 0.097044 0.572748 0.794203
O O10 0.500000 0.305614 0.500000
#
# Coordination Sequence:
#
# PCOD9122380 Si02
#       5
#     4   4   4   2   4
#     4  10  19  42  71  99 127 194 234 277 324 440
#     4  10  22  41  72  98 139 176 236 285 344 400
#     4  10  23  40  70 101 141 175 236 279 358 400
#     4  12  24  46  64 114 146 176 220 312 352 402
#     4  10  21  44  73 100 129 194 235 276 329 444
#
# _framework density 21.732769999999999
#
# number of rings (size 3 to 8) (size 9 to 14) (size 15 to 20)
#    0.000    1.778    1.111    4.000    0.000    0.000 
#    8.000    4.444    0.000    0.000    0.000    0.000 
#    0.000    0.000    0.000    0.000    0.000    0.000 
#
# Total GULP energy -50240.144793 kJ/mol
# GULP energy per Si atom -5582.238310 kJ/mol
# Density = 2.168330 g / cm^3
# Si number density = 21.732770 Si / 1000 Ang^3
#
#
#
# Elastic Constant Matrix: (Units=GPa)
#
#
# Indices 1 2 3 4 5 6 
#
# 1 86.0034 65.2290 59.1078 0.0000 -11.1052 0.0000
# 2 65.2290 145.7810 73.3775 0.0000 16.5643 0.0000
# 3 59.1078 73.3775 179.2015 0.0000 -9.9233 0.0000
# 4 0.0000 0.0000 0.0000 66.9648 0.0000 -37.5182
# 5 -11.1052 16.5643 -9.9233 0.0000 43.9089 0.0000
# 6 0.0000 0.0000 0.0000 -37.5182 0.0000 36.3111
#
#
#
# Elastic Compliance Matrix: (Units=1/GPa)
#
#
# Indices 1 2 3 4 5 6 
#
# 1 0.021652 -0.009148 -0.002938 0.000000 0.008263 0.000000
# 2 -0.009148 0.013306 -0.002873 0.000000 -0.007983 0.000000
# 3 -0.002938 -0.002873 0.007843 0.000000 0.002113 0.000000
# 4 0.000000 0.000000 0.000000 0.035462 0.000000 0.036641
# 5 0.008263 -0.007983 0.002113 0.000000 0.028353 0.000000
# 6 0.000000 0.000000 0.000000 0.036641 0.000000 0.065399
#
#
# Mechanical properties :
#
#
# Convention : Reuss Voigt Hill
#
# Bulk Modulus (GPa) = 77.62631 89.60162 83.61396
# Shear Modulus (GPa) = 24.24507 43.65505 33.95006
#
# Velocity S-wave (km/s) = 3.34368 4.48674 3.95670
# Velocity P-wave (km/s) = 7.12061 8.25587 7.70916
#
# Compressibility (1/GPa) = 0.01288223
#
# Stress axis : x y z
#
# Youngs Moduli (GPa) = 46.18478 75.15417 127.50354
#
# Poissons Ratio (x) = 0.68751 0.37465
# Poissons Ratio (y) = 0.42250 0.36632
# Poissons Ratio (z) = 0.13571 0.21592
#
# Static dielectric constant tensor:
#      x y z
#    x 1.827950 0.000000 0.025980 
#    y 0.000000 1.791530 0.000000 
#    z 0.025980 0.000000 1.760270 
# 
# From -- ./inp_files/15565.got.cif
#   From: 2010.05.17/outbox.cif.g08.bks.cpg/sg5_8_cif.got.tgz:15565.got - 2010.06.03 18:56:24.
