data_PCOD9122630
_publ_section_title
;
Structure prediction by ZEFSAII (Michael W. Deem and Ramdas Pophale) SiO2 
 PCOD9122630
Probable space group: C 2
;
_chemical_formula_sum "Si O2"
_cell_formula_units_Z 32
_cell_length_a 12.524622
_cell_length_b 7.419376
_cell_length_c 13.589251
_cell_angle_alpha 90.000000
_cell_angle_beta 88.164093
_cell_angle_gamma 90.000000
_cell_volume 1262.131306
_symmetry_space_group_name_H-M "C 2"
_symmetry_group_IT_number 5
_symmetry_cell_setting 'monoclinic'
loop_
_space_group_symop_operation_xyz
x,y,z
-x,y,-z
1/2+x,1/2+y,z
1/2-x,1/2+y,-z
loop_
_atom_site_type_symbol
_atom_site_label
_atom_site_fract_x
_atom_site_fract_y
_atom_site_fract_z
Si Si1 0.660814 0.593970 0.301798
Si Si2 0.828414 0.735056 0.428609
Si Si3 0.170286 0.249364 0.008682
Si Si4 0.605125 0.367114 0.946070
Si Si5 0.861707 0.420727 0.202760
Si Si6 0.905559 0.450677 0.800950
Si Si7 0.451162 0.304244 0.595858
Si Si8 0.320471 0.540223 0.261979
O O1 0.724126 0.626016 0.402054
O O2 0.760127 0.541944 0.230210
O O3 0.605369 0.773811 0.267363
O O4 0.578263 0.432253 0.315353
O O5 0.844145 0.735093 0.545980
O O6 0.949502 0.668526 0.395052
O O7 0.821973 0.913600 0.358726
O O8 0.294580 0.242629 0.032076
O O9 0.116061 0.374014 0.090703
O O10 0.153162 0.333741 0.903130
O O11 0.122646 0.050841 0.008031
O O12 0.620343 0.435451 0.831797
O O13 0.500000 0.287080 0.000000
O O14 0.863487 0.242507 0.272257
O O15 0.974714 0.521920 0.203163
O O16 0.803475 0.565541 0.770309
O O17 0.500000 0.415825 0.500000
#
# Coordination Sequence:
#
# PCOD9122630 Si02
#       8
#     4   4   4   4   4   4   4   4
#     4  11  21  38  62  88 108 150 197 229 279 349
#     4   8  19  38  59  80 113 148 178 233 293 330
#     4  10  20  37  54  81 118 154 190 235 279 325
#     4  10  20  35  55  78 111 151 193 235 282 328
#     4  11  22  33  58  86 110 153 197 229 275 338
#     4  10  21  38  56  80 120 152 186 236 282 325
#     4   8  20  39  58  83 113 146 176 237 296 335
#     4   9  19  36  54  81 114 148 185 235 284 335
#
# _framework density 25.353939
#
# number of rings (size 3 to 8) (size 9 to 14) (size 15 to 20)
#    0.750    1.500    0.000    3.375    0.000    3.000 
#    0.000   16.875    0.000    3.000    0.000    0.000 
#    0.000    0.000    0.000    0.000    0.000    0.000 
#
# Total GULP energy -89338.526378 kJ/mol
# GULP energy per Si atom -5583.657899 kJ/mol
# Density = 2.529623 g / cm^3
# Si number density = 25.353939 Si / 1000 Ang^3
#
#
#
# Elastic Constant Matrix: (Units=GPa)
#
#
# Indices 1 2 3 4 5 6 
#
# 1 129.3624 5.8012 7.1432 0.0000 -14.3681 0.0000
# 2 5.8012 41.6050 2.5755 0.0000 -3.9750 0.0000
# 3 7.1432 2.5755 51.9174 0.0000 -0.5539 0.0000
# 4 0.0000 0.0000 0.0000 35.1483 0.0000 -4.9658
# 5 -14.3681 -3.9750 -0.5539 0.0000 27.3419 0.0000
# 6 0.0000 0.0000 0.0000 -4.9658 0.0000 19.1355
#
#
#
# Elastic Compliance Matrix: (Units=1/GPa)
#
#
# Indices 1 2 3 4 5 6 
#
# 1 0.008290 -0.000686 -0.001061 0.000000 0.004235 0.000000
# 2 -0.000686 0.024502 -0.001087 0.000000 0.003180 0.000000
# 3 -0.001061 -0.001087 0.019458 0.000000 -0.000322 0.000000
# 4 0.000000 0.000000 0.000000 0.029534 0.000000 0.007664
# 5 0.004235 0.003180 -0.000322 0.000000 0.039255 0.000000
# 6 0.000000 0.000000 0.000000 0.007664 0.000000 0.054248
#
#
# Mechanical properties :
#
#
# Convention : Reuss Voigt Hill
#
# Bulk Modulus (GPa) = 21.46765 28.21386 24.84075
# Shear Modulus (GPa) = 25.44754 30.14947 27.79850
#
# Velocity S-wave (km/s) = 3.17155 3.45214 3.31481
# Velocity P-wave (km/s) = 4.67944 5.20017 4.94667
#
# Compressibility (1/GPa) = 0.04658171
#
# Stress axis : x y z
#
# Youngs Moduli (GPa) = 120.62770 40.81252 51.39302
#
# Poissons Ratio (x) = 0.02798 0.05455
# Poissons Ratio (y) = 0.08270 0.05588
# Poissons Ratio (z) = 0.12804 0.04437
#
# Static dielectric constant tensor:
#      x y z
#    x 2.037270 0.000000 0.033820 
#    y 0.000000 1.988860 0.000000 
#    z 0.033820 0.000000 2.039370 
# 
# From -- ./inp_files/52454.got.cif
#   From: 2010.05.17/outbox.cif.g08.bks.cpg/sg5_27_cif.got.tgz:52454.got - 2010.06.03 18:56:24.
