data_PCOD9122617
_publ_section_title
;
Structure prediction by ZEFSAII (Michael W. Deem and Ramdas Pophale) SiO2 
 PCOD9122617
Probable space group: C 2
;
_chemical_formula_sum "Si O2"
_cell_formula_units_Z 28
_cell_length_a 19.823137
_cell_length_b 8.885643
_cell_length_c 14.570109
_cell_angle_alpha 90.000000
_cell_angle_beta 152.365351
_cell_angle_gamma 90.000000
_cell_volume 1190.377287
_symmetry_space_group_name_H-M "C 2"
_symmetry_group_IT_number 5
_symmetry_cell_setting 'monoclinic'
loop_
_space_group_symop_operation_xyz
x,y,z
-x,y,-z
1/2+x,1/2+y,z
1/2-x,1/2+y,-z
loop_
_atom_site_type_symbol
_atom_site_label
_atom_site_fract_x
_atom_site_fract_y
_atom_site_fract_z
Si Si1 0.500000 0.643100 0.000000
Si Si2 0.864999 0.920842 0.056549
Si Si3 0.915167 0.369436 0.630922
Si Si4 0.206223 0.389660 0.225000
Si Si5 0.280331 0.378507 0.765670
Si Si6 0.674716 0.526278 0.455315
Si Si7 0.232599 0.267037 0.060385
Si Si8 0.000000 0.638928 0.000000
O O1 0.614540 0.767795 0.175138
O O2 0.619728 0.527243 0.107358
O O3 0.036352 0.943771 0.243349
O O4 0.799784 0.089421 0.989132
O O5 0.779300 0.835828 0.871376
O O6 0.851007 0.825852 0.132296
O O7 0.867201 0.400737 0.467610
O O8 0.821629 0.485612 0.578685
O O9 0.085763 0.357355 0.854530
O O10 0.860708 0.201409 0.589212
O O11 0.312117 0.469100 0.424071
O O12 0.094237 0.519641 0.055684
O O13 0.264666 0.308943 0.204849
O O14 0.374058 0.255811 0.821617
#
# Coordination Sequence:
#
# PCOD9122617 Si02
#       8
#     2   4   4   4   4   4   4   2
#     4  10  20  38  68  92 142 170 214 280 344 386
#     4  11  27  47  67  95 139 186 225 274 337 406
#     4  11  25  42  70 105 134 173 228 282 336 401
#     4  11  22  41  65 101 136 178 218 281 338 396
#     4  11  22  41  65 101 136 178 218 281 338 396
#     4  11  25  42  70 105 134 173 228 282 336 401
#     4  11  27  47  67  95 139 186 225 274 337 406
#     4  10  20  34  68 100 130 170 214 272 344 390
#
# _framework density 23.521955999999999
#
# number of rings (size 3 to 8) (size 9 to 14) (size 15 to 20)
#    0.000    1.143    2.857    3.429    8.000    2.286 
#    0.000    4.286    0.000    0.000    0.000    0.000 
#    0.000    0.000    0.000    0.000    0.000    0.000 
#
# Total GULP energy -78017.741465 kJ/mol
# GULP energy per Si atom -5572.695819 kJ/mol
# Density = 2.346842 g / cm^3
# Si number density = 23.521956 Si / 1000 Ang^3
#
#
#
# Elastic Constant Matrix: (Units=GPa)
#
#
# Indices 1 2 3 4 5 6 
#
# 1 46.0085 18.8666 12.7055 0.0000 -25.1700 0.0000
# 2 18.8666 75.7700 -17.0579 0.0000 0.5573 0.0000
# 3 12.7055 -17.0579 77.1991 0.0000 -25.4397 0.0000
# 4 0.0000 0.0000 0.0000 28.3699 0.0000 1.0820
# 5 -25.1700 0.5573 -25.4397 0.0000 40.3311 0.0000
# 6 0.0000 0.0000 0.0000 1.0820 0.0000 29.6475
#
#
#
# Elastic Compliance Matrix: (Units=1/GPa)
#
#
# Indices 1 2 3 4 5 6 
#
# 1 0.039358 -0.010143 -0.000730 0.000000 0.024243 0.000000
# 2 -0.010143 0.016659 0.004025 0.000000 -0.004021 0.000000
# 3 -0.000730 0.004025 0.017414 0.000000 0.010473 0.000000
# 4 0.000000 0.000000 0.000000 0.035298 0.000000 -0.001288
# 5 0.024243 -0.004021 0.010473 0.000000 0.046586 0.000000
# 6 0.000000 0.000000 0.000000 -0.001288 0.000000 0.033777
#
#
# Mechanical properties :
#
#
# Convention : Reuss Voigt Hill
#
# Bulk Modulus (GPa) = 16.74014 25.33400 21.03707
# Shear Modulus (GPa) = 22.45174 31.96726 27.20950
#
# Velocity S-wave (km/s) = 3.09285 3.69051 3.40482
# Velocity P-wave (km/s) = 4.45944 5.38086 4.94167
#
# Compressibility (1/GPa) = 0.05973665
#
# Stress axis : x y z
#
# Youngs Moduli (GPa) = 25.40752 60.02719 57.42388
#
# Poissons Ratio (x) = 0.60884 0.04192
# Poissons Ratio (y) = 0.25770 -0.23114
# Poissons Ratio (z) = 0.01855 -0.24162
#
# Static dielectric constant tensor:
#      x y z
#    x 1.935410 0.000000 -0.044230 
#    y 0.000000 1.880030 0.000000 
#    z -0.044230 0.000000 1.908560 
# 
# From -- ./inp_files/56942.got.cif
#   From: 2010.05.17/outbox.cif.g08.bks.cpg/sg5_29_cif.got.tgz:56942.got - 2010.06.03 18:56:24.
