data_PCOD9122202
_publ_section_title
;
Structure prediction by ZEFSAII (Michael W. Deem and Ramdas Pophale) SiO2 
 PCOD9122202
Probable space group: C 2
;
_chemical_formula_sum "Si O2"
_cell_formula_units_Z 26
_cell_length_a 7.664024
_cell_length_b 18.102205
_cell_length_c 8.899240
_cell_angle_alpha 90.000000
_cell_angle_beta 91.748738
_cell_angle_gamma 90.000000
_cell_volume 1234.067571
_symmetry_space_group_name_H-M "C 2"
_symmetry_group_IT_number 5
_symmetry_cell_setting 'monoclinic'
loop_
_space_group_symop_operation_xyz
x,y,z
-x,y,-z
1/2+x,1/2+y,z
1/2-x,1/2+y,-z
loop_
_atom_site_type_symbol
_atom_site_label
_atom_site_fract_x
_atom_site_fract_y
_atom_site_fract_z
Si Si1 0.587615 0.925750 0.333710
Si Si2 0.353081 0.142208 0.321147
Si Si3 0.757194 0.186145 0.283140
Si Si4 0.822470 0.047931 0.445869
Si Si5 0.299382 0.598098 0.994989
Si Si6 0.704324 0.293830 0.520382
Si Si7 0.000000 0.474216 0.000000
O O1 0.500000 0.933829 0.500000
O O2 0.694722 0.851342 0.373435
O O3 0.497246 0.930619 0.163999
O O4 0.718426 0.994961 0.334871
O O5 0.559641 0.156852 0.312785
O O6 0.299252 0.072034 0.419019
O O7 0.284878 0.215450 0.397720
O O8 0.261923 0.131463 0.162606
O O9 0.875914 0.124208 0.366188
O O10 0.782579 0.166354 0.111241
O O11 0.774032 0.267848 0.355735
O O12 0.000000 0.009648 0.500000
O O13 0.166647 0.529546 0.013212
O O14 0.500000 0.573047 0.000000
O O15 0.500000 0.314699 0.500000
#
# Coordination Sequence:
#
# PCOD9122202 Si02
#       7
#     4   4   4   4   4   4   2
#     4  12  25  44  66  93 138 188 225 280 350 406
#     4  10  20  38  66  96 131 173 221 282 350 396
#     4  10  19  39  64  93 133 168 220 280 339 405
#     4  11  20  34  63  95 124 167 225 279 330 408
#     4  12  22  38  68 104 134 171 226 293 345 403
#     4   9  22  43  67  94 131 185 226 274 345 415
#     4  12  26  48  68 102 146 176 228 294 346 406
#
# _framework density 21.068536000000002
#
# number of rings (size 3 to 8) (size 9 to 14) (size 15 to 20)
#    0.000    1.231    3.077    4.615    0.000    3.692 
#    6.923    0.000    0.000    0.000    0.000    0.000 
#    0.000    0.000    0.000    0.000    0.000    0.000 
#
# Total GULP energy -72403.026195 kJ/mol
# GULP energy per Si atom -5569.463553 kJ/mol
# Density = 2.102058 g / cm^3
# Si number density = 21.068536 Si / 1000 Ang^3
#
#
#
# Elastic Constant Matrix: (Units=GPa)
#
#
# Indices 1 2 3 4 5 6 
#
# 1 69.9417 30.8062 40.3156 0.0000 4.9922 0.0000
# 2 30.8062 82.2465 40.0220 0.0000 10.0758 0.0000
# 3 40.3156 40.0220 181.0758 0.0000 22.6479 0.0000
# 4 0.0000 0.0000 0.0000 29.8357 0.0000 13.0378
# 5 4.9922 10.0758 22.6479 0.0000 26.2231 0.0000
# 6 0.0000 0.0000 0.0000 13.0378 0.0000 20.6747
#
#
#
# Elastic Compliance Matrix: (Units=1/GPa)
#
#
# Indices 1 2 3 4 5 6 
#
# 1 0.018407 -0.005577 -0.003022 0.000000 0.001248 0.000000
# 2 -0.005577 0.015521 -0.001766 0.000000 -0.003376 0.000000
# 3 -0.003022 -0.001766 0.007207 0.000000 -0.004971 0.000000
# 4 0.000000 0.000000 0.000000 0.046267 0.000000 -0.029177
# 5 0.001248 -0.003376 -0.004971 0.000000 0.043487 0.000000
# 6 0.000000 0.000000 0.000000 -0.029177 0.000000 0.066768
#
#
# Mechanical properties :
#
#
# Convention : Reuss Voigt Hill
#
# Bulk Modulus (GPa) = 49.00851 61.72797 55.36824
# Shear Modulus (GPa) = 22.20369 30.15471 26.17920
#
# Velocity S-wave (km/s) = 3.24987 3.78731 3.52884
# Velocity P-wave (km/s) = 6.11508 6.96328 6.55292
#
# Compressibility (1/GPa) = 0.02040462
#
# Stress axis : x y z
#
# Youngs Moduli (GPa) = 54.32819 64.43025 138.74515
#
# Poissons Ratio (x) = 0.35932 0.41924
# Poissons Ratio (y) = 0.30299 0.24509
# Poissons Ratio (z) = 0.16416 0.11381
#
# Static dielectric constant tensor:
#      x y z
#    x 1.869210 0.000000 -0.039750 
#    y 0.000000 1.750780 0.000000 
#    z -0.039750 0.000000 1.875730 
# 
# From -- ./inp_files/16163.got.cif
#   From: 2010.05.17/outbox.cif.g08.bks.cpg/sg5_9_cif.got.tgz:16163.got - 2010.06.03 18:56:24.
