data_PCOD9122295
_publ_section_title
;
Structure prediction by ZEFSAII (Michael W. Deem and Ramdas Pophale) SiO2 
 PCOD9122295
Probable space group: C 2
;
_chemical_formula_sum "Si O2"
_cell_formula_units_Z 32
_cell_length_a 16.916790
_cell_length_b 15.438473
_cell_length_c 11.579395
_cell_angle_alpha 90.000000
_cell_angle_beta 149.342274
_cell_angle_gamma 90.000000
_cell_volume 1542.056563
_symmetry_space_group_name_H-M "C 2"
_symmetry_group_IT_number 5
_symmetry_cell_setting 'monoclinic'
loop_
_space_group_symop_operation_xyz
x,y,z
-x,y,-z
1/2+x,1/2+y,z
1/2-x,1/2+y,-z
loop_
_atom_site_type_symbol
_atom_site_label
_atom_site_fract_x
_atom_site_fract_y
_atom_site_fract_z
Si Si1 0.282481 0.365570 0.893005
Si Si2 0.849681 0.457406 0.486214
Si Si3 0.360369 0.660113 0.549098
Si Si4 0.646645 0.327754 0.607036
Si Si5 0.085912 0.652170 0.394016
Si Si6 0.081770 0.963200 0.330829
Si Si7 0.413286 0.821346 0.130295
Si Si8 0.873196 0.686084 0.932999
O O1 0.169927 0.407414 0.658057
O O2 0.192538 0.326205 0.888334
O O3 0.380255 0.289102 0.956836
O O4 0.406712 0.434363 0.091548
O O5 0.890782 0.558028 0.521903
O O6 0.685734 0.454872 0.346773
O O7 0.974852 0.405202 0.719967
O O8 0.219390 0.667260 0.464555
O O9 0.418986 0.562757 0.633531
O O10 0.481872 0.735260 0.730922
O O11 0.290927 0.669860 0.332992
O O12 0.500000 0.355086 0.500000
O O13 0.602584 0.233759 0.499069
O O14 0.657659 0.398419 0.519559
O O15 0.800802 0.322490 0.878322
O O16 0.923544 0.650222 0.120107
O O17 0.000000 0.654077 0.000000
#
# Coordination Sequence:
#
# PCOD9122295 Si02
#       8
#     4   4   4   4   4   4   4   4
#     4  12  23  44  66  96 135 176 219 272 330 389
#     4  11  25  42  71 103 127 171 228 279 323 382
#     4  10  24  42  69 101 130 174 226 275 325 385
#     4  12  25  46  64  94 139 179 214 267 341 403
#     4  10  23  43  68  99 132 176 223 272 331 390
#     4  11  24  46  69  96 134 178 221 266 333 400
#     4  12  26  44  64 101 137 170 222 274 333 386
#     4  10  19  40  68  94 128 172 221 269 324 387
#
# _framework density 20.751508999999999
#
# number of rings (size 3 to 8) (size 9 to 14) (size 15 to 20)
#    0.000    1.000    3.750    2.250    3.500    3.000 
#    4.500    0.000    0.000    0.000    0.000    0.000 
#    0.000    0.000    0.000    0.000    0.000    0.000 
#
# Total GULP energy -89430.872386 kJ/mol
# GULP energy per Si atom -5589.429524 kJ/mol
# Density = 2.070428 g / cm^3
# Si number density = 20.751509 Si / 1000 Ang^3
#
#
#
# Elastic Constant Matrix: (Units=GPa)
#
#
# Indices 1 2 3 4 5 6 
#
# 1 29.6797 4.1304 -9.8608 0.0000 -5.7675 0.0000
# 2 4.1304 68.8015 -3.3126 0.0000 -1.1715 0.0000
# 3 -9.8608 -3.3126 84.2418 0.0000 -11.2697 0.0000
# 4 0.0000 0.0000 0.0000 42.9061 0.0000 25.4173
# 5 -5.7675 -1.1715 -11.2697 0.0000 28.7495 0.0000
# 6 0.0000 0.0000 0.0000 25.4173 0.0000 45.6012
#
#
#
# Elastic Compliance Matrix: (Units=1/GPa)
#
#
# Indices 1 2 3 4 5 6 
#
# 1 0.037706 -0.001827 0.005640 0.000000 0.009700 0.000000
# 2 -0.001827 0.014671 0.000416 0.000000 0.000394 0.000000
# 3 0.005640 0.000416 0.013404 0.000000 0.006402 0.000000
# 4 0.000000 0.000000 0.000000 0.034796 0.000000 -0.019395
# 5 0.009700 0.000394 0.006402 0.000000 0.039255 0.000000
# 6 0.000000 0.000000 0.000000 -0.019395 0.000000 0.032739
#
#
# Mechanical properties :
#
#
# Convention : Reuss Voigt Hill
#
# Bulk Modulus (GPa) = 13.47030 18.29299 15.88165
# Shear Modulus (GPa) = 26.47464 36.23577 31.35520
#
# Velocity S-wave (km/s) = 3.57570 4.18326 3.89136
# Velocity P-wave (km/s) = 4.85313 5.67162 5.27826
#
# Compressibility (1/GPa) = 0.07423737
#
# Stress axis : x y z
#
# Youngs Moduli (GPa) = 26.52097 68.16180 74.60695
#
# Poissons Ratio (x) = 0.12453 -0.42075
# Poissons Ratio (y) = 0.04845 -0.03102
# Poissons Ratio (z) = -0.14957 -0.02834
#
# Static dielectric constant tensor:
#      x y z
#    x 1.766190 0.000000 0.004380 
#    y 0.000000 1.736620 0.000000 
#    z 0.004380 0.000000 1.682990 
# 
# From -- ./inp_files/44999.got.cif
#   From: 2010.05.17/outbox.cif.g08.bks.cpg/sg5_23_cif.got.tgz:44999.got - 2010.06.03 18:56:24.
