data_PCOD9122235
_publ_section_title
;
Structure prediction by ZEFSAII (Michael W. Deem and Ramdas Pophale) SiO2 
 PCOD9122235
Probable space group: C 2
;
_chemical_formula_sum "Si O2"
_cell_formula_units_Z 28
_cell_length_a 13.284051
_cell_length_b 19.098091
_cell_length_c 8.425079
_cell_angle_alpha 90.000000
_cell_angle_beta 42.106036
_cell_angle_gamma 90.000000
_cell_volume 1433.165528
_symmetry_space_group_name_H-M "C 2"
_symmetry_group_IT_number 5
_symmetry_cell_setting 'monoclinic'
loop_
_space_group_symop_operation_xyz
x,y,z
-x,y,-z
1/2+x,1/2+y,z
1/2-x,1/2+y,-z
loop_
_atom_site_type_symbol
_atom_site_label
_atom_site_fract_x
_atom_site_fract_y
_atom_site_fract_z
Si Si1 0.289676 0.330010 0.994692
Si Si2 0.177873 0.943704 0.292120
Si Si3 0.000000 0.367365 0.500000
Si Si4 0.668733 0.608975 0.254096
Si Si5 0.101401 0.682113 0.227642
Si Si6 0.000000 0.902790 0.000000
Si Si7 0.296213 0.960313 0.504687
Si Si8 0.608550 0.101451 0.743730
O O1 0.253084 0.392606 0.917201
O O2 0.345429 0.261856 0.837841
O O3 0.135986 0.320808 0.272359
O O4 0.422953 0.355551 0.954824
O O5 0.259501 0.936689 0.366413
O O6 0.000000 0.925657 0.500000
O O7 0.183596 0.024583 0.232487
O O8 0.080978 0.416403 0.539250
O O9 0.500000 0.626457 0.500000
O O10 0.759624 0.631537 0.304452
O O11 0.749766 0.638746 0.001839
O O12 0.000000 0.665664 0.500000
O O13 0.985458 0.662852 0.224048
O O14 0.863754 0.949691 0.223249
O O15 0.341747 0.041680 0.436270
O O16 0.500000 0.064546 0.000000
#
# Coordination Sequence:
#
# PCOD9122235 Si02
#       8
#     4   4   2   4   4   2   4   4
#     4  11  24  41  63  92 129 171 219 267 328 383
#     4  10  19  39  69  95 121 169 219 261 318 389
#     4  10  26  38  62  98 128 172 208 286 314 380
#     4   9  21  41  69  91 125 170 216 267 322 389
#     4  11  25  41  63  93 126 174 215 267 322 389
#     4  10  22  38  62  92 126 172 204 276 310 392
#     4  10  21  39  64  98 129 163 216 264 331 369
#     4   9  21  40  63  93 125 173 205 255 331 390
#
# _framework density 19.537172000000002
#
# number of rings (size 3 to 8) (size 9 to 14) (size 15 to 20)
#    0.000    2.000    1.429    0.429   11.000    1.143 
#    0.000    0.000    3.143    0.000    0.000    0.000 
#    0.000    0.000    0.000    0.000    0.000    0.000 
#
# Total GULP energy -78016.722067 kJ/mol
# GULP energy per Si atom -5572.623005 kJ/mol
# Density = 1.949270 g / cm^3
# Si number density = 19.537172 Si / 1000 Ang^3
#
#
#
# Elastic Constant Matrix: (Units=GPa)
#
#
# Indices 1 2 3 4 5 6 
#
# 1 100.1985 18.9950 37.3413 0.0000 -12.9809 0.0000
# 2 18.9950 27.9205 38.6081 0.0000 1.1775 0.0000
# 3 37.3413 38.6081 133.4344 0.0000 -16.1024 0.0000
# 4 0.0000 0.0000 0.0000 26.6410 0.0000 1.3583
# 5 -12.9809 1.1775 -16.1024 0.0000 33.6301 0.0000
# 6 0.0000 0.0000 0.0000 1.3583 0.0000 14.5690
#
#
#
# Elastic Compliance Matrix: (Units=1/GPa)
#
#
# Indices 1 2 3 4 5 6 
#
# 1 0.012283 -0.007641 -0.000660 0.000000 0.004693 0.000000
# 2 -0.007641 0.068552 -0.019467 0.000000 -0.014671 0.000000
# 3 -0.000660 -0.019467 0.014183 0.000000 0.007218 0.000000
# 4 0.000000 0.000000 0.000000 0.037715 0.000000 -0.003516
# 5 0.004693 -0.014671 0.007218 0.000000 0.035516 0.000000
# 6 0.000000 0.000000 0.000000 -0.003516 0.000000 0.068967
#
#
# Mechanical properties :
#
#
# Convention : Reuss Voigt Hill
#
# Bulk Modulus (GPa) = 25.32892 50.16025 37.74458
# Shear Modulus (GPa) = 16.34453 26.07529 21.20991
#
# Velocity S-wave (km/s) = 2.89552 3.65725 3.29845
# Velocity P-wave (km/s) = 4.91643 6.60030 5.81959
#
# Compressibility (1/GPa) = 0.03948056
#
# Stress axis : x y z
#
# Youngs Moduli (GPa) = 81.41524 14.58744 70.50892
#
# Poissons Ratio (x) = 0.11147 0.04654
# Poissons Ratio (y) = 0.62213 1.37259
# Poissons Ratio (z) = 0.05373 0.28397
#
# Static dielectric constant tensor:
#      x y z
#    x 1.694720 0.000000 0.002170 
#    y 0.000000 1.670210 0.000000 
#    z 0.002170 0.000000 1.743680 
# 
# From -- ./inp_files/25197.got.cif
#   From: 2010.05.17/outbox.cif.g08.bks.cpg/sg5_13_cif.got.tgz:25197.got - 2010.06.03 18:56:24.
