data_PCOD9122708
_publ_section_title
;
Structure prediction by ZEFSAII (Michael W. Deem and Ramdas Pophale) SiO2 
 PCOD9122708
Probable space group: C 2
;
_chemical_formula_sum "Si O2"
_cell_formula_units_Z 24
_cell_length_a 9.260615
_cell_length_b 28.344317
_cell_length_c 5.269484
_cell_angle_alpha 90.000000
_cell_angle_beta 51.871320
_cell_angle_gamma 90.000000
_cell_volume 1088.033446
_symmetry_space_group_name_H-M "C 2"
_symmetry_group_IT_number 5
_symmetry_cell_setting 'monoclinic'
loop_
_space_group_symop_operation_xyz
x,y,z
-x,y,-z
1/2+x,1/2+y,z
1/2-x,1/2+y,-z
loop_
_atom_site_type_symbol
_atom_site_label
_atom_site_fract_x
_atom_site_fract_y
_atom_site_fract_z
Si Si1 0.298102 0.515340 0.470954
Si Si2 0.210285 0.973541 0.022555
Si Si3 0.872702 0.270292 0.888622
Si Si4 0.293886 0.670648 0.107739
Si Si5 0.372147 0.874801 0.887089
Si Si6 0.701713 0.117042 0.694304
O O1 0.500260 0.491781 0.249770
O O2 0.203821 0.496884 0.824890
O O3 0.309977 0.571510 0.474650
O O4 0.205941 0.495118 0.321531
O O5 0.230477 0.917702 0.024097
O O6 0.785496 0.322321 0.969307
O O7 0.000000 0.263159 0.500000
O O8 0.750479 0.224051 0.066001
O O9 0.000000 0.272826 0.000000
O O10 0.182621 0.651765 0.472433
O O11 0.500000 0.670417 0.000000
O O12 0.285751 0.639920 0.858672
O O13 0.500000 0.878483 0.500000
O O14 0.500000 0.879142 0.000000
O O15 0.500000 0.101607 0.000000
#
# Coordination Sequence:
#
# PCOD9122708 Si02
#       6
#     4   4   4   4   4   4
#     4  10  23  39  59  82 123 163 219 254 310 380
#     4  10  21  38  60  85 119 164 215 257 302 380
#     4   9  18  36  59  97 124 159 213 265 315 386
#     4  11  23  40  70  94 124 173 225 262 319 391
#     4  10  20  35  62  93 129 162 204 265 326 368
#     4  12  26  42  63  93 133 175 213 273 332 373
#
# _framework density 22.058143000000001
#
# number of rings (size 3 to 8) (size 9 to 14) (size 15 to 20)
#    0.000    1.667    0.000    5.000    7.000    2.000 
#    0.000    0.000   11.000    0.000    0.000    0.000 
#    0.000    0.000    0.000    0.000    0.000    0.000 
#
# Total GULP energy -66977.246688 kJ/mol
# GULP energy per Si atom -5581.437224 kJ/mol
# Density = 2.200794 g / cm^3
# Si number density = 22.058143 Si / 1000 Ang^3
#
#
#
# Elastic Constant Matrix: (Units=GPa)
#
#
# Indices 1 2 3 4 5 6 
#
# 1 81.8166 47.9504 59.9022 0.0000 19.1494 0.0000
# 2 47.9504 218.0585 54.5890 0.0000 12.3566 0.0000
# 3 59.9022 54.5890 110.0603 0.0000 53.9819 0.0000
# 4 0.0000 0.0000 0.0000 35.5677 0.0000 3.1349
# 5 19.1494 12.3566 53.9819 0.0000 57.5368 0.0000
# 6 0.0000 0.0000 0.0000 3.1349 0.0000 36.1286
#
#
#
# Elastic Compliance Matrix: (Units=1/GPa)
#
#
# Indices 1 2 3 4 5 6 
#
# 1 0.022293 -0.001632 -0.014554 0.000000 0.006586 0.000000
# 2 -0.001632 0.005546 -0.002861 0.000000 0.002037 0.000000
# 3 -0.014554 -0.002861 0.029175 0.000000 -0.021914 0.000000
# 4 0.000000 0.000000 0.000000 0.028332 0.000000 -0.002458
# 5 0.006586 0.002037 -0.021914 0.000000 0.035311 0.000000
# 6 0.000000 0.000000 0.000000 -0.002458 0.000000 0.027892
#
#
# Mechanical properties :
#
#
# Convention : Reuss Voigt Hill
#
# Bulk Modulus (GPa) = 52.85827 81.64652 67.25239
# Shear Modulus (GPa) = 25.91333 42.34620 34.12977
#
# Velocity S-wave (km/s) = 3.43122 4.38625 3.93779
# Velocity P-wave (km/s) = 6.30181 7.92129 7.15750
#
# Compressibility (1/GPa) = 0.01891852
#
# Stress axis : x y z
#
# Youngs Moduli (GPa) = 44.85616 180.32027 34.27601
#
# Poissons Ratio (x) = 0.29426 0.49887
# Poissons Ratio (y) = 0.07320 0.09808
# Poissons Ratio (z) = 0.65286 0.51597
#
# Static dielectric constant tensor:
#      x y z
#    x 1.802320 0.000000 0.014400 
#    y 0.000000 1.848820 0.000000 
#    z 0.014400 0.000000 1.836870 
# 
# From -- ./inp_files/6084.got.cif
#   From: 2010.05.17/outbox.cif.g08.bks.cpg/sg5_4_cif.got.tgz:6084.got - 2010.06.03 18:56:24.
