data_PCOD9122294
_publ_section_title
;
Structure prediction by ZEFSAII (Michael W. Deem and Ramdas Pophale) SiO2 
 PCOD9122294
Probable space group: C 2
;
_chemical_formula_sum "Si O2"
_cell_formula_units_Z 32
_cell_length_a 10.433614
_cell_length_b 9.903581
_cell_length_c 13.067535
_cell_angle_alpha 90.000000
_cell_angle_beta 100.058301
_cell_angle_gamma 90.000000
_cell_volume 1329.517326
_symmetry_space_group_name_H-M "C 2"
_symmetry_group_IT_number 5
_symmetry_cell_setting 'monoclinic'
loop_
_space_group_symop_operation_xyz
x,y,z
-x,y,-z
1/2+x,1/2+y,z
1/2-x,1/2+y,-z
loop_
_atom_site_type_symbol
_atom_site_label
_atom_site_fract_x
_atom_site_fract_y
_atom_site_fract_z
Si Si1 0.855572 0.785310 0.892036
Si Si2 0.548076 0.258297 0.655456
Si Si3 0.418948 0.991286 0.884113
Si Si4 0.850334 0.489582 0.381683
Si Si5 0.203993 0.788826 0.883361
Si Si6 0.377653 0.569799 0.808553
Si Si7 0.432170 0.788277 0.241676
Si Si8 0.364556 0.429240 0.509167
O O1 0.910423 0.647002 0.853748
O O2 0.704931 0.785791 0.835952
O O3 0.913729 0.928919 0.866115
O O4 0.857624 0.771077 0.014616
O O5 0.608820 0.276871 0.774192
O O6 0.414685 0.336472 0.611784
O O7 0.647675 0.331613 0.589873
O O8 0.542486 0.104461 0.618752
O O9 0.277181 0.931358 0.887332
O O10 0.483534 0.902591 0.804665
O O11 0.500000 0.975686 0.000000
O O12 0.739231 0.535903 0.285164
O O13 0.904387 0.345472 0.351352
O O14 0.770632 0.491096 0.476078
O O15 0.315032 0.673638 0.881811
O O16 0.491124 0.648507 0.764048
O O17 0.500000 0.509224 0.500000
#
# Coordination Sequence:
#
# PCOD9122294 Si02
#       8
#     4   4   4   4   4   4   4   4
#     4  11  22  40  61  89 127 176 211 258 318 366
#     4   8  20  39  66  94 124 160 213 265 319 380
#     4  11  23  40  59  90 129 173 216 262 309 368
#     4  10  19  41  68  87 128 167 201 266 327 370
#     4  10  19  40  68  88 128 173 216 262 321 373
#     4   9  22  40  60  96 128 167 220 262 303 384
#     4  10  23  43  61  90 133 169 212 264 307 374
#     4   8  20  43  62  94 129 151 205 273 316 382
#
# _framework density 24.068884000000001
#
# number of rings (size 3 to 8) (size 9 to 14) (size 15 to 20)
#    0.750    1.500    1.250    0.750    3.500    3.000 
#    6.750   10.000    0.000    0.000    0.000    0.000 
#    0.000    0.000    0.000    0.000    0.000    0.000 
#
# Total GULP energy -89437.668660 kJ/mol
# GULP energy per Si atom -5589.854291 kJ/mol
# Density = 2.401410 g / cm^3
# Si number density = 24.068884 Si / 1000 Ang^3
#
#
#
# Elastic Constant Matrix: (Units=GPa)
#
#
# Indices 1 2 3 4 5 6 
#
# 1 87.8313 43.4611 22.0079 0.0000 -10.4391 0.0000
# 2 43.4611 124.8134 18.8074 0.0000 -7.1473 0.0000
# 3 22.0079 18.8074 53.0172 0.0000 -2.3977 0.0000
# 4 0.0000 0.0000 0.0000 19.0378 0.0000 -10.5509
# 5 -10.4391 -7.1473 -2.3977 0.0000 33.8708 0.0000
# 6 0.0000 0.0000 0.0000 -10.5509 0.0000 36.8836
#
#
#
# Elastic Compliance Matrix: (Units=1/GPa)
#
#
# Indices 1 2 3 4 5 6 
#
# 1 0.015098 -0.004375 -0.004561 0.000000 0.003407 0.000000
# 2 -0.004375 0.009817 -0.001639 0.000000 0.000607 0.000000
# 3 -0.004561 -0.001639 0.021326 0.000000 -0.000242 0.000000
# 4 0.000000 0.000000 0.000000 0.062423 0.000000 0.017857
# 5 0.003407 0.000607 -0.000242 0.000000 0.030685 0.000000
# 6 0.000000 0.000000 0.000000 0.017857 0.000000 0.032220
#
#
# Mechanical properties :
#
#
# Convention : Reuss Voigt Hill
#
# Bulk Modulus (GPa) = 39.85569 48.24608 44.05088
# Shear Modulus (GPa) = 24.86525 30.05079 27.45802
#
# Velocity S-wave (km/s) = 3.21765 3.53729 3.38125
# Velocity P-wave (km/s) = 5.51356 6.06397 5.79530
#
# Compressibility (1/GPa) = 0.02509052
#
# Stress axis : x y z
#
# Youngs Moduli (GPa) = 66.23328 101.86331 46.89171
#
# Poissons Ratio (x) = 0.44564 0.21389
# Poissons Ratio (y) = 0.28976 0.07686
# Poissons Ratio (z) = 0.30211 0.16696
#
# Static dielectric constant tensor:
#      x y z
#    x 1.975750 0.000000 -0.044850 
#    y 0.000000 1.930240 0.000000 
#    z -0.044850 0.000000 1.936620 
# 
# From -- ./inp_files/52458.got.cif
#   From: 2010.05.17/outbox.cif.g08.bks.cpg/sg5_27_cif.got.tgz:52458.got - 2010.06.03 18:56:24.
