data_PCOD9122111
_publ_section_title
;
Structure prediction by ZEFSAII (Michael W. Deem and Ramdas Pophale) SiO2 
 PCOD9122111
Probable space group: C 2
;
_chemical_formula_sum "Si O2"
_cell_formula_units_Z 28
_cell_length_a 9.628063
_cell_length_b 16.255827
_cell_length_c 13.352119
_cell_angle_alpha 90.000000
_cell_angle_beta 36.433569
_cell_angle_gamma 90.000000
_cell_volume 1241.093397
_symmetry_space_group_name_H-M "C 2"
_symmetry_group_IT_number 5
_symmetry_cell_setting 'monoclinic'
loop_
_space_group_symop_operation_xyz
x,y,z
-x,y,-z
1/2+x,1/2+y,z
1/2-x,1/2+y,-z
loop_
_atom_site_type_symbol
_atom_site_label
_atom_site_fract_x
_atom_site_fract_y
_atom_site_fract_z
Si Si1 0.541490 0.173410 0.858098
Si Si2 0.831392 0.401891 0.187587
Si Si3 0.235027 0.535812 0.619703
Si Si4 0.688196 0.167986 0.479472
Si Si5 0.317364 0.826205 0.721727
Si Si6 0.642387 0.340166 0.623979
Si Si7 0.405875 0.759333 0.870071
O O1 0.706577 0.081505 0.529110
O O2 0.769889 0.231115 0.714381
O O3 0.309019 0.216554 0.951688
O O4 0.500000 0.162710 0.000000
O O5 0.825472 0.446346 0.299704
O O6 0.562990 0.392438 0.307410
O O7 0.933245 0.312171 0.152042
O O8 0.000000 0.435684 0.000000
O O9 0.500000 0.549806 0.500000
O O10 0.073875 0.589898 0.784579
O O11 0.500000 0.162313 0.500000
O O12 0.623472 0.246054 0.590279
O O13 0.917932 0.356326 0.443369
O O14 0.930714 0.196090 0.285895
O O15 0.280937 0.819510 0.860800
O O16 0.640794 0.364183 0.743618
#
# Coordination Sequence:
#
# PCOD9122111 Si02
#       7
#     4   4   4   4   4   4   4
#     4  10  19  38  65 102 135 182 246 294 339 434
#     4  12  27  43  67 112 149 192 229 312 376 421
#     4  12  26  43  69 100 149 193 235 296 372 430
#     4  11  22  41  71 103 139 192 249 292 349 436
#     4   9  18  33  67  99 127 180 237 289 334 408
#     4  10  19  38  66 102 135 174 248 292 336 425
#     4  10  22  39  72 106 140 181 255 301 350 425
#
# _framework density 22.560752000000001
#
# number of rings (size 3 to 8) (size 9 to 14) (size 15 to 20)
#    0.000    1.429    2.857    3.857    4.000    0.000 
#    0.000    1.429    0.000    6.857    0.000    0.000 
#    0.000    0.000    0.000    0.000    0.000    0.000 
#
# Total GULP energy -77951.731785 kJ/mol
# GULP energy per Si atom -5567.980842 kJ/mol
# Density = 2.250940 g / cm^3
# Si number density = 22.560752 Si / 1000 Ang^3
#
#
#
# Elastic Constant Matrix: (Units=GPa)
#
#
# Indices 1 2 3 4 5 6 
#
# 1 153.1000 42.7426 37.2487 -0.0020 -2.3651 0.0003
# 2 42.7426 50.9893 32.0096 -0.0061 -7.1809 0.0033
# 3 37.2487 32.0096 122.6846 -0.0089 -7.8805 0.0028
# 4 -0.0020 -0.0061 -0.0089 31.5146 0.0020 6.0941
# 5 -2.3651 -7.1809 -7.8805 0.0020 35.1602 0.0001
# 6 0.0003 0.0033 0.0028 6.0941 0.0001 26.5099
#
#
#
# Elastic Compliance Matrix: (Units=1/GPa)
#
#
# Indices 1 2 3 4 5 6 
#
# 1 0.008640 -0.006814 -0.000911 -0.000001 -0.001015 0.000001
# 2 -0.006814 0.029251 -0.005285 0.000004 0.004331 -0.000004
# 3 -0.000911 -0.005285 0.009875 0.000002 0.001073 -0.000001
# 4 -0.000001 0.000004 0.000002 0.033208 -0.000001 -0.007634
# 5 -0.001015 0.004331 0.001073 -0.000001 0.029498 -0.000001
# 6 0.000001 -0.000004 -0.000001 -0.007634 -0.000001 0.039477
#
#
# Mechanical properties :
#
#
# Convention : Reuss Voigt Hill
#
# Bulk Modulus (GPa) = 45.98144 61.19729 53.58937
# Shear Modulus (GPa) = 27.29009 32.95512 30.12261
#
# Velocity S-wave (km/s) = 3.48174 3.82609 3.65797
# Velocity P-wave (km/s) = 6.04887 6.83397 6.45337
#
# Compressibility (1/GPa) = 0.02174790
#
# Stress axis : x y z
#
# Youngs Moduli (GPa) = 115.74344 34.18632 101.26312
#
# Poissons Ratio (x) = 0.23294 0.09221
# Poissons Ratio (y) = 0.78864 0.53518
# Poissons Ratio (z) = 0.10539 0.18068
#
# Static dielectric constant tensor:
#      x y z
#    x 1.911040 0.000000 -0.019020 
#    y 0.000000 1.917280 0.000000 
#    z -0.019020 0.000000 2.043250 
# 
# From -- ./inp_files/53037.got.cif
#   From: 2010.05.17/outbox.cif.g08.bks.cpg/sg5_27_cif.got.tgz:53037.got - 2010.06.03 18:56:24.
