data_PCOD9122216
_publ_section_title
;
Structure prediction by ZEFSAII (Michael W. Deem and Ramdas Pophale) SiO2 
 PCOD9122216
Probable space group: C 2
;
_chemical_formula_sum "Si O2"
_cell_formula_units_Z 16
_cell_length_a 10.336736
_cell_length_b 12.433902
_cell_length_c 7.323365
_cell_angle_alpha 90.000000
_cell_angle_beta 141.680482
_cell_angle_gamma 90.000000
_cell_volume 583.613982
_symmetry_space_group_name_H-M "C 2"
_symmetry_group_IT_number 5
_symmetry_cell_setting 'monoclinic'
loop_
_space_group_symop_operation_xyz
x,y,z
-x,y,-z
1/2+x,1/2+y,z
1/2-x,1/2+y,-z
loop_
_atom_site_type_symbol
_atom_site_label
_atom_site_fract_x
_atom_site_fract_y
_atom_site_fract_z
Si Si1 0.000000 0.414690 0.000000
Si Si2 0.991478 0.211177 0.783162
Si Si3 0.000000 0.596947 0.500000
Si Si4 0.547239 0.267720 0.841159
Si Si5 0.647644 0.502382 0.863517
O O1 0.816557 0.482202 0.889373
O O2 0.089264 0.333001 0.259204
O O3 0.212207 0.242803 0.935223
O O4 0.974833 0.096849 0.663109
O O5 0.000000 0.172776 0.000000
O O6 0.068958 0.679752 0.413703
O O7 0.809764 0.528372 0.209859
O O8 0.500000 0.252273 0.000000
O O9 0.531188 0.390683 0.765994
#
# Coordination Sequence:
#
# PCOD9122216 Si02
#       5
#     2   4   2   4   4
#     4   8  18  34  60  92 124 170 208 274 326 374
#     4   8  17  34  60  88 126 168 209 268 323 383
#     4  10  24  40  64 104 126 176 228 268 334 414
#     4  10  21  41  64  97 135 170 224 279 326 402
#     4  10  19  39  66  89 137 178 209 281 343 377
#
# _framework density 27.415379999999999
#
# number of rings (size 3 to 8) (size 9 to 14) (size 15 to 20)
#    0.750    2.000    0.000    0.750    7.000    0.000 
#   13.500    0.000    0.000   13.500    0.000    0.000 
#    0.000    0.000    0.000    0.000    0.000    0.000 
#
# Total GULP energy -44575.846058 kJ/mol
# GULP energy per Si atom -5571.980757 kJ/mol
# Density = 2.735298 g / cm^3
# Si number density = 27.415380 Si / 1000 Ang^3
#
#
#
# Elastic Constant Matrix: (Units=GPa)
#
#
# Indices 1 2 3 4 5 6 
#
# 1 203.8051 60.7436 54.1899 0.0000 -45.5542 0.0000
# 2 60.7436 163.4984 50.1404 0.0000 4.0927 0.0000
# 3 54.1899 50.1404 118.1030 0.0000 -0.2463 0.0000
# 4 0.0000 0.0000 0.0000 25.6651 0.0000 7.1044
# 5 -45.5542 4.0927 -0.2463 0.0000 49.2461 0.0000
# 6 0.0000 0.0000 0.0000 7.1044 0.0000 55.3747
#
#
#
# Elastic Compliance Matrix: (Units=1/GPa)
#
#
# Indices 1 2 3 4 5 6 
#
# 1 0.008013 -0.002350 -0.002663 0.000000 0.007594 0.000000
# 2 -0.002350 0.007739 -0.002213 0.000000 -0.002828 0.000000
# 3 -0.002663 -0.002213 0.010624 0.000000 -0.002226 0.000000
# 4 0.000000 0.000000 0.000000 0.040398 0.000000 -0.005183
# 5 0.007594 -0.002828 -0.002226 0.000000 0.027555 0.000000
# 6 0.000000 0.000000 0.000000 -0.005183 0.000000 0.018724
#
#
# Mechanical properties :
#
#
# Convention : Reuss Voigt Hill
#
# Bulk Modulus (GPa) = 83.87113 90.61714 87.24413
# Shear Modulus (GPa) = 38.02906 47.41270 42.72088
#
# Velocity S-wave (km/s) = 3.72848 4.16314 3.95179
# Velocity P-wave (km/s) = 7.01388 7.49894 7.26046
#
# Compressibility (1/GPa) = 0.01192305
#
# Stress axis : x y z
#
# Youngs Moduli (GPa) = 124.80453 129.21647 94.12774
#
# Poissons Ratio (x) = 0.30370 0.25064
# Poissons Ratio (y) = 0.29333 0.20831
# Poissons Ratio (z) = 0.33233 0.28596
#
# Static dielectric constant tensor:
#      x y z
#    x 2.145540 0.000000 0.031090 
#    y 0.000000 2.180960 0.000000 
#    z 0.031090 0.000000 2.288730 
# 
# From -- ./inp_files/18547.got.cif
#   From: 2010.05.17/outbox.cif.g08.bks.cpg/sg5_10_cif.got.tgz:18547.got - 2010.06.03 18:56:24.
