data_PCOD9122713
_publ_section_title
;
Structure prediction by ZEFSAII (Michael W. Deem and Ramdas Pophale) SiO2 
 PCOD9122713
Probable space group: C 2
;
_chemical_formula_sum "Si O2"
_cell_formula_units_Z 32
_cell_length_a 16.939868
_cell_length_b 9.736465
_cell_length_c 11.706849
_cell_angle_alpha 90.000000
_cell_angle_beta 132.676731
_cell_angle_gamma 90.000000
_cell_volume 1419.550695
_symmetry_space_group_name_H-M "C 2"
_symmetry_group_IT_number 5
_symmetry_cell_setting 'monoclinic'
loop_
_space_group_symop_operation_xyz
x,y,z
-x,y,-z
1/2+x,1/2+y,z
1/2-x,1/2+y,-z
loop_
_atom_site_type_symbol
_atom_site_label
_atom_site_fract_x
_atom_site_fract_y
_atom_site_fract_z
Si Si1 0.750375 0.206590 0.209729
Si Si2 0.673718 0.444912 0.241013
Si Si3 0.061480 0.868167 0.359324
Si Si4 0.561040 0.774273 0.448163
Si Si5 0.090597 0.111058 0.834328
Si Si6 0.728259 0.960661 0.325431
Si Si7 0.887639 0.214626 0.895113
Si Si8 0.885854 0.558005 0.551926
O O1 0.677748 0.342382 0.136468
O O2 0.817904 0.249273 0.391998
O O3 0.824846 0.170180 0.176178
O O4 0.697491 0.065560 0.195186
O O5 0.628040 0.366392 0.306048
O O6 0.594878 0.572651 0.153481
O O7 0.786182 0.527407 0.368729
O O8 0.143560 0.950308 0.523997
O O9 0.061414 0.708125 0.397428
O O10 0.951157 0.954923 0.233198
O O11 0.500000 0.722863 0.500000
O O12 0.519456 0.694886 0.298753
O O13 0.534831 0.933695 0.402161
O O14 0.135977 0.160398 0.000398
O O15 0.695414 0.810745 0.251024
O O16 0.666717 0.013523 0.377888
O O17 0.000000 0.294336 0.000000
#
# Coordination Sequence:
#
# PCOD9122713 Si02
#       8
#     4   4   4   4   4   4   4   4
#     4  10  21  41  63  90 126 170 215 265 328 391
#     4  10  21  38  62  91 126 168 213 269 328 394
#     4  11  20  37  64  98 121 162 226 268 316 389
#     4   9  19  38  60  89 124 161 204 265 325 375
#     4  11  23  39  65  91 128 171 210 267 332 398
#     4  11  22  37  63  93 124 165 219 272 321 392
#     4  12  24  40  61  94 131 169 217 276 339 388
#     4  10  20  35  63  92 117 160 218 268 312 380
#
# _framework density 22.542342000000001
#
# number of rings (size 3 to 8) (size 9 to 14) (size 15 to 20)
#    0.000    1.500    5.000    0.750    0.000    1.000 
#    2.250    3.125    0.000    0.000    0.000    0.000 
#    0.000    0.000    0.000    0.000    0.000    0.000 
#
# Total GULP energy -89088.336289 kJ/mol
# GULP energy per Si atom -5568.021018 kJ/mol
# Density = 2.249103 g / cm^3
# Si number density = 22.542342 Si / 1000 Ang^3
#
#
#
# Elastic Constant Matrix: (Units=GPa)
#
#
# Indices 1 2 3 4 5 6 
#
# 1 54.7113 8.7369 0.2989 0.0000 -19.2264 0.0000
# 2 8.7369 138.1438 -0.1831 0.0000 -6.3297 0.0000
# 3 0.2989 -0.1831 19.1661 0.0000 -8.0006 0.0000
# 4 0.0000 0.0000 0.0000 12.9146 0.0000 -5.5491
# 5 -19.2264 -6.3297 -8.0006 0.0000 23.9264 0.0000
# 6 0.0000 0.0000 0.0000 -5.5491 0.0000 30.4669
#
#
#
# Elastic Compliance Matrix: (Units=1/GPa)
#
#
# Indices 1 2 3 4 5 6 
#
# 1 0.027082 -0.000556 0.009989 0.000000 0.024955 0.000000
# 2 -0.000556 0.007356 0.000819 0.000000 0.001773 0.000000
# 3 0.009989 0.000819 0.064467 0.000000 0.029801 0.000000
# 4 0.000000 0.000000 0.000000 0.084006 0.000000 0.015301
# 5 0.024955 0.001773 0.029801 0.000000 0.072282 0.000000
# 6 0.000000 0.000000 0.000000 0.015301 0.000000 0.035609
#
#
# Mechanical properties :
#
#
# Convention : Reuss Voigt Hill
#
# Bulk Modulus (GPa) = 8.37450 25.52518 16.94984
# Shear Modulus (GPa) = 16.12380 27.00615 21.56497
#
# Velocity S-wave (km/s) = 2.67735 3.46500 3.09632
# Velocity P-wave (km/s) = 3.64427 5.23030 4.50759
#
# Compressibility (1/GPa) = 0.11941007
#
# Stress axis : x y z
#
# Youngs Moduli (GPa) = 36.92549 135.93727 15.51173
#
# Poissons Ratio (x) = 0.07560 -0.15495
# Poissons Ratio (y) = 0.02053 -0.01271
# Poissons Ratio (z) = -0.36886 -0.11135
#
# Static dielectric constant tensor:
#      x y z
#    x 1.817880 0.000000 0.028980 
#    y 0.000000 1.946530 0.000000 
#    z 0.028980 0.000000 1.956730 
# 
# From -- ./inp_files/46160.got.cif
#   From: 2010.05.17/outbox.cif.g08.bks.cpg/sg5_24_cif.got.tgz:46160.got - 2010.06.03 18:56:24.
