data_PCOD9122120
_publ_section_title
;
Structure prediction by ZEFSAII (Michael W. Deem and Ramdas Pophale) SiO2 
 PCOD9122120
Probable space group: C 2
;
_chemical_formula_sum "Si O2"
_cell_formula_units_Z 30
_cell_length_a 10.466151
_cell_length_b 10.182686
_cell_length_c 11.932817
_cell_angle_alpha 90.000000
_cell_angle_beta 102.537745
_cell_angle_gamma 90.000000
_cell_volume 1241.395925
_symmetry_space_group_name_H-M "C 2"
_symmetry_group_IT_number 5
_symmetry_cell_setting 'monoclinic'
loop_
_space_group_symop_operation_xyz
x,y,z
-x,y,-z
1/2+x,1/2+y,z
1/2-x,1/2+y,-z
loop_
_atom_site_type_symbol
_atom_site_label
_atom_site_fract_x
_atom_site_fract_y
_atom_site_fract_z
Si Si1 0.500000 0.938460 0.500000
Si Si2 0.403179 0.333738 0.733097
Si Si3 0.725101 0.926354 0.044535
Si Si4 0.298570 0.345420 0.288990
Si Si5 0.788662 0.986951 0.515616
Si Si6 0.067030 0.211161 0.346573
Si Si7 0.995573 0.074867 0.121982
Si Si8 0.356899 0.205472 0.940153
O O1 0.509387 0.837886 0.396567
O O2 0.636075 0.016862 0.514576
O O3 0.555113 0.313655 0.725270
O O4 0.322347 0.363987 0.605311
O O5 0.398812 0.466724 0.811612
O O6 0.353684 0.217961 0.804687
O O7 0.703794 0.880776 0.167230
O O8 0.868415 0.988274 0.082643
O O9 0.645987 0.059462 0.007078
O O10 0.745285 0.800291 0.970188
O O11 0.303321 0.452717 0.387880
O O12 0.214796 0.232593 0.329738
O O13 0.899916 0.091236 0.566303
O O14 0.982305 0.170455 0.223983
O O15 0.000000 0.139176 0.000000
O O16 0.500000 0.259316 0.000000
#
# Coordination Sequence:
#
# PCOD9122120 Si02
#       8
#     2   4   4   4   4   4   4   4
#     4  10  24  46  60 102 134 164 236 280 336 414
#     4  10  20  40  68  94 129 179 226 272 347 403
#     4  11  25  42  71  94 141 180 231 289 347 412
#     4  10  22  44  62 103 134 177 238 283 340 425
#     4  10  23  42  67  95 133 178 222 283 348 403
#     4  10  24  40  68  94 136 178 227 288 339 412
#     4  10  19  38  65  92 125 178 220 274 341 401
#     4  12  24  48  67 105 140 183 232 290 345 418
#
# _framework density 24.166343000000001
#
# number of rings (size 3 to 8) (size 9 to 14) (size 15 to 20)
#    0.000    1.600    4.000    0.400    9.333    1.067 
#   12.000    0.000    0.000    0.000    0.000    0.000 
#    0.000    0.000    0.000    0.000    0.000    0.000 
#
# Total GULP energy -83627.458770 kJ/mol
# GULP energy per Si atom -5575.163918 kJ/mol
# Density = 2.411134 g / cm^3
# Si number density = 24.166343 Si / 1000 Ang^3
#
#
#
# Elastic Constant Matrix: (Units=GPa)
#
#
# Indices 1 2 3 4 5 6 
#
# 1 104.2763 31.8195 28.8331 0.0000 -17.0949 0.0000
# 2 31.8195 57.9534 21.4478 0.0000 -17.2503 0.0000
# 3 28.8331 21.4478 101.5277 0.0000 -26.7667 0.0000
# 4 0.0000 0.0000 0.0000 19.0963 0.0000 2.9335
# 5 -17.0949 -17.2503 -26.7667 0.0000 29.0824 0.0000
# 6 0.0000 0.0000 0.0000 2.9335 0.0000 22.8405
#
#
#
# Elastic Compliance Matrix: (Units=1/GPa)
#
#
# Indices 1 2 3 4 5 6 
#
# 1 0.012061 -0.005284 -0.001672 0.000000 0.002416 0.000000
# 2 -0.005284 0.023449 -0.000799 0.000000 0.010068 0.000000
# 3 -0.001672 -0.000799 0.013348 0.000000 0.010829 0.000000
# 4 0.000000 0.000000 0.000000 0.053420 0.000000 -0.006861
# 5 0.002416 0.010068 0.010829 0.000000 0.051743 0.000000
# 6 0.000000 0.000000 0.000000 -0.006861 0.000000 0.044663
#
#
# Mechanical properties :
#
#
# Convention : Reuss Voigt Hill
#
# Bulk Modulus (GPa) = 29.98657 47.55090 38.76873
# Shear Modulus (GPa) = 22.19174 26.31430 24.25302
#
# Velocity S-wave (km/s) = 3.03362 3.30340 3.17138
# Velocity P-wave (km/s) = 4.97049 5.85399 5.43024
#
# Compressibility (1/GPa) = 0.03334826
#
# Stress axis : x y z
#
# Youngs Moduli (GPa) = 82.91374 42.64621 74.91816
#
# Poissons Ratio (x) = 0.22534 0.12525
# Poissons Ratio (y) = 0.43811 0.05984
# Poissons Ratio (z) = 0.13862 0.03406
#
# Static dielectric constant tensor:
#      x y z
#    x 1.944710 0.000000 -0.061280 
#    y 0.000000 2.049670 0.000000 
#    z -0.061280 0.000000 2.144740 
# 
# From -- ./inp_files/39224.got.cif
#   From: 2010.05.17/outbox.cif.g08.bks.cpg/sg5_20_cif.got.tgz:39224.got - 2010.06.03 18:56:24.
