data_PCOD9122776
_publ_section_title
;
Structure prediction by ZEFSAII (Michael W. Deem and Ramdas Pophale) SiO2 
 PCOD9122776
Probable space group: C 2
;
_chemical_formula_sum "Si O2"
_cell_formula_units_Z 32
_cell_length_a 11.239185
_cell_length_b 9.019496
_cell_length_c 27.975499
_cell_angle_alpha 90.000000
_cell_angle_beta 148.927521
_cell_angle_gamma 90.000000
_cell_volume 1463.683860
_symmetry_space_group_name_H-M "C 2"
_symmetry_group_IT_number 5
_symmetry_cell_setting 'monoclinic'
loop_
_space_group_symop_operation_xyz
x,y,z
-x,y,-z
1/2+x,1/2+y,z
1/2-x,1/2+y,-z
loop_
_atom_site_type_symbol
_atom_site_label
_atom_site_fract_x
_atom_site_fract_y
_atom_site_fract_z
Si Si1 0.692321 0.239100 0.106157
Si Si2 0.710967 0.737717 0.244359
Si Si3 0.373018 0.232357 0.736743
Si Si4 0.397038 0.162070 0.551926
Si Si5 0.381816 0.983915 0.232410
Si Si6 0.137147 0.975270 0.782068
Si Si7 0.921316 0.220946 0.647736
Si Si8 0.988490 0.352914 0.546622
O O1 0.695610 0.376175 0.144025
O O2 0.946683 0.238040 0.169584
O O3 0.679484 0.089115 0.132838
O O4 0.500000 0.249697 0.000000
O O5 0.777464 0.591792 0.236529
O O6 0.769227 0.872082 0.228267
O O7 0.874709 0.736229 0.347620
O O8 0.544486 0.372640 0.793834
O O9 0.172033 0.218963 0.706683
O O10 0.225200 0.273243 0.639100
O O11 0.507834 0.083334 0.771607
O O12 0.282349 0.205751 0.461112
O O13 0.201063 0.225534 0.518995
O O14 0.429650 0.985051 0.562815
O O15 0.569889 0.875447 0.321190
O O16 0.941743 0.082081 0.691048
O O17 0.000000 0.427960 0.500000
#
# Coordination Sequence:
#
# PCOD9122776 Si02
#       8
#     4   4   4   4   4   4   4   4
#     4  11  25  44  65  89 114 148 199 254 310 365
#     4  11  22  40  60  86 124 156 194 246 294 352
#     4  10  20  37  59  85 120 160 197 239 291 348
#     4  11  22  36  58  89 124 166 206 237 281 344
#     4  10  22  40  63  89 118 158 199 243 300 351
#     4  10  21  39  62  88 120 158 195 240 301 354
#     4  10  20  36  57  88 127 161 200 241 278 339
#     4  11  22  36  54  82 123 165 205 244 278 331
#
# _framework density 21.862645000000001
#
# number of rings (size 3 to 8) (size 9 to 14) (size 15 to 20)
#    0.000    1.500    0.000    6.750    0.000    3.000 
#    0.000    5.625    0.000    0.000    0.000    0.000 
#    0.000    0.000    0.000    0.000    0.000    0.000 
#
# Total GULP energy -89359.878152 kJ/mol
# GULP energy per Si atom -5584.992384 kJ/mol
# Density = 2.181288 g / cm^3
# Si number density = 21.862645 Si / 1000 Ang^3
#
#
#
# Elastic Constant Matrix: (Units=GPa)
#
#
# Indices 1 2 3 4 5 6 
#
# 1 54.7785 25.5161 -5.8777 0.0000 -9.7220 0.0000
# 2 25.5161 128.0521 30.8444 0.0000 -15.3837 0.0000
# 3 -5.8777 30.8444 127.5021 0.0000 -29.8451 0.0000
# 4 0.0000 0.0000 0.0000 15.5584 0.0000 -0.4656
# 5 -9.7220 -15.3837 -29.8451 0.0000 26.2632 0.0000
# 6 0.0000 0.0000 0.0000 -0.4656 0.0000 25.4311
#
#
#
# Elastic Compliance Matrix: (Units=1/GPa)
#
#
# Indices 1 2 3 4 5 6 
#
# 1 0.022781 -0.004325 0.004738 0.000000 0.011283 0.000000
# 2 -0.004325 0.009358 -0.002118 0.000000 0.001473 0.000000
# 3 0.004738 -0.002118 0.011845 0.000000 0.013973 0.000000
# 4 0.000000 0.000000 0.000000 0.064309 0.000000 0.001177
# 5 0.011283 0.001473 0.013973 0.000000 0.058994 0.000000
# 6 0.000000 0.000000 0.000000 0.001177 0.000000 0.039344
#
#
# Mechanical properties :
#
#
# Convention : Reuss Voigt Hill
#
# Bulk Modulus (GPa) = 24.64749 45.69981 35.17365
# Shear Modulus (GPa) = 22.36467 30.77386 26.56926
#
# Velocity S-wave (km/s) = 3.20185 3.75587 3.48987
# Velocity P-wave (km/s) = 4.99674 6.30534 5.68879
#
# Compressibility (1/GPa) = 0.04057208
#
# Stress axis : x y z
#
# Youngs Moduli (GPa) = 43.89662 106.85573 84.42672
#
# Poissons Ratio (x) = 0.46215 -0.39998
# Poissons Ratio (y) = 0.18985 0.17885
# Poissons Ratio (z) = -0.20796 0.22637
#
# Static dielectric constant tensor:
#      x y z
#    x 1.857850 0.000000 0.002420 
#    y 0.000000 1.817360 0.000000 
#    z 0.002420 0.000000 1.753540 
# 
# From -- ./inp_files/71772.got.cif
#   From: 2010.05.17/outbox.cif.g08.bks.cpg/sg5_36_cif.got.tgz:71772.got - 2010.06.03 18:56:24.
