data_PCOD9122455
_publ_section_title
;
Structure prediction by ZEFSAII (Michael W. Deem and Ramdas Pophale) SiO2 
 PCOD9122455
Probable space group: C 2
;
_chemical_formula_sum "Si O2"
_cell_formula_units_Z 24
_cell_length_a 11.331589
_cell_length_b 19.664934
_cell_length_c 13.739926
_cell_angle_alpha 90.000000
_cell_angle_beta 158.697740
_cell_angle_gamma 90.000000
_cell_volume 1112.291786
_symmetry_space_group_name_H-M "C 2"
_symmetry_group_IT_number 5
_symmetry_cell_setting 'monoclinic'
loop_
_space_group_symop_operation_xyz
x,y,z
-x,y,-z
1/2+x,1/2+y,z
1/2-x,1/2+y,-z
loop_
_atom_site_type_symbol
_atom_site_label
_atom_site_fract_x
_atom_site_fract_y
_atom_site_fract_z
Si Si1 0.829357 0.969890 0.670303
Si Si2 0.791791 0.560946 0.158480
Si Si3 0.230860 0.820348 0.365926
Si Si4 0.714803 0.758137 0.861270
Si Si5 0.361836 0.470912 0.288206
Si Si6 0.433705 0.624068 0.562466
O O1 0.816955 0.896557 0.711060
O O2 0.932132 0.944505 0.642286
O O3 0.502854 0.012794 0.394892
O O4 0.101856 0.015650 0.932045
O O5 0.062953 0.606672 0.311499
O O6 0.500000 0.592506 0.000000
O O7 0.500000 0.789434 0.500000
O O8 0.418453 0.808989 0.610875
O O9 0.901199 0.777943 0.102767
O O10 0.579363 0.682314 0.742915
O O11 0.000000 0.767145 0.000000
O O12 0.500000 0.457246 0.500000
O O13 0.380927 0.552417 0.285576
O O14 0.000000 0.446168 0.000000
O O15 0.500000 0.642226 0.500000
#
# Coordination Sequence:
#
# PCOD9122455 Si02
#       6
#     4   4   4   4   4   4
#     4  11  21  37  58  83 119 159 194 238 297 358
#     4  11  23  37  58  88 122 158 194 240 297 355
#     4  10  20  33  52  80 114 149 188 233 287 345
#     4  10  20  33  52  81 112 145 187 240 290 337
#     4  10  20  34  55  85 114 147 192 245 296 346
#     4  10  20  36  58  85 118 152 194 244 295 347
#
# _framework density 21.577072999999999
#
# number of rings (size 3 to 8) (size 9 to 14) (size 15 to 20)
#    0.000    1.667    0.000    7.500    0.000    6.667 
#    0.000    0.000    0.000    1.000    0.000   11.667 
#    0.000    0.000    0.000    0.000    0.000    0.000 
#
# Total GULP energy -66860.510366 kJ/mol
# GULP energy per Si atom -5571.709197 kJ/mol
# Density = 2.152796 g / cm^3
# Si number density = 21.577073 Si / 1000 Ang^3
#
#
#
# Elastic Constant Matrix: (Units=GPa)
#
#
# Indices 1 2 3 4 5 6 
#
# 1 79.7692 8.3630 44.5925 -0.0025 13.4192 0.0048
# 2 8.3630 72.4140 41.0756 0.0153 -3.7448 0.0053
# 3 44.5925 41.0756 184.5232 0.0620 -12.4780 0.0094
# 4 -0.0025 0.0153 0.0620 19.0315 0.0030 7.0611
# 5 13.4192 -3.7448 -12.4780 0.0030 37.2288 0.0069
# 6 0.0048 0.0053 0.0094 7.0611 0.0069 8.1466
#
#
#
# Elastic Compliance Matrix: (Units=1/GPa)
#
#
# Indices 1 2 3 4 5 6 
#
# 1 0.016247 0.000289 -0.004486 0.000025 -0.007331 -0.000020
# 2 0.000289 0.015817 -0.003571 0.000002 0.000290 -0.000008
# 3 -0.004486 -0.003571 0.007555 -0.000030 0.003790 0.000019
# 4 0.000025 0.000002 -0.000030 0.077453 -0.000013 -0.067133
# 5 -0.007331 0.000290 0.003790 -0.000013 0.030803 -0.000016
# 6 -0.000020 -0.000008 0.000019 -0.067133 -0.000016 0.180940
#
#
# Mechanical properties :
#
#
# Convention : Reuss Voigt Hill
#
# Bulk Modulus (GPa) = 41.52463 58.30764 49.91613
# Shear Modulus (GPa) = 14.18930 29.05972 21.62451
#
# Velocity S-wave (km/s) = 2.56717 3.67384 3.16919
# Velocity P-wave (km/s) = 5.29847 6.71400 6.04779
#
# Compressibility (1/GPa) = 0.02408210
#
# Stress axis : x y z
#
# Youngs Moduli (GPa) = 61.54946 63.22412 132.36502
#
# Poissons Ratio (x) = -0.01830 0.59385
# Poissons Ratio (y) = -0.01781 0.47270
# Poissons Ratio (z) = 0.27614 0.22579
#
# Static dielectric constant tensor:
#      x y z
#    x 1.883120 0.000000 -0.030220 
#    y 0.000000 1.797740 -0.000010 
#    z -0.030220 -0.000010 1.834510 
# 
# From -- ./inp_files/53561.got.cif
#   From: 2010.05.17/outbox.cif.g08.bks.cpg/sg5_27_cif.got.tgz:53561.got - 2010.06.03 18:56:24.
