data_PCOD9122904
_publ_section_title
;
Structure prediction by ZEFSAII (Michael W. Deem and Ramdas Pophale) SiO2 
 PCOD9122904
Probable space group: C 2
;
_chemical_formula_sum "Si O2"
_cell_formula_units_Z 32
_cell_length_a 21.136879
_cell_length_b 7.607133
_cell_length_c 13.633856
_cell_angle_alpha 90.000000
_cell_angle_beta 43.536533
_cell_angle_gamma 90.000000
_cell_volume 1510.025908
_symmetry_space_group_name_H-M "C 2"
_symmetry_group_IT_number 5
_symmetry_cell_setting 'monoclinic'
loop_
_space_group_symop_operation_xyz
x,y,z
-x,y,-z
1/2+x,1/2+y,z
1/2-x,1/2+y,-z
loop_
_atom_site_type_symbol
_atom_site_label
_atom_site_fract_x
_atom_site_fract_y
_atom_site_fract_z
Si Si1 0.076258 0.237650 0.632655
Si Si2 0.080457 0.224685 0.963556
Si Si3 0.019063 0.608475 0.090329
Si Si4 0.254079 0.771344 0.684763
Si Si5 0.195841 0.784305 0.972230
Si Si6 0.126721 0.127665 0.123482
Si Si7 0.131719 0.859512 0.653023
Si Si8 0.299795 0.881170 0.336684
O O1 0.138969 0.267792 0.466264
O O2 0.127479 0.364522 0.654727
O O3 0.966830 0.225912 0.736612
O O4 0.091912 0.043772 0.661406
O O5 0.157347 0.277143 0.800953
O O6 0.027806 0.399117 0.063254
O O7 0.122857 0.141201 0.010413
O O8 0.000000 0.116751 0.000000
O O9 0.945085 0.715624 0.237244
O O10 0.116200 0.650766 0.029949
O O11 0.000000 0.674269 0.000000
O O12 0.235111 0.824577 0.817664
O O13 0.192866 0.890309 0.681375
O O14 0.218976 0.575791 0.687418
O O15 0.284264 0.713294 0.929399
O O16 0.145427 0.918568 0.104644
O O17 0.205778 0.805848 0.487006
#
# Coordination Sequence:
#
# PCOD9122904 Si02
#       8
#     4   4   4   4   4   4   4   4
#     4  10  22  39  64  99 131 165 211 265 326 391
#     4  11  21  37  64  94 126 164 209 263 327 386
#     4  11  20  37  65  94 125 165 209 267 320 390
#     4  10  21  40  66  96 130 171 205 263 334 391
#     4  12  25  42  62  88 129 171 222 271 324 387
#     4  12  27  42  61  92 125 174 219 275 322 392
#     4  10  20  36  62  99 131 160 210 257 324 384
#     4  10  20  37  62  98 133 162 201 265 321 387
#
# _framework density 21.191690000000001
#
# number of rings (size 3 to 8) (size 9 to 14) (size 15 to 20)
#    0.000    1.250    5.000    1.500    1.750    1.000 
#    0.000    0.000    0.000    2.250    0.000    0.000 
#    0.000    0.000    0.000    0.000    0.000    0.000 
#
# Total GULP energy -89137.834911 kJ/mol
# GULP energy per Si atom -5571.114682 kJ/mol
# Density = 2.114346 g / cm^3
# Si number density = 21.191690 Si / 1000 Ang^3
#
#
#
# Elastic Constant Matrix: (Units=GPa)
#
#
# Indices 1 2 3 4 5 6 
#
# 1 103.8765 -3.2984 28.5151 -0.0005 -36.0474 0.0001
# 2 -3.2984 47.8146 12.2232 -0.0031 -12.5313 0.0017
# 3 28.5151 12.2232 111.7228 -0.0033 -14.2603 0.0012
# 4 -0.0005 -0.0031 -0.0033 24.5976 0.0004 -3.9873
# 5 -36.0474 -12.5313 -14.2603 0.0004 31.8024 0.0000
# 6 0.0001 0.0017 0.0012 -3.9873 0.0000 21.1263
#
#
#
# Elastic Compliance Matrix: (Units=1/GPa)
#
#
# Indices 1 2 3 4 5 6 
#
# 1 0.018621 0.008015 -0.002686 0.000001 0.023060 0.000000
# 2 0.008015 0.027000 -0.002633 0.000003 0.018543 -0.000002
# 3 -0.002686 -0.002633 0.009974 0.000001 0.000390 0.000000
# 4 0.000001 0.000003 0.000001 0.041937 0.000002 0.007915
# 5 0.023060 0.018543 0.000390 0.000002 0.065064 -0.000001
# 6 0.000000 -0.000002 0.000000 0.007915 -0.000001 0.048828
#
#
# Mechanical properties :
#
#
# Convention : Reuss Voigt Hill
#
# Bulk Modulus (GPa) = 16.39693 37.58822 26.99257
# Shear Modulus (GPa) = 22.08849 30.57019 26.32934
#
# Velocity S-wave (km/s) = 3.23200 3.80222 3.52865
# Velocity P-wave (km/s) = 4.65639 6.08700 5.41911
#
# Compressibility (1/GPa) = 0.06098704
#
# Stress axis : x y z
#
# Youngs Moduli (GPa) = 53.70241 37.03730 100.25887
#
# Poissons Ratio (x) = -0.29685 0.26931
# Poissons Ratio (y) = -0.43042 0.26396
# Poissons Ratio (z) = 0.14425 0.09751
#
# Static dielectric constant tensor:
#      x y z
#    x 1.789650 0.000000 -0.014030 
#    y 0.000000 1.869670 0.000000 
#    z -0.014030 0.000000 1.866590 
# 
# From -- ./inp_files/56819.got.cif
#   From: 2010.05.17/outbox.cif.g08.bks.cpg/sg5_29_cif.got.tgz:56819.got - 2010.06.03 18:56:24.
