data_PCOD9122990
_publ_section_title
;
Structure prediction by ZEFSAII (Michael W. Deem and Ramdas Pophale) SiO2 
 PCOD9122990
Probable space group: C 2
;
_chemical_formula_sum "Si O2"
_cell_formula_units_Z 28
_cell_length_a 5.464680
_cell_length_b 18.515087
_cell_length_c 14.491930
_cell_angle_alpha 90.000000
_cell_angle_beta 106.132866
_cell_angle_gamma 90.000000
_cell_volume 1408.537163
_symmetry_space_group_name_H-M "C 2"
_symmetry_group_IT_number 5
_symmetry_cell_setting 'monoclinic'
loop_
_space_group_symop_operation_xyz
x,y,z
-x,y,-z
1/2+x,1/2+y,z
1/2-x,1/2+y,-z
loop_
_atom_site_type_symbol
_atom_site_label
_atom_site_fract_x
_atom_site_fract_y
_atom_site_fract_z
Si Si1 0.875684 0.901240 0.673837
Si Si2 0.000000 0.653117 0.500000
Si Si3 0.000000 0.932888 0.500000
Si Si4 0.881915 0.176681 0.697218
Si Si5 0.259517 0.037213 0.219755
Si Si6 0.209708 0.430872 0.942009
Si Si7 0.730445 0.565501 0.625191
Si Si8 0.945648 0.337734 0.759201
O O1 0.629134 0.866761 0.697050
O O2 0.836828 0.892047 0.559176
O O3 0.150922 0.864700 0.724241
O O4 0.870824 0.981886 0.720194
O O5 0.152015 0.691747 0.599052
O O6 0.181562 0.599865 0.462331
O O7 0.136153 0.987622 0.583299
O O8 0.831608 0.118586 0.772993
O O9 0.955380 0.251873 0.749212
O O10 0.074939 0.130035 0.655505
O O11 0.548609 0.044658 0.281741
O O12 0.248078 0.000795 0.119222
O O13 0.078075 0.370043 0.864229
O O14 0.500000 0.409589 0.000000
O O15 0.000000 0.445297 0.000000
#
# Coordination Sequence:
#
# PCOD9122990 Si02
#       8
#     4   2   2   4   4   4   4   4
#     4  11  24  42  64  95 138 180 235 273 329 402
#     4  10  20  37  56 102 129 190 224 264 316 387
#     4  12  18  37  60  96 131 184 236 276 304 373
#     4  11  23  41  68  94 144 183 226 276 332 410
#     4  10  23  41  71  97 124 175 225 284 347 395
#     4  11  24  46  77  98 129 167 226 284 352 426
#     4  11  20  37  65  94 136 175 232 278 332 381
#     4  11  27  46  66  99 137 185 218 278 359 405
#
# _framework density 19.878781
#
# number of rings (size 3 to 8) (size 9 to 14) (size 15 to 20)
#    0.000    1.143    2.857    4.286    6.000    2.286 
#    2.571    0.714    0.000    0.000    0.000    0.000 
#    0.000    0.000    0.000    0.000    0.000    0.000 
#
# Total GULP energy -77958.007518 kJ/mol
# GULP energy per Si atom -5568.429108 kJ/mol
# Density = 1.983354 g / cm^3
# Si number density = 19.878781 Si / 1000 Ang^3
#
#
#
# Elastic Constant Matrix: (Units=GPa)
#
#
# Indices 1 2 3 4 5 6 
#
# 1 101.5355 23.9133 39.7177 0.0000 -1.4237 0.0000
# 2 23.9133 107.0451 39.8417 0.0000 10.0858 0.0000
# 3 39.7177 39.8417 92.2643 0.0000 -20.4734 0.0000
# 4 0.0000 0.0000 0.0000 21.3203 0.0000 3.8168
# 5 -1.4237 10.0858 -20.4734 0.0000 32.8233 0.0000
# 6 0.0000 0.0000 0.0000 3.8168 0.0000 15.0456
#
#
#
# Elastic Compliance Matrix: (Units=1/GPa)
#
#
# Indices 1 2 3 4 5 6 
#
# 1 0.012126 -0.000285 -0.005758 0.000000 -0.002978 0.000000
# 2 -0.000285 0.012964 -0.007384 0.000000 -0.008602 0.000000
# 3 -0.005758 -0.007384 0.019677 0.000000 0.014293 0.000000
# 4 0.000000 0.000000 0.000000 0.049135 0.000000 -0.012465
# 5 -0.002978 -0.008602 0.014293 0.000000 0.041895 0.000000
# 6 0.000000 0.000000 0.000000 -0.012465 0.000000 0.069627
#
#
# Mechanical properties :
#
#
# Convention : Reuss Voigt Hill
#
# Bulk Modulus (GPa) = 55.82379 56.42115 56.12247
# Shear Modulus (GPa) = 20.98627 26.99599 23.99113
#
# Velocity S-wave (km/s) = 3.25270 3.68914 3.47777
# Velocity P-wave (km/s) = 6.49998 6.82573 6.66485
#
# Compressibility (1/GPa) = 0.01791351
#
# Stress axis : x y z
#
# Youngs Moduli (GPa) = 82.46429 77.13394 50.82031
#
# Poissons Ratio (x) = 0.02202 0.29260
# Poissons Ratio (y) = 0.02354 0.37527
# Poissons Ratio (z) = 0.47480 0.56957
#
# Static dielectric constant tensor:
#      x y z
#    x 1.799970 0.000000 -0.017660 
#    y 0.000000 1.755890 0.000000 
#    z -0.017660 0.000000 1.721900 
# 
# From -- ./inp_files/49245.got.cif
#   From: 2010.05.17/outbox.cif.g08.bks.cpg/sg5_25_cif.got.tgz:49245.got - 2010.06.03 18:56:24.
