data_PCOD9122602
_publ_section_title
;
Structure prediction by ZEFSAII (Michael W. Deem and Ramdas Pophale) SiO2 
 PCOD9122602
Probable space group: C 2
;
_chemical_formula_sum "Si O2"
_cell_formula_units_Z 30
_cell_length_a 13.016960
_cell_length_b 13.693997
_cell_length_c 9.078399
_cell_angle_alpha 90.000000
_cell_angle_beta 75.690536
_cell_angle_gamma 90.000000
_cell_volume 1568.056117
_symmetry_space_group_name_H-M "C 2"
_symmetry_group_IT_number 5
_symmetry_cell_setting 'monoclinic'
loop_
_space_group_symop_operation_xyz
x,y,z
-x,y,-z
1/2+x,1/2+y,z
1/2-x,1/2+y,-z
loop_
_atom_site_type_symbol
_atom_site_label
_atom_site_fract_x
_atom_site_fract_y
_atom_site_fract_z
Si Si1 0.831283 0.714150 0.249646
Si Si2 0.440711 0.007805 0.175575
Si Si3 0.873830 0.736982 0.563260
Si Si4 0.000000 0.064786 0.000000
Si Si5 0.345928 0.044104 0.760766
Si Si6 0.747762 0.368167 0.163062
Si Si7 0.658030 0.416478 0.883931
Si Si8 0.798601 0.173615 0.971928
O O1 0.904255 0.619220 0.211634
O O2 0.819049 0.740663 0.423566
O O3 0.876045 0.809103 0.150678
O O4 0.729341 0.689130 0.187818
O O5 0.538420 0.998011 0.254279
O O6 0.337845 0.937563 0.202752
O O7 0.500000 0.995836 0.000000
O O8 0.852784 0.629005 0.637404
O O9 0.827243 0.819059 0.688357
O O10 0.000000 0.749042 0.500000
O O11 0.912931 0.127835 0.950075
O O12 0.067770 0.992752 0.874630
O O13 0.264040 0.955613 0.767669
O O14 0.292640 0.104747 0.919040
O O15 0.683037 0.418491 0.051222
O O16 0.798726 0.275684 0.059387
#
# Coordination Sequence:
#
# PCOD9122602 Si02
#       8
#     4   4   4   2   4   4   4   4
#     4  11  23  37  59  88 124 164 199 247 308 367
#     4  12  20  36  66  96 115 157 206 267 304 351
#     4  11  24  41  61  88 128 170 198 253 307 378
#     4  10  20  34  62  92 120 154 198 262 316 338
#     4  10  20  40  62  90 118 157 213 252 308 350
#     4  10  23  38  62  93 124 154 211 256 310 357
#     4  10  22  37  62  91 119 159 208 264 297 365
#     4   9  20  38  60  89 122 157 205 260 297 365
#
# _framework density 19.131969000000002
#
# number of rings (size 3 to 8) (size 9 to 14) (size 15 to 20)
#    0.000    1.600    4.000    0.800    3.733    1.067 
#    0.000    0.000    0.000   11.200    0.000    0.000 
#    0.000    0.000    0.000    0.000    0.000    0.000 
#
# Total GULP energy -83620.572038 kJ/mol
# GULP energy per Si atom -5574.704803 kJ/mol
# Density = 1.908842 g / cm^3
# Si number density = 19.131969 Si / 1000 Ang^3
#
#
#
# Elastic Constant Matrix: (Units=GPa)
#
#
# Indices 1 2 3 4 5 6 
#
# 1 114.1108 46.0540 50.3733 0.0000 -8.0955 0.0000
# 2 46.0540 80.3012 23.8266 0.0000 -8.3735 0.0000
# 3 50.3733 23.8266 86.2712 0.0000 9.0325 0.0000
# 4 0.0000 0.0000 0.0000 22.0679 0.0000 1.9277
# 5 -8.0955 -8.3735 9.0325 0.0000 21.6673 0.0000
# 6 0.0000 0.0000 0.0000 1.9277 0.0000 10.4661
#
#
#
# Elastic Compliance Matrix: (Units=1/GPa)
#
#
# Indices 1 2 3 4 5 6 
#
# 1 0.014973 -0.005532 -0.007922 0.000000 0.006759 0.000000
# 2 -0.005532 0.016745 -0.001941 0.000000 0.005214 0.000000
# 3 -0.007922 -0.001941 0.017924 0.000000 -0.011182 0.000000
# 4 0.000000 0.000000 0.000000 0.046056 0.000000 -0.008483
# 5 0.006759 0.005214 -0.011182 0.000000 0.055354 0.000000
# 6 0.000000 0.000000 0.000000 -0.008483 0.000000 0.097109
#
#
# Mechanical properties :
#
#
# Convention : Reuss Voigt Hill
#
# Bulk Modulus (GPa) = 53.04386 57.91012 55.47699
# Shear Modulus (GPa) = 17.52947 21.53556 19.53252
#
# Velocity S-wave (km/s) = 3.03023 3.35868 3.19868
# Velocity P-wave (km/s) = 6.32681 6.73613 6.53468
#
# Compressibility (1/GPa) = 0.01885232
#
# Stress axis : x y z
#
# Youngs Moduli (GPa) = 66.78809 59.71919 55.79124
#
# Poissons Ratio (x) = 0.33034 0.44200
# Poissons Ratio (y) = 0.36944 0.10827
# Poissons Ratio (z) = 0.52913 0.11590
#
# Static dielectric constant tensor:
#      x y z
#    x 1.695960 0.000000 0.014180 
#    y 0.000000 1.697160 0.000000 
#    z 0.014180 0.000000 1.668770 
# 
# From -- ./inp_files/20601.got.cif
#   From: 2010.05.17/outbox.cif.g08.bks.cpg/sg5_11_cif.got.tgz:20601.got - 2010.06.03 18:56:24.
