data_PCOD9122832
_publ_section_title
;
Structure prediction by ZEFSAII (Michael W. Deem and Ramdas Pophale) SiO2 
 PCOD9122832
Probable space group: C 2
;
_chemical_formula_sum "Si O2"
_cell_formula_units_Z 30
_cell_length_a 9.770427
_cell_length_b 31.307073
_cell_length_c 5.100519
_cell_angle_alpha 90.000000
_cell_angle_beta 100.970496
_cell_angle_gamma 90.000000
_cell_volume 1531.652934
_symmetry_space_group_name_H-M "C 2"
_symmetry_group_IT_number 5
_symmetry_cell_setting 'monoclinic'
loop_
_space_group_symop_operation_xyz
x,y,z
-x,y,-z
1/2+x,1/2+y,z
1/2-x,1/2+y,-z
loop_
_atom_site_type_symbol
_atom_site_label
_atom_site_fract_x
_atom_site_fract_y
_atom_site_fract_z
Si Si1 0.161963 0.492340 0.540126
Si Si2 0.643579 0.194464 0.919702
Si Si3 0.261869 0.243820 0.527382
Si Si4 0.161710 0.549523 0.042311
Si Si5 0.000000 0.195729 0.500000
Si Si6 0.596581 0.327109 0.280568
Si Si7 0.097051 0.924879 0.277811
Si Si8 0.356309 0.627001 0.075444
O O1 0.183628 0.530061 0.761418
O O2 0.270749 0.455120 0.637253
O O3 0.000000 0.478582 0.500000
O O4 0.182001 0.511999 0.259970
O O5 0.704361 0.221821 0.182777
O O6 0.742651 0.154865 0.871952
O O7 0.500000 0.178505 0.000000
O O8 0.639785 0.225712 0.668266
O O9 0.108102 0.227084 0.394560
O O10 0.284787 0.293423 0.597425
O O11 0.267978 0.587386 0.145570
O O12 0.000000 0.563750 0.000000
O O13 0.086883 0.162704 0.706147
O O14 0.500000 0.328947 0.500000
O O15 0.642454 0.375699 0.242637
O O16 0.500000 0.312628 0.000000
O O17 0.000000 0.926175 0.500000
O O18 0.000000 0.938558 0.000000
O O19 0.500000 0.611082 0.000000
#
# Coordination Sequence:
#
# PCOD9122832 Si02
#       8
#     4   4   4   4   2   4   4   4
#     4  10  22  42  62  90 122 158 199 250 308 369
#     4  11  22  36  59  82 110 153 201 245 292 354
#     4  11  21  37  58  82 118 154 201 240 305 342
#     4  10  23  40  63  86 116 157 205 252 294 363
#     4  10  24  40  54  84 126 162 192 266 296 374
#     4  10  20  36  59  88 118 153 199 252 291 354
#     4  10  21  38  62  92 127 157 197 250 309 365
#     4  11  23  40  56  82 121 156 197 250 313 348
#
# _framework density 19.586682
#
# number of rings (size 3 to 8) (size 9 to 14) (size 15 to 20)
#    0.000    1.600    1.333    3.600    1.867    1.600 
#    1.200    2.667    0.000    0.000    0.000    0.000 
#    0.000    0.000    0.000    0.000    0.000    0.000 
#
# Total GULP energy -83633.881055 kJ/mol
# GULP energy per Si atom -5575.592070 kJ/mol
# Density = 1.954210 g / cm^3
# Si number density = 19.586682 Si / 1000 Ang^3
#
#
#
# Elastic Constant Matrix: (Units=GPa)
#
#
# Indices 1 2 3 4 5 6 
#
# 1 117.0248 74.5073 17.5000 0.0000 9.7716 0.0000
# 2 74.5073 92.5875 5.7429 0.0000 16.9094 0.0000
# 3 17.5000 5.7429 85.7780 0.0000 2.8742 0.0000
# 4 0.0000 0.0000 0.0000 20.0274 0.0000 22.1166
# 5 9.7716 16.9094 2.8742 0.0000 23.1934 0.0000
# 6 0.0000 0.0000 0.0000 22.1166 0.0000 -19.6975
#
#
#
# Elastic Compliance Matrix: (Units=1/GPa)
#
#
# Indices 1 2 3 4 5 6 
#
# 1 0.018422 -0.015336 -0.002858 0.000000 0.003774 0.000000
# 2 -0.015336 0.025252 0.001846 0.000000 -0.012177 0.000000
# 3 -0.002858 0.001846 0.012173 0.000000 -0.001650 0.000000
# 4 0.000000 0.000000 0.000000 0.022291 0.000000 0.025029
# 5 0.003774 -0.012177 -0.001650 0.000000 0.050608 0.000000
# 6 0.000000 0.000000 0.000000 0.025029 0.000000 -0.022665
#
#
# Mechanical properties :
#
#
# Convention : Reuss Voigt Hill
#
# Bulk Modulus (GPa) = 43.19677 54.54341 48.87009
# Shear Modulus (GPa) = 34.13106 17.88068 26.00587
#
# Velocity S-wave (km/s) = 4.17893 3.02470 3.64776
# Velocity P-wave (km/s) = 6.73696 6.33294 6.53807
#
# Compressibility (1/GPa) = 0.02314988
#
# Stress axis : x y z
#
# Youngs Moduli (GPa) = 54.28327 39.60135 82.15061
#
# Poissons Ratio (x) = 0.60735 0.23479
# Poissons Ratio (y) = 0.83252 -0.15167
# Poissons Ratio (z) = 0.15514 -0.07312
#
# Static dielectric constant tensor:
#      x y z
#    x 1.769400 0.000000 0.010260 
#    y 0.000000 1.702060 0.000000 
#    z 0.010260 0.000000 1.706010 
# 
# From -- ./inp_files/3806.got.cif
#   From: 2010.05.17/outbox.cif.g08.bks.cpg/sg5_2_cif.got.tgz:3806.got - 2010.06.03 18:56:24.
