data_PCOD9122182
_publ_section_title
;
Structure prediction by ZEFSAII (Michael W. Deem and Ramdas Pophale) SiO2 
 PCOD9122182
Probable space group: C 2
;
_chemical_formula_sum "Si O2"
_cell_formula_units_Z 24
_cell_length_a 27.642907
_cell_length_b 9.484869
_cell_length_c 8.984251
_cell_angle_alpha 90.000000
_cell_angle_beta 151.698699
_cell_angle_gamma 90.000000
_cell_volume 1116.797401
_symmetry_space_group_name_H-M "C 2"
_symmetry_group_IT_number 5
_symmetry_cell_setting 'monoclinic'
loop_
_space_group_symop_operation_xyz
x,y,z
-x,y,-z
1/2+x,1/2+y,z
1/2-x,1/2+y,-z
loop_
_atom_site_type_symbol
_atom_site_label
_atom_site_fract_x
_atom_site_fract_y
_atom_site_fract_z
Si Si1 0.537302 0.095530 0.434731
Si Si2 0.298098 0.067931 0.350353
Si Si3 0.657260 0.379190 0.414053
Si Si4 0.473652 0.414073 0.685252
Si Si5 0.636029 0.917898 0.186409
Si Si6 0.426232 0.670496 0.188138
O O1 0.500000 0.062015 0.500000
O O2 0.645528 0.047292 0.655218
O O3 0.540568 0.265107 0.432325
O O4 0.452011 0.027824 0.095268
O O5 0.339492 0.213260 0.536834
O O6 0.329747 0.943383 0.550576
O O7 0.177827 0.104456 0.026636
O O8 0.622901 0.449460 0.474022
O O9 0.762014 0.439348 0.635146
O O10 0.570265 0.397616 0.056548
O O11 0.502086 0.542713 0.661820
O O12 0.599815 0.765066 0.027765
O O13 0.500000 0.756408 0.500000
#
# Coordination Sequence:
#
# PCOD9122182 Si02
#       6
#     4   4   4   4   4   4
#     4  11  23  40  66  93 125 172 218 262 319 388
#     4  10  21  42  66  89 127 173 216 259 311 389
#     4   9  19  36  64  91 120 165 216 265 294 381
#     4  10  19  39  62  91 125 165 217 254 317 381
#     4  11  21  40  65  92 127 170 213 266 318 373
#     4  11  24  41  63  97 139 165 205 277 334 370
#
# _framework density 21.490023000000001
#
# number of rings (size 3 to 8) (size 9 to 14) (size 15 to 20)
#    0.000    1.667    3.333    1.500    0.000    1.333 
#    6.000    5.000    0.000    0.000    0.000    0.000 
#    0.000    0.000    0.000    0.000    0.000    0.000 
#
# Total GULP energy -66929.522783 kJ/mol
# GULP energy per Si atom -5577.460232 kJ/mol
# Density = 2.144111 g / cm^3
# Si number density = 21.490023 Si / 1000 Ang^3
#
#
#
# Elastic Constant Matrix: (Units=GPa)
#
#
# Indices 1 2 3 4 5 6 
#
# 1 150.0001 49.3161 35.3469 0.0000 8.2240 0.0000
# 2 49.3161 61.4402 19.9038 0.0000 7.1581 0.0000
# 3 35.3469 19.9038 72.3008 0.0000 -5.7860 0.0000
# 4 0.0000 0.0000 0.0000 2.8644 0.0000 5.9525
# 5 8.2240 7.1581 -5.7860 0.0000 20.9120 0.0000
# 6 0.0000 0.0000 0.0000 5.9525 0.0000 26.4864
#
#
#
# Elastic Compliance Matrix: (Units=1/GPa)
#
#
# Indices 1 2 3 4 5 6 
#
# 1 0.009664 -0.006451 -0.003146 0.000000 -0.002463 0.000000
# 2 -0.006451 0.023457 -0.003828 0.000000 -0.006552 0.000000
# 3 -0.003146 -0.003828 0.017003 0.000000 0.007252 0.000000
# 4 0.000000 0.000000 0.000000 0.655034 0.000000 -0.147212
# 5 -0.002463 -0.006552 0.007252 0.000000 0.053037 0.000000
# 6 0.000000 0.000000 0.000000 -0.147212 0.000000 0.070839
#
#
# Mechanical properties :
#
#
# Convention : Reuss Voigt Hill
#
# Bulk Modulus (GPa) = 42.96479 54.76386 48.86433
# Shear Modulus (GPa) = 5.78943 21.99751 13.89347
#
# Velocity S-wave (km/s) = 1.64312 3.20287 2.54541
# Velocity P-wave (km/s) = 4.86170 6.26231 5.60592
#
# Compressibility (1/GPa) = 0.02327487
#
# Stress axis : x y z
#
# Youngs Moduli (GPa) = 103.47841 42.63053 58.81233
#
# Poissons Ratio (x) = 0.27500 0.18501
# Poissons Ratio (y) = 0.66753 0.22514
# Poissons Ratio (z) = 0.32552 0.16320
#
# Static dielectric constant tensor:
#      x y z
#    x 1.834230 0.000000 -0.046790 
#    y 0.000000 1.763540 0.000000 
#    z -0.046790 0.000000 1.831710 
# 
# From -- ./inp_files/31893.got.cif
#   From: 2010.05.17/outbox.cif.g08.bks.cpg/sg5_16_cif.got.tgz:31893.got - 2010.06.03 18:56:24.
