data_PCOD9122806
_publ_section_title
;
Structure prediction by ZEFSAII (Michael W. Deem and Ramdas Pophale) SiO2 
 PCOD9122806
Probable space group: C 2
;
_chemical_formula_sum "Si O2"
_cell_formula_units_Z 26
_cell_length_a 8.597678
_cell_length_b 21.571687
_cell_length_c 14.332888
_cell_angle_alpha 90.000000
_cell_angle_beta 152.371207
_cell_angle_gamma 90.000000
_cell_volume 1232.749372
_symmetry_space_group_name_H-M "C 2"
_symmetry_group_IT_number 5
_symmetry_cell_setting 'monoclinic'
loop_
_space_group_symop_operation_xyz
x,y,z
-x,y,-z
1/2+x,1/2+y,z
1/2-x,1/2+y,-z
loop_
_atom_site_type_symbol
_atom_site_label
_atom_site_fract_x
_atom_site_fract_y
_atom_site_fract_z
Si Si1 0.831584 0.847240 0.109384
Si Si2 0.633237 0.486197 0.848044
Si Si3 0.460332 0.766562 0.775136
Si Si4 0.280054 0.571866 0.801545
Si Si5 0.000000 0.653150 0.500000
Si Si6 0.795796 0.830191 0.514631
Si Si7 0.248435 0.472662 0.449922
O O1 0.881280 0.919270 0.106677
O O2 0.136606 0.831592 0.340289
O O3 0.500000 0.850895 0.000000
O O4 0.759138 0.794109 0.995596
O O5 0.527680 0.542290 0.857032
O O6 0.389621 0.484642 0.628969
O O7 0.000000 0.493315 0.000000
O O8 0.486603 0.788974 0.682667
O O9 0.325396 0.696767 0.692303
O O10 0.143527 0.801967 0.657111
O O11 0.011877 0.612416 0.600540
O O12 0.081287 0.513289 0.738252
O O13 0.500000 0.603223 0.000000
O O14 0.719739 0.898524 0.435709
O O15 0.500000 0.489118 0.500000
#
# Coordination Sequence:
#
# PCOD9122806 Si02
#       7
#     4   4   4   4   2   4   4
#     4   8  15  26  49  84 109 135 187 240 299 343
#     4  10  20  36  58  89 127 153 201 255 307 372
#     4   9  16  30  56  78 112 146 198 245 285 357
#     4  12  25  38  55  88 128 169 205 243 306 363
#     4  10  22  40  50  84 124 164 204 244 290 376
#     4   8  15  26  48  85 108 137 186 239 298 344
#     4  11  19  35  60  88 127 156 199 254 311 367
#
# _framework density 21.091066000000001
#
# number of rings (size 3 to 8) (size 9 to 14) (size 15 to 20)
#    0.000    2.462    3.077    1.846    2.154    3.077 
#    0.000    0.000    0.000    0.000    8.000   25.846 
#    0.000    0.000    0.000    0.000    0.000    0.000 
#
# Total GULP energy -72376.979801 kJ/mol
# GULP energy per Si atom -5567.459985 kJ/mol
# Density = 2.104306 g / cm^3
# Si number density = 21.091066 Si / 1000 Ang^3
#
#
#
# Elastic Constant Matrix: (Units=GPa)
#
#
# Indices 1 2 3 4 5 6 
#
# 1 43.3405 23.3872 25.1116 -0.0056 -1.8744 -0.0010
# 2 23.3872 79.1364 25.6376 -0.0118 -10.9829 -0.0016
# 3 25.1116 25.6376 65.2512 -0.1299 -15.7415 -0.0077
# 4 -0.0056 -0.0118 -0.1299 191.3299 -0.0845 -10.1830
# 5 -1.8744 -10.9829 -15.7415 -0.0845 34.5332 -0.0036
# 6 -0.0010 -0.0016 -0.0077 -10.1830 -0.0036 10.8232
#
#
#
# Elastic Compliance Matrix: (Units=1/GPa)
#
#
# Indices 1 2 3 4 5 6 
#
# 1 0.033150 -0.006878 -0.011403 -0.000011 -0.005586 -0.000018
# 2 -0.006878 0.016065 -0.002834 0.000000 0.003444 0.000001
# 3 -0.011403 -0.002834 0.022989 0.000021 0.008959 0.000038
# 4 -0.000011 0.000000 0.000021 0.005502 0.000023 0.005177
# 5 -0.005586 0.003444 0.008959 0.000023 0.033834 0.000039
# 6 -0.000018 0.000001 0.000038 0.005177 0.000039 0.097265
#
#
# Mechanical properties :
#
#
# Convention : Reuss Voigt Hill
#
# Bulk Modulus (GPa) = 33.36267 37.33344 35.34805
# Shear Modulus (GPa) = 19.15524 54.91003 37.03264
#
# Velocity S-wave (km/s) = 3.01693 5.10796 4.19483
# Velocity P-wave (km/s) = 5.29042 7.24761 6.34493
#
# Compressibility (1/GPa) = 0.02997362
#
# Stress axis : x y z
#
# Youngs Moduli (GPa) = 30.16612 62.24617 43.49977
#
# Poissons Ratio (x) = 0.42812 0.49602
# Poissons Ratio (y) = 0.20748 0.12329
# Poissons Ratio (z) = 0.34398 0.17643
#
# Static dielectric constant tensor:
#      x y z
#    x 1.795010 0.000020 0.079550 
#    y 0.000020 1.798850 -0.000070 
#    z 0.079550 -0.000070 1.543090 
# 
# From -- ./inp_files/51599.got.cif
#   From: 2010.05.17/outbox.cif.g08.bks.cpg/sg5_26_cif.got.tgz:51599.got - 2010.06.03 18:56:24.
