data_PCOD9122774
_publ_section_title
;
Structure prediction by ZEFSAII (Michael W. Deem and Ramdas Pophale) SiO2 
 PCOD9122774
Probable space group: C 2
;
_chemical_formula_sum "Si O2"
_cell_formula_units_Z 30
_cell_length_a 6.715379
_cell_length_b 15.624708
_cell_length_c 13.021339
_cell_angle_alpha 90.000000
_cell_angle_beta 93.967789
_cell_angle_gamma 90.000000
_cell_volume 1363.000068
_symmetry_space_group_name_H-M "C 2"
_symmetry_group_IT_number 5
_symmetry_cell_setting 'monoclinic'
loop_
_space_group_symop_operation_xyz
x,y,z
-x,y,-z
1/2+x,1/2+y,z
1/2-x,1/2+y,-z
loop_
_atom_site_type_symbol
_atom_site_label
_atom_site_fract_x
_atom_site_fract_y
_atom_site_fract_z
Si Si1 0.369080 0.207700 0.405299
Si Si2 0.470082 0.390066 0.876833
Si Si3 0.770322 0.554854 0.167365
Si Si4 0.811116 0.364991 0.733691
Si Si5 0.500000 0.643821 0.000000
Si Si6 0.496115 0.632878 0.338955
Si Si7 0.891106 0.544432 0.676772
Si Si8 0.832348 0.255596 0.177814
O O1 0.500000 0.247328 0.500000
O O2 0.306040 0.285864 0.326307
O O3 0.151063 0.169862 0.425761
O O4 0.494065 0.120736 0.379771
O O5 0.306441 0.458301 0.835234
O O6 0.663036 0.404612 0.813623
O O7 0.380066 0.297248 0.849257
O O8 0.500000 0.397885 0.000000
O O9 0.680623 0.591877 0.059280
O O10 0.645127 0.604025 0.251858
O O11 0.002889 0.559021 0.206890
O O12 0.902460 0.440866 0.665549
O O13 0.992852 0.324146 0.802185
O O14 0.396748 0.698924 0.084326
O O15 0.342179 0.558429 0.354245
O O16 0.349105 0.703207 0.283906
#
# Coordination Sequence:
#
# PCOD9122774 Si02
#       8
#     4   4   4   4   2   4   4   4
#     4  10  24  46  67 100 133 161 213 282 335 407
#     4  12  22  35  58  93 127 169 220 270 307 378
#     4  10  20  36  57  87 125 164 222 270 312 374
#     4  11  23  42  67  92 131 176 215 272 338 393
#     4  10  20  38  54  84 124 174 220 284 322 364
#     4   9  20  39  64  86 122 164 204 261 329 391
#     4  11  21  41  69  91 124 178 214 263 343 396
#     4  10  21  37  56  82 125 166 214 267 324 380
#
# _framework density 22.010272000000001
#
# number of rings (size 3 to 8) (size 9 to 14) (size 15 to 20)
#    0.000    1.600    3.333    2.400    0.000    1.600 
#    2.400    4.667    0.000    0.000    0.000    0.000 
#    0.000    0.000    0.000    0.000    0.000    0.000 
#
# Total GULP energy -83504.232509 kJ/mol
# GULP energy per Si atom -5566.948834 kJ/mol
# Density = 2.196018 g / cm^3
# Si number density = 22.010272 Si / 1000 Ang^3
#
#
#
# Elastic Constant Matrix: (Units=GPa)
#
#
# Indices 1 2 3 4 5 6 
#
# 1 69.3023 17.8458 37.2972 0.0000 10.7105 0.0000
# 2 17.8458 87.9144 15.3122 0.0000 0.4413 0.0000
# 3 37.2972 15.3122 66.2162 0.0000 24.8022 0.0000
# 4 0.0000 0.0000 0.0000 21.5821 0.0000 17.7057
# 5 10.7105 0.4413 24.8022 0.0000 27.7651 0.0000
# 6 0.0000 0.0000 0.0000 17.7057 0.0000 35.7231
#
#
#
# Elastic Compliance Matrix: (Units=1/GPa)
#
#
# Indices 1 2 3 4 5 6 
#
# 1 0.021326 -0.002133 -0.012700 0.000000 0.003152 0.000000
# 2 -0.002133 0.012282 -0.002816 0.000000 0.003143 0.000000
# 3 -0.012700 -0.002816 0.031642 0.000000 -0.023322 0.000000
# 4 0.000000 0.000000 0.000000 0.078085 0.000000 -0.038702
# 5 0.003152 0.003143 -0.023322 0.000000 0.055584 0.000000
# 6 0.000000 0.000000 0.000000 -0.038702 0.000000 0.047175
#
#
# Mechanical properties :
#
#
# Convention : Reuss Voigt Hill
#
# Bulk Modulus (GPa) = 33.38533 40.48261 36.93397
# Shear Modulus (GPa) = 17.15990 27.21257 22.18623
#
# Velocity S-wave (km/s) = 2.79522 3.52000 3.17834
# Velocity P-wave (km/s) = 5.06149 5.91211 5.50326
#
# Compressibility (1/GPa) = 0.02995328
#
# Stress axis : x y z
#
# Youngs Moduli (GPa) = 46.89025 81.41735 31.60362
#
# Poissons Ratio (x) = 0.17366 0.40135
# Poissons Ratio (y) = 0.10002 0.08900
# Poissons Ratio (z) = 0.59549 0.22929
#
# Static dielectric constant tensor:
#      x y z
#    x 1.835860 0.000000 -0.026770 
#    y 0.000000 1.865210 0.000000 
#    z -0.026770 0.000000 1.843250 
# 
# From -- ./inp_files/49314.got.cif
#   From: 2010.05.17/outbox.cif.g08.bks.cpg/sg5_25_cif.got.tgz:49314.got - 2010.06.03 18:56:24.
