data_PCOD9122254
_publ_section_title
;
Structure prediction by ZEFSAII (Michael W. Deem and Ramdas Pophale) SiO2 
 PCOD9122254
Probable space group: C 2
;
_chemical_formula_sum "Si O2"
_cell_formula_units_Z 30
_cell_length_a 14.395658
_cell_length_b 14.950628
_cell_length_c 14.912621
_cell_angle_alpha 90.000000
_cell_angle_beta 28.086949
_cell_angle_gamma 90.000000
_cell_volume 1511.093990
_symmetry_space_group_name_H-M "C 2"
_symmetry_group_IT_number 5
_symmetry_cell_setting 'monoclinic'
loop_
_space_group_symop_operation_xyz
x,y,z
-x,y,-z
1/2+x,1/2+y,z
1/2-x,1/2+y,-z
loop_
_atom_site_type_symbol
_atom_site_label
_atom_site_fract_x
_atom_site_fract_y
_atom_site_fract_z
Si Si1 0.425143 0.738410 0.154461
Si Si2 0.920404 0.823808 0.899362
Si Si3 0.755586 0.546651 0.111652
Si Si4 0.972800 0.403868 0.820036
Si Si5 0.194649 0.656448 0.113812
Si Si6 0.000000 0.692803 0.000000
Si Si7 0.351262 0.475612 0.395552
Si Si8 0.622965 0.103248 0.470199
O O1 0.442364 0.809448 0.218956
O O2 0.217228 0.689147 0.340099
O O3 0.500000 0.784820 0.000000
O O4 0.594724 0.663691 0.019276
O O5 0.865098 0.754623 0.868292
O O6 0.992419 0.761876 0.921446
O O7 0.078761 0.890863 0.722511
O O8 0.716701 0.881752 0.082637
O O9 0.531404 0.510214 0.304718
O O10 0.894185 0.460967 0.972512
O O11 0.782138 0.598128 0.994570
O O12 0.824440 0.619740 0.127444
O O13 0.152810 0.453714 0.618857
O O14 0.028520 0.625166 0.322281
O O15 0.296910 0.550965 0.370097
O O16 0.500000 0.050233 0.500000
#
# Coordination Sequence:
#
# PCOD9122254 Si02
#       8
#     4   4   4   4   4   2   4   4
#     4  11  22  38  60  87 122 161 204 259 312 365
#     4   9  22  41  64  88 126 167 207 260 313 387
#     4  10  21  41  67  90 126 166 210 263 315 383
#     4  10  22  40  65  89 123 172 204 256 322 386
#     4  10  19  40  61  85 123 165 203 245 317 375
#     4  10  22  44  68  98 126 168 222 268 322 378
#     4  11  22  41  63  93 127 169 208 254 331 382
#     4  12  23  35  62  94 121 160 210 260 302 381
#
# _framework density 19.853166999999999
#
# number of rings (size 3 to 8) (size 9 to 14) (size 15 to 20)
#    0.000    1.600    4.000    0.800    0.933    1.067 
#    1.200    2.000    0.000    0.000    0.000    0.000 
#    0.000    0.000    0.000    0.000    0.000    0.000 
#
# Total GULP energy -83504.610855 kJ/mol
# GULP energy per Si atom -5566.974057 kJ/mol
# Density = 1.980798 g / cm^3
# Si number density = 19.853167 Si / 1000 Ang^3
#
#
#
# Elastic Constant Matrix: (Units=GPa)
#
#
# Indices 1 2 3 4 5 6 
#
# 1 73.4918 14.2837 31.5134 0.0029 -11.1157 -0.0013
# 2 14.2837 61.1823 32.4829 -0.0028 -11.4302 0.0011
# 3 31.5134 32.4829 110.2360 -0.0090 -14.4956 0.0033
# 4 0.0029 -0.0028 -0.0090 3.2252 0.0011 7.6967
# 5 -11.1157 -11.4302 -14.4956 0.0011 21.1126 0.0006
# 6 -0.0013 0.0011 0.0033 7.6967 0.0006 33.9977
#
#
#
# Elastic Compliance Matrix: (Units=1/GPa)
#
#
# Indices 1 2 3 4 5 6 
#
# 1 0.016172 -0.000793 -0.003657 -0.000064 0.005575 0.000015
# 2 -0.000793 0.020471 -0.004840 0.000007 0.007342 -0.000002
# 3 -0.003657 -0.004840 0.012031 0.000074 0.003715 -0.000018
# 4 -0.000064 0.000007 0.000074 0.674408 -0.000009 -0.152679
# 5 0.005575 0.007342 0.003715 -0.000009 0.056826 0.000001
# 6 0.000015 -0.000002 -0.000018 -0.152679 0.000001 0.063979
#
#
# Mechanical properties :
#
#
# Convention : Reuss Voigt Hill
#
# Bulk Modulus (GPa) = 33.22682 44.60779 38.91731
# Shear Modulus (GPa) = 5.73067 22.77578 14.25322
#
# Velocity S-wave (km/s) = 1.70082 3.39073 2.68233
# Velocity P-wave (km/s) = 4.54199 6.15199 5.40725
#
# Compressibility (1/GPa) = 0.03009617
#
# Stress axis : x y z
#
# Youngs Moduli (GPa) = 61.83460 48.84937 83.11536
#
# Poissons Ratio (x) = 0.03873 0.30391
# Poissons Ratio (y) = 0.04902 0.40228
# Poissons Ratio (z) = 0.22610 0.23643
#
# Static dielectric constant tensor:
#      x y z
#    x 1.794150 0.000000 -0.019290 
#    y 0.000000 1.743380 0.000000 
#    z -0.019290 0.000000 1.693900 
# 
# From -- ./inp_files/54763.got.cif
#   From: 2010.05.17/outbox.cif.g08.bks.cpg/sg5_28_cif.got.tgz:54763.got - 2010.06.03 18:56:24.
