data_PCOD9122792
_publ_section_title
;
Structure prediction by ZEFSAII (Michael W. Deem and Ramdas Pophale) SiO2 
 PCOD9122792
Probable space group: C 2
;
_chemical_formula_sum "Si O2"
_cell_formula_units_Z 32
_cell_length_a 8.448603
_cell_length_b 21.797335
_cell_length_c 14.423807
_cell_angle_alpha 90.000000
_cell_angle_beta 150.162865
_cell_angle_gamma 90.000000
_cell_volume 1321.578482
_symmetry_space_group_name_H-M "C 2"
_symmetry_group_IT_number 5
_symmetry_cell_setting 'monoclinic'
loop_
_space_group_symop_operation_xyz
x,y,z
-x,y,-z
1/2+x,1/2+y,z
1/2-x,1/2+y,-z
loop_
_atom_site_type_symbol
_atom_site_label
_atom_site_fract_x
_atom_site_fract_y
_atom_site_fract_z
Si Si1 0.783164 0.855920 0.218522
Si Si2 0.340982 0.811132 0.147187
Si Si3 0.904817 0.977947 0.344088
Si Si4 0.832030 0.739319 0.125350
Si Si5 0.356308 0.128974 0.665016
Si Si6 0.798851 0.206724 0.592315
Si Si7 0.883347 0.082873 0.190686
Si Si8 0.733573 0.519346 0.048801
O O1 0.623973 0.848148 0.239909
O O2 0.000857 0.915643 0.340104
O O3 0.930771 0.793600 0.248433
O O4 0.500000 0.868019 0.000000
O O5 0.479269 0.767048 0.298157
O O6 0.250740 0.768361 0.014258
O O7 0.000000 0.840611 0.000000
O O8 0.000000 0.976981 0.500000
O O9 0.001719 0.037707 0.333185
O O10 0.518879 0.980916 0.149877
O O11 0.063607 0.683179 0.222668
O O12 0.500000 0.714178 0.000000
O O13 0.351501 0.170415 0.570971
O O14 0.593532 0.073789 0.804916
O O15 0.000000 0.107876 0.500000
O O16 0.500000 0.227885 0.500000
O O17 0.980257 0.150650 0.734328
O O18 0.500000 0.085894 0.000000
O O19 0.957897 0.050356 0.131860
O O20 0.500000 0.485802 0.000000
#
# Coordination Sequence:
#
# PCOD9122792 Si02
#       8
#     4   4   4   4   4   4   4   4
#     4   9  20  39  62  83 111 156 203 238 281 348
#     4  10  20  36  58  84 115 151 194 235 282 345
#     4  11  23  41  63  87 116 151 196 247 299 348
#     4   9  19  37  57  78 111 157 197 230 278 347
#     4  12  22  34  55  86 123 151 188 240 294 344
#     4  12  22  33  54  87 123 150 187 241 296 342
#     4  10  21  38  59  80 113 159 199 234 284 353
#     4  11  22  38  60  85 116 155 198 237 286 351
#
# _framework density 24.213467999999999
#
# number of rings (size 3 to 8) (size 9 to 14) (size 15 to 20)
#    0.000    1.750    0.000    8.250    0.000    2.000 
#    0.000    0.000    0.000    0.750    0.000    0.000 
#    0.000    0.000    0.000    0.000    0.000    0.000 
#
# Total GULP energy -89339.913600 kJ/mol
# GULP energy per Si atom -5583.744600 kJ/mol
# Density = 2.415836 g / cm^3
# Si number density = 24.213468 Si / 1000 Ang^3
#
#
#
# Elastic Constant Matrix: (Units=GPa)
#
#
# Indices 1 2 3 4 5 6 
#
# 1 64.5440 -0.1767 8.0765 0.0008 -6.0155 0.0005
# 2 -0.1767 125.2063 29.5537 0.0007 -0.0670 0.0004
# 3 8.0765 29.5537 55.5672 0.0013 -18.2879 0.0035
# 4 0.0008 0.0007 0.0013 24.7719 0.0002 -9.3781
# 5 -6.0155 -0.0670 -18.2879 0.0002 26.6525 0.0009
# 6 0.0005 0.0004 0.0035 -9.3781 0.0009 22.6781
#
#
#
# Elastic Compliance Matrix: (Units=1/GPa)
#
#
# Indices 1 2 3 4 5 6 
#
# 1 0.015938 0.000440 -0.001765 -0.000001 0.002387 0.000000
# 2 0.000440 0.009539 -0.006584 0.000001 -0.004394 0.000001
# 3 -0.001765 -0.006584 0.027923 -0.000004 0.018745 -0.000006
# 4 -0.000001 0.000001 -0.000004 0.047861 -0.000004 0.019792
# 5 0.002387 -0.004394 0.018745 -0.000004 0.050910 -0.000006
# 6 0.000000 0.000001 -0.000006 0.019792 -0.000006 0.052280
#
#
# Mechanical properties :
#
#
# Convention : Reuss Voigt Hill
#
# Bulk Modulus (GPa) = 26.60711 35.58051 31.09381
# Shear Modulus (GPa) = 21.47804 28.67810 25.07807
#
# Velocity S-wave (km/s) = 2.98153 3.44522 3.22173
# Velocity P-wave (km/s) = 4.78175 5.52743 5.16806
#
# Compressibility (1/GPa) = 0.03758394
#
# Stress axis : x y z
#
# Youngs Moduli (GPa) = 62.74369 104.83206 35.81213
#
# Poissons Ratio (x) = -0.04617 0.06321
# Poissons Ratio (y) = -0.02763 0.23577
# Poissons Ratio (z) = 0.11075 0.69016
#
# Static dielectric constant tensor:
#      x y z
#    x 1.975810 0.000000 -0.015330 
#    y 0.000000 1.944740 0.000000 
#    z -0.015330 0.000000 2.043900 
# 
# From -- ./inp_files/51719.got.cif
#   From: 2010.05.17/outbox.cif.g08.bks.cpg/sg5_26_cif.got.tgz:51719.got - 2010.06.03 18:56:24.
