data_PCOD9122311
_publ_section_title
;
Structure prediction by ZEFSAII (Michael W. Deem and Ramdas Pophale) SiO2 
 PCOD9122311
Probable space group: C 2
;
_chemical_formula_sum "Si O2"
_cell_formula_units_Z 22
_cell_length_a 14.880896
_cell_length_b 14.780371
_cell_length_c 10.004649
_cell_angle_alpha 90.000000
_cell_angle_beta 26.924139
_cell_angle_gamma 90.000000
_cell_volume 996.397559
_symmetry_space_group_name_H-M "C 2"
_symmetry_group_IT_number 5
_symmetry_cell_setting 'monoclinic'
loop_
_space_group_symop_operation_xyz
x,y,z
-x,y,-z
1/2+x,1/2+y,z
1/2-x,1/2+y,-z
loop_
_atom_site_type_symbol
_atom_site_label
_atom_site_fract_x
_atom_site_fract_y
_atom_site_fract_z
Si Si1 0.722875 0.711650 0.001726
Si Si2 0.500000 0.568011 0.000000
Si Si3 0.689319 0.905217 0.654454
Si Si4 0.323892 0.211689 0.551916
Si Si5 0.439416 0.908832 0.730285
Si Si6 0.060529 0.018864 0.205930
O O1 0.621190 0.803124 0.185652
O O2 0.588927 0.623657 0.203223
O O3 0.765107 0.723949 0.786642
O O4 0.942610 0.693023 0.768648
O O5 0.675243 0.631700 0.708646
O O6 0.417341 0.513468 0.984971
O O7 0.779111 0.804385 0.535458
O O8 0.610439 0.928022 0.611401
O O9 0.500000 0.902216 0.000000
O O10 0.849589 0.972542 0.505744
O O11 0.500000 0.934407 0.500000
O O12 0.239706 0.963009 0.031912
#
# Coordination Sequence:
#
# PCOD9122311 Si02
#       6
#     4   2   4   4   4   4
#     4  10  22  43  67  99 136 179 222 280 332 394
#     4  10  20  40  66 100 132 180 232 270 328 402
#     4  12  23  44  73 100 128 179 231 277 331 399
#     4  10  19  40  75  94 127 182 238 272 321 399
#     4  12  26  44  66 100 140 175 216 278 348 393
#     4  11  25  41  67 100 137 174 228 276 330 401
#
# _framework density 22.079540999999999
#
# number of rings (size 3 to 8) (size 9 to 14) (size 15 to 20)
#    0.000    1.091    4.545    2.182    7.636    0.727 
#    3.273    0.000    0.000    0.000    0.000    0.000 
#    0.000    0.000    0.000    0.000    0.000    0.000 
#
# Total GULP energy -61530.581967 kJ/mol
# GULP energy per Si atom -5593.689270 kJ/mol
# Density = 2.202929 g / cm^3
# Si number density = 22.079541 Si / 1000 Ang^3
#
#
#
# Elastic Constant Matrix: (Units=GPa)
#
#
# Indices 1 2 3 4 5 6 
#
# 1 91.9186 12.6275 25.9731 -0.0013 -22.8750 0.0006
# 2 12.6275 70.1649 7.5161 -0.0026 -22.8774 0.0015
# 3 25.9731 7.5161 59.7010 -0.0044 -31.8651 0.0023
# 4 -0.0013 -0.0026 -0.0044 38.1009 0.0014 -10.9948
# 5 -22.8750 -22.8774 -31.8651 0.0014 37.3137 -0.0010
# 6 0.0006 0.0015 0.0023 -10.9948 -0.0010 33.8793
#
#
#
# Elastic Compliance Matrix: (Units=1/GPa)
#
#
# Indices 1 2 3 4 5 6 
#
# 1 0.013055 -0.000249 -0.002679 0.000000 0.005563 0.000000
# 2 -0.000249 0.019350 0.007209 0.000001 0.017868 0.000000
# 3 -0.002679 0.007209 0.033978 0.000003 0.031794 -0.000001
# 4 0.000000 0.000001 0.000003 0.028958 0.000002 0.009398
# 5 0.005563 0.017868 0.031794 0.000002 0.068316 0.000000
# 6 0.000000 0.000000 -0.000001 0.009398 0.000000 0.032566
#
#
# Mechanical properties :
#
#
# Convention : Reuss Voigt Hill
#
# Bulk Modulus (GPa) = 13.34311 34.89088 24.11699
# Shear Modulus (GPa) = 23.51360 33.56997 28.54179
#
# Velocity S-wave (km/s) = 3.26690 3.90347 3.59929
# Velocity P-wave (km/s) = 4.50405 6.01272 5.31222
#
# Compressibility (1/GPa) = 0.07494505
#
# Stress axis : x y z
#
# Youngs Moduli (GPa) = 76.60057 51.67836 29.43098
#
# Poissons Ratio (x) = 0.01285 0.07885
# Poissons Ratio (y) = 0.01905 -0.21216
# Poissons Ratio (z) = 0.20522 -0.37254
#
# Static dielectric constant tensor:
#      x y z
#    x 1.835100 0.000000 -0.007030 
#    y 0.000000 1.797500 0.000000 
#    z -0.007030 0.000000 1.788630 
# 
# From -- ./inp_files/44879.got.cif
#   From: 2010.05.17/outbox.cif.g08.bks.cpg/sg5_23_cif.got.tgz:44879.got - 2010.06.03 18:56:24.
