data_PCOD9122577
_publ_section_title
;
Structure prediction by ZEFSAII (Michael W. Deem and Ramdas Pophale) SiO2 
 PCOD9122577
Probable space group: C 2
;
_chemical_formula_sum "Si O2"
_cell_formula_units_Z 32
_cell_length_a 28.201998
_cell_length_b 7.255510
_cell_length_c 12.288070
_cell_angle_alpha 90.000000
_cell_angle_beta 38.834122
_cell_angle_gamma 90.000000
_cell_volume 1576.688932
_symmetry_space_group_name_H-M "C 2"
_symmetry_group_IT_number 5
_symmetry_cell_setting 'monoclinic'
loop_
_space_group_symop_operation_xyz
x,y,z
-x,y,-z
1/2+x,1/2+y,z
1/2-x,1/2+y,-z
loop_
_atom_site_type_symbol
_atom_site_label
_atom_site_fract_x
_atom_site_fract_y
_atom_site_fract_z
Si Si1 0.057616 0.199860 0.297326
Si Si2 0.695765 0.947872 0.014274
Si Si3 0.522425 0.886709 0.132320
Si Si4 0.580054 0.557207 0.870113
Si Si5 0.139439 0.374317 0.644258
Si Si6 0.277092 0.399817 0.259029
Si Si7 0.167885 0.881443 0.074938
Si Si8 0.823393 0.497406 0.185532
O O1 0.000000 0.205849 0.500000
O O2 0.022173 0.296366 0.252737
O O3 0.089233 0.992578 0.221642
O O4 0.133903 0.318459 0.181852
O O5 0.776664 0.933592 0.925707
O O6 0.700626 0.885583 0.878760
O O7 0.666195 0.159077 0.072326
O O8 0.442522 0.959821 0.233931
O O9 0.552569 0.723607 0.999142
O O10 0.588378 0.036788 0.000637
O O11 0.614223 0.658275 0.701486
O O12 0.649873 0.459329 0.802441
O O13 0.500000 0.451565 0.000000
O O14 0.197835 0.453385 0.452886
O O15 0.177298 0.413140 0.693706
O O16 0.274810 0.179299 0.272017
O O17 0.291459 0.446891 0.108722
#
# Coordination Sequence:
#
# PCOD9122577 Si02
#       8
#     4   4   4   4   4   4   4   4
#     4  11  23  39  65  90 124 161 211 257 311 364
#     4  10  22  39  63  91 122 165 207 250 316 370
#     4   9  19  38  56  79 113 157 194 238 302 364
#     4   9  18  34  54  77 113 154 187 233 296 358
#     4  10  20  34  59  84 115 154 201 242 296 366
#     4  11  21  34  58  87 119 147 201 249 298 359
#     4  11  22  40  64  90 125 165 204 256 315 372
#     4   9  20  36  54  83 118 152 193 246 302 358
#
# _framework density 20.295696
#
# number of rings (size 3 to 8) (size 9 to 14) (size 15 to 20)
#    0.000    2.000    2.500    1.875    1.750    1.500 
#    0.000    0.000    0.000    0.000    0.000    0.000 
#    0.000    0.000    0.000    0.000    0.000    0.000 
#
# Total GULP energy -89102.921436 kJ/mol
# GULP energy per Si atom -5568.932590 kJ/mol
# Density = 2.024950 g / cm^3
# Si number density = 20.295696 Si / 1000 Ang^3
#
#
#
# Elastic Constant Matrix: (Units=GPa)
#
#
# Indices 1 2 3 4 5 6 
#
# 1 67.1331 -17.8147 12.2159 0.0000 -3.6868 0.0000
# 2 -17.8147 37.2831 -13.4902 -0.0001 -0.7819 0.0000
# 3 12.2159 -13.4902 84.4122 0.0000 3.7474 0.0000
# 4 0.0000 -0.0001 0.0000 16.0715 0.0000 -1.4777
# 5 -3.6868 -0.7819 3.7474 0.0000 24.9540 0.0000
# 6 0.0000 0.0000 0.0000 -1.4777 0.0000 24.2218
#
#
#
# Elastic Compliance Matrix: (Units=1/GPa)
#
#
# Indices 1 2 3 4 5 6 
#
# 1 0.017406 0.007876 -0.001395 0.000000 0.003028 0.000000
# 2 0.007876 0.032033 0.003909 0.000000 0.001580 0.000000
# 3 -0.001395 0.003909 0.012762 0.000000 -0.002000 0.000000
# 4 0.000000 0.000000 0.000000 0.062573 0.000000 0.003817
# 5 0.003028 0.001580 -0.002000 0.000000 0.040871 0.000000
# 6 0.000000 0.000000 0.000000 0.003817 0.000000 0.041518
#
#
# Mechanical properties :
#
#
# Convention : Reuss Voigt Hill
#
# Bulk Modulus (GPa) = 12.05093 16.73894 14.39494
# Shear Modulus (GPa) = 23.35991 26.91062 25.13526
#
# Velocity S-wave (km/s) = 3.39629 3.64528 3.52298
# Velocity P-wave (km/s) = 4.61847 5.09734 4.86380
#
# Compressibility (1/GPa) = 0.08298116
#
# Stress axis : x y z
#
# Youngs Moduli (GPa) = 57.45218 31.21817 78.35750
#
# Poissons Ratio (x) = -0.24587 0.10928
# Poissons Ratio (y) = -0.45248 -0.30633
# Poissons Ratio (z) = 0.08013 -0.12204
#
# Static dielectric constant tensor:
#      x y z
#    x 1.784530 0.000000 0.005110 
#    y 0.000000 1.783440 0.000000 
#    z 0.005110 0.000000 1.727700 
# 
# From -- ./inp_files/48375.got.cif
#   From: 2010.05.17/outbox.cif.g08.bks.cpg/sg5_25_cif.got.tgz:48375.got - 2010.06.03 18:56:24.
