data_PCOD9122013
_publ_section_title
;
Structure prediction by ZEFSAII (Michael W. Deem and Ramdas Pophale) SiO2 
 PCOD9122013
Probable space group: C 2
;
_chemical_formula_sum "Si O2"
_cell_formula_units_Z 20
_cell_length_a 7.001692
_cell_length_b 28.440996
_cell_length_c 5.141439
_cell_angle_alpha 90.000000
_cell_angle_beta 105.732275
_cell_angle_gamma 90.000000
_cell_volume 985.487001
_symmetry_space_group_name_H-M "C 2"
_symmetry_group_IT_number 5
_symmetry_cell_setting 'monoclinic'
loop_
_space_group_symop_operation_xyz
x,y,z
-x,y,-z
1/2+x,1/2+y,z
1/2-x,1/2+y,-z
loop_
_atom_site_type_symbol
_atom_site_label
_atom_site_fract_x
_atom_site_fract_y
_atom_site_fract_z
Si Si1 0.642722 0.131010 0.802829
Si Si2 0.500000 0.492867 0.500000
Si Si3 0.141849 0.734371 0.802532
Si Si4 0.500000 0.558716 0.000000
Si Si5 0.642756 0.336809 0.802465
Si Si6 0.624193 0.927367 0.283577
O O1 0.500000 0.125343 0.500000
O O2 0.742153 0.183299 0.830114
O O3 0.500000 0.129054 0.000000
O O4 0.809388 0.091734 0.886736
O O5 0.481131 0.525653 0.242563
O O6 0.307262 0.459831 0.435583
O O7 0.245345 0.785238 0.852334
O O8 0.000000 0.735167 0.500000
O O9 0.000000 0.733872 0.000000
O O10 0.500000 0.336682 0.500000
O O11 0.790046 0.379667 0.811726
O O12 0.500000 0.343304 0.000000
O O13 0.500000 0.917899 0.500000
O O14 0.500000 0.950228 0.000000
#
# Coordination Sequence:
#
# PCOD9122013 Si02
#       6
#     4   2   4   2   4   4
#     4  10  21  40  65  92 130 161 206 261 309 374
#     4  12  28  46  64  90 130 164 214 272 316 372
#     4   8  16  32  59  91 122 168 199 241 315 371
#     4  12  26  42  68  94 118 170 216 258 324 368
#     4  10  19  37  66  91 130 171 204 254 315 373
#     4  12  26  43  67  94 128 168 215 263 321 377
#
# _framework density 20.294533999999999
#
# number of rings (size 3 to 8) (size 9 to 14) (size 15 to 20)
#    0.000    1.600    1.000    3.600    1.400    4.800 
#    1.800    0.000    2.200    0.000    0.000    0.000 
#    0.000    0.000    0.000    0.000    0.000    0.000 
#
# Total GULP energy -55826.045638 kJ/mol
# GULP energy per Si atom -5582.604564 kJ/mol
# Density = 2.024834 g / cm^3
# Si number density = 20.294534 Si / 1000 Ang^3
#
#
#
# Elastic Constant Matrix: (Units=GPa)
#
#
# Indices 1 2 3 4 5 6 
#
# 1 96.6907 74.7904 53.2986 0.0000 -2.7252 0.0000
# 2 74.7904 171.3935 42.4731 0.0000 -2.7100 0.0000
# 3 53.2986 42.4731 160.6932 0.0000 -21.7882 0.0000
# 4 0.0000 0.0000 0.0000 29.1462 0.0000 -10.9195
# 5 -2.7252 -2.7100 -21.7882 0.0000 35.8931 0.0000
# 6 0.0000 0.0000 0.0000 -10.9195 0.0000 -13.8297
#
#
#
# Elastic Compliance Matrix: (Units=1/GPa)
#
#
# Indices 1 2 3 4 5 6 
#
# 1 0.017964 -0.006774 -0.004416 0.000000 -0.001828 0.000000
# 2 -0.006774 0.008809 -0.000067 0.000000 0.000110 0.000000
# 3 -0.004416 -0.000067 0.008346 0.000000 0.004726 0.000000
# 4 0.000000 0.000000 0.000000 0.026478 0.000000 -0.020906
# 5 -0.001828 0.000110 0.004726 0.000000 0.030599 0.000000
# 6 0.000000 0.000000 0.000000 -0.020906 0.000000 -0.055802
#
#
# Mechanical properties :
#
#
# Convention : Reuss Voigt Hill
#
# Bulk Modulus (GPa) = 79.32256 85.54465 82.43360
# Shear Modulus (GPa) = 79.22881 27.45625 53.34253
#
# Velocity S-wave (km/s) = 6.25494 3.68215 5.13237
# Velocity P-wave (km/s) = 9.55700 7.76664 8.70795
#
# Compressibility (1/GPa) = 0.01260675
#
# Stress axis : x y z
#
# Youngs Moduli (GPa) = 55.66588 113.52596 119.81649
#
# Poissons Ratio (x) = 0.76898 0.52910
# Poissons Ratio (y) = 0.37706 0.00798
# Poissons Ratio (z) = 0.24582 0.00756
#
# Static dielectric constant tensor:
#      x y z
#    x 1.697520 0.000000 0.023790 
#    y 0.000000 1.779650 0.000000 
#    z 0.023790 0.000000 1.714080 
# 
# From -- ./inp_files/1107.got.cif
#   From: 2010.05.17/outbox.cif.g08.bks.cpg/sg5_1_cif.got.tgz:1107.got - 2010.06.03 18:56:24.
