data_PCOD9122430
_publ_section_title
;
Structure prediction by ZEFSAII (Michael W. Deem and Ramdas Pophale) SiO2 
 PCOD9122430
Probable space group: C 2
;
_chemical_formula_sum "Si O2"
_cell_formula_units_Z 30
_cell_length_a 21.198184
_cell_length_b 9.286219
_cell_length_c 12.173703
_cell_angle_alpha 90.000000
_cell_angle_beta 141.779404
_cell_angle_gamma 90.000000
_cell_volume 1482.634055
_symmetry_space_group_name_H-M "C 2"
_symmetry_group_IT_number 5
_symmetry_cell_setting 'monoclinic'
loop_
_space_group_symop_operation_xyz
x,y,z
-x,y,-z
1/2+x,1/2+y,z
1/2-x,1/2+y,-z
loop_
_atom_site_type_symbol
_atom_site_label
_atom_site_fract_x
_atom_site_fract_y
_atom_site_fract_z
Si Si1 0.852320 0.802240 0.117209
Si Si2 0.942289 0.192046 0.568027
Si Si3 0.912996 0.386827 0.723741
Si Si4 0.363044 0.392619 0.371724
Si Si5 0.040516 0.639193 0.359807
Si Si6 0.832312 0.122541 0.037397
Si Si7 0.644255 0.838552 0.110438
Si Si8 0.000000 0.428247 0.500000
O O1 0.899334 0.851981 0.299599
O O2 0.944014 0.725002 0.178782
O O3 0.818961 0.951817 0.018578
O O4 0.760058 0.698210 0.024177
O O5 0.894363 0.257563 0.612782
O O6 0.922459 0.312178 0.447033
O O7 0.062648 0.172721 0.760563
O O8 0.906939 0.037623 0.481005
O O9 0.898839 0.537843 0.641381
O O10 0.856145 0.356933 0.759463
O O11 0.034053 0.388206 0.917814
O O12 0.387294 0.255425 0.481770
O O13 0.241770 0.420280 0.196409
O O14 0.987803 0.534205 0.379602
O O15 0.839814 0.182209 0.923273
#
# Coordination Sequence:
#
# PCOD9122430 Si02
#       8
#     4   4   4   4   4   4   4   2
#     4  11  22  35  56  91 124 155 191 242 305 365
#     4  10  20  35  57  86 115 158 188 244 290 361
#     4   9  21  41  62  79 115 158 211 233 295 347
#     4  11  21  36  59  87 124 148 191 246 310 341
#     4  11  21  36  58  86 120 157 188 252 291 360
#     4  10  22  35  60  85 120 159 193 241 302 358
#     4   9  21  41  62  81 113 160 200 251 284 350
#     4  10  20  32  52  84 120 148 190 224 304 348
#
# _framework density 20.234258000000001
#
# number of rings (size 3 to 8) (size 9 to 14) (size 15 to 20)
#    0.000    1.867    2.667    0.800    7.467    1.067 
#    0.000    0.000    5.867    0.000    0.000    0.000 
#    0.000    0.000    0.000    0.000    0.000    0.000 
#
# Total GULP energy -83626.965079 kJ/mol
# GULP energy per Si atom -5575.131005 kJ/mol
# Density = 2.018820 g / cm^3
# Si number density = 20.234258 Si / 1000 Ang^3
#
#
#
# Elastic Constant Matrix: (Units=GPa)
#
#
# Indices 1 2 3 4 5 6 
#
# 1 51.1585 20.1673 8.7227 0.0000 -12.1270 0.0000
# 2 20.1673 134.4352 25.4114 0.0000 -13.1156 0.0000
# 3 8.7227 25.4114 32.2552 0.0000 -7.0867 0.0000
# 4 0.0000 0.0000 0.0000 33.0310 0.0000 -4.3519
# 5 -12.1270 -13.1156 -7.0867 0.0000 31.8895 0.0000
# 6 0.0000 0.0000 0.0000 -4.3519 0.0000 12.5377
#
#
#
# Elastic Compliance Matrix: (Units=1/GPa)
#
#
# Indices 1 2 3 4 5 6 
#
# 1 0.022556 -0.002156 -0.002850 0.000000 0.007057 0.000000
# 2 -0.002156 0.009092 -0.006243 0.000000 0.001532 0.000000
# 3 -0.002850 -0.006243 0.037732 0.000000 0.004734 0.000000
# 4 0.000000 0.000000 0.000000 0.031725 0.000000 0.011012
# 5 0.007057 0.001532 0.004734 0.000000 0.035724 0.000000
# 6 0.000000 0.000000 0.000000 0.011012 0.000000 0.083582
#
#
# Mechanical properties :
#
#
# Convention : Reuss Voigt Hill
#
# Bulk Modulus (GPa) = 21.33093 36.27243 28.80168
# Shear Modulus (GPa) = 19.33960 26.39479 22.86720
#
# Velocity S-wave (km/s) = 3.09493 3.61565 3.36538
# Velocity P-wave (km/s) = 4.83077 5.94943 5.41904
#
# Compressibility (1/GPa) = 0.04688027
#
# Stress axis : x y z
#
# Youngs Moduli (GPa) = 44.33384 109.99274 26.50281
#
# Poissons Ratio (x) = 0.23720 0.07554
# Poissons Ratio (y) = 0.09560 0.16545
# Poissons Ratio (z) = 0.12637 0.68666
#
# Static dielectric constant tensor:
#      x y z
#    x 1.719990 0.000000 0.005710 
#    y 0.000000 1.729090 0.000000 
#    z 0.005710 0.000000 1.778520 
# 
# From -- ./inp_files/44339.got.cif
#   From: 2010.05.17/outbox.cif.g08.bks.cpg/sg5_23_cif.got.tgz:44339.got - 2010.06.03 18:56:24.
