data_PCOD9122750
_publ_section_title
;
Structure prediction by ZEFSAII (Michael W. Deem and Ramdas Pophale) SiO2 
 PCOD9122750
Probable space group: C 2
;
_chemical_formula_sum "Si O2"
_cell_formula_units_Z 24
_cell_length_a 19.658265
_cell_length_b 12.796688
_cell_length_c 5.014703
_cell_angle_alpha 90.000000
_cell_angle_beta 97.594177
_cell_angle_gamma 90.000000
_cell_volume 1250.437451
_symmetry_space_group_name_H-M "C 2"
_symmetry_group_IT_number 5
_symmetry_cell_setting 'monoclinic'
loop_
_space_group_symop_operation_xyz
x,y,z
-x,y,-z
1/2+x,1/2+y,z
1/2-x,1/2+y,-z
loop_
_atom_site_type_symbol
_atom_site_label
_atom_site_fract_x
_atom_site_fract_y
_atom_site_fract_z
Si Si1 0.141117 0.055420 0.748339
Si Si2 0.455817 0.997816 0.213455
Si Si3 0.500000 0.801582 0.000000
Si Si4 0.699353 0.444243 0.280878
Si Si5 0.500000 0.659464 0.500000
Si Si6 0.677775 0.102468 0.634843
Si Si7 0.229708 0.706290 0.160137
O O1 0.065211 0.094019 0.637109
O O2 0.194859 0.153708 0.763414
O O3 0.166260 0.970269 0.547298
O O4 0.150457 0.999765 0.037417
O O5 0.500000 0.975951 0.500000
O O6 0.393695 0.065986 0.283141
O O7 0.441884 0.883559 0.073731
O O8 0.500000 0.050990 0.000000
O O9 0.521784 0.731308 0.259845
O O10 0.770747 0.506109 0.307371
O O11 0.717398 0.324961 0.234763
O O12 0.680677 0.138621 0.331222
O O13 0.708814 0.191098 0.842757
#
# Coordination Sequence:
#
# PCOD9122750 Si02
#       7
#     4   4   2   4   2   4   4
#     4  10  23  39  60  92 118 160 195 248 300 343
#     4  10  20  36  55  84 123 146 192 234 308 357
#     4  10  22  34  56  92 108 164 182 240 310 360
#     4  10  21  40  61  85 120 154 199 243 290 358
#     4  12  22  40  60  86 132 146 204 246 292 376
#     4  10  21  37  58  89 116 152 194 252 292 344
#     4  10  21  37  62  86 115 156 205 242 296 351
#
# _framework density 19.193283000000001
#
# number of rings (size 3 to 8) (size 9 to 14) (size 15 to 20)
#    0.500    1.333    0.833    3.000    2.333    0.000 
#    6.000    0.000   18.333    0.000    0.000    0.000 
#    0.000    0.000    0.000    0.000    0.000    0.000 
#
# Total GULP energy -66902.101911 kJ/mol
# GULP energy per Si atom -5575.175159 kJ/mol
# Density = 1.914960 g / cm^3
# Si number density = 19.193283 Si / 1000 Ang^3
#
#
#
# Elastic Constant Matrix: (Units=GPa)
#
#
# Indices 1 2 3 4 5 6 
#
# 1 58.7284 8.2966 0.7215 0.0000 0.3344 0.0000
# 2 8.2966 77.8916 -11.8440 0.0000 11.5124 0.0000
# 3 0.7215 -11.8440 74.9650 0.0000 1.3726 0.0000
# 4 0.0000 0.0000 0.0000 14.0235 0.0000 -5.0519
# 5 0.3344 11.5124 1.3726 0.0000 19.2685 0.0000
# 6 0.0000 0.0000 0.0000 -5.0519 0.0000 4.0475
#
#
#
# Elastic Compliance Matrix: (Units=1/GPa)
#
#
# Indices 1 2 3 4 5 6 
#
# 1 0.017320 -0.002066 -0.000511 0.000000 0.000970 0.000000
# 2 -0.002066 0.014766 0.002517 0.000000 -0.008966 0.000000
# 3 -0.000511 0.002517 0.013788 0.000000 -0.002477 0.000000
# 4 0.000000 0.000000 0.000000 0.129568 0.000000 0.161720
# 5 0.000970 -0.008966 -0.002477 0.000000 0.057415 0.000000
# 6 0.000000 0.000000 0.000000 0.161720 0.000000 0.448915
#
#
# Mechanical properties :
#
#
# Convention : Reuss Voigt Hill
#
# Bulk Modulus (GPa) = 21.85578 22.88145 22.36862
# Shear Modulus (GPa) = 7.17214 21.76197 14.46705
#
# Velocity S-wave (km/s) = 1.93518 3.37090 2.74844
# Velocity P-wave (km/s) = 4.05033 5.20558 4.66386
#
# Compressibility (1/GPa) = 0.04575448
#
# Stress axis : x y z
#
# Youngs Moduli (GPa) = 57.73625 67.72177 72.52936
#
# Poissons Ratio (x) = 0.13991 0.03705
# Poissons Ratio (y) = 0.11928 -0.18256
# Poissons Ratio (z) = 0.02950 -0.17046
#
# Static dielectric constant tensor:
#      x y z
#    x 1.668550 0.000000 -0.005430 
#    y 0.000000 1.673590 0.000000 
#    z -0.005430 0.000000 1.675020 
# 
# From -- ./inp_files/8305.got.cif
#   From: 2010.05.17/outbox.cif.g08.bks.cpg/sg5_5_cif.got.tgz:8305.got - 2010.06.03 18:56:24.
