data_PCOD9122478
_publ_section_title
;
Structure prediction by ZEFSAII (Michael W. Deem and Ramdas Pophale) SiO2 
 PCOD9122478
Probable space group: C 2
;
_chemical_formula_sum "Si O2"
_cell_formula_units_Z 32
_cell_length_a 8.047979
_cell_length_b 22.992346
_cell_length_c 9.727462
_cell_angle_alpha 90.000000
_cell_angle_beta 51.368385
_cell_angle_gamma 90.000000
_cell_volume 1406.107790
_symmetry_space_group_name_H-M "C 2"
_symmetry_group_IT_number 5
_symmetry_cell_setting 'monoclinic'
loop_
_space_group_symop_operation_xyz
x,y,z
-x,y,-z
1/2+x,1/2+y,z
1/2-x,1/2+y,-z
loop_
_atom_site_type_symbol
_atom_site_label
_atom_site_fract_x
_atom_site_fract_y
_atom_site_fract_z
Si Si1 0.583423 0.390000 0.259812
Si Si2 0.628356 0.494550 0.069104
Si Si3 0.797514 0.146418 0.285802
Si Si4 0.284075 0.275751 0.703905
Si Si5 0.625205 0.595826 0.287025
Si Si6 0.104066 0.353322 0.581900
Si Si7 0.922859 0.464325 0.269684
Si Si8 0.559867 0.089565 0.665988
O O1 0.557193 0.429313 0.141697
O O2 0.685514 0.325819 0.197767
O O3 0.347123 0.375893 0.435848
O O4 0.739973 0.430910 0.274980
O O5 0.594027 0.536348 0.218034
O O6 0.881384 0.489672 0.917304
O O7 0.500000 0.512377 0.000000
O O8 0.765036 0.209648 0.238737
O O9 0.672934 0.130900 0.493886
O O10 0.687303 0.100800 0.238781
O O11 0.034888 0.140220 0.221208
O O12 0.500000 0.273179 0.500000
O O13 0.109806 0.304437 0.694374
O O14 0.500000 0.595018 0.500000
O O15 0.861178 0.605475 0.222803
O O16 0.985722 0.412220 0.685742
O O17 0.000000 0.328966 0.500000
O O18 0.866234 0.521873 0.387445
#
# Coordination Sequence:
#
# PCOD9122478 Si02
#       8
#     4   4   4   4   4   4   4   4
#     4  10  22  38  62  88 127 172 217 275 334 398
#     4  12  24  40  63  96 138 172 221 275 344 407
#     4  10  20  36  59  95 126 170 222 275 324 389
#     4   9  18  38  58  88 127 165 213 278 328 385
#     4  10  23  37  61  97 132 173 220 279 329 396
#     4  10  22  35  61  94 128 164 217 280 334 392
#     4  11  22  37  59  91 129 172 212 265 339 408
#     4  10  20  33  59  87 128 167 212 263 327 391
#
# _framework density 22.757856
#
# number of rings (size 3 to 8) (size 9 to 14) (size 15 to 20)
#    0.000    1.750    2.500    3.000    5.250    2.000 
#    0.000    0.000    0.000    9.000    0.000    0.000 
#    0.000    0.000    0.000    0.000    0.000    0.000 
#
# Total GULP energy -89091.545204 kJ/mol
# GULP energy per Si atom -5568.221575 kJ/mol
# Density = 2.270606 g / cm^3
# Si number density = 22.757856 Si / 1000 Ang^3
#
#
#
# Elastic Constant Matrix: (Units=GPa)
#
#
# Indices 1 2 3 4 5 6 
#
# 1 139.3772 33.8410 28.2738 0.0000 34.2292 0.0000
# 2 33.8410 135.9422 11.5707 0.0000 9.9734 0.0000
# 3 28.2738 11.5707 44.9846 0.0000 4.7897 0.0000
# 4 0.0000 0.0000 0.0000 -12.1070 0.0000 4.4454
# 5 34.2292 9.9734 4.7897 0.0000 31.1083 0.0000
# 6 0.0000 0.0000 0.0000 4.4454 0.0000 22.3052
#
#
#
# Elastic Compliance Matrix: (Units=1/GPa)
#
#
# Indices 1 2 3 4 5 6 
#
# 1 0.011446 -0.001548 -0.005599 0.000000 -0.011236 0.000000
# 2 -0.001548 0.007874 -0.000981 0.000000 -0.000670 0.000000
# 3 -0.005599 -0.000981 0.025734 0.000000 0.002513 0.000000
# 4 0.000000 0.000000 0.000000 -0.076965 0.000000 0.015339
# 5 -0.011236 -0.000670 0.002513 0.000000 0.044336 0.000000
# 6 0.000000 0.000000 0.000000 0.015339 0.000000 0.041776
#
#
# Mechanical properties :
#
#
# Convention : Reuss Voigt Hill
#
# Bulk Modulus (GPa) = 34.72630 51.96386 43.34508
# Shear Modulus (GPa) = 62.45541 24.70254 43.57898
#
# Velocity S-wave (km/s) = 5.24433 3.29819 4.38070
# Velocity P-wave (km/s) = 7.20853 6.11449 6.68393
#
# Compressibility (1/GPa) = 0.02879662
#
# Stress axis : x y z
#
# Youngs Moduli (GPa) = 87.36713 126.99796 38.85929
#
# Poissons Ratio (x) = 0.19665 0.21759
# Poissons Ratio (y) = 0.13528 0.03811
# Poissons Ratio (z) = 0.48921 0.12456
#
# Static dielectric constant tensor:
#      x y z
#    x 1.980720 0.000000 -0.089180 
#    y 0.000000 1.882380 0.000000 
#    z -0.089180 0.000000 1.980480 
# 
# From -- ./inp_files/37069.got.cif
#   From: 2010.05.17/outbox.cif.g08.bks.cpg/sg5_19_cif.got.tgz:37069.got - 2010.06.03 18:56:24.
