data_PCOD9122901
_publ_section_title
;
Structure prediction by ZEFSAII (Michael W. Deem and Ramdas Pophale) SiO2 
 PCOD9122901
Probable space group: C 2
;
_chemical_formula_sum "Si O2"
_cell_formula_units_Z 24
_cell_length_a 11.273210
_cell_length_b 11.470813
_cell_length_c 12.448031
_cell_angle_alpha 90.000000
_cell_angle_beta 37.160794
_cell_angle_gamma 90.000000
_cell_volume 972.340044
_symmetry_space_group_name_H-M "C 2"
_symmetry_group_IT_number 5
_symmetry_cell_setting 'monoclinic'
loop_
_space_group_symop_operation_xyz
x,y,z
-x,y,-z
1/2+x,1/2+y,z
1/2-x,1/2+y,-z
loop_
_atom_site_type_symbol
_atom_site_label
_atom_site_fract_x
_atom_site_fract_y
_atom_site_fract_z
Si Si1 0.852006 0.363260 0.983787
Si Si2 0.305305 0.138458 0.843808
Si Si3 0.161293 0.735478 0.733372
Si Si4 0.500000 0.197901 0.500000
Si Si5 0.500000 0.070495 0.000000
Si Si6 0.511401 0.482099 0.825218
Si Si7 0.367011 0.726137 0.362592
O O1 0.978746 0.474625 0.921695
O O2 0.948516 0.304073 0.808586
O O3 0.825181 0.253018 0.079782
O O4 0.634244 0.416522 0.150536
O O5 0.459707 0.180712 0.824080
O O6 0.417938 0.117379 0.653693
O O7 0.155189 0.036364 0.977195
O O8 0.171149 0.657593 0.834276
O O9 0.318816 0.726551 0.523677
O O10 0.136088 0.872746 0.777385
O O11 0.673790 0.268326 0.434601
O O12 0.606618 0.593554 0.699626
#
# Coordination Sequence:
#
# PCOD9122901 Si02
#       7
#     4   4   4   2   2   4   4
#     4  10  21  39  68  90 133 177 222 271 336 398
#     4   9  19  40  61  93 125 176 223 269 331 398
#     4  10  23  38  63  97 136 169 216 284 347 381
#     4  10  20  36  62  98 122 160 234 270 314 392
#     4  12  22  38  64 102 132 170 224 284 328 408
#     4  10  21  41  66  88 135 182 217 268 341 411
#     4  10  23  41  68  97 132 178 228 279 330 405
#
# _framework density 24.682722999999999
#
# number of rings (size 3 to 8) (size 9 to 14) (size 15 to 20)
#    0.000    2.000    1.667    1.000    2.333    3.333 
#    3.000    0.000    3.667    0.000    0.000    0.000 
#    0.000    0.000    0.000    0.000    0.000    0.000 
#
# Total GULP energy -66837.602137 kJ/mol
# GULP energy per Si atom -5569.800178 kJ/mol
# Density = 2.462654 g / cm^3
# Si number density = 24.682723 Si / 1000 Ang^3
#
#
#
# Elastic Constant Matrix: (Units=GPa)
#
#
# Indices 1 2 3 4 5 6 
#
# 1 39.9691 11.6986 5.2387 -0.0001 -1.2356 0.0000
# 2 11.6986 178.9719 52.3349 -0.0002 16.9211 0.0001
# 3 5.2387 52.3349 151.8789 -0.0005 30.2808 0.0002
# 4 -0.0001 -0.0002 -0.0005 24.1480 0.0002 -6.2231
# 5 -1.2356 16.9211 30.2808 0.0002 33.7702 -0.0001
# 6 0.0000 0.0001 0.0002 -6.2231 -0.0001 18.5787
#
#
#
# Elastic Compliance Matrix: (Units=1/GPa)
#
#
# Indices 1 2 3 4 5 6 
#
# 1 0.025694 -0.001681 -0.000807 0.000000 0.002505 0.000000
# 2 -0.001681 0.006383 -0.001816 0.000000 -0.001631 0.000000
# 3 -0.000807 -0.001816 0.008600 0.000000 -0.006831 0.000000
# 4 0.000000 0.000000 0.000000 0.045324 0.000000 0.015182
# 5 0.002505 -0.001631 -0.006831 0.000000 0.036646 0.000000
# 6 0.000000 0.000000 0.000000 0.015182 0.000000 0.058910
#
#
# Mechanical properties :
#
#
# Convention : Reuss Voigt Hill
#
# Bulk Modulus (GPa) = 31.18190 56.59602 43.88896
# Shear Modulus (GPa) = 24.89383 35.40258 30.14820
#
# Velocity S-wave (km/s) = 3.17922 3.79133 3.49869
# Velocity P-wave (km/s) = 5.11244 6.49190 5.84302
#
# Compressibility (1/GPa) = 0.03206989
#
# Stress axis : x y z
#
# Youngs Moduli (GPa) = 38.91896 156.67566 116.28326
#
# Poissons Ratio (x) = 0.26329 0.09381
# Poissons Ratio (y) = 0.06540 0.21119
# Poissons Ratio (z) = 0.03140 0.28455
#
# Static dielectric constant tensor:
#      x y z
#    x 2.364670 0.000000 -0.035990 
#    y 0.000000 1.920540 0.000000 
#    z -0.035990 0.000000 1.961190 
# 
# From -- ./inp_files/23169.got.cif
#   From: 2010.05.17/outbox.cif.g08.bks.cpg/sg5_12_cif.got.tgz:23169.got - 2010.06.03 18:56:24.
