data_PCOD9122439
_publ_section_title
;
Structure prediction by ZEFSAII (Michael W. Deem and Ramdas Pophale) SiO2 
 PCOD9122439
Probable space group: C 2
;
_chemical_formula_sum "Si O2"
_cell_formula_units_Z 22
_cell_length_a 15.722323
_cell_length_b 11.262086
_cell_length_c 5.051419
_cell_angle_alpha 90.000000
_cell_angle_beta 92.335931
_cell_angle_gamma 90.000000
_cell_volume 893.692086
_symmetry_space_group_name_H-M "C 2"
_symmetry_group_IT_number 5
_symmetry_cell_setting 'monoclinic'
loop_
_space_group_symop_operation_xyz
x,y,z
-x,y,-z
1/2+x,1/2+y,z
1/2-x,1/2+y,-z
loop_
_atom_site_type_symbol
_atom_site_label
_atom_site_fract_x
_atom_site_fract_y
_atom_site_fract_z
Si Si1 0.813150 0.519480 0.086508
Si Si2 0.000000 0.555144 0.000000
Si Si3 0.271801 0.174593 0.577547
Si Si4 0.904057 0.119929 0.544666
Si Si5 0.637100 0.459045 0.956027
Si Si6 0.064302 0.778079 0.305024
O O1 0.795387 0.569049 0.376456
O O2 0.737144 0.429659 0.008571
O O3 0.789239 0.625239 0.875119
O O4 0.912445 0.488217 0.062065
O O5 0.971484 0.647541 0.767493
O O6 0.344315 0.270608 0.540547
O O7 0.174619 0.210348 0.510575
O O8 0.891914 0.058140 0.827965
O O9 0.000000 0.161812 0.500000
O O10 0.881602 0.020271 0.322828
O O11 0.584634 0.345173 0.036893
O O12 0.000000 0.836646 0.500000
#
# Coordination Sequence:
#
# PCOD9122439 Si02
#       6
#     4   2   4   4   4   4
#     4   9  18  35  49  76 105 145 177 212 262 332
#     4  10  20  32  56  76 110 142 184 214 270 328
#     4   9  19  34  50  76 106 140 180 214 264 323
#     4  10  20  35  53  75 108 148 178 211 267 336
#     4  10  22  32  51  81 114 135 174 225 278 312
#     4  11  21  32  53  84 114 134 177 232 278 310
#
# _framework density 24.616980000000002
#
# number of rings (size 3 to 8) (size 9 to 14) (size 15 to 20)
#    0.000    2.182    1.818    1.091    5.091    0.000 
#    0.000    0.000    0.000    0.000   47.273    0.000 
#    0.000    0.000    0.000    0.000    0.000    0.000 
#
# Total GULP energy -61455.515202 kJ/mol
# GULP energy per Si atom -5586.865018 kJ/mol
# Density = 2.456095 g / cm^3
# Si number density = 24.616980 Si / 1000 Ang^3
#
#
#
# Elastic Constant Matrix: (Units=GPa)
#
#
# Indices 1 2 3 4 5 6 
#
# 1 270.6405 21.7898 4.1016 0.0000 -5.5225 0.0000
# 2 21.7898 11.6812 10.5274 0.0000 -2.3636 0.0000
# 3 4.1016 10.5274 98.4595 0.0000 -8.0630 0.0000
# 4 0.0000 0.0000 0.0000 14.9858 0.0000 0.1127
# 5 -5.5225 -2.3636 -8.0630 0.0000 36.3332 0.0000
# 6 0.0000 0.0000 0.0000 0.1127 0.0000 31.5574
#
#
#
# Elastic Compliance Matrix: (Units=1/GPa)
#
#
# Indices 1 2 3 4 5 6 
#
# 1 0.004402 -0.008867 0.000787 0.000000 0.000267 0.000000
# 2 -0.008867 0.113166 -0.011446 0.000000 0.003474 0.000000
# 3 0.000787 -0.011446 0.011505 0.000000 0.001928 0.000000
# 4 0.000000 0.000000 0.000000 0.066732 0.000000 -0.000238
# 5 0.000267 0.003474 0.001928 0.000000 0.028218 0.000000
# 6 0.000000 0.000000 0.000000 -0.000238 0.000000 0.031689
#
#
# Mechanical properties :
#
#
# Convention : Reuss Voigt Hill
#
# Bulk Modulus (GPa) = 11.10848 50.40208 30.75528
# Shear Modulus (GPa) = 15.39542 39.53277 27.46410
#
# Velocity S-wave (km/s) = 2.50351 4.01173 3.34377
# Velocity P-wave (km/s) = 3.58874 6.47902 5.23721
#
# Compressibility (1/GPa) = 0.09002129
#
# Stress axis : x y z
#
# Youngs Moduli (GPa) = 227.15117 8.83656 86.91561
#
# Poissons Ratio (x) = 0.07835 -0.06836
# Poissons Ratio (y) = 2.01412 0.99483
# Poissons Ratio (z) = -0.17866 0.10114
#
# Static dielectric constant tensor:
#      x y z
#    x 2.087200 0.000000 0.031620 
#    y 0.000000 1.929320 0.000000 
#    z 0.031620 0.000000 1.956380 
# 
# From -- ./inp_files/6720.got.cif
#   From: 2010.05.17/outbox.cif.g08.bks.cpg/sg5_4_cif.got.tgz:6720.got - 2010.06.03 18:56:24.
