data_PCOD9122636
_publ_section_title
;
Structure prediction by ZEFSAII (Michael W. Deem and Ramdas Pophale) SiO2 
 PCOD9122636
Probable space group: C 2
;
_chemical_formula_sum "Si O2"
_cell_formula_units_Z 32
_cell_length_a 8.710428
_cell_length_b 14.559103
_cell_length_c 24.797414
_cell_angle_alpha 90.000000
_cell_angle_beta 149.996511
_cell_angle_gamma 90.000000
_cell_volume 1572.520493
_symmetry_space_group_name_H-M "C 2"
_symmetry_group_IT_number 5
_symmetry_cell_setting 'monoclinic'
loop_
_space_group_symop_operation_xyz
x,y,z
-x,y,-z
1/2+x,1/2+y,z
1/2-x,1/2+y,-z
loop_
_atom_site_type_symbol
_atom_site_label
_atom_site_fract_x
_atom_site_fract_y
_atom_site_fract_z
Si Si1 0.390719 0.695760 0.334740
Si Si2 0.227129 0.352284 0.018323
Si Si3 0.136837 0.345881 0.481305
Si Si4 0.365800 0.056283 0.520248
Si Si5 0.739540 0.052115 0.024390
Si Si6 0.756863 0.720226 0.333444
Si Si7 0.635630 0.164625 0.897089
Si Si8 0.126790 0.239767 0.890903
O O1 0.405878 0.788623 0.373374
O O2 0.558749 0.616322 0.419824
O O3 0.576827 0.715188 0.335588
O O4 0.058667 0.662392 0.215632
O O5 0.380592 0.451651 0.057908
O O6 0.428343 0.263994 0.095466
O O7 0.051886 0.320089 0.910868
O O8 0.000000 0.358736 0.000000
O O9 0.172406 0.451436 0.474224
O O10 0.461183 0.292019 0.577229
O O11 0.000000 0.343696 0.500000
O O12 0.500000 0.053387 0.500000
O O13 0.592111 0.118454 0.625109
O O14 0.939313 0.140237 0.102204
O O15 0.500000 0.043544 0.000000
O O16 0.558316 0.084982 0.915899
O O17 0.546416 0.743727 0.218265
O O18 0.000000 0.157000 0.000000
O O19 0.500000 0.245404 0.000000
#
# Coordination Sequence:
#
# PCOD9122636 Si02
#       8
#     4   4   4   4   4   4   4   4
#     4  10  20  39  61  81 113 154 189 227 282 344
#     4   9  19  34  52  75 109 148 183 222 275 328
#     4  10  21  37  59  88 112 141 189 242 285 328
#     4   8  18  37  60  82 108 145 190 233 281 336
#     4   9  18  34  53  75 105 147 191 224 262 328
#     4  10  20  38  61  83 111 153 190 228 281 340
#     4  10  21  36  55  83 117 150 183 229 286 332
#     4  10  20  35  56  83 112 144 190 233 268 330
#
# _framework density 20.349495999999998
#
# number of rings (size 3 to 8) (size 9 to 14) (size 15 to 20)
#    0.000    2.500    0.000    3.375    0.000    5.500 
#    0.000   15.000    0.000    0.000    0.000    0.000 
#    0.000    0.000    0.000    0.000    0.000    0.000 
#
# Total GULP energy -89165.297216 kJ/mol
# GULP energy per Si atom -5572.831076 kJ/mol
# Density = 2.030318 g / cm^3
# Si number density = 20.349496 Si / 1000 Ang^3
#
#
#
# Elastic Constant Matrix: (Units=GPa)
#
#
# Indices 1 2 3 4 5 6 
#
# 1 65.2142 34.6991 38.2232 0.0000 -8.0521 0.0009
# 2 34.6991 127.1394 13.5765 -0.0009 -4.3687 -0.0002
# 3 38.2232 13.5765 102.6249 -0.0029 -10.2965 0.0001
# 4 0.0000 -0.0009 -0.0029 -23.2160 -0.0002 28.6334
# 5 -8.0521 -4.3687 -10.2965 -0.0002 29.6929 0.0009
# 6 0.0009 -0.0002 0.0001 28.6334 0.0009 -16.7143
#
#
#
# Elastic Compliance Matrix: (Units=1/GPa)
#
#
# Indices 1 2 3 4 5 6 
#
# 1 0.022969 -0.005364 -0.007563 -0.000003 0.002817 -0.000003
# 2 -0.005364 0.009251 0.000792 0.000001 0.000181 0.000001
# 3 -0.007563 0.000792 0.012704 0.000002 0.002471 0.000003
# 4 -0.000003 0.000001 0.000002 0.038705 -0.000002 0.066307
# 5 0.002817 0.000181 0.002471 -0.000002 0.035326 -0.000001
# 6 -0.000003 0.000001 0.000003 0.066307 -0.000001 0.053761
#
#
# Mechanical properties :
#
#
# Convention : Reuss Voigt Hill
#
# Bulk Modulus (GPa) = 48.41513 51.99735 50.20624
# Shear Modulus (GPa) = 24.52542 11.85118 18.18830
#
# Velocity S-wave (km/s) = 3.47538 2.41588 2.99289
# Velocity P-wave (km/s) = 6.32043 5.77837 6.05547
#
# Compressibility (1/GPa) = 0.02065470
#
# Stress axis : x y z
#
# Youngs Moduli (GPa) = 43.53765 108.09610 78.71514
#
# Poissons Ratio (x) = 0.57986 0.59528
# Poissons Ratio (y) = 0.23355 -0.06236
# Poissons Ratio (z) = 0.32925 -0.08564
#
# Static dielectric constant tensor:
#      x y z
#    x 1.793500 0.000000 0.006990 
#    y 0.000000 1.748880 0.000000 
#    z 0.006990 0.000000 1.732540 
# 
# From -- ./inp_files/68051.got.cif
#   From: 2010.05.17/outbox.cif.g08.bks.cpg/sg5_35_cif.got.tgz:68051.got - 2010.06.03 18:56:24.
