data_PCOD9122447
_publ_section_title
;
Structure prediction by ZEFSAII (Michael W. Deem and Ramdas Pophale) SiO2 
 PCOD9122447
Probable space group: C 2
;
_chemical_formula_sum "Si O2"
_cell_formula_units_Z 26
_cell_length_a 6.890940
_cell_length_b 27.876264
_cell_length_c 5.603306
_cell_angle_alpha 90.000000
_cell_angle_beta 103.439312
_cell_angle_gamma 90.000000
_cell_volume 1046.885232
_symmetry_space_group_name_H-M "C 2"
_symmetry_group_IT_number 5
_symmetry_cell_setting 'monoclinic'
loop_
_space_group_symop_operation_xyz
x,y,z
-x,y,-z
1/2+x,1/2+y,z
1/2-x,1/2+y,-z
loop_
_atom_site_type_symbol
_atom_site_label
_atom_site_fract_x
_atom_site_fract_y
_atom_site_fract_z
Si Si1 0.758881 0.797910 0.938380
Si Si2 0.000000 0.985384 0.000000
Si Si3 0.720852 0.687450 0.023562
Si Si4 0.239976 0.152703 0.528916
Si Si5 0.784924 0.045326 0.558131
Si Si6 0.744453 0.347276 0.562732
Si Si7 0.272779 0.451606 0.332047
O O1 0.697183 0.823214 0.672227
O O2 0.701148 0.742276 0.933383
O O3 0.697136 0.821016 0.174287
O O4 0.000000 0.799375 0.000000
O O5 0.835864 0.951015 0.075600
O O6 0.149812 0.021452 0.177441
O O7 0.802642 0.684889 0.318408
O O8 0.500000 0.665283 0.000000
O O9 0.816602 0.662513 0.818901
O O10 0.293422 0.098696 0.465758
O O11 0.000000 0.159348 0.500000
O O12 0.000000 0.052811 0.500000
O O13 0.678028 0.002638 0.377604
O O14 0.500000 0.348495 0.500000
O O15 0.814304 0.402433 0.603348
O O16 0.500000 0.455321 0.500000
#
# Coordination Sequence:
#
# PCOD9122447 Si02
#       7
#     4   2   4   4   4   4   4
#     4  10  20  33  48  67  91 121 157 194 228 269
#     4   8  14  20  36  54  92 116 156 172 218 268
#     4  10  20  33  48  67  91 121 157 194 228 269
#     4   9  18  28  45  64  91 123 153 183 230 274
#     4   8  15  22  35  59  88 121 148 177 220 276
#     4   9  18  28  45  64  91 123 153 183 230 274
#     4   8  15  22  35  59  88 121 148 177 220 276
#
# _framework density 24.835578999999999
#
# number of rings (size 3 to 8) (size 9 to 14) (size 15 to 20)
#    0.000    3.385    0.000    0.923   15.077    0.000 
#    0.000    0.000    0.000    0.000    0.000    0.000 
#    0.000    7.385    0.000    0.000    0.000    0.000 
#
# Total GULP energy -72449.475063 kJ/mol
# GULP energy per Si atom -5573.036543 kJ/mol
# Density = 2.477905 g / cm^3
# Si number density = 24.835579 Si / 1000 Ang^3
#
#
#
# Elastic Constant Matrix: (Units=GPa)
#
#
# Indices 1 2 3 4 5 6 
#
# 1 91.1434 -11.2284 36.4048 0.0000 -17.5466 0.0000
# 2 -11.2284 140.1352 52.9426 0.0000 -22.1383 0.0000
# 3 36.4048 52.9426 162.2029 0.0000 -25.3607 0.0000
# 4 0.0000 0.0000 0.0000 33.0713 0.0000 -1.7471
# 5 -17.5466 -22.1383 -25.3607 0.0000 42.1247 0.0000
# 6 0.0000 0.0000 0.0000 -1.7471 0.0000 -13.2268
#
#
#
# Elastic Compliance Matrix: (Units=1/GPa)
#
#
# Indices 1 2 3 4 5 6 
#
# 1 0.013716 0.003192 -0.003273 0.000000 0.005420 0.000000
# 2 0.003192 0.009230 -0.003050 0.000000 0.004344 0.000000
# 3 -0.003273 -0.003050 0.008204 0.000000 0.001973 0.000000
# 4 0.000000 0.000000 0.000000 0.030028 0.000000 -0.003966
# 5 0.005420 0.004344 0.001973 0.000000 0.029467 0.000000
# 6 0.000000 0.000000 0.000000 -0.003966 0.000000 -0.075080
#
#
# Mechanical properties :
#
#
# Convention : Reuss Voigt Hill
#
# Bulk Modulus (GPa) = 40.18061 61.07995 50.63028
# Shear Modulus (GPa) = 165.98868 33.41800 99.70334
#
# Velocity S-wave (km/s) = 8.18414 3.67218 6.34291
# Velocity P-wave (km/s) = 10.27232 6.52893 8.60661
#
# Compressibility (1/GPa) = 0.02488763
#
# Stress axis : x y z
#
# Youngs Moduli (GPa) = 72.91010 108.34018 121.89873
#
# Poissons Ratio (x) = -0.34578 0.39892
# Poissons Ratio (y) = -0.23270 0.37177
# Poissons Ratio (z) = 0.23861 0.33042
#
# Static dielectric constant tensor:
#      x y z
#    x 2.176630 0.000000 -0.105300 
#    y 0.000000 1.949290 0.000000 
#    z -0.105300 0.000000 2.336550 
# 
# From -- ./inp_files/3651.got.cif
#   From: 2010.05.17/outbox.cif.g08.bks.cpg/sg5_2_cif.got.tgz:3651.got - 2010.06.03 18:56:24.
