data_PCOD9122096
_publ_section_title
;
Structure prediction by ZEFSAII (Michael W. Deem and Ramdas Pophale) SiO2 
 PCOD9122096
Probable space group: C 2
;
_chemical_formula_sum "Si O2"
_cell_formula_units_Z 24
_cell_length_a 14.137959
_cell_length_b 13.092563
_cell_length_c 11.339538
_cell_angle_alpha 90.000000
_cell_angle_beta 31.509262
_cell_angle_gamma 90.000000
_cell_volume 1096.999414
_symmetry_space_group_name_H-M "C 2"
_symmetry_group_IT_number 5
_symmetry_cell_setting 'monoclinic'
loop_
_space_group_symop_operation_xyz
x,y,z
-x,y,-z
1/2+x,1/2+y,z
1/2-x,1/2+y,-z
loop_
_atom_site_type_symbol
_atom_site_label
_atom_site_fract_x
_atom_site_fract_y
_atom_site_fract_z
Si Si1 0.913524 0.847250 0.820046
Si Si2 0.983657 0.506830 0.159239
Si Si3 0.773529 0.703703 0.442626
Si Si4 0.186716 0.281040 0.275871
Si Si5 0.458566 0.785336 0.906004
Si Si6 0.896490 0.055893 0.731524
O O1 0.752126 0.804907 0.903679
O O2 0.082929 0.770627 0.637365
O O3 0.972867 0.963764 0.732405
O O4 0.823335 0.837855 0.045146
O O5 0.947151 0.391495 0.234464
O O6 0.185704 0.534089 0.981580
O O7 0.000000 0.509865 0.000000
O O8 0.766461 0.747724 0.316765
O O9 0.375782 0.678336 0.728476
O O10 0.846258 0.589832 0.350481
O O11 0.576726 0.701728 0.712228
O O12 0.000000 0.339998 0.500000
O O13 0.500000 0.773140 0.000000
O O14 0.000000 0.026071 0.500000
#
# Coordination Sequence:
#
# PCOD9122096 Si02
#       6
#     4   4   4   4   4   4
#     4  11  23  38  64 100 132 168 224 277 330 388
#     4  10  19  38  63  94 123 167 225 268 314 390
#     4  12  22  39  71  98 131 179 223 275 330 397
#     4  11  21  41  66  97 129 171 226 277 324 391
#     4  10  25  41  63  97 137 171 222 279 333 392
#     4  10  22  37  64  96 127 169 222 274 318 391
#
# _framework density 21.877860999999999
#
# number of rings (size 3 to 8) (size 9 to 14) (size 15 to 20)
#    0.000    1.333    5.000    0.500    7.000    0.000 
#    0.000    0.000    3.667    4.000    0.000    0.000 
#    0.000    0.000    0.000    0.000    0.000    0.000 
#
# Total GULP energy -66826.217949 kJ/mol
# GULP energy per Si atom -5568.851496 kJ/mol
# Density = 2.182807 g / cm^3
# Si number density = 21.877861 Si / 1000 Ang^3
#
#
#
# Elastic Constant Matrix: (Units=GPa)
#
#
# Indices 1 2 3 4 5 6 
#
# 1 112.7149 5.3922 6.8967 -0.0004 -10.4338 0.0002
# 2 5.3922 64.3411 16.9132 -0.0003 -3.3634 0.0002
# 3 6.8967 16.9132 74.4519 -0.0003 -4.3624 0.0004
# 4 -0.0004 -0.0003 -0.0003 9.3084 0.0003 -15.7132
# 5 -10.4338 -3.3634 -4.3624 0.0003 31.0585 -0.0003
# 6 0.0002 0.0002 0.0004 -15.7132 -0.0003 28.9556
#
#
#
# Elastic Compliance Matrix: (Units=1/GPa)
#
#
# Indices 1 2 3 4 5 6 
#
# 1 0.009203 -0.000466 -0.000573 0.000002 0.002961 0.000001
# 2 -0.000466 0.016603 -0.003662 0.000004 0.001127 0.000002
# 3 -0.000573 -0.003662 0.014401 -0.000001 0.001433 -0.000001
# 4 0.000002 0.000004 -0.000001 1.279729 -0.000008 0.694463
# 5 0.002961 0.001127 0.001433 -0.000008 0.033515 -0.000004
# 6 0.000001 0.000002 -0.000001 0.694463 -0.000004 0.411396
#
#
# Mechanical properties :
#
#
# Convention : Reuss Voigt Hill
#
# Bulk Modulus (GPa) = 32.46359 34.43469 33.44914
# Shear Modulus (GPa) = 2.80188 28.68487 15.74337
#
# Velocity S-wave (km/s) = 1.13290 3.62489 2.68545
# Velocity P-wave (km/s) = 4.07211 5.77005 4.99377
#
# Compressibility (1/GPa) = 0.03080374
#
# Stress axis : x y z
#
# Youngs Moduli (GPa) = 108.65575 60.23051 69.44164
#
# Poissons Ratio (x) = 0.02806 0.03981
# Poissons Ratio (y) = 0.05062 0.25433
# Poissons Ratio (z) = 0.06228 0.22059
#
# Static dielectric constant tensor:
#      x y z
#    x 1.919790 0.000000 -0.027510 
#    y 0.000000 1.843320 0.000000 
#    z -0.027510 0.000000 1.818610 
# 
# From -- ./inp_files/45015.got.cif
#   From: 2010.05.17/outbox.cif.g08.bks.cpg/sg5_23_cif.got.tgz:45015.got - 2010.06.03 18:56:24.
