data_PCOD9122627
_publ_section_title
;
Structure prediction by ZEFSAII (Michael W. Deem and Ramdas Pophale) SiO2 
 PCOD9122627
Probable space group: C 2
;
_chemical_formula_sum "Si O2"
_cell_formula_units_Z 28
_cell_length_a 10.166142
_cell_length_b 10.939043
_cell_length_c 12.931788
_cell_angle_alpha 90.000000
_cell_angle_beta 104.519389
_cell_angle_gamma 90.000000
_cell_volume 1392.187193
_symmetry_space_group_name_H-M "C 2"
_symmetry_group_IT_number 5
_symmetry_cell_setting 'monoclinic'
loop_
_space_group_symop_operation_xyz
x,y,z
-x,y,-z
1/2+x,1/2+y,z
1/2-x,1/2+y,-z
loop_
_atom_site_type_symbol
_atom_site_label
_atom_site_fract_x
_atom_site_fract_y
_atom_site_fract_z
Si Si1 0.762910 0.842690 0.803846
Si Si2 0.675287 0.538984 0.350764
Si Si3 0.433347 0.364291 0.383027
Si Si4 0.495023 0.180894 0.766068
Si Si5 0.438455 0.945858 0.100702
Si Si6 0.977000 0.289995 0.699760
Si Si7 0.667601 0.000109 0.415133
O O1 0.899797 0.768333 0.816794
O O2 0.638364 0.764772 0.729380
O O3 0.770526 0.966586 0.737891
O O4 0.707161 0.881396 0.905645
O O5 0.550008 0.456262 0.366477
O O6 0.614098 0.671468 0.318948
O O7 0.786548 0.543624 0.463218
O O8 0.500000 0.307531 0.500000
O O9 0.412178 0.264478 0.289491
O O10 0.301027 0.441278 0.387013
O O11 0.564924 0.081815 0.853127
O O12 0.398953 0.105739 0.667143
O O13 0.535294 0.867340 0.196416
O O14 0.500000 0.944261 0.000000
O O15 0.934691 0.385215 0.603294
#
# Coordination Sequence:
#
# PCOD9122627 Si02
#       7
#     4   4   4   4   4   4   4
#     4   9  21  38  56  83 110 146 190 233 276 343
#     4  10  20  35  54  82 118 152 185 223 278 332
#     4   9  20  34  52  83 116 152 184 219 268 339
#     4  10  20  38  58  79 115 147 183 233 277 330
#     4   9  21  43  57  83 110 142 196 242 291 329
#     4   9  21  36  56  83 113 152 186 233 275 329
#     4  10  21  32  53  85 116 154 185 217 271 338
#
# _framework density 20.112238999999999
#
# number of rings (size 3 to 8) (size 9 to 14) (size 15 to 20)
#    0.857    1.714    0.000    0.857    8.000    0.571 
#    2.571    0.000    0.000    3.429    0.000    0.000 
#    0.000    0.000    0.000    0.000    0.000    0.000 
#
# Total GULP energy -78048.566477 kJ/mol
# GULP energy per Si atom -5574.897606 kJ/mol
# Density = 2.006646 g / cm^3
# Si number density = 20.112239 Si / 1000 Ang^3
#
#
#
# Elastic Constant Matrix: (Units=GPa)
#
#
# Indices 1 2 3 4 5 6 
#
# 1 44.3515 -0.5479 7.2136 0.0000 -19.5337 0.0000
# 2 -0.5479 90.6458 28.7289 0.0000 -10.0823 0.0000
# 3 7.2136 28.7289 57.4683 0.0000 -25.6301 0.0000
# 4 0.0000 0.0000 0.0000 12.2772 0.0000 -7.3005
# 5 -19.5337 -10.0823 -25.6301 0.0000 27.3176 0.0000
# 6 0.0000 0.0000 0.0000 -7.3005 0.0000 10.0597
#
#
#
# Elastic Compliance Matrix: (Units=1/GPa)
#
#
# Indices 1 2 3 4 5 6 
#
# 1 0.037503 0.000668 0.012086 0.000000 0.038403 0.000000
# 2 0.000668 0.013202 -0.007390 0.000000 -0.001583 0.000000
# 3 0.012086 -0.007390 0.038200 0.000000 0.041755 0.000000
# 4 0.000000 0.000000 0.000000 0.143285 0.000000 0.103985
# 5 0.038403 -0.001583 0.041755 0.000000 0.102658 0.000000
# 6 0.000000 0.000000 0.000000 0.103985 0.000000 0.174870
#
#
# Mechanical properties :
#
#
# Convention : Reuss Voigt Hill
#
# Bulk Modulus (GPa) = 10.03680 29.25053 19.64366
# Shear Modulus (GPa) = 9.39492 20.40229 14.89861
#
# Velocity S-wave (km/s) = 2.16365 3.18845 2.72467
# Velocity P-wave (km/s) = 3.35307 5.30379 4.43696
#
# Compressibility (1/GPa) = 0.09963338
#
# Stress axis : x y z
#
# Youngs Moduli (GPa) = 26.66419 75.74653 26.17790
#
# Poissons Ratio (x) = -0.05058 -0.31638
# Poissons Ratio (y) = -0.01780 0.19344
# Poissons Ratio (z) = -0.32226 0.55974
#
# Static dielectric constant tensor:
#      x y z
#    x 1.750820 0.000000 -0.015490 
#    y 0.000000 1.705730 0.000000 
#    z -0.015490 0.000000 1.710730 
# 
# From -- ./inp_files/38845.got.cif
#   From: 2010.05.17/outbox.cif.g08.bks.cpg/sg5_20_cif.got.tgz:38845.got - 2010.06.03 18:56:24.
