data_PCOD9122009
_publ_section_title
;
Structure prediction by ZEFSAII (Michael W. Deem and Ramdas Pophale) SiO2 
 PCOD9122009
Probable space group: C 2
;
_chemical_formula_sum "Si O2"
_cell_formula_units_Z 28
_cell_length_a 18.645936
_cell_length_b 6.634700
_cell_length_c 21.206025
_cell_angle_alpha 90.000000
_cell_angle_beta 28.544634
_cell_angle_gamma 90.000000
_cell_volume 1253.574587
_symmetry_space_group_name_H-M "C 2"
_symmetry_group_IT_number 5
_symmetry_cell_setting 'monoclinic'
loop_
_space_group_symop_operation_xyz
x,y,z
-x,y,-z
1/2+x,1/2+y,z
1/2-x,1/2+y,-z
loop_
_atom_site_type_symbol
_atom_site_label
_atom_site_fract_x
_atom_site_fract_y
_atom_site_fract_z
Si Si1 0.550244 0.731660 0.129124
Si Si2 0.997548 0.897358 0.070862
Si Si3 0.580424 0.964453 0.500034
Si Si4 0.231029 0.107712 0.303374
Si Si5 0.482710 0.598685 0.643551
Si Si6 0.766161 0.589278 0.064144
Si Si7 0.259661 0.842914 0.398584
O O1 0.474267 0.560622 0.144066
O O2 0.695489 0.639994 0.051192
O O3 0.436196 0.806211 0.272817
O O4 0.613438 0.912865 0.038110
O O5 0.870537 0.723081 0.164705
O O6 0.149533 0.780791 0.971409
O O7 0.000000 0.996149 0.000000
O O8 0.500000 0.057864 0.500000
O O9 0.667590 0.782438 0.398225
O O10 0.489813 0.839049 0.623184
O O11 0.677129 0.130336 0.459952
O O12 0.106278 0.031265 0.351052
O O13 0.271302 0.928656 0.318484
O O14 0.373849 0.535429 0.783526
O O15 0.647642 0.496616 0.520927
#
# Coordination Sequence:
#
# PCOD9122009 Si02
#       7
#     4   4   4   4   4   4   4
#     4  12  27  46  73  96 138 195 237 289 363 424
#     4  12  24  43  73 105 138 183 244 293 346 421
#     4   9  18  35  60  95 132 171 215 276 350 404
#     4  10  19  37  65  99 136 175 216 288 353 400
#     4  10  23  40  65  98 138 176 219 295 348 409
#     4  12  26  49  67  98 143 188 237 294 355 418
#     4  11  21  39  66 101 131 178 231 281 345 426
#
# _framework density 22.336126
#
# number of rings (size 3 to 8) (size 9 to 14) (size 15 to 20)
#    0.000    1.143    5.714    2.143    0.000    2.857 
#    2.571    0.000    0.000    0.000    0.000    0.000 
#    0.000    0.000    0.000    0.000    0.000    0.000 
#
# Total GULP energy -78079.549847 kJ/mol
# GULP energy per Si atom -5577.110703 kJ/mol
# Density = 2.228529 g / cm^3
# Si number density = 22.336126 Si / 1000 Ang^3
#
#
#
# Elastic Constant Matrix: (Units=GPa)
#
#
# Indices 1 2 3 4 5 6 
#
# 1 40.4169 12.0291 -2.6819 -0.0008 -4.6094 0.0002
# 2 12.0291 55.6813 23.1176 -0.0021 -1.5370 0.0019
# 3 -2.6819 23.1176 120.5755 -0.0006 -4.1955 0.0008
# 4 -0.0008 -0.0021 -0.0006 38.0941 0.0007 -10.1711
# 5 -4.6094 -1.5370 -4.1955 0.0007 25.3858 -0.0010
# 6 0.0002 0.0019 0.0008 -10.1711 -0.0010 16.8927
#
#
#
# Elastic Compliance Matrix: (Units=1/GPa)
#
#
# Indices 1 2 3 4 5 6 
#
# 1 0.027415 -0.006640 0.002054 0.000000 0.004915 0.000001
# 2 -0.006640 0.021129 -0.004220 0.000000 -0.000624 -0.000002
# 3 0.002054 -0.004220 0.009205 0.000000 0.001639 0.000000
# 4 0.000000 0.000000 0.000000 0.031279 0.000000 0.018833
# 5 0.004915 -0.000624 0.001639 0.000000 0.040518 0.000002
# 6 0.000001 -0.000002 0.000000 0.018833 0.000002 0.070537
#
#
# Mechanical properties :
#
#
# Convention : Reuss Voigt Hill
#
# Bulk Modulus (GPa) = 24.91472 31.28925 28.10198
# Shear Modulus (GPa) = 21.63807 28.35510 24.99659
#
# Velocity S-wave (km/s) = 3.11585 3.56683 3.34894
# Velocity P-wave (km/s) = 4.91155 5.56793 5.25001
#
# Compressibility (1/GPa) = 0.04013692
#
# Stress axis : x y z
#
# Youngs Moduli (GPa) = 36.47624 47.32896 108.63162
#
# Poissons Ratio (x) = 0.31425 -0.22311
# Poissons Ratio (y) = 0.24219 0.45846
# Poissons Ratio (z) = -0.07492 0.19974
#
# Static dielectric constant tensor:
#      x y z
#    x 1.853990 0.000000 -0.008290 
#    y 0.000000 1.810220 0.000000 
#    z -0.008290 0.000000 1.898570 
# 
# From -- ./inp_files/69331.got.cif
#   From: 2010.05.17/outbox.cif.g08.bks.cpg/sg5_35_cif.got.tgz:69331.got - 2010.06.03 18:56:24.
