data_PCOD9122841
_publ_section_title
;
Structure prediction by ZEFSAII (Michael W. Deem and Ramdas Pophale) SiO2 
 PCOD9122841
Probable space group: C 2
;
_chemical_formula_sum "Si O2"
_cell_formula_units_Z 32
_cell_length_a 12.970543
_cell_length_b 18.263534
_cell_length_c 9.070022
_cell_angle_alpha 90.000000
_cell_angle_beta 45.242238
_cell_angle_gamma 90.000000
_cell_volume 1525.684412
_symmetry_space_group_name_H-M "C 2"
_symmetry_group_IT_number 5
_symmetry_cell_setting 'monoclinic'
loop_
_space_group_symop_operation_xyz
x,y,z
-x,y,-z
1/2+x,1/2+y,z
1/2-x,1/2+y,-z
loop_
_atom_site_type_symbol
_atom_site_label
_atom_site_fract_x
_atom_site_fract_y
_atom_site_fract_z
Si Si1 0.113138 0.680690 0.758543
Si Si2 0.658018 0.079084 0.259351
Si Si3 0.851829 0.896273 0.742429
Si Si4 0.528044 0.032823 0.801061
Si Si5 0.159039 0.303908 0.414337
Si Si6 0.108667 0.382100 0.762155
Si Si7 0.390524 0.236217 0.743229
Si Si8 0.340601 0.438968 0.089489
O O1 0.143596 0.599126 0.662960
O O2 0.244288 0.729742 0.684717
O O3 0.005964 0.724248 0.757520
O O4 0.000000 0.663066 0.000000
O O5 0.500000 0.076065 0.500000
O O6 0.615733 0.060039 0.134376
O O7 0.702401 0.164251 0.203433
O O8 0.764241 0.016205 0.207990
O O9 0.737344 0.915294 0.731482
O O10 0.811346 0.812976 0.833168
O O11 0.000000 0.900183 0.500000
O O12 0.854173 0.936639 0.896978
O O13 0.556790 0.951165 0.715572
O O14 0.500000 0.018971 0.000000
O O15 0.147926 0.322677 0.600393
O O16 0.245585 0.370281 0.245919
O O17 0.000000 0.296361 0.500000
O O18 0.000000 0.355627 0.000000
O O19 0.500000 0.245404 0.500000
O O20 0.500000 0.433076 0.000000
#
# Coordination Sequence:
#
# PCOD9122841 Si02
#       8
#     4   4   4   4   4   4   4   4
#     4  10  20  36  60  85 111 147 190 238 287 342
#     4  10  20  36  60  85 111 147 190 238 287 342
#     4  11  22  38  59  84 114 151 193 236 286 346
#     4   9  18  35  59  82 108 146 193 234 281 344
#     4  12  23  37  59  89 122 154 193 242 295 348
#     4  11  22  38  59  84 114 151 193 236 286 346
#     4   9  18  35  59  82 108 146 193 234 281 344
#     4  12  23  37  59  89 122 154 193 242 295 348
#
# _framework density 20.974194000000001
#
# number of rings (size 3 to 8) (size 9 to 14) (size 15 to 20)
#    0.000    1.500    0.000    8.250    0.000    0.000 
#    0.000    1.250    0.000   24.000    0.000    1.750 
#    0.000    0.000    0.000    0.000    0.000    0.000 
#
# Total GULP energy -89109.941536 kJ/mol
# GULP energy per Si atom -5569.371346 kJ/mol
# Density = 2.092646 g / cm^3
# Si number density = 20.974194 Si / 1000 Ang^3
#
#
#
# Elastic Constant Matrix: (Units=GPa)
#
#
# Indices 1 2 3 4 5 6 
#
# 1 71.8763 13.0050 28.2468 0.0000 -7.5988 0.0000
# 2 13.0050 78.7736 11.8749 0.0000 -23.5331 0.0000
# 3 28.2468 11.8749 84.5706 0.0000 1.3470 0.0000
# 4 0.0000 0.0000 0.0000 15.2988 0.0000 2.1179
# 5 -7.5988 -23.5331 1.3470 0.0000 37.1247 0.0000
# 6 0.0000 0.0000 0.0000 2.1179 0.0000 33.2049
#
#
#
# Elastic Compliance Matrix: (Units=1/GPa)
#
#
# Indices 1 2 3 4 5 6 
#
# 1 0.016542 -0.001040 -0.005426 0.000000 0.002924 0.000000
# 2 -0.001040 0.016210 -0.002090 0.000000 0.010139 0.000000
# 3 -0.005426 -0.002090 0.013977 0.000000 -0.002943 0.000000
# 4 0.000000 0.000000 0.000000 0.065947 0.000000 -0.004206
# 5 0.002924 0.010139 -0.002943 0.000000 0.034068 0.000000
# 6 0.000000 0.000000 0.000000 -0.004206 0.000000 0.030384
#
#
# Mechanical properties :
#
#
# Convention : Reuss Voigt Hill
#
# Bulk Modulus (GPa) = 33.76325 37.94151 35.85238
# Shear Modulus (GPa) = 24.49623 29.26529 26.88076
#
# Velocity S-wave (km/s) = 3.42120 3.73942 3.58384
# Velocity P-wave (km/s) = 5.63370 6.06410 5.85286
#
# Compressibility (1/GPa) = 0.02961800
#
# Stress axis : x y z
#
# Youngs Moduli (GPa) = 60.45116 61.68950 71.54589
#
# Poissons Ratio (x) = 0.06414 0.38819
# Poissons Ratio (y) = 0.06285 0.14956
# Poissons Ratio (z) = 0.32799 0.12895
#
# Static dielectric constant tensor:
#      x y z
#    x 1.882480 0.000000 0.046090 
#    y 0.000000 1.850430 0.000000 
#    z 0.046090 0.000000 1.792630 
# 
# From -- ./inp_files/21957.got.cif
#   From: 2010.05.17/outbox.cif.g08.bks.cpg/sg5_11_cif.got.tgz:21957.got - 2010.06.03 18:56:24.
