data_PCOD9122513
_publ_section_title
;
Structure prediction by ZEFSAII (Michael W. Deem and Ramdas Pophale) SiO2 
 PCOD9122513
Probable space group: C 2
;
_chemical_formula_sum "Si O2"
_cell_formula_units_Z 20
_cell_length_a 11.102240
_cell_length_b 8.548963
_cell_length_c 11.480725
_cell_angle_alpha 90.000000
_cell_angle_beta 121.320447
_cell_angle_gamma 90.000000
_cell_volume 930.872573
_symmetry_space_group_name_H-M "C 2"
_symmetry_group_IT_number 5
_symmetry_cell_setting 'monoclinic'
loop_
_space_group_symop_operation_xyz
x,y,z
-x,y,-z
1/2+x,1/2+y,z
1/2-x,1/2+y,-z
loop_
_atom_site_type_symbol
_atom_site_label
_atom_site_fract_x
_atom_site_fract_y
_atom_site_fract_z
Si Si1 0.260929 0.774630 0.447365
Si Si2 0.500000 0.314704 0.000000
Si Si3 0.729219 0.994705 0.769088
Si Si4 0.237435 0.852378 0.704586
Si Si5 0.524010 0.075778 0.207114
Si Si6 0.500000 0.539681 0.500000
O O1 0.286800 0.908088 0.363346
O O2 0.251686 0.836986 0.572118
O O3 0.120972 0.678667 0.342479
O O4 0.388058 0.652359 0.504030
O O5 0.366835 0.418435 0.895955
O O6 0.541449 0.200188 0.914713
O O7 0.743863 0.180718 0.759964
O O8 0.591138 0.977329 0.780302
O O9 0.365080 0.964822 0.805166
O O10 0.086047 0.937188 0.637512
#
# Coordination Sequence:
#
# PCOD9122513 Si02
#       6
#     4   2   4   4   4   2
#     4  10  21  38  60  93 126 151 188 243 307 370
#     4  10  26  44  58  86 120 160 216 258 292 346
#     4  11  23  41  65  88 119 163 205 250 299 354
#     4  11  22  36  62  94 120 154 198 241 301 368
#     4  10  23  41  61  86 122 160 202 253 302 353
#     4  10  20  34  54  86 126 152 178 230 294 358
#
# _framework density 21.485219000000001
#
# number of rings (size 3 to 8) (size 9 to 14) (size 15 to 20)
#    0.000    1.600    0.000    4.800    0.000    8.000 
#    0.000    4.000    0.000    0.000    0.000    0.000 
#    0.000    0.000    0.000    0.000    0.000    0.000 
#
# Total GULP energy -55933.411110 kJ/mol
# GULP energy per Si atom -5593.341111 kJ/mol
# Density = 2.143632 g / cm^3
# Si number density = 21.485219 Si / 1000 Ang^3
#
#
#
# Elastic Constant Matrix: (Units=GPa)
#
#
# Indices 1 2 3 4 5 6 
#
# 1 71.2114 11.7119 28.6023 0.0000 19.1721 0.0000
# 2 11.7119 108.5752 34.3120 0.0000 19.1084 0.0000
# 3 28.6023 34.3120 76.3480 0.0000 7.4264 0.0000
# 4 0.0000 0.0000 0.0000 34.9716 0.0000 -1.3331
# 5 19.1721 19.1084 7.4264 0.0000 18.4947 0.0000
# 6 0.0000 0.0000 0.0000 -1.3331 0.0000 45.9305
#
#
#
# Elastic Compliance Matrix: (Units=1/GPa)
#
#
# Indices 1 2 3 4 5 6 
#
# 1 0.023656 0.004688 -0.008442 0.000000 -0.025976 0.000000
# 2 0.004688 0.013562 -0.006260 0.000000 -0.016357 0.000000
# 3 -0.008442 -0.006260 0.018309 0.000000 0.007867 0.000000
# 4 0.000000 0.000000 0.000000 0.028626 0.000000 0.000831
# 5 -0.025976 -0.016357 0.007867 0.000000 0.094738 0.000000
# 6 0.000000 0.000000 0.000000 0.000831 0.000000 0.021796
#
#
# Mechanical properties :
#
#
# Convention : Reuss Voigt Hill
#
# Bulk Modulus (GPa) = 28.17108 45.04299 36.60704
# Shear Modulus (GPa) = 21.50094 31.97991 26.74042
#
# Velocity S-wave (km/s) = 3.16687 3.86224 3.53171
# Velocity P-wave (km/s) = 5.14902 6.39526 5.80568
#
# Compressibility (1/GPa) = 0.03549740
#
# Stress axis : x y z
#
# Youngs Moduli (GPa) = 42.27251 73.73760 54.61884
#
# Poissons Ratio (x) = -0.34566 0.46111
# Poissons Ratio (y) = -0.19816 0.34191
# Poissons Ratio (z) = 0.35688 0.46159
#
# Static dielectric constant tensor:
#      x y z
#    x 1.825320 0.000000 0.017450 
#    y 0.000000 1.784610 0.000000 
#    z 0.017450 0.000000 1.768310 
# 
# From -- ./inp_files/37893.got.cif
#   From: 2010.05.17/outbox.cif.g08.bks.cpg/sg5_19_cif.got.tgz:37893.got - 2010.06.03 18:56:24.
