data_PCOD9122648
_publ_section_title
;
Structure prediction by ZEFSAII (Michael W. Deem and Ramdas Pophale) SiO2 
 PCOD9122648
Probable space group: C 2
;
_chemical_formula_sum "Si O2"
_cell_formula_units_Z 32
_cell_length_a 31.488143
_cell_length_b 9.256911
_cell_length_c 5.452906
_cell_angle_alpha 90.000000
_cell_angle_beta 85.255562
_cell_angle_gamma 90.000000
_cell_volume 1583.982937
_symmetry_space_group_name_H-M "C 2"
_symmetry_group_IT_number 5
_symmetry_cell_setting 'monoclinic'
loop_
_space_group_symop_operation_xyz
x,y,z
-x,y,-z
1/2+x,1/2+y,z
1/2-x,1/2+y,-z
loop_
_atom_site_type_symbol
_atom_site_label
_atom_site_fract_x
_atom_site_fract_y
_atom_site_fract_z
Si Si1 0.378900 0.056720 0.295105
Si Si2 0.831541 0.929797 0.862660
Si Si3 0.379358 0.393001 0.359023
Si Si4 0.737320 0.608283 0.312467
Si Si5 0.976798 0.886708 0.260165
Si Si6 0.684760 0.121632 0.046056
Si Si7 0.976167 0.534362 0.260984
Si Si8 0.703980 0.907587 0.431491
O O1 0.379913 0.218807 0.404543
O O2 0.426121 0.993418 0.286874
O O3 0.340327 0.961759 0.424673
O O4 0.362617 0.088842 0.027004
O O5 0.861141 0.965877 0.613946
O O6 0.815215 0.768322 0.802475
O O7 0.792646 0.040010 0.879527
O O8 0.853581 0.921735 0.118571
O O9 0.428061 0.435718 0.289546
O O10 0.711544 0.738599 0.442375
O O11 0.753900 0.482283 0.478940
O O12 0.782104 0.662296 0.182875
O O13 0.976822 0.710506 0.256461
O O14 0.000000 0.931014 0.500000
O O15 0.000000 0.934326 0.000000
O O16 0.700657 0.975851 0.163205
O O17 0.000000 0.489330 0.500000
O O18 0.000000 0.486652 0.000000
#
# Coordination Sequence:
#
# PCOD9122648 Si02
#       8
#     4   4   4   4   4   4   4   4
#     4   9  20  34  54  87 116 162 190 247 300 352
#     4  11  22  38  57  84 116 158 196 239 296 350
#     4  10  20  35  57  83 123 155 195 241 297 355
#     4  11  25  37  59  86 114 163 203 250 295 355
#     4   9  16  28  49  82 116 151 186 234 295 351
#     4  10  21  37  58  81 118 156 203 243 303 348
#     4   9  18  29  51  81 121 152 188 236 293 357
#     4  11  22  40  59  82 120 155 205 250 299 356
#
# _framework density 20.202235000000002
#
# number of rings (size 3 to 8) (size 9 to 14) (size 15 to 20)
#    0.000    2.000    1.250    2.250    7.000    4.000 
#    0.000    0.000    0.000    0.000    0.000    3.500 
#    0.000    0.000    0.000    0.000    0.000    0.000 
#
# Total GULP energy -89169.373607 kJ/mol
# GULP energy per Si atom -5573.085850 kJ/mol
# Density = 2.015625 g / cm^3
# Si number density = 20.202235 Si / 1000 Ang^3
#
#
#
# Elastic Constant Matrix: (Units=GPa)
#
#
# Indices 1 2 3 4 5 6 
#
# 1 142.1038 37.9445 46.0645 0.0000 6.6093 0.0000
# 2 37.9445 44.3101 12.4627 0.0000 6.0992 0.0000
# 3 46.0645 12.4627 89.9647 0.0000 -3.8819 0.0000
# 4 0.0000 0.0000 0.0000 14.5553 0.0000 2.9393
# 5 6.6093 6.0992 -3.8819 0.0000 28.0572 0.0000
# 6 0.0000 0.0000 0.0000 2.9393 0.0000 14.6159
#
#
#
# Elastic Compliance Matrix: (Units=1/GPa)
#
#
# Indices 1 2 3 4 5 6 
#
# 1 0.010569 -0.007608 -0.004420 0.000000 -0.001447 0.000000
# 2 -0.007608 0.029864 -0.000447 0.000000 -0.004762 0.000000
# 3 -0.004420 -0.000447 0.013571 0.000000 0.003016 0.000000
# 4 0.000000 0.000000 0.000000 0.071612 0.000000 -0.014401
# 5 -0.001447 -0.004762 0.003016 0.000000 0.037435 0.000000
# 6 0.000000 0.000000 0.000000 -0.014401 0.000000 0.071315
#
#
# Mechanical properties :
#
#
# Convention : Reuss Voigt Hill
#
# Bulk Modulus (GPa) = 34.41900 52.14690 43.28295
# Shear Modulus (GPa) = 18.58736 23.43946 21.01341
#
# Velocity S-wave (km/s) = 3.03655 3.40993 3.22864
# Velocity P-wave (km/s) = 5.41926 6.43210 5.94728
#
# Compressibility (1/GPa) = 0.02905372
#
# Stress axis : x y z
#
# Youngs Moduli (GPa) = 94.61901 33.48471 73.68812
#
# Poissons Ratio (x) = 0.25475 0.32570
# Poissons Ratio (y) = 0.71986 0.03294
# Poissons Ratio (z) = 0.41822 0.01497
#
# Static dielectric constant tensor:
#      x y z
#    x 1.711460 0.000000 -0.010120 
#    y 0.000000 1.709020 0.000000 
#    z -0.010120 0.000000 1.793630 
# 
# From -- ./inp_files/11249.got.cif
#   From: 2010.05.17/outbox.cif.g08.bks.cpg/sg5_6_cif.got.tgz:11249.got - 2010.06.03 18:56:24.
