data_PCOD9122944
_publ_section_title
;
Structure prediction by ZEFSAII (Michael W. Deem and Ramdas Pophale) SiO2 
 PCOD9122944
Probable space group: C 2
;
_chemical_formula_sum "Si O2"
_cell_formula_units_Z 20
_cell_length_a 13.385993
_cell_length_b 7.265369
_cell_length_c 18.253131
_cell_angle_alpha 90.000000
_cell_angle_beta 27.180978
_cell_angle_gamma 90.000000
_cell_volume 810.912931
_symmetry_space_group_name_H-M "C 2"
_symmetry_group_IT_number 5
_symmetry_cell_setting 'monoclinic'
loop_
_space_group_symop_operation_xyz
x,y,z
-x,y,-z
1/2+x,1/2+y,z
1/2-x,1/2+y,-z
loop_
_atom_site_type_symbol
_atom_site_label
_atom_site_fract_x
_atom_site_fract_y
_atom_site_fract_z
Si Si1 0.548743 0.670720 0.089815
Si Si2 0.371170 0.350702 0.450398
Si Si3 0.705552 0.970334 0.411007
Si Si4 0.164878 0.510836 0.830833
Si Si5 0.516295 0.008180 0.204357
O O1 0.396616 0.525773 0.229970
O O2 0.399461 0.795849 0.136519
O O3 0.617637 0.815452 0.107964
O O4 0.771552 0.612274 0.906608
O O5 0.380465 0.159366 0.490914
O O6 0.309767 0.340889 0.404905
O O7 0.579059 0.489159 0.320546
O O8 0.164312 0.449120 0.621523
O O9 0.500000 0.895549 0.500000
O O10 0.100482 0.588145 0.792846
O O11 0.000000 0.588318 0.000000
#
# Coordination Sequence:
#
# PCOD9122944 Si02
#       5
#     4   4   4   4   4
#     4   9  20  36  60  90 133 165 216 269 314 390
#     4  11  22  40  66  94 134 175 215 273 333 382
#     4  11  22  42  64  95 135 171 221 270 325 394
#     4  10  20  36  65  89 128 175 211 258 335 377
#     4   9  20  36  61  96 128 169 219 266 320 395
#
# _framework density 24.663561999999999
#
# number of rings (size 3 to 8) (size 9 to 14) (size 15 to 20)
#    1.200    0.800    2.000    1.800    2.800    0.000 
#    0.000    5.000    0.000    6.000    0.000    0.000 
#    0.000    0.000    0.000    0.000    0.000    0.000 
#
# Total GULP energy -55817.335182 kJ/mol
# GULP energy per Si atom -5581.733518 kJ/mol
# Density = 2.460743 g / cm^3
# Si number density = 24.663562 Si / 1000 Ang^3
#
#
#
# Elastic Constant Matrix: (Units=GPa)
#
#
# Indices 1 2 3 4 5 6 
#
# 1 86.6544 -22.7499 18.0468 -0.0009 -0.6111 0.0004
# 2 -22.7499 32.0815 -8.7163 -0.0011 -8.8733 0.0001
# 3 18.0468 -8.7163 122.5476 -0.0053 -16.0255 0.0013
# 4 -0.0009 -0.0011 -0.0053 27.5415 0.0008 1.8999
# 5 -0.6111 -8.8733 -16.0255 0.0008 46.4160 0.0001
# 6 0.0004 0.0001 0.0013 1.8999 0.0001 31.6801
#
#
#
# Elastic Compliance Matrix: (Units=1/GPa)
#
#
# Indices 1 2 3 4 5 6 
#
# 1 0.014551 0.010501 -0.001161 0.000001 0.001798 0.000000
# 2 0.010501 0.041825 0.002610 0.000002 0.009035 -0.000001
# 3 -0.001161 0.002610 0.008986 0.000002 0.003586 0.000000
# 4 0.000001 0.000002 0.000002 0.036460 0.000000 -0.002186
# 5 0.001798 0.009035 0.003586 0.000000 0.024533 0.000000
# 6 0.000000 -0.000001 0.000000 -0.002186 0.000000 0.031697
#
#
# Mechanical properties :
#
#
# Convention : Reuss Voigt Hill
#
# Bulk Modulus (GPa) = 11.20299 23.82719 17.51509
# Shear Modulus (GPa) = 30.50528 38.10770 34.30649
#
# Velocity S-wave (km/s) = 3.52071 3.93504 3.73363
# Velocity P-wave (km/s) = 4.59123 5.50708 5.06988
#
# Compressibility (1/GPa) = 0.08926187
#
# Stress axis : x y z
#
# Youngs Moduli (GPa) = 68.72197 23.90907 111.28891
#
# Poissons Ratio (x) = -0.25106 0.12919
# Poissons Ratio (y) = -0.72163 -0.29046
# Poissons Ratio (z) = 0.07978 -0.06240
#
# Static dielectric constant tensor:
#      x y z
#    x 1.937480 0.000000 0.073500 
#    y 0.000000 2.050960 0.000000 
#    z 0.073500 0.000000 1.979380 
# 
# From -- ./inp_files/18030.got.cif
#   From: 2010.05.17/outbox.cif.g08.bks.cpg/sg5_10_cif.got.tgz:18030.got - 2010.06.03 18:56:24.
