data_PCOD9122136
_publ_section_title
;
Structure prediction by ZEFSAII (Michael W. Deem and Ramdas Pophale) SiO2 
 PCOD9122136
Probable space group: C 2
;
_chemical_formula_sum "Si O2"
_cell_formula_units_Z 28
_cell_length_a 10.811865
_cell_length_b 8.801991
_cell_length_c 12.878273
_cell_angle_alpha 90.000000
_cell_angle_beta 65.991493
_cell_angle_gamma 90.000000
_cell_volume 1119.542563
_symmetry_space_group_name_H-M "C 2"
_symmetry_group_IT_number 5
_symmetry_cell_setting 'monoclinic'
loop_
_space_group_symop_operation_xyz
x,y,z
-x,y,-z
1/2+x,1/2+y,z
1/2-x,1/2+y,-z
loop_
_atom_site_type_symbol
_atom_site_label
_atom_site_fract_x
_atom_site_fract_y
_atom_site_fract_z
Si Si1 0.500000 0.058110 0.500000
Si Si2 0.222087 0.941551 0.101738
Si Si3 0.511477 0.662105 0.804260
Si Si4 0.326649 0.856735 0.715884
Si Si5 0.820957 0.567532 0.292417
Si Si6 0.275994 0.253353 0.616082
Si Si7 0.863798 0.637678 0.802444
Si Si8 0.500000 0.872061 0.000000
O O1 0.378465 0.169827 0.503250
O O2 0.426516 0.946570 0.605201
O O3 0.080490 0.023157 0.126296
O O4 0.264993 0.005875 0.200805
O O5 0.190437 0.762354 0.099747
O O6 0.370436 0.962438 0.999524
O O7 0.411037 0.758394 0.767201
O O8 0.642476 0.652175 0.684638
O O9 0.549904 0.764095 0.889921
O O10 0.236858 0.738620 0.682187
O O11 0.268191 0.993103 0.808007
O O12 0.769214 0.428039 0.383696
O O13 0.982724 0.583475 0.233780
O O14 0.359447 0.236586 0.696032
#
# Coordination Sequence:
#
# PCOD9122136 Si02
#       8
#     2   4   4   4   4   4   4   2
#     4  10  24  42  66 102 138 182 242 284 350 422
#     4  10  24  39  66  98 130 185 226 285 345 414
#     4  11  23  45  70  98 145 180 232 294 348 419
#     4  10  22  42  66 101 135 179 232 293 341 420
#     4  10  20  40  67  92 136 179 222 289 347 406
#     4  10  21  44  62  96 140 179 228 288 341 411
#     4  10  19  38  66  94 129 177 220 281 341 397
#     4  12  22  44  68 102 140 182 232 286 360 422
#
# _framework density 25.010214000000001
#
# number of rings (size 3 to 8) (size 9 to 14) (size 15 to 20)
#    0.000    1.714    4.286    0.000    4.000    2.857 
#    5.143    0.000    0.000    1.714    0.000    0.000 
#    0.000    0.000    0.000    0.000    0.000    0.000 
#
# Total GULP energy -78024.008357 kJ/mol
# GULP energy per Si atom -5573.143454 kJ/mol
# Density = 2.495329 g / cm^3
# Si number density = 25.010214 Si / 1000 Ang^3
#
#
#
# Elastic Constant Matrix: (Units=GPa)
#
#
# Indices 1 2 3 4 5 6 
#
# 1 105.8473 80.7515 12.3466 0.0000 -21.8400 0.0000
# 2 80.7515 178.3522 39.6923 0.0000 -45.8808 0.0000
# 3 12.3466 39.6923 63.1481 0.0000 -33.0965 0.0000
# 4 0.0000 0.0000 0.0000 26.3211 0.0000 -12.8530
# 5 -21.8400 -45.8808 -33.0965 0.0000 45.2850 0.0000
# 6 0.0000 0.0000 0.0000 -12.8530 0.0000 48.1119
#
#
#
# Elastic Compliance Matrix: (Units=1/GPa)
#
#
# Indices 1 2 3 4 5 6 
#
# 1 0.014661 -0.006630 0.002409 0.000000 0.002114 0.000000
# 2 -0.006630 0.010638 -0.002297 0.000000 0.005902 0.000000
# 3 0.002409 -0.002297 0.026254 0.000000 0.018022 0.000000
# 4 0.000000 0.000000 0.000000 0.043692 0.000000 0.011672
# 5 0.002114 0.005902 0.018022 0.000000 0.042252 0.000000
# 6 0.000000 0.000000 0.000000 0.011672 0.000000 0.023903
#
#
# Mechanical properties :
#
#
# Convention : Reuss Voigt Hill
#
# Bulk Modulus (GPa) = 25.96324 68.10316 47.03320
# Shear Modulus (GPa) = 26.69828 38.24741 32.47285
#
# Velocity S-wave (km/s) = 3.27080 3.91483 3.60722
# Velocity P-wave (km/s) = 4.96666 6.90824 6.01629
#
# Compressibility (1/GPa) = 0.03851600
#
# Stress axis : x y z
#
# Youngs Moduli (GPa) = 68.20794 93.99976 38.08880
#
# Poissons Ratio (x) = 0.62325 -0.09175
# Poissons Ratio (y) = 0.45224 0.08750
# Poissons Ratio (z) = -0.16430 0.21595
#
# Static dielectric constant tensor:
#      x y z
#    x 2.026400 0.000000 0.032700 
#    y 0.000000 2.081980 0.000000 
#    z 0.032700 0.000000 2.187780 
# 
# From -- ./inp_files/52396.got.cif
#   From: 2010.05.17/outbox.cif.g08.bks.cpg/sg5_27_cif.got.tgz:52396.got - 2010.06.03 18:56:24.
