data_PCOD9122858
_publ_section_title
;
Structure prediction by ZEFSAII (Michael W. Deem and Ramdas Pophale) SiO2 
 PCOD9122858
Probable space group: C 2
;
_chemical_formula_sum "Si O2"
_cell_formula_units_Z 22
_cell_length_a 13.694439
_cell_length_b 14.580999
_cell_length_c 5.248975
_cell_angle_alpha 90.000000
_cell_angle_beta 64.863874
_cell_angle_gamma 90.000000
_cell_volume 948.853370
_symmetry_space_group_name_H-M "C 2"
_symmetry_group_IT_number 5
_symmetry_cell_setting 'monoclinic'
loop_
_space_group_symop_operation_xyz
x,y,z
-x,y,-z
1/2+x,1/2+y,z
1/2-x,1/2+y,-z
loop_
_atom_site_type_symbol
_atom_site_label
_atom_site_fract_x
_atom_site_fract_y
_atom_site_fract_z
Si Si1 0.500000 0.715641 0.500000
Si Si2 0.064567 0.959574 0.686666
Si Si3 0.175346 0.815865 0.839609
Si Si4 0.370115 0.806292 0.245886
Si Si5 0.248059 0.461018 0.854935
Si Si6 0.278792 0.656876 0.964329
O O1 0.478227 0.776321 0.272775
O O2 0.391048 0.659969 0.676678
O O3 0.086985 0.853417 0.741825
O O4 0.185560 0.989522 0.474012
O O5 0.000000 0.971783 0.500000
O O6 0.000000 0.002372 0.000000
O O7 0.289906 0.825517 0.572361
O O8 0.182330 0.713693 0.936833
O O9 0.179540 0.887869 0.067243
O O10 0.355704 0.900205 0.102436
O O11 0.314353 0.719359 0.165068
O O12 0.241115 0.552742 0.027545
#
# Coordination Sequence:
#
# PCOD9122858 Si02
#       6
#     2   4   4   4   4   4
#     4  10  20  36  60  92 126 158 206 264 318 382
#     4  11  21  37  62  89 125 163 202 251 314 377
#     4   9  20  38  56  85 123 165 202 255 311 375
#     4   9  20  38  58  86 127 167 204 259 325 377
#     4  10  21  38  62  93 125 165 206 255 324 375
#     4  10  21  37  61  91 122 160 210 263 313 378
#
# _framework density 23.185877999999999
#
# number of rings (size 3 to 8) (size 9 to 14) (size 15 to 20)
#    0.000    2.182    1.818    0.545    1.273    5.818 
#    3.273    0.000    2.000    4.364    0.000    0.000 
#    0.000    0.000    0.000    0.000    0.000    0.000 
#
# Total GULP energy -61269.142174 kJ/mol
# GULP energy per Si atom -5569.922016 kJ/mol
# Density = 2.313311 g / cm^3
# Si number density = 23.185878 Si / 1000 Ang^3
#
#
#
# Elastic Constant Matrix: (Units=GPa)
#
#
# Indices 1 2 3 4 5 6 
#
# 1 69.4084 59.5326 10.7957 0.0000 33.4248 0.0000
# 2 59.5326 166.9886 26.6775 0.0000 19.8727 0.0000
# 3 10.7957 26.6775 83.4326 0.0000 18.2822 0.0000
# 4 0.0000 0.0000 0.0000 12.1517 0.0000 -1.5493
# 5 33.4248 19.8727 18.2822 0.0000 39.9929 0.0000
# 6 0.0000 0.0000 0.0000 -1.5493 0.0000 31.7600
#
#
#
# Elastic Compliance Matrix: (Units=1/GPa)
#
#
# Indices 1 2 3 4 5 6 
#
# 1 0.035007 -0.010062 0.004449 0.000000 -0.026292 0.000000
# 2 -0.010062 0.009429 -0.002810 0.000000 0.005009 0.000000
# 3 0.004449 -0.002810 0.014244 0.000000 -0.008833 0.000000
# 4 0.000000 0.000000 0.000000 0.082808 0.000000 0.004040
# 5 -0.026292 0.005009 -0.008833 0.000000 0.048527 0.000000
# 6 0.000000 0.000000 0.000000 0.004040 0.000000 0.031683
#
#
# Mechanical properties :
#
#
# Convention : Reuss Voigt Hill
#
# Bulk Modulus (GPa) = 23.90495 57.09348 40.49921
# Shear Modulus (GPa) = 19.80277 31.63584 25.71931
#
# Velocity S-wave (km/s) = 2.92565 3.69785 3.33418
# Velocity P-wave (km/s) = 4.66316 6.55056 5.68572
#
# Compressibility (1/GPa) = 0.04183235
#
# Stress axis : x y z
#
# Youngs Moduli (GPa) = 28.56563 106.06132 70.20357
#
# Poissons Ratio (x) = 1.06720 -0.31232
# Poissons Ratio (y) = 0.28743 0.19730
# Poissons Ratio (z) = -0.12708 0.29808
#
# Static dielectric constant tensor:
#      x y z
#    x 1.994540 0.000000 -0.025300 
#    y 0.000000 1.890610 0.000000 
#    z -0.025300 0.000000 2.014660 
# 
# From -- ./inp_files/8267.got.cif
#   From: 2010.05.17/outbox.cif.g08.bks.cpg/sg5_5_cif.got.tgz:8267.got - 2010.06.03 18:56:24.
