data_PCOD9122770
_publ_section_title
;
Structure prediction by ZEFSAII (Michael W. Deem and Ramdas Pophale) SiO2 
 PCOD9122770
Probable space group: C 2
;
_chemical_formula_sum "Si O2"
_cell_formula_units_Z 20
_cell_length_a 14.399687
_cell_length_b 5.429073
_cell_length_c 28.169383
_cell_angle_alpha 90.000000
_cell_angle_beta 159.027399
_cell_angle_gamma 90.000000
_cell_volume 788.213404
_symmetry_space_group_name_H-M "C 2"
_symmetry_group_IT_number 5
_symmetry_cell_setting 'monoclinic'
loop_
_space_group_symop_operation_xyz
x,y,z
-x,y,-z
1/2+x,1/2+y,z
1/2-x,1/2+y,-z
loop_
_atom_site_type_symbol
_atom_site_label
_atom_site_fract_x
_atom_site_fract_y
_atom_site_fract_z
Si Si1 0.538340 0.591280 0.669478
Si Si2 0.910180 0.038885 0.768622
Si Si3 0.989444 0.424286 0.049591
Si Si4 0.898209 0.589417 0.280298
Si Si5 0.190780 0.043774 0.634624
O O1 0.428582 0.335395 0.636525
O O2 0.553261 0.569246 0.620465
O O3 0.444310 0.838866 0.649072
O O4 0.835241 0.580622 0.830732
O O5 0.720663 0.060132 0.723481
O O6 0.884287 0.307988 0.732267
O O7 0.193411 0.960582 0.922218
O O8 0.831153 0.809565 0.697722
O O9 0.000000 0.504214 0.000000
O O10 0.147239 0.163238 0.128682
O O11 0.000000 0.006644 0.500000
#
# Coordination Sequence:
#
# PCOD9122770 Si02
#       5
#     4   4   4   4   4
#     4   8  18  32  52  77 105 139 178 221 274 318
#     4  10  21  33  57  83 110 144 184 228 276 329
#     4  10  22  34  55  86 121 142 177 222 290 340
#     4   8  18  31  50  75 106 139 177 213 268 325
#     4  10  20  36  57  81 107 144 194 236 264 313
#
# _framework density 25.373840000000001
#
# number of rings (size 3 to 8) (size 9 to 14) (size 15 to 20)
#    1.200    1.600    0.000    0.600    8.400    0.800 
#    0.000    0.000    0.000    2.400    0.000    0.000 
#    0.000    0.000    0.000    0.000    0.000    0.000 
#
# Total GULP energy -55764.472019 kJ/mol
# GULP energy per Si atom -5576.447202 kJ/mol
# Density = 2.531609 g / cm^3
# Si number density = 25.373840 Si / 1000 Ang^3
#
#
#
# Elastic Constant Matrix: (Units=GPa)
#
#
# Indices 1 2 3 4 5 6 
#
# 1 69.2695 7.3780 48.7906 0.0016 -20.0660 -0.0032
# 2 7.3780 212.3607 71.3147 -0.0115 7.8290 -0.0072
# 3 48.7906 71.3147 142.1615 0.0017 -26.1182 0.0278
# 4 0.0016 -0.0115 0.0017 40.6084 0.0111 -4.8820
# 5 -20.0660 7.8290 -26.1182 0.0111 33.0529 -0.0042
# 6 -0.0032 -0.0072 0.0278 -4.8820 -0.0042 -7.7359
#
#
#
# Elastic Compliance Matrix: (Units=1/GPa)
#
#
# Indices 1 2 3 4 5 6 
#
# 1 0.020976 0.001155 -0.006422 -0.000006 0.007386 -0.000033
# 2 0.001155 0.006272 -0.004313 0.000001 -0.004192 -0.000020
# 3 -0.006422 -0.004313 0.012720 0.000002 0.007174 0.000047
# 4 -0.000006 0.000001 0.000002 0.022889 -0.000012 -0.014445
# 5 0.007386 -0.004192 0.007174 -0.000012 0.041401 0.000012
# 6 -0.000033 -0.000020 0.000047 -0.014445 0.000012 -0.120152
#
#
# Mechanical properties :
#
#
# Convention : Reuss Voigt Hill
#
# Bulk Modulus (GPa) = 48.05540 75.41758 61.73649
# Shear Modulus (GPa) = 490.20309 32.93898 261.57104
#
# Velocity S-wave (km/s) = 13.91444 3.60689 10.16419
# Velocity P-wave (km/s) = 16.64719 6.86537 12.73307
#
# Compressibility (1/GPa) = 0.02080932
#
# Stress axis : x y z
#
# Youngs Moduli (GPa) = 47.67313 159.44547 78.61736
#
# Poissons Ratio (x) = -0.18423 0.50486
# Poissons Ratio (y) = -0.05508 0.33907
# Poissons Ratio (z) = 0.30614 0.68768
#
# Static dielectric constant tensor:
#      x y z
#    x 1.952880 0.000030 0.022370 
#    y 0.000030 2.290370 -0.000020 
#    z 0.022370 -0.000020 1.957850 
# 
# From -- ./inp_files/46996.got.cif
#   From: 2010.05.17/outbox.cif.g08.bks.cpg/sg5_24_cif.got.tgz:46996.got - 2010.06.03 18:56:24.
