data_PCOD9122837
_publ_section_title
;
Structure prediction by ZEFSAII (Michael W. Deem and Ramdas Pophale) SiO2 
 PCOD9122837
Probable space group: C 2
;
_chemical_formula_sum "Si O2"
_cell_formula_units_Z 18
_cell_length_a 18.542722
_cell_length_b 5.157817
_cell_length_c 7.808890
_cell_angle_alpha 90.000000
_cell_angle_beta 82.790397
_cell_angle_gamma 90.000000
_cell_volume 740.937209
_symmetry_space_group_name_H-M "C 2"
_symmetry_group_IT_number 5
_symmetry_cell_setting 'monoclinic'
loop_
_space_group_symop_operation_xyz
x,y,z
-x,y,-z
1/2+x,1/2+y,z
1/2-x,1/2+y,-z
loop_
_atom_site_type_symbol
_atom_site_label
_atom_site_fract_x
_atom_site_fract_y
_atom_site_fract_z
Si Si1 0.090826 0.686780 0.749324
Si Si2 0.652490 0.038769 0.056351
Si Si3 0.700712 0.539116 0.213090
Si Si4 0.500000 0.408872 0.500000
Si Si5 0.358343 0.668227 0.438593
O O1 0.087801 0.612278 0.947888
O O2 0.017121 0.741844 0.664447
O O3 0.129143 0.450823 0.637914
O O4 0.136928 0.953761 0.713039
O O5 0.723004 0.046603 0.909337
O O6 0.667800 0.253922 0.195630
O O7 0.651376 0.755801 0.136076
O O8 0.705969 0.618181 0.409964
O O9 0.429202 0.587057 0.529423
#
# Coordination Sequence:
#
# PCOD9122837 Si02
#       5
#     4   4   4   2   4
#     4  10  20  36  60  79 112 146 187 226 272 321
#     4  10  21  37  57  84 117 144 177 229 282 330
#     4  10  21  37  57  84 117 144 177 229 282 330
#     4   8  22  36  60  76 118 136 196 226 274 304
#     4  10  20  36  60  79 112 146 187 226 272 321
#
# _framework density 24.293555000000001
#
# number of rings (size 3 to 8) (size 9 to 14) (size 15 to 20)
#    1.333    0.889    0.000    3.333    0.000    1.778 
#    0.000    1.111    0.000    0.000    0.000    0.000 
#    0.000    0.000    0.000    0.000    0.000    0.000 
#
# Total GULP energy -50262.906237 kJ/mol
# GULP energy per Si atom -5584.767360 kJ/mol
# Density = 2.423826 g / cm^3
# Si number density = 24.293555 Si / 1000 Ang^3
#
#
#
# Elastic Constant Matrix: (Units=GPa)
#
#
# Indices 1 2 3 4 5 6 
#
# 1 61.8567 21.3384 9.9529 0.0000 14.5979 0.0000
# 2 21.3384 83.7996 4.6292 0.0000 -1.9205 0.0000
# 3 9.9529 4.6292 57.8829 0.0000 7.1766 0.0000
# 4 0.0000 0.0000 0.0000 31.3772 0.0000 9.8757
# 5 14.5979 -1.9205 7.1766 0.0000 37.4424 0.0000
# 6 0.0000 0.0000 0.0000 9.8757 0.0000 27.1361
#
#
#
# Elastic Compliance Matrix: (Units=1/GPa)
#
#
# Indices 1 2 3 4 5 6 
#
# 1 0.020108 -0.005182 -0.002088 0.000000 -0.007705 0.000000
# 2 -0.005182 0.013346 -0.000524 0.000000 0.002805 0.000000
# 3 -0.002088 -0.000524 0.018008 0.000000 -0.002664 0.000000
# 4 0.000000 0.000000 0.000000 0.035993 0.000000 -0.013099
# 5 -0.007705 0.002805 -0.002664 0.000000 0.030366 0.000000
# 6 0.000000 0.000000 0.000000 -0.013099 0.000000 0.041618
#
#
# Mechanical properties :
#
#
# Convention : Reuss Voigt Hill
#
# Bulk Modulus (GPa) = 27.87495 30.59779 29.23637
# Shear Modulus (GPa) = 26.74014 30.36572 28.55293
#
# Velocity S-wave (km/s) = 3.32129 3.53930 3.43203
# Velocity P-wave (km/s) = 5.11929 5.41521 5.26933
#
# Compressibility (1/GPa) = 0.03587451
#
# Stress axis : x y z
#
# Youngs Moduli (GPa) = 49.73089 74.92946 55.53227
#
# Poissons Ratio (x) = 0.38825 0.11594
# Poissons Ratio (y) = 0.25768 0.02911
# Poissons Ratio (z) = 0.10383 0.03928
#
# Static dielectric constant tensor:
#      x y z
#    x 2.019220 0.000000 -0.000520 
#    y 0.000000 1.873440 0.000000 
#    z -0.000520 0.000000 1.955790 
# 
# From -- ./inp_files/10546.got.cif
#   From: 2010.05.17/outbox.cif.g08.bks.cpg/sg5_6_cif.got.tgz:10546.got - 2010.06.03 18:56:24.
