data_PCOD9122888
_publ_section_title
;
Structure prediction by ZEFSAII (Michael W. Deem and Ramdas Pophale) SiO2 
 PCOD9122888
Probable space group: C 2
;
_chemical_formula_sum "Si O2"
_cell_formula_units_Z 28
_cell_length_a 17.896561
_cell_length_b 7.092016
_cell_length_c 13.099888
_cell_angle_alpha 90.000000
_cell_angle_beta 43.795906
_cell_angle_gamma 90.000000
_cell_volume 1150.722096
_symmetry_space_group_name_H-M "C 2"
_symmetry_group_IT_number 5
_symmetry_cell_setting 'monoclinic'
loop_
_space_group_symop_operation_xyz
x,y,z
-x,y,-z
1/2+x,1/2+y,z
1/2-x,1/2+y,-z
loop_
_atom_site_type_symbol
_atom_site_label
_atom_site_fract_x
_atom_site_fract_y
_atom_site_fract_z
Si Si1 0.329591 0.878410 0.508367
Si Si2 0.816865 0.450092 0.183276
Si Si3 0.026253 0.205519 0.240151
Si Si4 0.294451 0.592797 0.086846
Si Si5 0.611853 0.181499 0.705404
Si Si6 0.387222 0.114629 0.894667
Si Si7 0.340092 0.742883 0.702131
O O1 0.397613 0.720377 0.377050
O O2 0.203034 0.831547 0.642967
O O3 0.382480 0.872788 0.568503
O O4 0.344993 0.073707 0.436097
O O5 0.802056 0.230183 0.176981
O O6 0.893416 0.525413 0.197474
O O7 0.707061 0.562558 0.311973
O O8 0.848559 0.539538 0.042501
O O9 0.060471 0.426608 0.204369
O O10 0.082890 0.150410 0.290232
O O11 0.090417 0.113055 0.083133
O O12 0.208100 0.673148 0.088038
O O13 0.250276 0.384807 0.157895
O O14 0.490537 0.248864 0.805145
#
# Coordination Sequence:
#
# PCOD9122888 Si02
#       7
#     4   4   4   4   4   4   4
#     4  10  22  39  58  82 122 166 200 249 313 384
#     4  10  20  36  62  89 119 152 201 255 312 364
#     4   9  18  36  61  87 117 155 194 253 318 360
#     4  10  20  36  66  92 114 154 206 260 304 374
#     4  10  22  39  58  82 122 166 200 249 313 384
#     4   9  18  36  61  87 117 155 194 253 318 360
#     4  10  20  36  62  89 119 152 201 255 312 364
#
# _framework density 24.332546000000001
#
# number of rings (size 3 to 8) (size 9 to 14) (size 15 to 20)
#    0.000    2.286    1.429    0.857    2.000    0.000 
#    5.143    0.000    0.000    0.000    0.000    0.000 
#    0.000    0.000    0.000    0.000    0.000    0.000 
#
# Total GULP energy -78053.296865 kJ/mol
# GULP energy per Si atom -5575.235490 kJ/mol
# Density = 2.427716 g / cm^3
# Si number density = 24.332546 Si / 1000 Ang^3
#
#
#
# Elastic Constant Matrix: (Units=GPa)
#
#
# Indices 1 2 3 4 5 6 
#
# 1 27.1868 9.7531 -12.7897 -0.0001 4.4815 0.0000
# 2 9.7531 71.9477 4.9838 0.0003 -11.6266 0.0000
# 3 -12.7897 4.9838 46.2750 -0.0001 -5.9100 0.0001
# 4 -0.0001 0.0003 -0.0001 27.7715 -0.0001 -2.5548
# 5 4.4815 -11.6266 -5.9100 -0.0001 45.4252 0.0000
# 6 0.0000 0.0000 0.0001 -2.5548 0.0000 24.9246
#
#
#
# Elastic Compliance Matrix: (Units=1/GPa)
#
#
# Indices 1 2 3 4 5 6 
#
# 1 0.046657 -0.008034 0.013128 0.000000 -0.004951 0.000000
# 2 -0.008034 0.015938 -0.003371 0.000000 0.004433 0.000000
# 3 0.013128 -0.003371 0.025754 0.000000 0.001193 0.000000
# 4 0.000000 0.000000 0.000000 0.036351 0.000000 0.003726
# 5 -0.004951 0.004433 0.001193 0.000000 0.023793 0.000000
# 6 0.000000 0.000000 0.000000 0.003726 0.000000 0.040503
#
#
# Mechanical properties :
#
#
# Convention : Reuss Voigt Hill
#
# Bulk Modulus (GPa) = 10.89386 16.58932 13.74159
# Shear Modulus (GPa) = 23.13239 29.18842 26.16040
#
# Velocity S-wave (km/s) = 3.08665 3.46723 3.28246
# Velocity P-wave (km/s) = 4.14608 4.78136 4.47501
#
# Compressibility (1/GPa) = 0.09179487
#
# Stress axis : x y z
#
# Youngs Moduli (GPa) = 21.43306 62.74305 38.82932
#
# Poissons Ratio (x) = 0.50409 -0.50976
# Poissons Ratio (y) = 0.17220 0.13089
# Poissons Ratio (z) = -0.28138 0.21150
#
# Static dielectric constant tensor:
#      x y z
#    x 1.996760 0.000000 -0.035910 
#    y 0.000000 1.969220 0.000000 
#    z -0.035910 0.000000 2.046800 
# 
# From -- ./inp_files/55718.got.cif
#   From: 2010.05.17/outbox.cif.g08.bks.cpg/sg5_28_cif.got.tgz:55718.got - 2010.06.03 18:56:24.
