data_PCOD9122281
_publ_section_title
;
Structure prediction by ZEFSAII (Michael W. Deem and Ramdas Pophale) SiO2 
 PCOD9122281
Probable space group: C 2
;
_chemical_formula_sum "Si O2"
_cell_formula_units_Z 30
_cell_length_a 15.729522
_cell_length_b 11.890557
_cell_length_c 19.145305
_cell_angle_alpha 90.000000
_cell_angle_beta 24.670807
_cell_angle_gamma 90.000000
_cell_volume 1494.640504
_symmetry_space_group_name_H-M "C 2"
_symmetry_group_IT_number 5
_symmetry_cell_setting 'monoclinic'
loop_
_space_group_symop_operation_xyz
x,y,z
-x,y,-z
1/2+x,1/2+y,z
1/2-x,1/2+y,-z
loop_
_atom_site_type_symbol
_atom_site_label
_atom_site_fract_x
_atom_site_fract_y
_atom_site_fract_z
Si Si1 0.647843 0.923990 0.164520
Si Si2 0.213828 0.814914 0.654407
Si Si3 0.630756 0.129561 0.617773
Si Si4 0.835777 0.244442 0.335988
Si Si5 0.500000 0.360409 0.500000
Si Si6 0.054391 0.010850 0.177112
Si Si7 0.310514 0.776323 0.736140
Si Si8 0.077374 0.030483 0.316184
O O1 0.473716 0.845987 0.260509
O O2 0.740620 0.851268 0.158603
O O3 0.539980 0.038412 0.270226
O O4 0.802539 0.960171 0.988883
O O5 0.083790 0.715520 0.715831
O O6 0.199165 0.810284 0.748512
O O7 0.448094 0.795811 0.458246
O O8 0.146109 0.933838 0.675422
O O9 0.687031 0.204905 0.509385
O O10 0.840561 0.067178 0.482769
O O11 0.690635 0.285396 0.382494
O O12 0.985263 0.138184 0.213053
O O13 0.572726 0.439221 0.381042
O O14 0.144458 0.997971 0.187798
O O15 0.297434 0.642593 0.757460
#
# Coordination Sequence:
#
# PCOD9122281 Si02
#       8
#     4   4   4   4   2   4   4   4
#     4  12  23  41  66  93 130 174 209 263 327 388
#     4  10  20  37  64  97 120 162 207 272 310 373
#     4  10  20  39  69  92 123 161 226 260 316 374
#     4  11  24  42  64 101 124 169 220 269 317 384
#     4  12  22  40  74  96 128 166 222 278 314 366
#     4  11  25  40  62  90 141 171 207 253 333 398
#     4  10  20  37  67  95 123 156 224 266 306 366
#     4  10  19  40  65  96 120 164 217 271 305 378
#
# _framework density 20.071714
#
# number of rings (size 3 to 8) (size 9 to 14) (size 15 to 20)
#    0.000    1.333    5.333    4.000    1.867    2.667 
#    0.000    0.667    0.000    0.000    0.000    0.000 
#    0.000    0.000    0.000    0.000    0.000    0.000 
#
# Total GULP energy -83789.944008 kJ/mol
# GULP energy per Si atom -5585.996267 kJ/mol
# Density = 2.002603 g / cm^3
# Si number density = 20.071714 Si / 1000 Ang^3
#
#
#
# Elastic Constant Matrix: (Units=GPa)
#
#
# Indices 1 2 3 4 5 6 
#
# 1 116.3247 55.6339 27.8597 0.0090 28.1373 -0.0061
# 2 55.6339 99.6192 35.7636 0.0031 12.1802 0.0071
# 3 27.8597 35.7636 66.9233 -0.0207 25.2763 0.0078
# 4 0.0090 0.0031 -0.0207 18.4859 0.0141 14.0699
# 5 28.1373 12.1802 25.2763 0.0141 21.9898 -0.0035
# 6 -0.0061 0.0071 0.0078 14.0699 -0.0035 41.4365
#
#
#
# Elastic Compliance Matrix: (Units=1/GPa)
#
#
# Indices 1 2 3 4 5 6 
#
# 1 0.017488 -0.009275 0.007401 0.000028 -0.025746 -0.000009
# 2 -0.009275 0.017363 -0.011076 -0.000029 0.014982 0.000009
# 3 0.007401 -0.011076 0.033648 0.000099 -0.042011 -0.000040
# 4 0.000028 -0.000029 0.000099 0.072948 -0.000184 -0.024770
# 5 -0.025746 0.014982 -0.042011 -0.000184 0.118410 0.000074
# 6 -0.000009 0.000009 -0.000040 -0.024770 0.000074 0.032544
#
#
# Mechanical properties :
#
#
# Convention : Reuss Voigt Hill
#
# Bulk Modulus (GPa) = 23.47596 57.93128 40.70362
# Shear Modulus (GPa) = 15.03754 27.28977 21.16366
#
# Velocity S-wave (km/s) = 2.74010 3.69129 3.25068
# Velocity P-wave (km/s) = 4.66179 6.86239 5.86620
#
# Compressibility (1/GPa) = 0.04259677
#
# Stress axis : x y z
#
# Youngs Moduli (GPa) = 57.18307 57.59514 29.71947
#
# Poissons Ratio (x) = 0.53421 -0.21994
# Poissons Ratio (y) = 0.53039 0.32917
# Poissons Ratio (z) = -0.42318 0.63793
#
# Static dielectric constant tensor:
#      x y z
#    x 1.706930 0.000000 0.009500 
#    y 0.000000 1.711500 0.000000 
#    z 0.009500 0.000000 1.744190 
# 
# From -- ./inp_files/30925.got.cif
#   From: 2010.05.17/outbox.cif.g08.bks.cpg/sg5_16_cif.got.tgz:30925.got - 2010.06.03 18:56:24.
