data_PCOD9122706
_publ_section_title
;
Structure prediction by ZEFSAII (Michael W. Deem and Ramdas Pophale) SiO2 
 PCOD9122706
Probable space group: C 2
;
_chemical_formula_sum "Si O2"
_cell_formula_units_Z 32
_cell_length_a 14.247402
_cell_length_b 7.710398
_cell_length_c 21.973412
_cell_angle_alpha 90.000000
_cell_angle_beta 33.292567
_cell_angle_gamma 90.000000
_cell_volume 1324.996053
_symmetry_space_group_name_H-M "C 2"
_symmetry_group_IT_number 5
_symmetry_cell_setting 'monoclinic'
loop_
_space_group_symop_operation_xyz
x,y,z
-x,y,-z
1/2+x,1/2+y,z
1/2-x,1/2+y,-z
loop_
_atom_site_type_symbol
_atom_site_label
_atom_site_fract_x
_atom_site_fract_y
_atom_site_fract_z
Si Si1 0.009531 0.886870 0.233840
Si Si2 0.425153 0.602326 0.476121
Si Si3 0.940171 0.629869 0.910150
Si Si4 0.337029 0.009894 0.552006
Si Si5 0.355521 0.477084 0.001803
Si Si6 0.717875 0.578672 0.216765
Si Si7 0.770673 0.990452 0.182496
Si Si8 0.592455 0.123886 0.607834
O O1 0.024268 0.754536 0.168810
O O2 0.838619 0.000270 0.315256
O O3 0.951293 0.780212 0.324736
O O4 0.166708 0.992121 0.179729
O O5 0.500000 0.548563 0.500000
O O6 0.391876 0.813088 0.499492
O O7 0.561048 0.561446 0.349694
O O8 0.237322 0.522299 0.567389
O O9 0.103794 0.525433 0.846577
O O10 0.881032 0.770768 0.991608
O O11 0.780489 0.515544 0.976320
O O12 0.500000 0.073733 0.500000
O O13 0.313171 0.133407 0.507272
O O14 0.548159 0.544331 0.887066
O O15 0.286208 0.546444 0.103422
O O16 0.749130 0.783947 0.193970
O O17 0.595324 0.054661 0.305180
#
# Coordination Sequence:
#
# PCOD9122706 Si02
#       8
#     4   4   4   4   4   4   4   4
#     4  11  24  40  66  99 132 173 221 272 334 398
#     4  10  20  35  62  91 127 171 209 255 325 405
#     4  11  24  45  68  96 130 171 225 285 337 401
#     4  10  20  36  62  91 128 174 209 255 325 399
#     4  10  24  43  65  92 123 169 227 275 340 390
#     4  11  22  41  65  95 130 172 218 266 338 408
#     4  10  22  42  65  85 126 175 212 273 337 392
#     4  11  20  38  64  94 133 165 214 267 325 399
#
# _framework density 24.151018000000001
#
# number of rings (size 3 to 8) (size 9 to 14) (size 15 to 20)
#    0.000    1.500    3.750    2.250    3.500    1.000 
#    0.000    1.875    2.750    0.000    0.000    0.000 
#    0.000    0.000    0.000    0.000    0.000    0.000 
#
# Total GULP energy -89229.196820 kJ/mol
# GULP energy per Si atom -5576.824801 kJ/mol
# Density = 2.409605 g / cm^3
# Si number density = 24.151018 Si / 1000 Ang^3
#
#
#
# Elastic Constant Matrix: (Units=GPa)
#
#
# Indices 1 2 3 4 5 6 
#
# 1 119.8626 1.7739 51.6958 0.0000 -33.7717 0.0000
# 2 1.7739 21.8595 10.8734 0.0000 -4.7551 0.0000
# 3 51.6958 10.8734 112.3413 -0.0001 -25.7391 0.0000
# 4 0.0000 0.0000 -0.0001 21.6107 0.0000 3.1976
# 5 -33.7717 -4.7551 -25.7391 0.0000 65.2813 0.0000
# 6 0.0000 0.0000 0.0000 3.1976 0.0000 37.6117
#
#
#
# Elastic Compliance Matrix: (Units=1/GPa)
#
#
# Indices 1 2 3 4 5 6 
#
# 1 0.011471 0.002251 -0.004506 0.000000 0.004321 0.000000
# 2 0.002251 0.048702 -0.005134 0.000000 0.002688 0.000000
# 3 -0.004506 -0.005134 0.011930 0.000000 0.001999 0.000000
# 4 0.000000 0.000000 0.000000 0.046863 0.000000 -0.003984
# 5 0.004321 0.002688 0.001999 0.000000 0.018538 0.000000
# 6 0.000000 0.000000 0.000000 -0.003984 0.000000 0.026926
#
#
# Mechanical properties :
#
#
# Convention : Reuss Voigt Hill
#
# Bulk Modulus (GPa) = 17.44461 42.52774 29.98618
# Shear Modulus (GPa) = 25.21227 37.54877 31.38052
#
# Velocity S-wave (km/s) = 3.23451 3.94731 3.60855
# Velocity P-wave (km/s) = 4.60307 6.19857 5.45942
#
# Compressibility (1/GPa) = 0.05732428
#
# Stress axis : x y z
#
# Youngs Moduli (GPa) = 87.17955 20.53286 83.82349
#
# Poissons Ratio (x) = -0.04621 0.37772
# Poissons Ratio (y) = -0.19621 0.43033
# Poissons Ratio (z) = 0.39284 0.10541
#
# Static dielectric constant tensor:
#      x y z
#    x 2.029490 0.000000 -0.045740 
#    y 0.000000 1.975310 0.000000 
#    z -0.045740 0.000000 1.931200 
# 
# From -- ./inp_files/54196.got.cif
#   From: 2010.05.17/outbox.cif.g08.bks.cpg/sg5_28_cif.got.tgz:54196.got - 2010.06.03 18:56:24.
