data_PCOD9122793
_publ_section_title
;
Structure prediction by ZEFSAII (Michael W. Deem and Ramdas Pophale) SiO2 
 PCOD9122793
Probable space group: C 2
;
_chemical_formula_sum "Si O2"
_cell_formula_units_Z 28
_cell_length_a 20.913324
_cell_length_b 8.681580
_cell_length_c 12.524399
_cell_angle_alpha 90.000000
_cell_angle_beta 31.474778
_cell_angle_gamma 90.000000
_cell_volume 1187.276039
_symmetry_space_group_name_H-M "C 2"
_symmetry_group_IT_number 5
_symmetry_cell_setting 'monoclinic'
loop_
_space_group_symop_operation_xyz
x,y,z
-x,y,-z
1/2+x,1/2+y,z
1/2-x,1/2+y,-z
loop_
_atom_site_type_symbol
_atom_site_label
_atom_site_fract_x
_atom_site_fract_y
_atom_site_fract_z
Si Si1 0.642742 0.588930 0.473494
Si Si2 0.040505 0.875573 0.125334
Si Si3 0.892411 0.171034 0.069683
Si Si4 0.099916 0.592656 0.771090
Si Si5 0.395707 0.167266 0.789763
Si Si6 0.992609 0.376778 0.278027
Si Si7 0.661548 0.293379 0.343374
O O1 0.545868 0.488726 0.681625
O O2 0.768760 0.600224 0.360047
O O3 0.585891 0.757655 0.540098
O O4 0.660870 0.478798 0.344753
O O5 0.129259 0.768284 0.069806
O O6 0.951623 0.759122 0.190218
O O7 0.116983 0.991236 0.943834
O O8 0.761984 0.240132 0.286198
O O9 0.000000 0.185132 0.000000
O O10 0.932025 0.273102 0.912218
O O11 0.091678 0.484239 0.678526
O O12 0.000000 0.534241 0.000000
O O13 0.531125 0.229028 0.565147
O O14 0.314632 0.212820 0.804350
O O15 0.416904 0.989940 0.787161
#
# Coordination Sequence:
#
# PCOD9122793 Si02
#       7
#     4   4   4   4   4   4   4
#     4  10  20  36  58  84 115 160 199 244 302 353
#     4   9  21  37  56  81 118 159 197 238 293 358
#     4  11  22  37  58  88 120 154 195 243 295 348
#     4  11  20  33  55  88 125 155 193 243 295 353
#     4   9  21  41  59  82 115 157 199 242 298 352
#     4  10  21  36  56  85 118 152 197 242 296 359
#     4  10  21  40  62  82 116 155 197 249 295 351
#
# _framework density 23.583394999999999
#
# number of rings (size 3 to 8) (size 9 to 14) (size 15 to 20)
#    0.000    2.000    0.000    3.429    0.000    9.143 
#    0.000    8.571    0.000    0.000    0.000    0.000 
#    0.000    0.000    0.000    0.000    0.000    0.000 
#
# Total GULP energy -78246.866327 kJ/mol
# GULP energy per Si atom -5589.061881 kJ/mol
# Density = 2.352972 g / cm^3
# Si number density = 23.583395 Si / 1000 Ang^3
#
#
#
# Elastic Constant Matrix: (Units=GPa)
#
#
# Indices 1 2 3 4 5 6 
#
# 1 86.9682 52.4346 4.9956 0.0000 -5.9209 0.0000
# 2 52.4346 182.4985 12.4003 0.0000 7.2198 0.0000
# 3 4.9956 12.4003 30.7529 0.0000 -13.1766 0.0000
# 4 0.0000 0.0000 0.0000 26.4680 0.0000 2.9969
# 5 -5.9209 7.2198 -13.1766 0.0000 21.7895 0.0000
# 6 0.0000 0.0000 0.0000 2.9969 0.0000 19.2459
#
#
#
# Elastic Compliance Matrix: (Units=1/GPa)
#
#
# Indices 1 2 3 4 5 6 
#
# 1 0.014641 -0.004656 0.002517 0.000000 0.007043 0.000000
# 2 -0.004656 0.007441 -0.005187 0.000000 -0.006867 0.000000
# 3 0.002517 -0.005187 0.047549 0.000000 0.031157 0.000000
# 4 0.000000 0.000000 0.000000 0.038459 0.000000 -0.005989
# 5 0.007043 -0.006867 0.031157 0.000000 0.068924 0.000000
# 6 0.000000 0.000000 0.000000 -0.005989 0.000000 0.052892
#
#
# Mechanical properties :
#
#
# Convention : Reuss Voigt Hill
#
# Bulk Modulus (GPa) = 18.18851 48.87560 33.53205
# Shear Modulus (GPa) = 19.01976 28.85997 23.93986
#
# Velocity S-wave (km/s) = 2.84296 3.50200 3.18954
# Velocity P-wave (km/s) = 4.30183 6.09275 5.27386
#
# Compressibility (1/GPa) = 0.05497977
#
# Stress axis : x y z
#
# Youngs Moduli (GPa) = 68.30295 134.38382 21.03082
#
# Poissons Ratio (x) = 0.62571 -0.05293
# Poissons Ratio (y) = 0.31803 0.10908
# Poissons Ratio (z) = -0.17192 0.69700
#
# Static dielectric constant tensor:
#      x y z
#    x 1.962550 0.000000 0.092320 
#    y 0.000000 1.902040 0.000000 
#    z 0.092320 0.000000 1.987320 
# 
# From -- ./inp_files/54226.got.cif
#   From: 2010.05.17/outbox.cif.g08.bks.cpg/sg5_28_cif.got.tgz:54226.got - 2010.06.03 18:56:24.
