data_PCOD9122804
_publ_section_title
;
Structure prediction by ZEFSAII (Michael W. Deem and Ramdas Pophale) SiO2 
 PCOD9122804
Probable space group: C 2
;
_chemical_formula_sum "Si O2"
_cell_formula_units_Z 30
_cell_length_a 19.614404
_cell_length_b 14.548859
_cell_length_c 5.486366
_cell_angle_alpha 90.000000
_cell_angle_beta 63.509451
_cell_angle_gamma 90.000000
_cell_volume 1401.250307
_symmetry_space_group_name_H-M "C 2"
_symmetry_group_IT_number 5
_symmetry_cell_setting 'monoclinic'
loop_
_space_group_symop_operation_xyz
x,y,z
-x,y,-z
1/2+x,1/2+y,z
1/2-x,1/2+y,-z
loop_
_atom_site_type_symbol
_atom_site_label
_atom_site_fract_x
_atom_site_fract_y
_atom_site_fract_z
Si Si1 0.084134 0.440130 0.475215
Si Si2 0.282241 0.707607 0.407005
Si Si3 0.677558 0.355989 0.790928
Si Si4 0.585341 0.381593 0.439239
Si Si5 0.765878 0.537060 0.797211
Si Si6 0.867600 0.085860 0.632949
Si Si7 0.000000 0.375112 0.000000
Si Si8 0.105947 0.265744 0.160123
O O1 0.148947 0.506747 0.281121
O O2 0.067663 0.437255 0.788838
O O3 0.114933 0.338211 0.362593
O O4 0.000000 0.458904 0.500000
O O5 0.234839 0.770838 0.664480
O O6 0.231251 0.630431 0.360364
O O7 0.347725 0.646055 0.429092
O O8 0.322440 0.768573 0.135557
O O9 0.621398 0.350894 0.642838
O O10 0.724272 0.453044 0.718187
O O11 0.636527 0.355321 0.120642
O O12 0.500000 0.352143 0.500000
O O13 0.586560 0.492748 0.466293
O O14 0.712739 0.557164 0.114429
O O15 0.905084 0.160878 0.749678
O O16 0.967101 0.307435 0.853014
#
# Coordination Sequence:
#
# PCOD9122804 Si02
#       8
#     4   4   4   4   4   4   2   4
#     4  10  22  39  61  92 128 174 209 269 337 399
#     4  11  23  39  66  95 126 166 229 276 332 387
#     4  11  24  43  70 100 132 180 221 278 334 395
#     4  11  25  45  68  95 138 181 224 273 338 402
#     4  10  22  40  64  96 129 167 226 273 329 402
#     4  10  22  38  61  97 122 170 220 277 333 388
#     4  10  20  36  58  88 128 168 204 250 350 400
#     4  10  21  35  58  94 126 162 209 268 334 395
#
# _framework density 21.409452999999999
#
# number of rings (size 3 to 8) (size 9 to 14) (size 15 to 20)
#    0.000    1.600    1.333    2.800    7.467    4.800 
#    0.000    0.667    5.867    0.000    0.000    0.000 
#    0.000    0.000    0.000    0.000    0.000    0.000 
#
# Total GULP energy -83699.713893 kJ/mol
# GULP energy per Si atom -5579.980926 kJ/mol
# Density = 2.136072 g / cm^3
# Si number density = 21.409453 Si / 1000 Ang^3
#
#
#
# Elastic Constant Matrix: (Units=GPa)
#
#
# Indices 1 2 3 4 5 6 
#
# 1 90.3044 0.7759 17.2422 0.0000 -4.5727 0.0000
# 2 0.7759 40.3168 19.8653 0.0000 -15.0301 0.0000
# 3 17.2422 19.8653 81.4240 0.0000 -1.4828 0.0000
# 4 0.0000 0.0000 0.0000 28.1286 0.0000 -4.5653
# 5 -4.5727 -15.0301 -1.4828 0.0000 29.7980 0.0000
# 6 0.0000 0.0000 0.0000 -4.5653 0.0000 26.9218
#
#
#
# Elastic Compliance Matrix: (Units=1/GPa)
#
#
# Indices 1 2 3 4 5 6 
#
# 1 0.011770 0.002304 -0.003003 0.000000 0.002819 0.000000
# 2 0.002304 0.035858 -0.008909 0.000000 0.017997 0.000000
# 3 -0.003003 -0.008909 0.015014 0.000000 -0.004207 0.000000
# 4 0.000000 0.000000 0.000000 0.036557 0.000000 0.006199
# 5 0.002819 0.017997 -0.004207 0.000000 0.042860 0.000000
# 6 0.000000 0.000000 0.000000 0.006199 0.000000 0.038196
#
#
# Mechanical properties :
#
#
# Convention : Reuss Voigt Hill
#
# Bulk Modulus (GPa) = 23.02717 31.97913 27.50315
# Shear Modulus (GPa) = 23.37032 28.58048 25.97540
#
# Velocity S-wave (km/s) = 3.30750 3.65766 3.48698
# Velocity P-wave (km/s) = 5.03638 5.72776 5.39316
#
# Compressibility (1/GPa) = 0.04342696
#
# Stress axis : x y z
#
# Youngs Moduli (GPa) = 84.96160 27.88771 66.60363
#
# Poissons Ratio (x) = -0.06426 0.20003
# Poissons Ratio (y) = -0.19577 0.59335
# Poissons Ratio (z) = 0.25516 0.24844
#
# Static dielectric constant tensor:
#      x y z
#    x 1.834820 0.000000 0.049270 
#    y 0.000000 1.747080 0.000000 
#    z 0.049270 0.000000 1.852540 
# 
# From -- ./inp_files/8546.got.cif
#   From: 2010.05.17/outbox.cif.g08.bks.cpg/sg5_5_cif.got.tgz:8546.got - 2010.06.03 18:56:24.
