data_PCOD9122653
_publ_section_title
;
Structure prediction by ZEFSAII (Michael W. Deem and Ramdas Pophale) SiO2 
 PCOD9122653
Probable space group: C 2
;
_chemical_formula_sum "Si O2"
_cell_formula_units_Z 32
_cell_length_a 22.287676
_cell_length_b 5.921005
_cell_length_c 16.305248
_cell_angle_alpha 90.000000
_cell_angle_beta 121.348647
_cell_angle_gamma 90.000000
_cell_volume 1837.614266
_symmetry_space_group_name_H-M "C 2"
_symmetry_group_IT_number 5
_symmetry_cell_setting 'monoclinic'
loop_
_space_group_symop_operation_xyz
x,y,z
-x,y,-z
1/2+x,1/2+y,z
1/2-x,1/2+y,-z
loop_
_atom_site_type_symbol
_atom_site_label
_atom_site_fract_x
_atom_site_fract_y
_atom_site_fract_z
Si Si1 0.780030 0.138860 0.991693
Si Si2 0.841249 0.595261 0.563968
Si Si3 0.283630 0.284871 0.219388
Si Si4 0.891486 0.093915 0.197308
Si Si5 0.917947 0.478164 0.341376
Si Si6 0.480820 0.347399 0.645351
Si Si7 0.599694 0.708252 0.506934
Si Si8 0.763284 0.905540 0.381348
O O1 0.858179 0.127109 0.084531
O O2 0.750985 0.383767 0.008730
O O3 0.764992 0.176213 0.885099
O O4 0.906217 0.763853 0.626827
O O5 0.875285 0.375360 0.546945
O O6 0.788573 0.701070 0.458424
O O7 0.797006 0.535231 0.612428
O O8 0.327974 0.487750 0.207577
O O9 0.243837 0.345382 0.274587
O O10 0.345508 0.116448 0.290469
O O11 0.914395 0.321915 0.258545
O O12 0.958767 0.930042 0.249683
O O13 0.920359 0.339940 0.426146
O O14 0.982781 0.647152 0.379094
O O15 0.461433 0.550424 0.570933
O O16 0.666582 0.554933 0.576246
#
# Coordination Sequence:
#
# PCOD9122653 Si02
#       8
#     4   4   4   4   4   4   4   4
#     4  10  20  36  61  91 127 155 195 249 315 372
#     4  11  22  37  55  78 117 159 202 239 285 348
#     4  10  20  35  57  90 118 149 193 246 309 356
#     4  10  20  36  56  84 124 149 189 242 304 370
#     4  11  20  37  55  81 121 153 188 244 298 368
#     4  10  25  36  52  84 117 162 197 234 299 360
#     4  11  22  37  53  82 118 156 195 243 291 356
#     4  11  21  37  57  82 116 155 201 246 291 342
#
# _framework density 17.413882999999998
#
# number of rings (size 3 to 8) (size 9 to 14) (size 15 to 20)
#    0.000    1.500    5.000    0.750    0.000    3.000 
#    0.000    0.000    0.000    0.000    0.000    5.250 
#    0.000    0.000    0.000    0.000    0.000    0.000 
#
# Total GULP energy -89246.123177 kJ/mol
# GULP energy per Si atom -5577.882699 kJ/mol
# Density = 1.737425 g / cm^3
# Si number density = 17.413883 Si / 1000 Ang^3
#
#
#
# Elastic Constant Matrix: (Units=GPa)
#
#
# Indices 1 2 3 4 5 6 
#
# 1 75.9514 24.1845 62.2943 0.0000 -7.4224 0.0000
# 2 24.1845 73.9618 33.5423 0.0000 -0.2541 0.0000
# 3 62.2943 33.5423 123.6193 0.0000 -1.0440 0.0000
# 4 0.0000 0.0000 0.0000 31.6430 0.0000 5.5807
# 5 -7.4224 -0.2541 -1.0440 0.0000 18.3774 0.0000
# 6 0.0000 0.0000 0.0000 5.5807 0.0000 29.4991
#
#
#
# Elastic Compliance Matrix: (Units=1/GPa)
#
#
# Indices 1 2 3 4 5 6 
#
# 1 0.024301 -0.002732 -0.011427 0.000000 0.009128 0.000000
# 2 -0.002732 0.015725 -0.002899 0.000000 -0.001051 0.000000
# 3 -0.011427 -0.002899 0.014602 0.000000 -0.003826 0.000000
# 4 0.000000 0.000000 0.000000 0.032693 0.000000 -0.006185
# 5 0.009128 -0.001051 -0.003826 0.000000 0.057870 0.000000
# 6 0.000000 0.000000 0.000000 -0.006185 0.000000 0.035069
#
#
# Mechanical properties :
#
#
# Convention : Reuss Voigt Hill
#
# Bulk Modulus (GPa) = 48.75393 57.06386 52.90890
# Shear Modulus (GPa) = 22.60259 26.13800 24.37029
#
# Velocity S-wave (km/s) = 3.60663 3.87846 3.74501
# Velocity P-wave (km/s) = 6.73808 7.27303 7.01066
#
# Compressibility (1/GPa) = 0.02051117
#
# Stress axis : x y z
#
# Youngs Moduli (GPa) = 41.15087 63.59335 68.48388
#
# Poissons Ratio (x) = 0.17376 0.78258
# Poissons Ratio (y) = 0.11244 0.19852
# Poissons Ratio (z) = 0.47024 0.18434
#
# Static dielectric constant tensor:
#      x y z
#    x 1.572940 0.000000 0.014590 
#    y 0.000000 1.671810 0.000000 
#    z 0.014590 0.000000 1.589740 
# 
# From -- ./inp_files/63127.got.cif
#   From: 2010.05.17/outbox.cif.g08.bks.cpg/sg5_32_cif.got.tgz:63127.got - 2010.06.03 18:56:24.
