data_PCOD9122275
_publ_section_title
;
Structure prediction by ZEFSAII (Michael W. Deem and Ramdas Pophale) SiO2 
 PCOD9122275
Probable space group: C 2
;
_chemical_formula_sum "Si O2"
_cell_formula_units_Z 28
_cell_length_a 8.106390
_cell_length_b 17.120942
_cell_length_c 19.422343
_cell_angle_alpha 90.000000
_cell_angle_beta 148.728039
_cell_angle_gamma 90.000000
_cell_volume 1399.292647
_symmetry_space_group_name_H-M "C 2"
_symmetry_group_IT_number 5
_symmetry_cell_setting 'monoclinic'
loop_
_space_group_symop_operation_xyz
x,y,z
-x,y,-z
1/2+x,1/2+y,z
1/2-x,1/2+y,-z
loop_
_atom_site_type_symbol
_atom_site_label
_atom_site_fract_x
_atom_site_fract_y
_atom_site_fract_z
Si Si1 0.725384 0.276760 0.526952
Si Si2 0.390726 0.637788 0.267614
Si Si3 0.270041 0.895355 0.356176
Si Si4 0.787562 0.599680 0.654504
Si Si5 0.324505 0.655157 0.011906
Si Si6 0.395356 0.543158 0.788775
Si Si7 0.114692 0.753802 0.734451
O O1 0.500000 0.320653 0.500000
O O2 0.506645 0.247375 0.386564
O O3 0.879077 0.203015 0.619519
O O4 0.992838 0.334232 0.595093
O O5 0.309853 0.578865 0.302507
O O6 0.550253 0.597017 0.259134
O O7 0.046197 0.673531 0.125892
O O8 0.500000 0.928260 0.500000
O O9 0.978559 0.841488 0.278432
O O10 0.135428 0.958145 0.255027
O O11 0.500000 0.592401 0.500000
O O12 0.078975 0.557833 0.721012
O O13 0.894518 0.690713 0.695597
O O14 0.346338 0.575211 0.064334
O O15 0.532686 0.722035 0.124626
O O16 0.500000 0.645394 0.000000
#
# Coordination Sequence:
#
# PCOD9122275 Si02
#       7
#     4   4   4   4   4   4   4
#     4  11  21  38  67  97 125 159 214 265 311 376
#     4  12  23  39  68  96 126 166 213 266 311 369
#     4  10  22  41  60  93 133 165 202 261 324 377
#     4  11  20  37  65  95 125 165 211 263 312 368
#     4  11  21  42  65  93 126 170 210 263 315 375
#     4  11  26  38  61  96 131 165 215 255 317 380
#     4  10  19  40  65  91 123 164 212 259 316 374
#
# _framework density 20.010109
#
# number of rings (size 3 to 8) (size 9 to 14) (size 15 to 20)
#    0.000    1.143    5.714    2.571    2.000    0.571 
#    2.571    4.286    0.000    3.429    0.000    0.000 
#    0.000    0.000    0.000    0.000    0.000    0.000 
#
# Total GULP energy -78063.164491 kJ/mol
# GULP energy per Si atom -5575.940321 kJ/mol
# Density = 1.996457 g / cm^3
# Si number density = 20.010109 Si / 1000 Ang^3
#
#
#
# Elastic Constant Matrix: (Units=GPa)
#
#
# Indices 1 2 3 4 5 6 
#
# 1 88.1163 24.1747 24.5373 0.0068 -11.0794 -0.0019
# 2 24.1747 63.6468 35.9681 0.0061 -14.0323 0.0021
# 3 24.5373 35.9681 122.4274 0.0257 -10.4787 -0.0007
# 4 0.0068 0.0061 0.0257 20.3093 0.0110 -9.4845
# 5 -11.0794 -14.0323 -10.4787 0.0110 28.7537 -0.0010
# 6 -0.0019 0.0021 -0.0007 -9.4845 -0.0010 20.6742
#
#
#
# Elastic Compliance Matrix: (Units=1/GPa)
#
#
# Indices 1 2 3 4 5 6 
#
# 1 0.013054 -0.003596 -0.001321 -0.000003 0.002794 0.000000
# 2 -0.003596 0.021494 -0.004970 -0.000005 0.007293 -0.000005
# 3 -0.001321 -0.004970 0.009952 -0.000014 0.000693 -0.000005
# 4 -0.000003 -0.000005 -0.000014 0.062664 -0.000032 0.028747
# 5 0.002794 0.007293 0.000693 -0.000032 0.039666 -0.000013
# 6 0.000000 -0.000005 -0.000005 0.028747 -0.000013 0.061558
#
#
# Mechanical properties :
#
#
# Convention : Reuss Voigt Hill
#
# Bulk Modulus (GPa) = 40.44129 49.28342 44.86236
# Shear Modulus (GPa) = 21.15031 26.58147 23.86589
#
# Velocity S-wave (km/s) = 3.25465 3.64868 3.45728
# Velocity P-wave (km/s) = 5.86327 6.51408 6.19723
#
# Compressibility (1/GPa) = 0.02472720
#
# Stress axis : x y z
#
# Youngs Moduli (GPa) = 76.60324 46.52477 100.48033
#
# Poissons Ratio (x) = 0.16730 0.13271
# Poissons Ratio (y) = 0.27546 0.49937
# Poissons Ratio (z) = 0.10118 0.23122
#
# Static dielectric constant tensor:
#      x y z
#    x 1.788160 0.000000 -0.007860 
#    y 0.000000 1.712700 0.000000 
#    z -0.007860 0.000000 1.740900 
# 
# From -- ./inp_files/64754.got.cif
#   From: 2010.05.17/outbox.cif.g08.bks.cpg/sg5_33_cif.got.tgz:64754.got - 2010.06.03 18:56:24.
