data_PCOD9122082
_publ_section_title
;
Structure prediction by ZEFSAII (Michael W. Deem and Ramdas Pophale) SiO2 
 PCOD9122082
Probable space group: C 2
;
_chemical_formula_sum "Si O2"
_cell_formula_units_Z 32
_cell_length_a 16.299132
_cell_length_b 8.219483
_cell_length_c 25.701969
_cell_angle_alpha 90.000000
_cell_angle_beta 154.781695
_cell_angle_gamma 90.000000
_cell_volume 1467.082864
_symmetry_space_group_name_H-M "C 2"
_symmetry_group_IT_number 5
_symmetry_cell_setting 'monoclinic'
loop_
_space_group_symop_operation_xyz
x,y,z
-x,y,-z
1/2+x,1/2+y,z
1/2-x,1/2+y,-z
loop_
_atom_site_type_symbol
_atom_site_label
_atom_site_fract_x
_atom_site_fract_y
_atom_site_fract_z
Si Si1 0.923498 0.816710 0.686573
Si Si2 0.695649 0.446737 0.002104
Si Si3 0.317119 0.481737 0.235054
Si Si4 0.062706 0.272485 0.408065
Si Si5 0.096245 0.168519 0.108573
Si Si6 0.105124 0.465520 0.779180
Si Si7 0.321316 0.747395 0.363209
Si Si8 0.012358 0.614221 0.122334
O O1 0.772338 0.799940 0.552128
O O2 0.804280 0.855410 0.669665
O O3 0.010951 0.636782 0.741388
O O4 0.093486 0.939066 0.769523
O O5 0.815137 0.392693 0.121907
O O6 0.841010 0.495667 0.039762
O O7 0.565784 0.600816 0.945751
O O8 0.561891 0.295971 0.912774
O O9 0.488904 0.586135 0.360011
O O10 0.243309 0.305777 0.213633
O O11 0.123419 0.586638 0.131914
O O12 0.031284 0.356318 0.334658
O O13 0.914650 0.337777 0.367417
O O14 0.217406 0.015973 0.156320
O O15 0.000000 0.237320 0.000000
O O16 0.500000 0.684517 0.500000
O O17 0.186431 0.604550 0.263964
#
# Coordination Sequence:
#
# PCOD9122082 Si02
#       8
#     4   4   4   4   4   4   4   4
#     4  10  19  38  63  86 122 165 212 253 315 378
#     4  11  22  39  62  89 130 168 210 261 315 385
#     4  10  21  35  57  89 123 156 210 256 303 370
#     4  10  20  35  61  93 121 160 209 265 308 369
#     4   9  19  34  55  82 116 165 200 242 304 371
#     4  10  20  37  60  87 123 165 207 252 316 376
#     4   9  19  37  62  87 118 161 207 249 304 378
#     4  11  22  39  61  93 125 167 215 258 324 364
#
# _framework density 21.811993000000001
#
# number of rings (size 3 to 8) (size 9 to 14) (size 15 to 20)
#    0.000    2.000    1.250    3.000    0.000    1.000 
#    2.250    0.000    0.000    0.000    0.000    0.000 
#    0.000    0.000    0.000    0.000    0.000    0.000 
#
# Total GULP energy -89182.900530 kJ/mol
# GULP energy per Si atom -5573.931283 kJ/mol
# Density = 2.176235 g / cm^3
# Si number density = 21.811993 Si / 1000 Ang^3
#
#
#
# Elastic Constant Matrix: (Units=GPa)
#
#
# Indices 1 2 3 4 5 6 
#
# 1 79.8524 24.6784 23.0349 -0.0008 22.2558 0.0000
# 2 24.6784 56.8553 17.3921 -0.0028 4.1330 0.0007
# 3 23.0349 17.3921 67.3054 -0.0071 -3.2426 0.0023
# 4 -0.0008 -0.0028 -0.0071 29.6028 0.0016 6.1971
# 5 22.2558 4.1330 -3.2426 0.0016 40.2452 -0.0004
# 6 0.0000 0.0007 0.0023 6.1971 -0.0004 16.7194
#
#
#
# Elastic Compliance Matrix: (Units=1/GPa)
#
#
# Indices 1 2 3 4 5 6 
#
# 1 0.018689 -0.005717 -0.005409 -0.000001 -0.010184 0.000001
# 2 -0.005717 0.021074 -0.003455 0.000001 0.000719 -0.000001
# 3 -0.005409 -0.003455 0.017832 0.000004 0.004783 -0.000004
# 4 -0.000001 0.000001 0.000004 0.036622 -0.000001 -0.013574
# 5 -0.010184 0.000719 0.004783 -0.000001 0.030791 0.000000
# 6 0.000001 -0.000001 -0.000004 -0.013574 0.000000 0.064842
#
#
# Mechanical properties :
#
#
# Convention : Reuss Voigt Hill
#
# Bulk Modulus (GPa) = 35.16981 37.13598 36.15290
# Shear Modulus (GPa) = 21.88278 26.57399 24.22839
#
# Velocity S-wave (km/s) = 3.17084 3.49423 3.33646
# Velocity P-wave (km/s) = 5.43735 5.77425 5.60833
#
# Compressibility (1/GPa) = 0.02843347
#
# Stress axis : x y z
#
# Youngs Moduli (GPa) = 53.50824 47.45075 56.07860
#
# Poissons Ratio (x) = 0.27127 0.30335
# Poissons Ratio (y) = 0.30590 0.19373
# Poissons Ratio (z) = 0.28945 0.16392
#
# Static dielectric constant tensor:
#      x y z
#    x 1.844910 0.000000 0.006810 
#    y 0.000000 1.801240 0.000000 
#    z 0.006810 0.000000 1.853820 
# 
# From -- ./inp_files/68798.got.cif
#   From: 2010.05.17/outbox.cif.g08.bks.cpg/sg5_35_cif.got.tgz:68798.got - 2010.06.03 18:56:24.
