data_PCOD9122553
_publ_section_title
;
Structure prediction by ZEFSAII (Michael W. Deem and Ramdas Pophale) SiO2 
 PCOD9122553
Probable space group: C 2
;
_chemical_formula_sum "Si O2"
_cell_formula_units_Z 20
_cell_length_a 22.085672
_cell_length_b 4.955703
_cell_length_c 10.070591
_cell_angle_alpha 90.000000
_cell_angle_beta 107.571569
_cell_angle_gamma 90.000000
_cell_volume 1050.797260
_symmetry_space_group_name_H-M "C 2"
_symmetry_group_IT_number 5
_symmetry_cell_setting 'monoclinic'
loop_
_space_group_symop_operation_xyz
x,y,z
-x,y,-z
1/2+x,1/2+y,z
1/2-x,1/2+y,-z
loop_
_atom_site_type_symbol
_atom_site_label
_atom_site_fract_x
_atom_site_fract_y
_atom_site_fract_z
Si Si1 0.051724 0.487190 0.141525
Si Si2 0.965351 0.427174 0.341080
Si Si3 0.115284 0.920788 0.776923
Si Si4 0.874842 0.964695 0.901989
Si Si5 0.753001 0.699858 0.095637
O O1 0.107196 0.710176 0.176359
O O2 0.016178 0.436216 0.255601
O O3 0.079555 0.208235 0.107017
O O4 0.000000 0.587082 0.000000
O O5 0.933702 0.720309 0.324266
O O6 0.000000 0.356448 0.500000
O O7 0.908666 0.219081 0.271039
O O8 0.186870 0.829851 0.790898
O O9 0.113592 0.889172 0.935941
O O10 0.803092 0.077827 0.852506
O O11 0.772721 0.446800 0.013802
#
# Coordination Sequence:
#
# PCOD9122553 Si02
#       5
#     4   4   4   4   4
#     4  12  21  36  59  86 124 152 189 250 296 342
#     4  12  25  38  57  86 122 163 197 233 295 360
#     4  11  20  38  59  84 122 153 194 248 289 350
#     4  11  20  35  60  91 116 148 195 247 302 342
#     4  10  20  34  57  92 122 151 191 249 306 346
#
# _framework density 19.033169000000001
#
# number of rings (size 3 to 8) (size 9 to 14) (size 15 to 20)
#    0.000    0.800    4.000    7.200    0.000    0.000 
#    0.000    0.000    0.000    4.800    0.000    2.800 
#    0.000    0.000    0.000    0.000    0.000    0.000 
#
# Total GULP energy -55852.845640 kJ/mol
# GULP energy per Si atom -5585.284564 kJ/mol
# Density = 1.898985 g / cm^3
# Si number density = 19.033169 Si / 1000 Ang^3
#
#
#
# Elastic Constant Matrix: (Units=GPa)
#
#
# Indices 1 2 3 4 5 6 
#
# 1 93.4818 18.4318 55.1885 0.0000 -4.6375 0.0000
# 2 18.4318 95.3467 3.5835 0.0000 -3.6301 0.0000
# 3 55.1885 3.5835 60.0636 0.0000 1.1042 0.0000
# 4 0.0000 0.0000 0.0000 13.8486 0.0000 10.6451
# 5 -4.6375 -3.6301 1.1042 0.0000 13.3370 0.0000
# 6 0.0000 0.0000 0.0000 10.6451 0.0000 48.7725
#
#
#
# Elastic Compliance Matrix: (Units=1/GPa)
#
#
# Indices 1 2 3 4 5 6 
#
# 1 0.026030 -0.003754 -0.023878 0.000000 0.010006 0.000000
# 2 -0.003754 0.011167 0.002755 0.000000 0.001506 0.000000
# 3 -0.023878 0.002755 0.038622 0.000000 -0.010750 0.000000
# 4 0.000000 0.000000 0.000000 0.086766 0.000000 -0.018938
# 5 0.010006 0.001506 -0.010750 0.000000 0.079759 0.000000
# 6 0.000000 0.000000 0.000000 -0.018938 0.000000 0.024637
#
#
# Mechanical properties :
#
#
# Convention : Reuss Voigt Hill
#
# Bulk Modulus (GPa) = 38.36233 44.81107 41.58670
# Shear Modulus (GPa) = 15.36463 26.63751 21.00107
#
# Velocity S-wave (km/s) = 2.84431 3.74509 3.32534
# Velocity P-wave (km/s) = 5.56651 6.50351 6.05317
#
# Compressibility (1/GPa) = 0.02606724
#
# Stress axis : x y z
#
# Youngs Moduli (GPa) = 38.41684 89.54579 25.89213
#
# Poissons Ratio (x) = 0.33612 0.61824
# Poissons Ratio (y) = 0.14420 -0.07133
# Poissons Ratio (z) = 0.91730 -0.24670
#
# Static dielectric constant tensor:
#      x y z
#    x 1.711760 0.000000 0.018720 
#    y 0.000000 1.681820 0.000000 
#    z 0.018720 0.000000 1.630240 
# 
# From -- ./inp_files/28164.got.cif
#   From: 2010.05.17/outbox.cif.g08.bks.cpg/sg5_15_cif.got.tgz:28164.got - 2010.06.03 18:56:24.
