data_PCOD9122616
_publ_section_title
;
Structure prediction by ZEFSAII (Michael W. Deem and Ramdas Pophale) SiO2 
 PCOD9122616
Probable space group: C 2
;
_chemical_formula_sum "Si O2"
_cell_formula_units_Z 30
_cell_length_a 14.876007
_cell_length_b 18.435447
_cell_length_c 11.672063
_cell_angle_alpha 90.000000
_cell_angle_beta 28.175510
_cell_angle_gamma 90.000000
_cell_volume 1511.435998
_symmetry_space_group_name_H-M "C 2"
_symmetry_group_IT_number 5
_symmetry_cell_setting 'monoclinic'
loop_
_space_group_symop_operation_xyz
x,y,z
-x,y,-z
1/2+x,1/2+y,z
1/2-x,1/2+y,-z
loop_
_atom_site_type_symbol
_atom_site_label
_atom_site_fract_x
_atom_site_fract_y
_atom_site_fract_z
Si Si1 0.998100 0.231340 0.125129
Si Si2 0.789642 0.351058 0.750142
Si Si3 0.316035 0.251088 0.340266
Si Si4 0.709052 0.236231 0.024047
Si Si5 0.128376 0.998390 0.005958
Si Si6 0.277783 0.577739 0.334410
Si Si7 0.630597 0.074540 0.084835
Si Si8 0.500000 0.118174 0.000000
O O1 0.868330 0.258056 0.374514
O O2 0.892343 0.153433 0.220433
O O3 0.000000 0.268865 0.000000
O O4 0.210980 0.238097 0.937276
O O5 0.705306 0.311677 0.733391
O O6 0.656439 0.415599 0.941214
O O7 0.000000 0.384057 0.500000
O O8 0.815492 0.289012 0.816857
O O9 0.492236 0.254446 0.231604
O O10 0.355205 0.174975 0.227230
O O11 0.737561 0.151786 0.964875
O O12 0.214923 0.048410 0.804716
O O13 0.239915 0.017137 0.995867
O O14 0.907717 0.020445 0.257514
O O15 0.066524 0.582596 0.622052
O O16 0.582941 0.067226 0.005436
#
# Coordination Sequence:
#
# PCOD9122616 Si02
#       8
#     4   4   4   4   4   4   4   2
#     4  12  22  39  62  95 131 170 220 278 329 393
#     4  12  23  41  67  98 134 174 221 283 341 394
#     4  11  22  39  61  98 131 166 221 275 337 388
#     4  11  22  36  64  92 131 169 217 275 333 386
#     4  11  25  39  61  96 133 168 218 277 334 389
#     4  11  21  36  60  92 127 163 217 271 331 382
#     4  11  20  39  59  94 128 170 218 271 332 381
#     4  10  20  34  66  94 124 172 212 266 336 380
#
# _framework density 19.848675
#
# number of rings (size 3 to 8) (size 9 to 14) (size 15 to 20)
#    0.000    0.800    9.333    1.200    3.733    0.533 
#    0.000    3.333    1.467    0.000    3.467    0.000 
#    0.000    0.000    0.000    0.000    0.000    0.000 
#
# Total GULP energy -83581.520195 kJ/mol
# GULP energy per Si atom -5572.101346 kJ/mol
# Density = 1.980350 g / cm^3
# Si number density = 19.848675 Si / 1000 Ang^3
#
#
#
# Elastic Constant Matrix: (Units=GPa)
#
#
# Indices 1 2 3 4 5 6 
#
# 1 177.7503 38.1529 7.0825 0.0022 6.9646 0.0008
# 2 38.1529 68.1670 7.4260 0.0070 7.9990 -0.0124
# 3 7.0825 7.4260 35.1609 0.0009 5.3799 -0.0075
# 4 0.0022 0.0070 0.0009 11.9291 0.0030 2.0857
# 5 6.9646 7.9990 5.3799 0.0030 28.3278 0.0146
# 6 0.0008 -0.0124 -0.0075 2.0857 0.0146 25.1878
#
#
#
# Elastic Compliance Matrix: (Units=1/GPa)
#
#
# Indices 1 2 3 4 5 6 
#
# 1 0.006411 -0.003477 -0.000480 0.000001 -0.000503 -0.000002
# 2 -0.003477 0.017297 -0.002406 -0.000010 -0.003572 0.000011
# 3 -0.000480 -0.002406 0.029789 -0.000002 -0.004860 0.000011
# 4 0.000001 -0.000010 -0.000002 0.085060 -0.000002 -0.007044
# 5 -0.000503 -0.003572 -0.004860 -0.000002 0.037357 -0.000025
# 6 -0.000002 0.000011 0.000011 -0.007044 -0.000025 0.040285
#
#
# Mechanical properties :
#
#
# Convention : Reuss Voigt Hill
#
# Bulk Modulus (GPa) = 24.52714 42.93345 33.73029
# Shear Modulus (GPa) = 20.61719 28.31671 24.46695
#
# Velocity S-wave (km/s) = 3.22641 3.78117 3.51475
# Velocity P-wave (km/s) = 5.12480 6.38282 5.78809
#
# Compressibility (1/GPa) = 0.04077117
#
# Stress axis : x y z
#
# Youngs Moduli (GPa) = 155.98175 57.81286 33.56917
#
# Poissons Ratio (x) = 0.20101 0.01612
# Poissons Ratio (y) = 0.54233 0.08077
# Poissons Ratio (z) = 0.07488 0.13911
#
# Static dielectric constant tensor:
#      x y z
#    x 1.877170 -0.000010 -0.134750 
#    y -0.000010 1.700200 0.000010 
#    z -0.134750 0.000010 1.862160 
# 
# From -- ./inp_files/43301.got.cif
#   From: 2010.05.17/outbox.cif.g08.bks.cpg/sg5_22_cif.got.tgz:43301.got - 2010.06.03 18:56:24.
