data_PCOD9122588
_publ_section_title
;
Structure prediction by ZEFSAII (Michael W. Deem and Ramdas Pophale) SiO2 
 PCOD9122588
Probable space group: C 2
;
_chemical_formula_sum "Si O2"
_cell_formula_units_Z 18
_cell_length_a 10.033309
_cell_length_b 8.871639
_cell_length_c 9.475935
_cell_angle_alpha 90.000000
_cell_angle_beta 62.449612
_cell_angle_gamma 90.000000
_cell_volume 747.825052
_symmetry_space_group_name_H-M "C 2"
_symmetry_group_IT_number 5
_symmetry_cell_setting 'monoclinic'
loop_
_space_group_symop_operation_xyz
x,y,z
-x,y,-z
1/2+x,1/2+y,z
1/2-x,1/2+y,-z
loop_
_atom_site_type_symbol
_atom_site_label
_atom_site_fract_x
_atom_site_fract_y
_atom_site_fract_z
Si Si1 0.161855 0.116620 0.366092
Si Si2 0.252137 0.442099 0.288841
Si Si3 0.507678 0.661990 0.164156
Si Si4 0.000000 0.761145 0.000000
Si Si5 0.015263 0.512489 0.757727
O O1 0.192757 0.291265 0.394454
O O2 0.000000 0.067967 0.500000
O O3 0.141891 0.108060 0.203549
O O4 0.306767 0.029388 0.348435
O O5 0.363588 0.569189 0.291918
O O6 0.357822 0.362923 0.115064
O O7 0.102875 0.524423 0.309850
O O8 0.506037 0.841665 0.180654
O O9 0.500000 0.638347 0.000000
O O10 0.027734 0.647669 0.115563
#
# Coordination Sequence:
#
# PCOD9122588 Si02
#       5
#     4   4   4   2   4
#     4  10  25  46  62  89 130 172 211 254 309 374
#     4  10  23  38  65  94 127 165 207 259 314 374
#     4  11  23  39  65  97 129 157 209 261 314 370
#     4  10  20  34  60  94 134 162 198 260 322 366
#     4  10  23  38  64  93 126 169 207 256 313 374
#
# _framework density 24.069800000000001
#
# number of rings (size 3 to 8) (size 9 to 14) (size 15 to 20)
#    0.000    1.778    2.222    0.000    9.333    7.111 
#    0.000    1.111    0.000    0.000    0.000    0.000 
#    0.000    0.000    0.000    0.000    0.000    0.000 
#
# Total GULP energy -50199.943745 kJ/mol
# GULP energy per Si atom -5577.771527 kJ/mol
# Density = 2.401502 g / cm^3
# Si number density = 24.069800 Si / 1000 Ang^3
#
#
#
# Elastic Constant Matrix: (Units=GPa)
#
#
# Indices 1 2 3 4 5 6 
#
# 1 170.1778 35.9082 25.9255 0.0000 -21.6828 0.0000
# 2 35.9082 64.4059 -4.9134 0.0000 0.0871 0.0000
# 3 25.9255 -4.9134 88.8846 0.0000 -14.6604 0.0000
# 4 0.0000 0.0000 0.0000 11.5783 0.0000 -17.0367
# 5 -21.6828 0.0871 -14.6604 0.0000 37.6680 0.0000
# 6 0.0000 0.0000 0.0000 -17.0367 0.0000 35.9818
#
#
#
# Elastic Compliance Matrix: (Units=1/GPa)
#
#
# Indices 1 2 3 4 5 6 
#
# 1 0.007536 -0.004347 -0.001839 0.000000 0.003632 0.000000
# 2 -0.004347 0.018103 0.001976 0.000000 -0.001775 0.000000
# 3 -0.001839 0.001976 0.012525 0.000000 0.003811 0.000000
# 4 0.000000 0.000000 0.000000 0.284755 0.000000 0.134826
# 5 0.003632 -0.001775 0.003811 0.000000 0.030126 0.000000
# 6 0.000000 0.000000 0.000000 0.134826 0.000000 0.091629
#
#
# Mechanical properties :
#
#
# Convention : Reuss Voigt Hill
#
# Bulk Modulus (GPa) = 33.62077 48.58987 41.10532
# Shear Modulus (GPa) = 10.79888 34.81547 22.80717
#
# Velocity S-wave (km/s) = 2.12043 3.80733 3.08156
# Velocity P-wave (km/s) = 4.47139 6.28956 5.45674
#
# Compressibility (1/GPa) = 0.02974352
#
# Stress axis : x y z
#
# Youngs Moduli (GPa) = 132.68791 55.23862 79.84093
#
# Poissons Ratio (x) = 0.24012 0.14686
# Poissons Ratio (y) = 0.57680 -0.15776
# Poissons Ratio (z) = 0.24407 -0.10914
#
# Static dielectric constant tensor:
#      x y z
#    x 1.876280 0.000000 0.046840 
#    y 0.000000 1.899390 0.000000 
#    z 0.046840 0.000000 2.126790 
# 
# From -- ./inp_files/34718.got.cif
#   From: 2010.05.17/outbox.cif.g08.bks.cpg/sg5_18_cif.got.tgz:34718.got - 2010.06.03 18:56:24.
