data_PCOD9122777
_publ_section_title
;
Structure prediction by ZEFSAII (Michael W. Deem and Ramdas Pophale) SiO2 
 PCOD9122777
Probable space group: C 2
;
_chemical_formula_sum "Si O2"
_cell_formula_units_Z 28
_cell_length_a 19.158535
_cell_length_b 7.080050
_cell_length_c 22.670327
_cell_angle_alpha 90.000000
_cell_angle_beta 24.803228
_cell_angle_gamma 90.000000
_cell_volume 1290.005940
_symmetry_space_group_name_H-M "C 2"
_symmetry_group_IT_number 5
_symmetry_cell_setting 'monoclinic'
loop_
_space_group_symop_operation_xyz
x,y,z
-x,y,-z
1/2+x,1/2+y,z
1/2-x,1/2+y,-z
loop_
_atom_site_type_symbol
_atom_site_label
_atom_site_fract_x
_atom_site_fract_y
_atom_site_fract_z
Si Si1 0.301333 0.092890 0.150468
Si Si2 0.423501 0.849996 0.617531
Si Si3 0.871950 0.189943 0.838639
Si Si4 0.111446 0.709044 0.273636
Si Si5 0.240190 0.178842 0.554366
Si Si6 0.613456 0.253702 0.139480
Si Si7 0.744908 0.245741 0.590668
O O1 0.232009 0.209105 0.259800
O O2 0.219608 0.194308 0.154691
O O3 0.232465 0.878451 0.199684
O O4 0.500000 0.094984 0.000000
O O5 0.500000 0.938807 0.500000
O O6 0.578882 0.714058 0.515092
O O7 0.377183 0.022327 0.695765
O O8 0.058918 0.272112 0.701780
O O9 0.901112 0.967357 0.826575
O O10 0.755772 0.250536 0.981669
O O11 0.141792 0.652670 0.181120
O O12 0.918270 0.774214 0.429960
O O13 0.246919 0.150965 0.479237
O O14 0.247010 0.974554 0.580134
O O15 0.437115 0.197329 0.245664
#
# Coordination Sequence:
#
# PCOD9122777 Si02
#       7
#     4   4   4   4   4   4   4
#     4  11  25  44  63  92 137 175 211 258 319 393
#     4  11  24  41  65  91 120 174 224 257 311 372
#     4  10  20  36  57  96 124 162 205 257 324 384
#     4   9  22  45  63  89 125 167 214 267 314 374
#     4   9  17  34  62  87 115 155 199 266 319 356
#     4   9  20  34  60  91 126 154 203 262 334 372
#     4   9  18  34  56  86 118 153 202 260 310 373
#
# _framework density 21.705328000000002
#
# number of rings (size 3 to 8) (size 9 to 14) (size 15 to 20)
#    0.000    2.286    1.429    0.857    4.000    2.286 
#    0.000    8.571    0.000    0.000    0.000    0.000 
#    0.000    0.000    0.000    0.000    0.000    0.000 
#
# Total GULP energy -77979.242232 kJ/mol
# GULP energy per Si atom -5569.945874 kJ/mol
# Density = 2.165593 g / cm^3
# Si number density = 21.705328 Si / 1000 Ang^3
#
#
#
# Elastic Constant Matrix: (Units=GPa)
#
#
# Indices 1 2 3 4 5 6 
#
# 1 41.6730 23.1222 35.5818 -0.0002 -0.4324 0.0007
# 2 23.1222 64.4052 28.8153 -0.0017 -2.6129 0.0019
# 3 35.5818 28.8153 198.2874 -0.0015 -15.7138 0.0004
# 4 -0.0002 -0.0017 -0.0015 28.3290 0.0005 2.3911
# 5 -0.4324 -2.6129 -15.7138 0.0005 41.6243 -0.0008
# 6 0.0007 0.0019 0.0004 2.3911 -0.0008 21.8951
#
#
#
# Elastic Compliance Matrix: (Units=1/GPa)
#
#
# Indices 1 2 3 4 5 6 
#
# 1 0.033576 -0.010020 -0.004733 -0.000001 -0.002067 0.000000
# 2 -0.010020 0.019598 -0.000990 0.000001 0.000752 -0.000001
# 3 -0.004733 -0.000990 0.006213 0.000000 0.002234 0.000000
# 4 -0.000001 0.000001 0.000000 0.035628 0.000000 -0.003891
# 5 -0.002067 0.000752 0.002234 0.000000 0.024894 0.000001
# 6 0.000000 -0.000001 0.000000 -0.003891 0.000001 0.046097
#
#
# Mechanical properties :
#
#
# Convention : Reuss Voigt Hill
#
# Bulk Modulus (GPa) = 35.84213 53.26715 44.55464
# Shear Modulus (GPa) = 24.17889 32.82611 28.50250
#
# Velocity S-wave (km/s) = 3.34123 3.89312 3.62768
# Velocity P-wave (km/s) = 5.60660 6.69349 6.17401
#
# Compressibility (1/GPa) = 0.02790012
#
# Stress axis : x y z
#
# Youngs Moduli (GPa) = 29.78356 51.02645 160.94265
#
# Poissons Ratio (x) = 0.51131 0.76168
# Poissons Ratio (y) = 0.29844 0.15937
# Poissons Ratio (z) = 0.14095 0.05053
#
# Static dielectric constant tensor:
#      x y z
#    x 1.889080 0.000000 0.002310 
#    y 0.000000 1.829270 0.000000 
#    z 0.002310 0.000000 1.841820 
# 
# From -- ./inp_files/67348.got.cif
#   From: 2010.05.17/outbox.cif.g08.bks.cpg/sg5_34_cif.got.tgz:67348.got - 2010.06.03 18:56:24.
