data_PCOD9122828
_publ_section_title
;
Structure prediction by ZEFSAII (Michael W. Deem and Ramdas Pophale) SiO2 
 PCOD9122828
Probable space group: C 2
;
_chemical_formula_sum "Si O2"
_cell_formula_units_Z 32
_cell_length_a 9.544296
_cell_length_b 10.370978
_cell_length_c 17.395304
_cell_angle_alpha 90.000000
_cell_angle_beta 116.832614
_cell_angle_gamma 90.000000
_cell_volume 1536.457866
_symmetry_space_group_name_H-M "C 2"
_symmetry_group_IT_number 5
_symmetry_cell_setting 'monoclinic'
loop_
_space_group_symop_operation_xyz
x,y,z
-x,y,-z
1/2+x,1/2+y,z
1/2-x,1/2+y,-z
loop_
_atom_site_type_symbol
_atom_site_label
_atom_site_fract_x
_atom_site_fract_y
_atom_site_fract_z
Si Si1 0.482899 0.066510 0.680945
Si Si2 0.517100 0.286333 0.819056
Si Si3 0.478624 0.841354 0.795233
Si Si4 0.756003 0.676153 0.362183
Si Si5 0.021375 0.011489 0.704767
Si Si6 0.656111 0.908326 0.081025
Si Si7 0.243998 0.676690 0.137817
Si Si8 0.343890 0.444517 0.418975
O O1 0.500000 0.176421 0.750000
O O2 0.595470 0.106555 0.639100
O O3 0.524902 0.933644 0.735885
O O4 0.304039 0.039060 0.610637
O O5 0.475097 0.419199 0.764115
O O6 0.695960 0.313783 0.889364
O O7 0.404529 0.246288 0.860900
O O8 0.354250 0.736710 0.732997
O O9 0.391980 0.916950 0.841147
O O10 0.635331 0.778041 0.868093
O O11 0.635333 0.574802 0.368092
O O12 0.798787 0.796589 0.426971
O O13 0.145749 0.116133 0.767003
O O14 0.108020 0.935893 0.658853
O O15 0.701214 0.056254 0.073028
O O16 0.500000 0.865853 0.000000
O O17 0.500000 0.486989 0.500000
#
# Coordination Sequence:
#
# PCOD9122828 Si02
#       8
#     4   4   4   4   4   4   4   4
#     4  11  18  37  65  82 109 152 193 235 276 333
#     4  11  18  37  65  82 109 152 193 235 276 333
#     4  10  20  36  59  87 108 144 194 232 279 339
#     4  10  20  37  61  83 110 145 192 238 278 333
#     4  10  20  36  59  87 108 144 194 232 279 339
#     4  11  23  37  54  83 120 152 184 235 292 335
#     4  10  20  37  61  83 110 145 192 238 278 333
#     4  11  23  37  54  83 120 152 184 235 292 335
#
# _framework density 20.827124999999999
#
# number of rings (size 3 to 8) (size 9 to 14) (size 15 to 20)
#    0.000    1.500    5.000    2.250    0.000    2.000 
#    0.000    0.000    0.000    0.000    0.000    0.000 
#    0.000    0.000    0.000    0.000    0.000    0.000 
#
# Total GULP energy -89262.897444 kJ/mol
# GULP energy per Si atom -5578.931090 kJ/mol
# Density = 2.077972 g / cm^3
# Si number density = 20.827125 Si / 1000 Ang^3
#
#
#
# Elastic Constant Matrix: (Units=GPa)
#
#
# Indices 1 2 3 4 5 6 
#
# 1 106.6361 46.1149 31.6829 0.0000 40.8463 0.0000
# 2 46.1149 80.3361 24.0430 0.0000 31.0772 0.0000
# 3 31.6829 24.0430 80.4508 0.0000 38.8959 0.0000
# 4 0.0000 0.0000 0.0000 14.0090 0.0000 12.3352
# 5 40.8463 31.0772 38.8959 0.0000 37.9134 0.0000
# 6 0.0000 0.0000 0.0000 12.3352 0.0000 43.0214
#
#
#
# Elastic Compliance Matrix: (Units=1/GPa)
#
#
# Indices 1 2 3 4 5 6 
#
# 1 0.017264 -0.003449 0.003685 0.000000 -0.019553 0.000000
# 2 -0.003449 0.019434 0.002888 0.000000 -0.015177 0.000000
# 3 0.003685 0.002888 0.026150 0.000000 -0.033166 0.000000
# 4 0.000000 0.000000 0.000000 0.095491 0.000000 -0.027379
# 5 -0.019553 -0.015177 -0.033166 0.000000 0.093908 0.000000
# 6 0.000000 0.000000 0.000000 -0.027379 0.000000 0.031095
#
#
# Mechanical properties :
#
#
# Convention : Reuss Voigt Hill
#
# Bulk Modulus (GPa) = 14.47231 52.34498 33.40864
# Shear Modulus (GPa) = 16.65972 30.02757 23.34364
#
# Velocity S-wave (km/s) = 2.83133 3.80116 3.35151
# Velocity P-wave (km/s) = 4.20148 6.66729 5.57248
#
# Compressibility (1/GPa) = 0.06909749
#
# Stress axis : x y z
#
# Youngs Moduli (GPa) = 57.92397 51.45548 38.24063
#
# Poissons Ratio (x) = 0.17747 -0.14093
# Poissons Ratio (y) = 0.19977 -0.11044
# Poissons Ratio (z) = -0.21347 -0.14860
#
# Static dielectric constant tensor:
#      x y z
#    x 1.723670 0.000000 0.024350 
#    y 0.000000 1.779730 0.000000 
#    z 0.024350 0.000000 1.769950 
# 
# From -- ./inp_files/64562.got.cif
#   From: 2010.05.17/outbox.cif.g08.bks.cpg/sg5_33_cif.got.tgz:64562.got - 2010.06.03 18:56:24.
