data_PCOD9122029
_publ_section_title
;
Structure prediction by ZEFSAII (Michael W. Deem and Ramdas Pophale) SiO2 
 PCOD9122029
Probable space group: C 2
;
_chemical_formula_sum "Si O2"
_cell_formula_units_Z 14
_cell_length_a 15.652979
_cell_length_b 7.249118
_cell_length_c 15.533532
_cell_angle_alpha 90.000000
_cell_angle_beta 161.644277
_cell_angle_gamma 90.000000
_cell_volume 555.068601
_symmetry_space_group_name_H-M "C 2"
_symmetry_group_IT_number 5
_symmetry_cell_setting 'monoclinic'
loop_
_space_group_symop_operation_xyz
x,y,z
-x,y,-z
1/2+x,1/2+y,z
1/2-x,1/2+y,-z
loop_
_atom_site_type_symbol
_atom_site_label
_atom_site_fract_x
_atom_site_fract_y
_atom_site_fract_z
Si Si1 0.127360 0.960070 0.396007
Si Si2 0.856242 0.344168 0.188978
Si Si3 0.500000 0.265740 0.000000
Si Si4 0.216625 0.398138 0.273161
O O1 0.390704 0.977744 0.587125
O O2 0.258615 0.853476 0.603433
O O3 0.983921 0.140742 0.298568
O O4 0.885271 0.867249 0.111106
O O5 0.717026 0.368652 0.148884
O O6 0.353969 0.117547 0.797811
O O7 0.500000 0.367653 0.500000
O O8 0.000000 0.311705 0.000000
#
# Coordination Sequence:
#
# PCOD9122029 Si02
#       4
#     4   4   2   4
#     4  12  24  43  69 113 136 183 229 301 342 415
#     4  12  25  42  74 102 148 175 241 284 356 405
#     4  10  22  40  72 100 130 194 236 276 318 450
#     4  10  19  37  68  98 128 175 247 270 311 414
#
# _framework density 25.222107000000001
#
# number of rings (size 3 to 8) (size 9 to 14) (size 15 to 20)
#    0.857    0.000    2.857    6.857    0.000    0.000 
#    0.000    0.000   15.714    1.714    0.000    0.000 
#    0.000    0.000    0.000    0.000    0.000    0.000 
#
# Total GULP energy -39126.139417 kJ/mol
# GULP energy per Si atom -5589.448488 kJ/mol
# Density = 2.516470 g / cm^3
# Si number density = 25.222107 Si / 1000 Ang^3
#
#
#
# Elastic Constant Matrix: (Units=GPa)
#
#
# Indices 1 2 3 4 5 6 
#
# 1 157.9148 50.4967 72.5156 0.0062 37.5384 0.0071
# 2 50.4967 57.5556 38.4317 0.2658 -7.7997 0.3876
# 3 72.5156 38.4317 221.0238 0.0437 7.4049 0.0584
# 4 0.0062 0.2658 0.0437 -796.1354 0.2384-1225.7443
# 5 37.5384 -7.7997 7.4049 0.2384 64.5236 0.3463
# 6 0.0071 0.3876 0.0584-1225.7443 0.3463-1776.0720
#
#
#
# Elastic Compliance Matrix: (Units=1/GPa)
#
#
# Indices 1 2 3 4 5 6 
#
# 1 0.012834 -0.011091 -0.001995 -0.000001 -0.008578 -0.000004
# 2 -0.011091 0.029750 -0.001878 0.000002 0.010264 0.000007
# 3 -0.001995 -0.001878 0.005495 0.000000 0.000303 0.000000
# 4 -0.000001 0.000002 0.000000 0.020079 0.000001 -0.013857
# 5 -0.008578 0.010264 0.000303 0.000001 0.021695 0.000006
# 6 -0.000004 0.000007 0.000000 -0.013857 0.000006 0.009000
#
#
# Mechanical properties :
#
#
# Convention : Reuss Voigt Hill
#
# Bulk Modulus (GPa) = 55.08986 84.37582 69.73284
# Shear Modulus (GPa) = 37.08335 -483.20009 -223.05837
#
# Velocity S-wave (km/s) = 3.83857 -13.85619 -9.41433
# Velocity P-wave (km/s) = 6.44480 14.91530 9.51133
#
# Compressibility (1/GPa) = 0.01815216
#
# Stress axis : x y z
#
# Youngs Moduli (GPa) = 77.91633 33.61366 181.97251
#
# Poissons Ratio (x) = 0.37280 0.36303
# Poissons Ratio (y) = 0.86414 0.34176
# Poissons Ratio (z) = 0.15544 0.06313
#
# Static dielectric constant tensor:
#      x y z
#    x 5.571750 0.000540 -5.195070 
#    y 0.000540 2.046760 -0.000780 
#    z -5.195070 -0.000780 9.385790 
# 
# From -- ./inp_files/53995.got.cif
#   From: 2010.05.17/outbox.cif.g08.bks.cpg/sg5_27_cif.got.tgz:53995.got - 2010.06.03 18:56:24.
