data_PCOD9122543
_publ_section_title
;
Structure prediction by ZEFSAII (Michael W. Deem and Ramdas Pophale) SiO2 
 PCOD9122543
Probable space group: C 2
;
_chemical_formula_sum "Si O2"
_cell_formula_units_Z 30
_cell_length_a 15.281287
_cell_length_b 11.654363
_cell_length_c 24.749247
_cell_angle_alpha 90.000000
_cell_angle_beta 160.192858
_cell_angle_gamma 90.000000
_cell_volume 1493.566684
_symmetry_space_group_name_H-M "C 2"
_symmetry_group_IT_number 5
_symmetry_cell_setting 'monoclinic'
loop_
_space_group_symop_operation_xyz
x,y,z
-x,y,-z
1/2+x,1/2+y,z
1/2-x,1/2+y,-z
loop_
_atom_site_type_symbol
_atom_site_label
_atom_site_fract_x
_atom_site_fract_y
_atom_site_fract_z
Si Si1 0.788636 0.187370 0.695207
Si Si2 0.435118 0.018214 0.353720
Si Si3 0.180794 0.927323 0.750741
Si Si4 0.723767 0.954003 0.310649
Si Si5 0.006935 0.124078 0.293922
Si Si6 0.513428 0.104645 0.734526
Si Si7 0.500000 0.753845 0.000000
Si Si8 0.845100 0.289725 0.531067
O O1 0.500000 0.186519 0.500000
O O2 0.769461 0.097256 0.733338
O O3 0.847460 0.320395 0.739759
O O4 0.992360 0.149531 0.768450
O O5 0.706799 0.076202 0.526831
O O6 0.422987 0.029294 0.281972
O O7 0.473114 0.885105 0.391201
O O8 0.234945 0.993522 0.726747
O O9 0.903443 0.859816 0.588671
O O10 0.383346 0.831953 0.885159
O O11 0.175169 0.021894 0.794125
O O12 0.000000 0.954277 0.500000
O O13 0.550445 0.028445 0.250430
O O14 0.998327 0.232175 0.328886
O O15 0.280972 0.192166 0.580979
O O16 0.767420 0.180472 0.889113
#
# Coordination Sequence:
#
# PCOD9122543 Si02
#       8
#     4   4   4   4   4   4   2   4
#     4   9  16  27  49  79 111 141 172 215 284 352
#     4   9  16  29  51  82 114 146 182 234 293 338
#     4  10  20  35  55  77 111 150 188 232 283 347
#     4  11  19  33  60  90 112 139 183 242 301 342
#     4   9  16  29  48  77 109 141 179 227 284 333
#     4  10  20  34  57  83 114 151 194 238 282 347
#     4  10  22  42  56  72 110 166 204 226 272 340
#     4   9  16  31  54  82 116 144 179 244 303 338
#
# _framework density 20.086148000000001
#
# number of rings (size 3 to 8) (size 9 to 14) (size 15 to 20)
#    0.000    2.400    0.000    7.200    0.000    0.000 
#    0.000   15.333    0.000    8.000    0.000    0.000 
#    0.000    0.000    0.000    0.000    0.000    0.000 
#
# Total GULP energy -83581.986618 kJ/mol
# GULP energy per Si atom -5572.132441 kJ/mol
# Density = 2.004043 g / cm^3
# Si number density = 20.086148 Si / 1000 Ang^3
#
#
#
# Elastic Constant Matrix: (Units=GPa)
#
#
# Indices 1 2 3 4 5 6 
#
# 1 97.3312 50.6312 23.0245 0.0012 15.6995 0.0004
# 2 50.6312 112.8747 27.5679 0.0155 15.2748 -0.0080
# 3 23.0245 27.5679 41.0374 0.0122 2.5977 -0.0208
# 4 0.0012 0.0155 0.0122 5.1296 -0.0099 2.1084
# 5 15.6995 15.2748 2.5977 -0.0099 10.1338 0.0033
# 6 0.0004 -0.0080 -0.0208 2.1084 0.0033 38.8341
#
#
#
# Elastic Compliance Matrix: (Units=1/GPa)
#
#
# Indices 1 2 3 4 5 6 
#
# 1 0.016456 -0.003429 -0.005736 -0.000015 -0.018855 -0.000001
# 2 -0.003429 0.013874 -0.006514 -0.000054 -0.013929 0.000004
# 3 -0.005736 -0.006514 0.031286 -0.000039 0.010685 0.000017
# 4 -0.000015 -0.000054 -0.000039 0.199399 0.000314 -0.010826
# 5 -0.018855 -0.013929 0.010685 0.000314 0.146148 -0.000027
# 6 -0.000001 0.000004 0.000017 -0.010826 -0.000027 0.026338
#
#
# Mechanical properties :
#
#
# Convention : Reuss Voigt Hill
#
# Bulk Modulus (GPa) = 33.04975 50.41006 41.72991
# Shear Modulus (GPa) = 10.52754 20.82080 15.67417
#
# Velocity S-wave (km/s) = 2.29185 3.22308 2.79650
# Velocity P-wave (km/s) = 4.84697 6.24519 5.58997
#
# Compressibility (1/GPa) = 0.03025741
#
# Stress axis : x y z
#
# Youngs Moduli (GPa) = 60.76735 72.07953 31.96337
#
# Poissons Ratio (x) = 0.24717 0.18333
# Poissons Ratio (y) = 0.20838 0.20822
# Poissons Ratio (z) = 0.34855 0.46954
#
# Static dielectric constant tensor:
#      x y z
#    x 1.793770 0.000010 -0.005200 
#    y 0.000010 1.782750 -0.000010 
#    z -0.005200 -0.000010 1.713560 
# 
# From -- ./inp_files/42671.got.cif
#   From: 2010.05.17/outbox.cif.g08.bks.cpg/sg5_22_cif.got.tgz:42671.got - 2010.06.03 18:56:24.
