data_PCOD9122572
_publ_section_title
;
Structure prediction by ZEFSAII (Michael W. Deem and Ramdas Pophale) SiO2 
 PCOD9122572
Probable space group: C 2
;
_chemical_formula_sum "Si O2"
_cell_formula_units_Z 26
_cell_length_a 19.879979
_cell_length_b 9.706754
_cell_length_c 5.453493
_cell_angle_alpha 90.000000
_cell_angle_beta 119.043216
_cell_angle_gamma 90.000000
_cell_volume 920.030502
_symmetry_space_group_name_H-M "C 2"
_symmetry_group_IT_number 5
_symmetry_cell_setting 'monoclinic'
loop_
_space_group_symop_operation_xyz
x,y,z
-x,y,-z
1/2+x,1/2+y,z
1/2-x,1/2+y,-z
loop_
_atom_site_type_symbol
_atom_site_label
_atom_site_fract_x
_atom_site_fract_y
_atom_site_fract_z
Si Si1 0.379677 0.817180 0.933417
Si Si2 0.000000 0.257968 0.500000
Si Si3 0.921895 0.744530 0.272883
Si Si4 0.745027 0.368419 0.025035
Si Si5 0.109658 0.586973 0.279587
Si Si6 0.425879 0.552296 0.760332
Si Si7 0.229702 0.099240 0.692876
O O1 0.292056 0.829811 0.861149
O O2 0.398952 0.659832 0.918787
O O3 0.405824 0.924652 0.774244
O O4 0.435859 0.850596 0.258135
O O5 0.043310 0.153097 0.394983
O O6 0.844897 0.834081 0.105430
O O7 0.908014 0.649181 0.488133
O O8 0.000000 0.821406 0.500000
O O9 0.928270 0.664086 0.025081
O O10 0.752357 0.532957 0.998179
O O11 0.784707 0.262004 0.286327
O O12 0.199975 0.594875 0.368579
O O13 0.342451 0.505484 0.521554
O O14 0.500000 0.472118 0.000000
#
# Coordination Sequence:
#
# PCOD9122572 Si02
#       7
#     4   2   4   4   4   4   4
#     4  10  21  37  63  99 133 184 235 295 359 421
#     4  10  20  34  58  92 136 164 230 284 358 412
#     4  11  24  43  64 100 142 190 241 295 359 437
#     4  10  22  43  70 101 135 189 233 297 357 430
#     4  10  24  40  69  99 140 192 238 296 357 428
#     4  10  21  36  61  94 135 177 225 296 356 425
#     4  10  21  44  71 103 141 184 243 292 364 436
#
# _framework density 28.259931999999999
#
# number of rings (size 3 to 8) (size 9 to 14) (size 15 to 20)
#    0.000    1.846    1.538    1.385    3.231    3.692 
#    1.385    7.692    0.000    0.000    0.000    0.000 
#    0.000    0.000    0.000    0.000    0.000    0.000 
#
# Total GULP energy -72637.633944 kJ/mol
# GULP energy per Si atom -5587.510303 kJ/mol
# Density = 2.819561 g / cm^3
# Si number density = 28.259932 Si / 1000 Ang^3
#
#
#
# Elastic Constant Matrix: (Units=GPa)
#
#
# Indices 1 2 3 4 5 6 
#
# 1 134.6961 6.0371 38.5562 0.0000 22.2444 0.0000
# 2 6.0371 71.6878 36.5921 0.0000 -9.8586 0.0000
# 3 38.5562 36.5921 126.5428 0.0000 8.3500 0.0000
# 4 0.0000 0.0000 0.0000 40.4804 0.0000 -12.7280
# 5 22.2444 -9.8586 8.3500 0.0000 64.5495 0.0000
# 6 0.0000 0.0000 0.0000 -12.7280 0.0000 8.6580
#
#
#
# Elastic Compliance Matrix: (Units=1/GPa)
#
#
# Indices 1 2 3 4 5 6 
#
# 1 0.008558 0.000194 -0.002492 0.000000 -0.002597 0.000000
# 2 0.000194 0.017025 -0.005194 0.000000 0.003205 0.000000
# 3 -0.002492 -0.005194 0.010247 0.000000 -0.001260 0.000000
# 4 0.000000 0.000000 0.000000 0.045936 0.000000 0.067529
# 5 -0.002597 0.003205 -0.001260 0.000000 0.017039 0.000000
# 6 0.000000 0.000000 0.000000 0.067529 0.000000 0.214773
#
#
# Mechanical properties :
#
#
# Convention : Reuss Voigt Hill
#
# Bulk Modulus (GPa) = 47.97081 55.03306 51.50193
# Shear Modulus (GPa) = 14.90269 39.52035 27.21152
#
# Velocity S-wave (km/s) = 2.29889 3.74365 3.10643
# Velocity P-wave (km/s) = 4.90492 6.18084 5.57947
#
# Compressibility (1/GPa) = 0.02084601
#
# Stress axis : x y z
#
# Youngs Moduli (GPa) = 116.85388 58.73770 97.59123
#
# Poissons Ratio (x) = -0.01141 0.24322
# Poissons Ratio (y) = -0.02271 0.50686
# Poissons Ratio (z) = 0.29123 0.30507
#
# Static dielectric constant tensor:
#      x y z
#    x 2.167320 0.000000 0.105070 
#    y 0.000000 2.188710 0.000000 
#    z 0.105070 0.000000 2.507110 
# 
# From -- ./inp_files/9632.got.cif
#   From: 2010.05.17/outbox.cif.g08.bks.cpg/sg5_5_cif.got.tgz:9632.got - 2010.06.03 18:56:24.
