data_PCOD9122611
_publ_section_title
;
Structure prediction by ZEFSAII (Michael W. Deem and Ramdas Pophale) SiO2 
 PCOD9122611
Probable space group: C 2
;
_chemical_formula_sum "Si O2"
_cell_formula_units_Z 22
_cell_length_a 15.482175
_cell_length_b 16.238001
_cell_length_c 5.213830
_cell_angle_alpha 90.000000
_cell_angle_beta 126.306614
_cell_angle_gamma 90.000000
_cell_volume 1056.284649
_symmetry_space_group_name_H-M "C 2"
_symmetry_group_IT_number 5
_symmetry_cell_setting 'monoclinic'
loop_
_space_group_symop_operation_xyz
x,y,z
-x,y,-z
1/2+x,1/2+y,z
1/2-x,1/2+y,-z
loop_
_atom_site_type_symbol
_atom_site_label
_atom_site_fract_x
_atom_site_fract_y
_atom_site_fract_z
Si Si1 0.881700 0.522630 0.229750
Si Si2 0.910065 0.954706 0.500412
Si Si3 0.500000 0.311831 0.000000
Si Si4 0.250572 0.569947 0.499899
Si Si5 0.211494 0.357544 0.000871
Si Si6 0.240258 0.757027 0.405143
O O1 0.805536 0.547196 0.332558
O O2 0.000000 0.553782 0.500000
O O3 0.833515 0.556429 0.880654
O O4 0.882114 0.423602 0.195781
O O5 0.850069 0.010438 0.604906
O O6 0.000000 0.002776 0.500000
O O7 0.816428 0.916180 0.162029
O O8 0.969975 0.875826 0.723407
O O9 0.609623 0.260985 0.155027
O O10 0.278259 0.665901 0.539566
O O11 0.222549 0.317416 0.300271
O O12 0.215181 0.290473 0.785018
#
# Coordination Sequence:
#
# PCOD9122611 Si02
#       6
#     4   4   2   4   4   4
#     4  11  23  42  65  88 124 174 210 250 308 395
#     4  10  20  38  63  90 118 169 210 255 302 392
#     4  10  20  34  64  86 122 158 220 244 318 368
#     4  11  25  39  62  96 134 157 208 268 323 360
#     4  10  21  40  62  87 120 163 215 251 307 373
#     4  11  22  38  59  93 129 154 202 276 312 360
#
# _framework density 20.827718999999998
#
# number of rings (size 3 to 8) (size 9 to 14) (size 15 to 20)
#    0.000    1.455    1.818    4.909    5.091    0.000 
#    0.000    0.909    0.000    0.000    0.000    0.000 
#    0.000    0.000    0.000    0.000    0.000    0.000 
#
# Total GULP energy -61430.252636 kJ/mol
# GULP energy per Si atom -5584.568421 kJ/mol
# Density = 2.078031 g / cm^3
# Si number density = 20.827719 Si / 1000 Ang^3
#
#
#
# Elastic Constant Matrix: (Units=GPa)
#
#
# Indices 1 2 3 4 5 6 
#
# 1 11.9242 5.0493 -0.8596 0.0000 2.0869 0.0000
# 2 5.0493 80.7216 -0.2173 0.0000 -3.0871 0.0000
# 3 -0.8596 -0.2173 78.8009 0.0000 -18.0733 0.0000
# 4 0.0000 0.0000 0.0000 5.9951 0.0000 -3.2499
# 5 2.0869 -3.0871 -18.0733 0.0000 21.9167 0.0000
# 6 0.0000 0.0000 0.0000 -3.2499 0.0000 17.1260
#
#
#
# Elastic Compliance Matrix: (Units=1/GPa)
#
#
# Indices 1 2 3 4 5 6 
#
# 1 0.088084 -0.005912 -0.001443 0.000000 -0.010410 0.000000
# 2 -0.005912 0.012871 0.000636 0.000000 0.002901 0.000000
# 3 -0.001443 0.000636 0.015697 0.000000 0.013171 0.000000
# 4 0.000000 0.000000 0.000000 0.185929 0.000000 0.035283
# 5 -0.010410 0.002901 0.013171 0.000000 0.057889 0.000000
# 6 0.000000 0.000000 0.000000 0.035283 0.000000 0.065086
#
#
# Mechanical properties :
#
#
# Convention : Reuss Voigt Hill
#
# Bulk Modulus (GPa) = 9.68854 19.93240 14.81047
# Shear Modulus (GPa) = 10.56193 20.17250 15.36722
#
# Velocity S-wave (km/s) = 2.25435 3.11552 2.71924
# Velocity P-wave (km/s) = 3.38201 4.74688 4.12134
#
# Compressibility (1/GPa) = 0.10321474
#
# Stress axis : x y z
#
# Youngs Moduli (GPa) = 11.35279 77.69583 63.70584
#
# Poissons Ratio (x) = 0.45933 0.09193
# Poissons Ratio (y) = 0.06712 -0.04053
# Poissons Ratio (z) = 0.01638 -0.04943
#
# Static dielectric constant tensor:
#      x y z
#    x 1.793430 0.000000 0.015270 
#    y 0.000000 1.748220 0.000000 
#    z 0.015270 0.000000 1.792000 
# 
# From -- ./inp_files/6914.got.cif
#   From: 2010.05.17/outbox.cif.g08.bks.cpg/sg5_4_cif.got.tgz:6914.got - 2010.06.03 18:56:24.
