data_PCOD9122322
_publ_section_title
;
Structure prediction by ZEFSAII (Michael W. Deem and Ramdas Pophale) SiO2 
 PCOD9122322
Probable space group: C 2
;
_chemical_formula_sum "Si O2"
_cell_formula_units_Z 30
_cell_length_a 7.371174
_cell_length_b 13.975396
_cell_length_c 14.589770
_cell_angle_alpha 90.000000
_cell_angle_beta 102.394827
_cell_angle_gamma 90.000000
_cell_volume 1467.934614
_symmetry_space_group_name_H-M "C 2"
_symmetry_group_IT_number 5
_symmetry_cell_setting 'monoclinic'
loop_
_space_group_symop_operation_xyz
x,y,z
-x,y,-z
1/2+x,1/2+y,z
1/2-x,1/2+y,-z
loop_
_atom_site_type_symbol
_atom_site_label
_atom_site_fract_x
_atom_site_fract_y
_atom_site_fract_z
Si Si1 0.000000 0.466660 0.500000
Si Si2 0.821702 0.754449 0.916341
Si Si3 0.369985 0.455293 0.269814
Si Si4 0.265970 0.532756 0.079042
Si Si5 0.128612 0.445135 0.892484
Si Si6 0.367799 0.366089 0.568714
Si Si7 0.004292 0.754506 0.738555
Si Si8 0.981249 0.537826 0.296003
O O1 0.822985 0.399578 0.493329
O O2 0.963862 0.523057 0.402269
O O3 0.753323 0.646533 0.923395
O O4 0.899081 0.764144 0.822323
O O5 0.663680 0.833583 0.912878
O O6 0.000000 0.771807 0.000000
O O7 0.407158 0.498446 0.173118
O O8 0.537132 0.451663 0.361092
O O9 0.343353 0.339837 0.252800
O O10 0.195184 0.510601 0.293627
O O11 0.072009 0.485485 0.096393
O O12 0.275644 0.496922 0.975809
O O13 0.136241 0.470503 0.785692
O O14 0.500000 0.339331 0.500000
O O15 0.363240 0.280154 0.640735
O O16 0.067839 0.646250 0.735465
#
# Coordination Sequence:
#
# PCOD9122322 Si02
#       8
#     2   4   4   4   4   4   4   4
#     4  12  22  40  66  92 132 172 226 278 332 400
#     4  12  20  36  66  91 125 173 212 261 330 395
#     4   9  20  39  65  86 129 168 205 276 326 382
#     4  10  19  41  63  89 125 172 208 267 329 384
#     4  10  21  36  63  90 124 165 213 256 327 387
#     4  10  22  41  63  92 128 176 219 274 338 388
#     4  10  21  38  65  91 124 168 215 260 338 385
#     4  11  21  40  65  93 128 171 215 272 327 395
#
# _framework density 20.436876999999999
#
# number of rings (size 3 to 8) (size 9 to 14) (size 15 to 20)
#    0.800    0.800    5.333    1.600    0.933    0.000 
#    0.000    4.000    8.800    0.000    0.000    0.000 
#    0.000    0.000    0.000    0.000    0.000    0.000 
#
# Total GULP energy -83591.544580 kJ/mol
# GULP energy per Si atom -5572.769639 kJ/mol
# Density = 2.039036 g / cm^3
# Si number density = 20.436877 Si / 1000 Ang^3
#
#
#
# Elastic Constant Matrix: (Units=GPa)
#
#
# Indices 1 2 3 4 5 6 
#
# 1 37.4571 19.9246 12.3554 0.0000 2.2932 0.0000
# 2 19.9246 140.2645 24.4812 0.0000 5.5620 0.0000
# 3 12.3554 24.4812 135.6070 0.0000 -11.2727 0.0000
# 4 0.0000 0.0000 0.0000 -34.7470 0.0000 -58.3470
# 5 2.2932 5.5620 -11.2727 0.0000 25.3923 0.0000
# 6 0.0000 0.0000 0.0000 -58.3470 0.0000 -8.6676
#
#
#
# Elastic Compliance Matrix: (Units=1/GPa)
#
#
# Indices 1 2 3 4 5 6 
#
# 1 0.029585 -0.003693 -0.002267 0.000000 -0.002869 0.000000
# 2 -0.003693 0.007952 -0.001263 0.000000 -0.001969 0.000000
# 3 -0.002267 -0.001263 0.008150 0.000000 0.004099 0.000000
# 4 0.000000 0.000000 0.000000 0.002793 0.000000 -0.018802
# 5 -0.002869 -0.001969 0.004099 0.000000 0.041892 0.000000
# 6 0.000000 0.000000 0.000000 -0.018802 0.000000 0.011197
#
#
# Mechanical properties :
#
#
# Convention : Reuss Voigt Hill
#
# Bulk Modulus (GPa) = 32.00957 47.42789 39.71873
# Shear Modulus (GPa) = 39.54754 13.50003 26.52379
#
# Velocity S-wave (km/s) = 4.40376 2.57295 3.60646
# Velocity P-wave (km/s) = 6.44625 5.66429 6.06788
#
# Compressibility (1/GPa) = 0.03124066
#
# Stress axis : x y z
#
# Youngs Moduli (GPa) = 33.80067 125.74688 122.70553
#
# Poissons Ratio (x) = 0.46439 0.27822
# Poissons Ratio (y) = 0.12483 0.15496
# Poissons Ratio (z) = 0.07664 0.15880
#
# Static dielectric constant tensor:
#      x y z
#    x 1.749040 0.000000 0.025100 
#    y 0.000000 1.713210 0.000000 
#    z 0.025100 0.000000 1.765470 
# 
# From -- ./inp_files/50535.got.cif
#   From: 2010.05.17/outbox.cif.g08.bks.cpg/sg5_26_cif.got.tgz:50535.got - 2010.06.03 18:56:24.
