data_PCOD9122873
_publ_section_title
;
Structure prediction by ZEFSAII (Michael W. Deem and Ramdas Pophale) SiO2 
 PCOD9122873
Probable space group: C 2
;
_chemical_formula_sum "Si O2"
_cell_formula_units_Z 30
_cell_length_a 18.822171
_cell_length_b 7.146108
_cell_length_c 10.044287
_cell_angle_alpha 90.000000
_cell_angle_beta 89.303805
_cell_angle_gamma 90.000000
_cell_volume 1350.909769
_symmetry_space_group_name_H-M "C 2"
_symmetry_group_IT_number 5
_symmetry_cell_setting 'monoclinic'
loop_
_space_group_symop_operation_xyz
x,y,z
-x,y,-z
1/2+x,1/2+y,z
1/2-x,1/2+y,-z
loop_
_atom_site_type_symbol
_atom_site_label
_atom_site_fract_x
_atom_site_fract_y
_atom_site_fract_z
Si Si1 0.420913 0.581110 0.044674
Si Si2 0.925579 0.639126 0.072806
Si Si3 0.308541 0.597965 0.838220
Si Si4 0.500000 0.630420 0.500000
Si Si5 0.238900 0.171961 0.657530
Si Si6 0.345347 0.465500 0.562736
Si Si7 0.207633 0.669796 0.069629
Si Si8 0.597337 0.848988 0.708597
O O1 0.413688 0.362154 0.079870
O O2 0.401534 0.701049 0.171434
O O3 0.500000 0.612978 0.000000
O O4 0.378447 0.645707 0.916880
O O5 0.920425 0.542309 0.216572
O O6 0.864930 0.572875 0.971227
O O7 0.000000 0.603546 0.000000
O O8 0.319216 0.605841 0.681568
O O9 0.300925 0.377527 0.873022
O O10 0.247267 0.686842 0.928010
O O11 0.431103 0.502337 0.547536
O O12 0.539253 0.767737 0.606427
O O13 0.313349 0.260622 0.602354
O O14 0.198071 0.024247 0.566769
O O15 0.252614 0.084277 0.803838
O O16 0.179498 0.340151 0.659046
#
# Coordination Sequence:
#
# PCOD9122873 Si02
#       8
#     4   4   4   2   4   4   4   4
#     4  10  20  36  63  95 128 167 211 270 335 393
#     4  10  22  38  61  96 132 164 216 276 330 397
#     4  10  20  36  61  90 124 165 213 269 329 388
#     4  10  24  44  68  90 136 184 228 270 348 406
#     4  10  22  42  64  94 133 172 233 272 335 404
#     4  10  22  42  65  93 133 177 224 282 329 410
#     4  10  20  37  61  93 125 161 214 272 330 391
#     4  11  21  44  64  94 131 176 219 278 328 403
#
# _framework density 22.207255
#
# number of rings (size 3 to 8) (size 9 to 14) (size 15 to 20)
#    0.000    1.867    1.333    2.800    0.000    2.133 
#   12.000    0.667    0.000    0.000    0.000    0.000 
#    0.000    0.000    0.000    0.000    0.000    0.000 
#
# Total GULP energy -83595.332138 kJ/mol
# GULP energy per Si atom -5573.022143 kJ/mol
# Density = 2.215671 g / cm^3
# Si number density = 22.207255 Si / 1000 Ang^3
#
#
#
# Elastic Constant Matrix: (Units=GPa)
#
#
# Indices 1 2 3 4 5 6 
#
# 1 150.6433 6.1317 29.2970 0.0000 3.4412 0.0000
# 2 6.1317 32.0609 -11.8928 0.0000 -11.3186 0.0000
# 3 29.2970 -11.8928 62.3577 0.0000 11.1838 0.0000
# 4 0.0000 0.0000 0.0000 18.4480 0.0000 -2.6861
# 5 3.4412 -11.3186 11.1838 0.0000 40.2847 0.0000
# 6 0.0000 0.0000 0.0000 -2.6861 0.0000 -1.4877
#
#
#
# Elastic Compliance Matrix: (Units=1/GPa)
#
#
# Indices 1 2 3 4 5 6 
#
# 1 0.007566 -0.003094 -0.004076 0.000000 -0.000384 0.000000
# 2 -0.003094 0.037513 0.007020 0.000000 0.008855 0.000000
# 3 -0.004076 0.007020 0.019863 0.000000 -0.003194 0.000000
# 4 0.000000 0.000000 0.000000 0.042923 0.000000 -0.077497
# 5 -0.000384 0.008855 -0.003194 0.000000 0.028231 0.000000
# 6 0.000000 0.000000 0.000000 -0.077497 0.000000 -0.532245
#
#
# Mechanical properties :
#
#
# Convention : Reuss Voigt Hill
#
# Bulk Modulus (GPa) = 15.47006 32.45931 23.96468
# Shear Modulus (GPa) = -13.35815 26.21740 6.42963
#
# Velocity S-wave (km/s) = -2.45526 3.43968 1.70340
# Velocity P-wave (km/s) = 1.02779 5.51575 3.83191
#
# Compressibility (1/GPa) = 0.06464100
#
# Stress axis : x y z
#
# Youngs Moduli (GPa) = 132.17765 26.65766 50.34481
#
# Poissons Ratio (x) = 0.08249 0.20519
# Poissons Ratio (y) = 0.40901 -0.35342
# Poissons Ratio (z) = 0.53872 -0.18714
#
# Static dielectric constant tensor:
#      x y z
#    x 1.990830 0.000000 -0.015220 
#    y 0.000000 1.899190 0.000000 
#    z -0.015220 0.000000 1.860720 
# 
# From -- ./inp_files/28925.got.cif
#   From: 2010.05.17/outbox.cif.g08.bks.cpg/sg5_15_cif.got.tgz:28925.got - 2010.06.03 18:56:24.
