data_PCOD9122274
_publ_section_title
;
Structure prediction by ZEFSAII (Michael W. Deem and Ramdas Pophale) SiO2 
 PCOD9122274
Probable space group: C 2
;
_chemical_formula_sum "Si O2"
_cell_formula_units_Z 32
_cell_length_a 8.794259
_cell_length_b 14.386368
_cell_length_c 21.564971
_cell_angle_alpha 90.000000
_cell_angle_beta 29.966190
_cell_angle_gamma 90.000000
_cell_volume 1362.778004
_symmetry_space_group_name_H-M "C 2"
_symmetry_group_IT_number 5
_symmetry_cell_setting 'monoclinic'
loop_
_space_group_symop_operation_xyz
x,y,z
-x,y,-z
1/2+x,1/2+y,z
1/2-x,1/2+y,-z
loop_
_atom_site_type_symbol
_atom_site_label
_atom_site_fract_x
_atom_site_fract_y
_atom_site_fract_z
Si Si1 0.213191 0.440860 0.192014
Si Si2 0.943715 0.764941 0.947766
Si Si3 0.339104 0.982799 0.199052
Si Si4 0.959578 0.667143 0.415607
Si Si5 0.859918 0.843951 0.386421
Si Si6 0.599886 0.598699 0.036100
Si Si7 0.493387 0.672739 0.682501
Si Si8 0.265399 0.963566 0.451535
O O1 0.502276 0.374157 0.079185
O O2 0.022457 0.446818 0.195264
O O3 0.003113 0.410804 0.323017
O O4 0.338588 0.543077 0.163455
O O5 0.196012 0.724599 0.811582
O O6 0.648399 0.705074 0.036745
O O7 0.000000 0.744101 0.000000
O O8 0.589488 0.037019 0.068302
O O9 0.111030 0.067470 0.294468
O O10 0.112565 0.900373 0.256943
O O11 0.951656 0.736249 0.360223
O O12 0.673260 0.702789 0.557991
O O13 0.916031 0.557105 0.424038
O O14 0.265187 0.680018 0.347072
O O15 0.500000 0.853083 0.500000
O O16 0.875612 0.896663 0.447281
O O17 0.500000 0.594905 0.000000
O O18 0.000000 0.997331 0.500000
#
# Coordination Sequence:
#
# PCOD9122274 Si02
#       8
#     4   4   4   4   4   4   4   4
#     4  11  22  42  69  94 131 176 224 274 331 398
#     4  11  23  40  68  98 128 169 227 270 332 396
#     4  10  19  40  65  90 126 172 215 269 335 388
#     4  11  23  38  64  94 133 172 223 267 334 396
#     4  12  24  39  62  95 134 175 220 275 334 394
#     4   9  22  43  67  91 129 173 220 277 337 390
#     4  10  21  39  65  94 133 171 209 278 331 391
#     4  12  24  41  65  96 133 175 223 271 333 403
#
# _framework density 23.481446999999999
#
# number of rings (size 3 to 8) (size 9 to 14) (size 15 to 20)
#    0.000    1.250    2.500    3.750    3.500    0.000 
#    0.000    1.875    2.750    0.000    0.000    0.000 
#    0.000    0.000    0.000    0.000    0.000    0.000 
#
# Total GULP energy -89318.821570 kJ/mol
# GULP energy per Si atom -5582.426348 kJ/mol
# Density = 2.342800 g / cm^3
# Si number density = 23.481447 Si / 1000 Ang^3
#
#
#
# Elastic Constant Matrix: (Units=GPa)
#
#
# Indices 1 2 3 4 5 6 
#
# 1 17.1085 0.6703 1.1098 -0.0016 -10.1420 -0.0115
# 2 0.6703 103.0002 9.9218 -0.0115 -15.8308 -0.0101
# 3 1.1098 9.9218 53.5698 0.0073 -7.3767 0.0083
# 4 -0.0016 -0.0115 0.0073 40.8826 -0.0035 -9.0425
# 5 -10.1420 -15.8308 -7.3767 -0.0035 28.8506 0.0011
# 6 -0.0115 -0.0101 0.0083 -9.0425 0.0011 24.2542
#
#
#
# Elastic Compliance Matrix: (Units=1/GPa)
#
#
# Indices 1 2 3 4 5 6 
#
# 1 0.075403 0.003805 0.001732 0.000015 0.029038 0.000041
# 2 0.003805 0.010871 -0.001126 0.000006 0.007015 0.000009
# 3 0.001732 -0.001126 0.019526 -0.000005 0.004983 -0.000008
# 4 0.000015 0.000006 -0.000005 0.026659 0.000010 0.009939
# 5 0.029038 0.007015 0.004983 0.000010 0.049992 0.000016
# 6 0.000041 0.000009 -0.000008 0.009939 0.000016 0.044935
#
#
# Mechanical properties :
#
#
# Convention : Reuss Voigt Hill
#
# Bulk Modulus (GPa) = 8.72438 21.89805 15.31121
# Shear Modulus (GPa) = 19.47260 29.59595 24.53428
#
# Velocity S-wave (km/s) = 2.88284 3.55406 3.23590
# Velocity P-wave (km/s) = 3.84766 5.11739 4.52726
#
# Compressibility (1/GPa) = 0.11462127
#
# Stress axis : x y z
#
# Youngs Moduli (GPa) = 13.26212 91.99147 51.21333
#
# Poissons Ratio (x) = -0.35007 -0.08869
# Poissons Ratio (y) = -0.05047 0.05768
# Poissons Ratio (z) = -0.02297 0.10361
#
# Static dielectric constant tensor:
#      x y z
#    x 1.842550 0.000000 0.008150 
#    y 0.000000 1.910700 -0.000010 
#    z 0.008150 -0.000010 1.918020 
# 
# From -- ./inp_files/68035.got.cif
#   From: 2010.05.17/outbox.cif.g08.bks.cpg/sg5_35_cif.got.tgz:68035.got - 2010.06.03 18:56:24.
