data_PCOD9122018
_publ_section_title
;
Structure prediction by ZEFSAII (Michael W. Deem and Ramdas Pophale) SiO2 
 PCOD9122018
Probable space group: C 2
;
_chemical_formula_sum "Si O2"
_cell_formula_units_Z 32
_cell_length_a 23.908810
_cell_length_b 13.595204
_cell_length_c 8.648215
_cell_angle_alpha 90.000000
_cell_angle_beta 28.028171
_cell_angle_gamma 90.000000
_cell_volume 1320.933080
_symmetry_space_group_name_H-M "C 2"
_symmetry_group_IT_number 5
_symmetry_cell_setting 'monoclinic'
loop_
_space_group_symop_operation_xyz
x,y,z
-x,y,-z
1/2+x,1/2+y,z
1/2-x,1/2+y,-z
loop_
_atom_site_type_symbol
_atom_site_label
_atom_site_fract_x
_atom_site_fract_y
_atom_site_fract_z
Si Si1 0.477312 0.527110 0.728513
Si Si2 0.481973 0.750989 0.713335
Si Si3 0.805637 0.536007 0.563481
Si Si4 0.166397 0.328342 0.500950
Si Si5 0.861384 0.764501 0.801080
Si Si6 0.228841 0.739619 0.469224
Si Si7 0.163835 0.896394 0.427615
Si Si8 0.139042 0.537228 0.204626
O O1 0.500000 0.487583 0.500000
O O2 0.526882 0.638444 0.604456
O O3 0.550153 0.463661 0.671621
O O4 0.337648 0.533144 0.099363
O O5 0.500000 0.794754 0.500000
O O6 0.551757 0.803679 0.679379
O O7 0.342403 0.746546 0.079950
O O8 0.850227 0.434538 0.380436
O O9 0.840268 0.639069 0.398460
O O10 0.842717 0.528969 0.653744
O O11 0.208129 0.245611 0.518880
O O12 0.278036 0.331309 0.111266
O O13 0.844351 0.804492 0.670822
O O14 0.825854 0.651016 0.911569
O O15 0.000000 0.769918 0.500000
O O16 0.163358 0.842300 0.593902
O O17 0.276592 0.963258 0.098528
O O18 0.000000 0.525323 0.500000
#
# Coordination Sequence:
#
# PCOD9122018 Si02
#       8
#     4   4   4   4   4   4   4   4
#     4  10  19  37  67 100 123 161 225 289 324 373
#     4  10  23  41  71 101 129 175 231 277 324 394
#     4  11  23  43  65  96 135 173 224 281 335 395
#     4  12  24  42  70  97 138 179 218 273 349 401
#     4  11  23  41  67  95 129 174 228 274 323 392
#     4  11  27  43  64 100 142 175 216 278 343 407
#     4  12  21  39  68  97 128 173 228 275 325 397
#     4  11  24  39  65 103 132 170 228 282 323 392
#
# _framework density 24.225299
#
# number of rings (size 3 to 8) (size 9 to 14) (size 15 to 20)
#    0.000    1.000    3.750    3.000    3.500    2.000 
#    0.000    3.750    0.000    0.000    0.000    0.000 
#    0.000    0.000    0.000    0.000    0.000    0.000 
#
# Total GULP energy -89534.318516 kJ/mol
# GULP energy per Si atom -5595.894907 kJ/mol
# Density = 2.417016 g / cm^3
# Si number density = 24.225299 Si / 1000 Ang^3
#
#
#
# Elastic Constant Matrix: (Units=GPa)
#
#
# Indices 1 2 3 4 5 6 
#
# 1 112.9482 44.9969 13.4684 0.0000 -30.7841 0.0000
# 2 44.9969 164.6510 -0.5114 0.0000 -19.3117 0.0000
# 3 13.4684 -0.5114 44.1201 0.0000 -27.6642 0.0000
# 4 0.0000 0.0000 0.0000 21.8690 0.0000 -3.9694
# 5 -30.7841 -19.3117 -27.6642 0.0000 37.8612 0.0000
# 6 0.0000 0.0000 0.0000 -3.9694 0.0000 29.7085
#
#
#
# Elastic Compliance Matrix: (Units=1/GPa)
#
#
# Indices 1 2 3 4 5 6 
#
# 1 0.012401 -0.002021 0.003445 0.000000 0.011570 0.000000
# 2 -0.002021 0.007186 0.003632 0.000000 0.004675 0.000000
# 3 0.003445 0.003632 0.045351 0.000000 0.037791 0.000000
# 4 0.000000 0.000000 0.000000 0.046863 0.000000 0.006261
# 5 0.011570 0.004675 0.037791 0.000000 0.065816 0.000000
# 6 0.000000 0.000000 0.000000 0.006261 0.000000 0.034497
#
#
# Mechanical properties :
#
#
# Convention : Reuss Voigt Hill
#
# Bulk Modulus (GPa) = 13.32464 48.62522 30.97493
# Shear Modulus (GPa) = 22.02448 35.47212 28.74830
#
# Velocity S-wave (km/s) = 3.01849 3.83072 3.44860
# Velocity P-wave (km/s) = 4.20245 6.29933 5.35453
#
# Compressibility (1/GPa) = 0.07504896
#
# Stress axis : x y z
#
# Youngs Moduli (GPa) = 80.63598 139.16906 22.05013
#
# Poissons Ratio (x) = 0.28133 -0.07597
# Poissons Ratio (y) = 0.16300 -0.08008
# Poissons Ratio (z) = -0.27780 -0.50542
#
# Static dielectric constant tensor:
#      x y z
#    x 1.973540 0.000000 0.023810 
#    y 0.000000 2.011960 0.000000 
#    z 0.023810 0.000000 1.908550 
# 
# From -- ./inp_files/31044.got.cif
#   From: 2010.05.17/outbox.cif.g08.bks.cpg/sg5_16_cif.got.tgz:31044.got - 2010.06.03 18:56:24.
