data_PCOD9122710
_publ_section_title
;
Structure prediction by ZEFSAII (Michael W. Deem and Ramdas Pophale) SiO2 
 PCOD9122710
Probable space group: C 2
;
_chemical_formula_sum "Si O2"
_cell_formula_units_Z 26
_cell_length_a 17.589139
_cell_length_b 8.788556
_cell_length_c 15.182848
_cell_angle_alpha 90.000000
_cell_angle_beta 33.203206
_cell_angle_gamma 90.000000
_cell_volume 1285.247461
_symmetry_space_group_name_H-M "C 2"
_symmetry_group_IT_number 5
_symmetry_cell_setting 'monoclinic'
loop_
_space_group_symop_operation_xyz
x,y,z
-x,y,-z
1/2+x,1/2+y,z
1/2-x,1/2+y,-z
loop_
_atom_site_type_symbol
_atom_site_label
_atom_site_fract_x
_atom_site_fract_y
_atom_site_fract_z
Si Si1 0.000000 0.267160 0.000000
Si Si2 0.272305 0.029545 0.604578
Si Si3 0.675728 0.827156 0.593790
Si Si4 0.054768 0.407813 0.299592
Si Si5 0.500000 0.654411 0.500000
Si Si6 0.000000 0.754654 0.000000
Si Si7 0.213317 0.512394 0.723274
Si Si8 0.664530 0.512520 0.910753
O O1 0.869776 0.371124 0.152516
O O2 0.937106 0.156782 0.985462
O O3 0.216929 0.173231 0.603125
O O4 0.220729 0.021677 0.754615
O O5 0.248918 0.873093 0.571347
O O6 0.440367 0.030874 0.442577
O O7 0.513646 0.842708 0.723487
O O8 0.711527 0.966239 0.623532
O O9 0.204321 0.485809 0.154318
O O10 0.048686 0.268222 0.374733
O O11 0.368934 0.551315 0.601018
O O12 0.117690 0.652628 0.842839
O O13 0.070129 0.863326 0.003955
#
# Coordination Sequence:
#
# PCOD9122710 Si02
#       8
#     2   4   4   4   2   2   4   4
#     4  10  24  38  60  90 128 164 208 248 312 368
#     4  10  20  36  63  89 125 157 206 261 310 366
#     4  10  22  37  59  91 130 154 197 270 323 353
#     4  10  20  35  62  95 118 155 211 258 310 357
#     4  12  20  38  68  94 122 158 222 258 298 372
#     4  10  22  36  66  84 122 166 210 246 310 380
#     4  11  22  40  61  94 122 161 207 261 304 369
#     4  11  19  40  63  85 119 172 210 246 304 385
#
# _framework density 20.229566999999999
#
# number of rings (size 3 to 8) (size 9 to 14) (size 15 to 20)
#    0.923    0.615    4.615    0.923    2.154    1.231 
#    0.000    1.538    0.000    0.000    0.000    0.000 
#    0.000    0.000    0.000    0.000    0.000    0.000 
#
# Total GULP energy -72417.873040 kJ/mol
# GULP energy per Si atom -5570.605618 kJ/mol
# Density = 2.018352 g / cm^3
# Si number density = 20.229567 Si / 1000 Ang^3
#
#
#
# Elastic Constant Matrix: (Units=GPa)
#
#
# Indices 1 2 3 4 5 6 
#
# 1 100.4652 38.2864 32.7542 0.0000 -36.9820 0.0000
# 2 38.2864 100.7218 33.9879 0.0000 -21.5679 0.0000
# 3 32.7542 33.9879 83.4717 0.0000 -36.1666 0.0000
# 4 0.0000 0.0000 0.0000 162.1069 0.0000 -15.1022
# 5 -36.9820 -21.5679 -36.1666 0.0000 47.1886 0.0000
# 6 0.0000 0.0000 0.0000 -15.1022 0.0000 25.5940
#
#
#
# Elastic Compliance Matrix: (Units=1/GPa)
#
#
# Indices 1 2 3 4 5 6 
#
# 1 0.015049 -0.003525 -0.000087 0.000000 0.010117 0.000000
# 2 -0.003525 0.012536 -0.003646 0.000000 0.000172 0.000000
# 3 -0.000087 -0.003646 0.019085 0.000000 0.012893 0.000000
# 4 0.000000 0.000000 0.000000 0.006528 0.000000 0.003852
# 5 0.010117 0.000172 0.012893 0.000000 0.039080 0.000000
# 6 0.000000 0.000000 0.000000 0.003852 0.000000 0.041344
#
#
# Mechanical properties :
#
#
# Convention : Reuss Voigt Hill
#
# Bulk Modulus (GPa) = 31.10049 54.96840 43.03445
# Shear Modulus (GPa) = 31.47499 58.95324 45.21412
#
# Velocity S-wave (km/s) = 3.94876 5.40420 4.73276
# Velocity P-wave (km/s) = 6.01643 8.13461 7.15434
#
# Compressibility (1/GPa) = 0.03215383
#
# Stress axis : x y z
#
# Youngs Moduli (GPa) = 66.44815 79.77282 52.39705
#
# Poissons Ratio (x) = 0.28120 0.00454
# Poissons Ratio (y) = 0.23423 0.19106
# Poissons Ratio (z) = 0.00576 0.29089
#
# Static dielectric constant tensor:
#      x y z
#    x 1.664770 0.000000 -0.136030 
#    y 0.000000 1.748990 0.000000 
#    z -0.136030 0.000000 1.400720 
# 
# From -- ./inp_files/62164.got.cif
#   From: 2010.05.17/outbox.cif.g08.bks.cpg/sg5_32_cif.got.tgz:62164.got - 2010.06.03 18:56:24.
