data_PCOD9122546
_publ_section_title
;
Structure prediction by ZEFSAII (Michael W. Deem and Ramdas Pophale) SiO2 
 PCOD9122546
Probable space group: C 2
;
_chemical_formula_sum "Si O2"
_cell_formula_units_Z 26
_cell_length_a 18.391789
_cell_length_b 7.596298
_cell_length_c 6.754449
_cell_angle_alpha 90.000000
_cell_angle_beta 82.059602
_cell_angle_gamma 90.000000
_cell_volume 934.613231
_symmetry_space_group_name_H-M "C 2"
_symmetry_group_IT_number 5
_symmetry_cell_setting 'monoclinic'
loop_
_space_group_symop_operation_xyz
x,y,z
-x,y,-z
1/2+x,1/2+y,z
1/2-x,1/2+y,-z
loop_
_atom_site_type_symbol
_atom_site_label
_atom_site_fract_x
_atom_site_fract_y
_atom_site_fract_z
Si Si1 0.745885 0.869680 0.327180
Si Si2 0.598661 0.723676 0.264078
Si Si3 0.869617 0.819050 0.802126
Si Si4 0.437736 0.673342 0.259579
Si Si5 0.500000 0.144375 0.000000
Si Si6 0.099604 0.758231 0.670397
Si Si7 0.289035 0.763074 0.222490
O O1 0.672515 0.838494 0.228489
O O2 0.816696 0.743322 0.283082
O O3 0.724395 0.864358 0.567006
O O4 0.778232 0.059004 0.276532
O O5 0.619630 0.526462 0.199047
O O6 0.519082 0.747250 0.197354
O O7 0.582915 0.716331 0.506417
O O8 0.889886 0.755919 0.571357
O O9 0.783012 0.799638 0.878627
O O10 0.926990 0.729592 0.925954
O O11 0.433885 0.455783 0.260559
O O12 0.375575 0.763676 0.145608
O O13 0.455475 0.111221 0.224959
#
# Coordination Sequence:
#
# PCOD9122546 Si02
#       7
#     4   4   4   4   2   4   4
#     4   9  17  31  56  83 115 146 181 229 277 332
#     4   9  15  29  56  82 113 138 183 231 268 319
#     4  10  20  34  57  86 111 141 189 235 269 327
#     4   8  14  28  53  78 109 143 175 223 264 327
#     4  12  20  32  58  82 108 148 194 228 270 330
#     4   9  18  33  53  84 111 139 185 234 266 323
#     4   9  17  31  54  78 114 149 181 223 285 324
#
# _framework density 27.818995000000001
#
# number of rings (size 3 to 8) (size 9 to 14) (size 15 to 20)
#    0.000    2.769    1.538    3.231    0.000    0.000 
#    0.000    3.077   30.462    0.923    0.000    0.000 
#    0.000    0.000    0.000    0.000    0.000    0.000 
#
# Total GULP energy -72644.525170 kJ/mol
# GULP energy per Si atom -5588.040398 kJ/mol
# Density = 2.775568 g / cm^3
# Si number density = 27.818995 Si / 1000 Ang^3
#
#
#
# Elastic Constant Matrix: (Units=GPa)
#
#
# Indices 1 2 3 4 5 6 
#
# 1 258.9217 53.5817 52.5721 0.0000 4.3459 0.0000
# 2 53.5817 47.8727 -2.5997 0.0000 -5.3697 0.0000
# 3 52.5721 -2.5997 117.9369 0.0000 11.4324 0.0000
# 4 0.0000 0.0000 0.0000 -40.7773 0.0000 14.9233
# 5 4.3459 -5.3697 11.4324 0.0000 77.8026 0.0000
# 6 0.0000 0.0000 0.0000 14.9233 0.0000 39.2055
#
#
#
# Elastic Compliance Matrix: (Units=1/GPa)
#
#
# Indices 1 2 3 4 5 6 
#
# 1 0.005798 -0.006679 -0.002694 0.000000 -0.000389 0.000000
# 2 -0.006679 0.028759 0.003432 0.000000 0.001854 0.000000
# 3 -0.002694 0.003432 0.009859 0.000000 -0.001061 0.000000
# 4 0.000000 0.000000 0.000000 -0.021525 0.000000 0.008193
# 5 -0.000389 0.001854 -0.001061 0.000000 0.013159 0.000000
# 6 0.000000 0.000000 0.000000 0.008193 0.000000 0.022388
#
#
# Mechanical properties :
#
#
# Convention : Reuss Voigt Hill
#
# Bulk Modulus (GPa) = 30.73906 70.20438 50.47172
# Shear Modulus (GPa) = 61.60349 36.65797 49.13073
#
# Velocity S-wave (km/s) = 4.71089 3.63400 4.20704
# Velocity P-wave (km/s) = 6.37680 6.54972 6.46384
#
# Compressibility (1/GPa) = 0.03253190
#
# Stress axis : x y z
#
# Youngs Moduli (GPa) = 172.47555 34.77193 101.43500
#
# Poissons Ratio (x) = 0.23225 0.27327
# Poissons Ratio (y) = 1.15201 -0.34809
# Poissons Ratio (z) = 0.46465 -0.11932
#
# Static dielectric constant tensor:
#      x y z
#    x 2.278200 0.000000 0.086430 
#    y 0.000000 2.188140 0.000000 
#    z 0.086430 0.000000 2.271150 
# 
# From -- ./inp_files/26750.got.cif
#   From: 2010.05.17/outbox.cif.g08.bks.cpg/sg5_14_cif.got.tgz:26750.got - 2010.06.03 18:56:24.
