data_PCOD9122349
_publ_section_title
;
Structure prediction by ZEFSAII (Michael W. Deem and Ramdas Pophale) SiO2 
 PCOD9122349
Probable space group: C 2
;
_chemical_formula_sum "Si O2"
_cell_formula_units_Z 32
_cell_length_a 26.188869
_cell_length_b 7.643020
_cell_length_c 22.072044
_cell_angle_alpha 90.000000
_cell_angle_beta 19.947269
_cell_angle_gamma 90.000000
_cell_volume 1507.218624
_symmetry_space_group_name_H-M "C 2"
_symmetry_group_IT_number 5
_symmetry_cell_setting 'monoclinic'
loop_
_space_group_symop_operation_xyz
x,y,z
-x,y,-z
1/2+x,1/2+y,z
1/2-x,1/2+y,-z
loop_
_atom_site_type_symbol
_atom_site_label
_atom_site_fract_x
_atom_site_fract_y
_atom_site_fract_z
Si Si1 0.447806 0.362970 0.617008
Si Si2 0.489981 0.111217 0.738654
Si Si3 0.329638 0.675125 0.035214
Si Si4 0.664194 0.508633 0.838825
Si Si5 0.467690 0.004720 0.177903
Si Si6 0.789018 0.791689 0.602435
Si Si7 0.748516 0.695831 0.185814
Si Si8 0.739115 0.865973 0.066483
O O1 0.500000 0.255922 0.500000
O O2 0.340325 0.242750 0.776255
O O3 0.590764 0.410037 0.496317
O O4 0.352657 0.523741 0.697165
O O5 0.615407 0.188452 0.554540
O O6 0.567239 0.091951 0.718627
O O7 0.408215 0.937944 0.802697
O O8 0.345877 0.236566 0.910731
O O9 0.354934 0.603834 0.074834
O O10 0.344998 0.527771 0.968232
O O11 0.431895 0.840810 0.913626
O O12 0.726253 0.647154 0.720297
O O13 0.759011 0.336190 0.751711
O O14 0.500000 0.453425 0.000000
O O15 0.335574 0.918122 0.286905
O O16 0.579433 0.130471 0.015376
O O17 0.701858 0.781195 0.173412
#
# Coordination Sequence:
#
# PCOD9122349 Si02
#       8
#     4   4   4   4   4   4   4   4
#     4  11  22  40  64 101 136 168 216 282 338 403
#     4  11  24  41  66  99 134 179 232 273 336 392
#     4  10  19  41  71  91 127 176 229 260 341 408
#     4  11  22  43  72  99 131 180 218 274 346 412
#     4  10  23  45  65  94 135 182 220 278 331 405
#     4  12  25  41  71 102 141 173 223 277 347 397
#     4   9  24  43  69  97 129 178 230 273 337 408
#     4  10  21  40  68  95 125 179 231 278 322 405
#
# _framework density 21.231159999999999
#
# number of rings (size 3 to 8) (size 9 to 14) (size 15 to 20)
#    0.000    1.500    3.750    0.750    3.500    3.000 
#    4.500    0.000    0.000    0.000    0.000    0.000 
#    0.000    0.000    0.000    0.000    0.000    0.000 
#
# Total GULP energy -89293.705299 kJ/mol
# GULP energy per Si atom -5580.856581 kJ/mol
# Density = 2.118284 g / cm^3
# Si number density = 21.231160 Si / 1000 Ang^3
#
#
#
# Elastic Constant Matrix: (Units=GPa)
#
#
# Indices 1 2 3 4 5 6 
#
# 1 127.5832 35.8864 54.1590 0.0005 -7.1554 0.0000
# 2 35.8864 68.2278 15.1897 -0.0030 -1.3896 0.0007
# 3 54.1590 15.1897 63.8220 -0.0078 -14.5849 0.0014
# 4 0.0005 -0.0030 -0.0078 12.4495 0.0019 -6.5800
# 5 -7.1554 -1.3896 -14.5849 0.0019 25.1403 0.0001
# 6 0.0000 0.0007 0.0014 -6.5800 0.0001 45.9286
#
#
#
# Elastic Compliance Matrix: (Units=1/GPa)
#
#
# Indices 1 2 3 4 5 6 
#
# 1 0.013790 -0.004817 -0.011205 -0.000009 -0.002842 -0.000001
# 2 -0.004817 0.017207 -0.000120 0.000005 -0.000489 0.000000
# 3 -0.011205 -0.000120 0.028216 0.000017 0.013174 0.000002
# 4 -0.000009 0.000005 0.000017 0.086905 0.000001 0.012451
# 5 -0.002842 -0.000489 0.013174 0.000001 0.046583 0.000000
# 6 -0.000001 0.000000 0.000002 0.012451 0.000000 0.023557
#
#
# Mechanical properties :
#
#
# Convention : Reuss Voigt Hill
#
# Bulk Modulus (GPa) = 37.13325 52.23371 44.68348
# Shear Modulus (GPa) = 19.41609 26.99687 23.20648
#
# Velocity S-wave (km/s) = 3.02737 3.56977 3.30970
# Velocity P-wave (km/s) = 5.45416 6.45344 5.97473
#
# Compressibility (1/GPa) = 0.02693004
#
# Stress axis : x y z
#
# Youngs Moduli (GPa) = 72.51604 58.11634 35.44051
#
# Poissons Ratio (x) = 0.27992 0.39712
# Poissons Ratio (y) = 0.34927 0.00425
# Poissons Ratio (z) = 0.81256 0.00696
#
# Static dielectric constant tensor:
#      x y z
#    x 1.799830 0.000000 -0.000390 
#    y 0.000000 1.789650 0.000000 
#    z -0.000390 0.000000 1.760050 
# 
# From -- ./inp_files/69915.got.cif
#   From: 2010.05.17/outbox.cif.g08.bks.cpg/sg5_35_cif.got.tgz:69915.got - 2010.06.03 18:56:24.
