data_PCOD9122278
_publ_section_title
;
Structure prediction by ZEFSAII (Michael W. Deem and Ramdas Pophale) SiO2 
 PCOD9122278
Probable space group: C 2
;
_chemical_formula_sum "Si O2"
_cell_formula_units_Z 30
_cell_length_a 17.137486
_cell_length_b 5.017406
_cell_length_c 15.230900
_cell_angle_alpha 90.000000
_cell_angle_beta 101.186673
_cell_angle_gamma 90.000000
_cell_volume 1284.757224
_symmetry_space_group_name_H-M "C 2"
_symmetry_group_IT_number 5
_symmetry_cell_setting 'monoclinic'
loop_
_space_group_symop_operation_xyz
x,y,z
-x,y,-z
1/2+x,1/2+y,z
1/2-x,1/2+y,-z
loop_
_atom_site_type_symbol
_atom_site_label
_atom_site_fract_x
_atom_site_fract_y
_atom_site_fract_z
Si Si1 0.935625 0.268920 0.692968
Si Si2 0.662010 0.615469 0.039254
Si Si3 0.396721 0.759267 0.370578
Si Si4 0.262754 0.105679 0.882352
Si Si5 0.806332 0.289675 0.523812
Si Si6 0.347351 0.262337 0.264006
Si Si7 0.488812 0.258516 0.803929
Si Si8 0.500000 0.317316 0.000000
O O1 0.854545 0.220287 0.622727
O O2 0.934900 0.553918 0.738707
O O3 0.012429 0.280846 0.643754
O O4 0.955584 0.049257 0.771311
O O5 0.665265 0.916396 0.072244
O O6 0.575705 0.505084 0.008898
O O7 0.708296 0.410451 0.115229
O O8 0.704062 0.601391 0.953558
O O9 0.374216 0.827998 0.464560
O O10 0.374588 0.452155 0.349422
O O11 0.343179 0.961947 0.299471
O O12 0.221558 0.935700 0.796645
O O13 0.753200 0.554253 0.517392
O O14 0.421088 0.251082 0.212434
O O15 0.492501 0.175753 0.905428
#
# Coordination Sequence:
#
# PCOD9122278 Si02
#       8
#     4   4   4   4   4   4   4   2
#     4  10  23  46  67  93 127 171 227 250 316 384
#     4  10  23  36  63  81 125 160 224 250 325 360
#     4  10  22  40  70  95 118 177 206 257 303 396
#     4  10  20  41  56  90 116 173 201 274 298 378
#     4  12  25  45  68  99 137 163 200 271 336 381
#     4  10  19  40  65  93 127 159 227 253 309 366
#     4  10  23  40  68  94 128 173 212 280 300 381
#     4  12  24  46  60 100 128 176 220 260 334 366
#
# _framework density 23.350714
#
# number of rings (size 3 to 8) (size 9 to 14) (size 15 to 20)
#    0.000    1.600    1.333    2.800    0.000    3.200 
#   14.400    5.333    0.000    0.000    0.000    0.000 
#    0.000    0.000    0.000    0.000    0.000    0.000 
#
# Total GULP energy -83849.652166 kJ/mol
# GULP energy per Si atom -5589.976811 kJ/mol
# Density = 2.329757 g / cm^3
# Si number density = 23.350714 Si / 1000 Ang^3
#
#
#
# Elastic Constant Matrix: (Units=GPa)
#
#
# Indices 1 2 3 4 5 6 
#
# 1 46.4963 1.8026 18.1062 0.0000 6.7300 0.0000
# 2 1.8026 95.0850 -6.1221 0.0000 -9.8197 0.0000
# 3 18.1062 -6.1221 76.4165 0.0000 5.6931 0.0000
# 4 0.0000 0.0000 0.0000 1.0676 0.0000 -1.7269
# 5 6.7300 -9.8197 5.6931 0.0000 20.2403 0.0000
# 6 0.0000 0.0000 0.0000 -1.7269 0.0000 21.7909
#
#
#
# Elastic Compliance Matrix: (Units=1/GPa)
#
#
# Indices 1 2 3 4 5 6 
#
# 1 0.024769 -0.001592 -0.005439 0.000000 -0.007478 0.000000
# 2 -0.001592 0.011192 0.000848 0.000000 0.005721 0.000000
# 3 -0.005439 0.000848 0.014583 0.000000 -0.001882 0.000000
# 4 0.000000 0.000000 0.000000 1.074367 0.000000 0.085143
# 5 -0.007478 0.005721 -0.001882 0.000000 0.055198 0.000000
# 6 0.000000 0.000000 0.000000 0.085143 0.000000 0.052638
#
#
# Mechanical properties :
#
#
# Convention : Reuss Voigt Hill
#
# Bulk Modulus (GPa) = 26.19336 27.28568 26.73952
# Shear Modulus (GPa) = 3.97506 22.23385 13.10446
#
# Velocity S-wave (km/s) = 1.30615 3.08907 2.37154
# Velocity P-wave (km/s) = 3.67647 4.94304 4.35604
#
# Compressibility (1/GPa) = 0.03817761
#
# Stress axis : x y z
#
# Youngs Moduli (GPa) = 40.37246 89.34564 68.57257
#
# Poissons Ratio (x) = 0.14225 0.37299
# Poissons Ratio (y) = 0.06428 -0.05813
# Poissons Ratio (z) = 0.21960 -0.07574
#
# Static dielectric constant tensor:
#      x y z
#    x 1.889950 0.000000 -0.007560 
#    y 0.000000 1.812890 0.000000 
#    z -0.007560 0.000000 1.907660 
# 
# From -- ./inp_files/55487.got.cif
#   From: 2010.05.17/outbox.cif.g08.bks.cpg/sg5_28_cif.got.tgz:55487.got - 2010.06.03 18:56:24.
