data_PCOD9122298
_publ_section_title
;
Structure prediction by ZEFSAII (Michael W. Deem and Ramdas Pophale) SiO2 
 PCOD9122298
Probable space group: C 2
;
_chemical_formula_sum "Si O2"
_cell_formula_units_Z 20
_cell_length_a 20.812488
_cell_length_b 9.045223
_cell_length_c 5.169607
_cell_angle_alpha 90.000000
_cell_angle_beta 100.070328
_cell_angle_gamma 90.000000
_cell_volume 958.203898
_symmetry_space_group_name_H-M "C 2"
_symmetry_group_IT_number 5
_symmetry_cell_setting 'monoclinic'
loop_
_space_group_symop_operation_xyz
x,y,z
-x,y,-z
1/2+x,1/2+y,z
1/2-x,1/2+y,-z
loop_
_atom_site_type_symbol
_atom_site_label
_atom_site_fract_x
_atom_site_fract_y
_atom_site_fract_z
Si Si1 0.197332 0.478050 0.384972
Si Si2 0.042492 0.933169 0.274486
Si Si3 0.133503 0.188676 0.346720
Si Si4 0.198274 0.046329 0.899800
Si Si5 0.175191 0.796076 0.552414
O O1 0.138066 0.364272 0.328250
O O2 0.226142 0.536053 0.130949
O O3 0.182880 0.621978 0.540269
O O4 0.259353 0.375713 0.518094
O O5 0.109874 0.844779 0.359951
O O6 0.000000 0.916046 0.500000
O O7 0.065625 0.104094 0.264336
O O8 0.000000 0.888747 0.000000
O O9 0.162260 0.136841 0.643345
O O10 0.179146 0.123711 0.149583
O O11 0.172976 0.878313 0.830780
#
# Coordination Sequence:
#
# PCOD9122298 Si02
#       5
#     4   4   4   4   4
#     4  10  19  40  68  99 133 157 215 266 340 377
#     4  11  23  42  62  83 125 172 221 253 310 380
#     4  11  21  40  61  94 122 168 206 262 318 378
#     4   9  20  36  59  92 129 156 197 253 331 377
#     4   9  19  40  64  95 127 166 207 267 319 383
#
# _framework density 20.872384
#
# number of rings (size 3 to 8) (size 9 to 14) (size 15 to 20)
#    1.200    0.800    2.000    2.400    0.000    4.800 
#    0.000    2.000    0.000    0.000    0.000    0.000 
#    0.000    0.000    0.000    0.000    0.000    0.000 
#
# Total GULP energy -55740.705928 kJ/mol
# GULP energy per Si atom -5574.070593 kJ/mol
# Density = 2.082488 g / cm^3
# Si number density = 20.872384 Si / 1000 Ang^3
#
#
#
# Elastic Constant Matrix: (Units=GPa)
#
#
# Indices 1 2 3 4 5 6 
#
# 1 70.1093 16.6333 28.9133 0.0000 12.5291 0.0000
# 2 16.6333 146.5768 35.1607 0.0000 -0.3947 0.0000
# 3 28.9133 35.1607 113.6073 0.0000 -3.4233 0.0000
# 4 0.0000 0.0000 0.0000 12.7549 0.0000 6.7939
# 5 12.5291 -0.3947 -3.4233 0.0000 27.2013 0.0000
# 6 0.0000 0.0000 0.0000 6.7939 0.0000 19.1700
#
#
#
# Elastic Compliance Matrix: (Units=1/GPa)
#
#
# Indices 1 2 3 4 5 6 
#
# 1 0.017945 -0.000973 -0.004533 0.000000 -0.008850 0.000000
# 2 -0.000973 0.007423 -0.002041 0.000000 0.000299 0.000000
# 3 -0.004533 -0.002041 0.010690 0.000000 0.003403 0.000000
# 4 0.000000 0.000000 0.000000 0.096646 0.000000 -0.034251
# 5 -0.008850 0.000299 0.003403 0.000000 0.041272 0.000000
# 6 0.000000 0.000000 0.000000 -0.034251 0.000000 0.064304
#
#
# Mechanical properties :
#
#
# Convention : Reuss Voigt Hill
#
# Bulk Modulus (GPa) = 47.69734 54.63422 51.16578
# Shear Modulus (GPa) = 19.20413 28.46432 23.83423
#
# Velocity S-wave (km/s) = 3.03656 3.69688 3.38287
# Velocity P-wave (km/s) = 5.93260 6.66744 6.31073
#
# Compressibility (1/GPa) = 0.02096553
#
# Stress axis : x y z
#
# Youngs Moduli (GPa) = 55.72545 134.71438 93.54554
#
# Poissons Ratio (x) = 0.13107 0.42401
# Poissons Ratio (y) = 0.05422 0.19091
# Poissons Ratio (z) = 0.25258 0.27492
#
# Static dielectric constant tensor:
#      x y z
#    x 1.762060 0.000000 -0.010030 
#    y 0.000000 1.791430 0.000000 
#    z -0.010030 0.000000 1.806380 
# 
# From -- ./inp_files/10046.got.cif
#   From: 2010.05.17/outbox.cif.g08.bks.cpg/sg5_6_cif.got.tgz:10046.got - 2010.06.03 18:56:24.
