data_PCOD9122836
_publ_section_title
;
Structure prediction by ZEFSAII (Michael W. Deem and Ramdas Pophale) SiO2 
 PCOD9122836
Probable space group: C 2
;
_chemical_formula_sum "Si O2"
_cell_formula_units_Z 28
_cell_length_a 20.937356
_cell_length_b 8.659474
_cell_length_c 14.627533
_cell_angle_alpha 90.000000
_cell_angle_beta 151.513002
_cell_angle_gamma 90.000000
_cell_volume 1264.927913
_symmetry_space_group_name_H-M "C 2"
_symmetry_group_IT_number 5
_symmetry_cell_setting 'monoclinic'
loop_
_space_group_symop_operation_xyz
x,y,z
-x,y,-z
1/2+x,1/2+y,z
1/2-x,1/2+y,-z
loop_
_atom_site_type_symbol
_atom_site_label
_atom_site_fract_x
_atom_site_fract_y
_atom_site_fract_z
Si Si1 0.944045 0.574110 0.567979
Si Si2 0.158475 0.321032 0.680051
Si Si3 0.890291 0.416252 0.679878
Si Si4 0.300815 0.824166 0.933185
Si Si5 0.081063 0.909508 0.515822
Si Si6 0.790020 0.132993 0.434990
Si Si7 0.247584 0.484121 0.947264
O O1 0.854064 0.493385 0.378383
O O2 0.880940 0.539157 0.585464
O O3 0.975644 0.748175 0.588025
O O4 0.085775 0.490869 0.744253
O O5 0.221029 0.218052 0.677566
O O6 0.260945 0.340358 0.893245
O O7 0.000000 0.281167 0.500000
O O8 0.819285 0.262082 0.548646
O O9 0.821741 0.509069 0.676092
O O10 0.045046 0.372188 0.887887
O O11 0.222241 0.856794 0.740029
O O12 0.297728 0.648944 0.971534
O O13 0.228291 0.933212 0.918471
O O14 0.000000 0.969392 0.500000
O O15 0.085657 0.022488 0.435431
#
# Coordination Sequence:
#
# PCOD9122836 Si02
#       7
#     4   4   4   4   4   4   4
#     4   9  17  38  64  90 126 163 201 247 318 384
#     4   9  17  36  63  94 125 160 205 258 320 378
#     4  10  24  44  64  91 121 176 215 259 308 372
#     4  11  24  37  66  96 134 157 209 263 317 373
#     4  12  22  37  65 100 126 165 207 256 322 381
#     4  11  24  40  66  86 129 168 223 258 307 378
#     4  10  20  36  59  99 133 158 195 266 321 366
#
# _framework density 22.135649000000001
#
# number of rings (size 3 to 8) (size 9 to 14) (size 15 to 20)
#    0.000    1.714    2.857    2.571    4.000    0.571 
#    0.000    0.000    3.143    0.000    0.000    0.000 
#    0.000    0.000    0.000    0.000    0.000    0.000 
#
# Total GULP energy -77979.253726 kJ/mol
# GULP energy per Si atom -5569.946695 kJ/mol
# Density = 2.208527 g / cm^3
# Si number density = 22.135649 Si / 1000 Ang^3
#
#
#
# Elastic Constant Matrix: (Units=GPa)
#
#
# Indices 1 2 3 4 5 6 
#
# 1 116.1298 46.5908 19.2623 0.0000 13.8317 0.0000
# 2 46.5908 114.1567 4.2409 0.0000 9.0626 0.0000
# 3 19.2623 4.2409 60.2785 0.0000 0.0884 0.0000
# 4 0.0000 0.0000 0.0000 -23.0384 0.0000 44.6691
# 5 13.8317 9.0626 0.0884 0.0000 26.3565 0.0000
# 6 0.0000 0.0000 0.0000 44.6691 0.0000 12.3400
#
#
#
# Elastic Compliance Matrix: (Units=1/GPa)
#
#
# Indices 1 2 3 4 5 6 
#
# 1 0.011371 -0.004158 -0.003335 0.000000 -0.004527 0.000000
# 2 -0.004158 0.010550 0.000589 0.000000 -0.001448 0.000000
# 3 -0.003335 0.000589 0.017612 0.000000 0.001489 0.000000
# 4 0.000000 0.000000 0.000000 -0.005413 0.000000 0.019595
# 5 -0.004527 -0.001448 0.001489 0.000000 0.040810 0.000000
# 6 0.000000 0.000000 0.000000 0.019595 0.000000 0.010106
#
#
# Mechanical properties :
#
#
# Convention : Reuss Voigt Hill
#
# Bulk Modulus (GPa) = 38.87242 47.86146 43.36694
# Shear Modulus (GPa) = 46.54691 17.82969 32.18830
#
# Velocity S-wave (km/s) = 4.59061 2.84117 3.81745
# Velocity P-wave (km/s) = 6.75998 5.69489 6.25017
#
# Compressibility (1/GPa) = 0.02572518
#
# Stress axis : x y z
#
# Youngs Moduli (GPa) = 87.93977 94.78807 56.78048
#
# Poissons Ratio (x) = 0.39411 0.18934
# Poissons Ratio (y) = 0.36563 -0.03342
# Poissons Ratio (z) = 0.29325 -0.05578
#
# Static dielectric constant tensor:
#      x y z
#    x 1.978380 0.000000 -0.090370 
#    y 0.000000 1.845490 0.000000 
#    z -0.090370 0.000000 1.865490 
# 
# From -- ./inp_files/41882.got.cif
#   From: 2010.05.17/outbox.cif.g08.bks.cpg/sg5_21_cif.got.tgz:41882.got - 2010.06.03 18:56:24.
