data_PCOD9122273
_publ_section_title
;
Structure prediction by ZEFSAII (Michael W. Deem and Ramdas Pophale) SiO2 
 PCOD9122273
Probable space group: C 2
;
_chemical_formula_sum "Si O2"
_cell_formula_units_Z 30
_cell_length_a 8.480959
_cell_length_b 14.984728
_cell_length_c 12.402477
_cell_angle_alpha 90.000000
_cell_angle_beta 89.478080
_cell_angle_gamma 90.000000
_cell_volume 1576.101707
_symmetry_space_group_name_H-M "C 2"
_symmetry_group_IT_number 5
_symmetry_cell_setting 'monoclinic'
loop_
_space_group_symop_operation_xyz
x,y,z
-x,y,-z
1/2+x,1/2+y,z
1/2-x,1/2+y,-z
loop_
_atom_site_type_symbol
_atom_site_label
_atom_site_fract_x
_atom_site_fract_y
_atom_site_fract_z
Si Si1 0.656899 0.255830 0.925729
Si Si2 0.142487 0.362254 0.575213
Si Si3 0.500000 0.818928 0.000000
Si Si4 0.818508 0.614828 0.268289
Si Si5 0.918093 0.006697 0.611699
Si Si6 0.488774 0.930294 0.215843
Si Si7 0.666190 0.396273 0.745688
Si Si8 0.154678 0.753141 0.561246
O O1 0.675140 0.179179 0.834606
O O2 0.624295 0.346264 0.856948
O O3 0.500000 0.239901 0.000000
O O4 0.831687 0.267381 0.979868
O O5 0.279271 0.437570 0.576947
O O6 0.208804 0.269265 0.527387
O O7 0.000000 0.392840 0.500000
O O8 0.077255 0.360417 0.695972
O O9 0.472467 0.883062 0.101976
O O10 0.649362 0.587931 0.317760
O O11 0.888787 0.663148 0.374641
O O12 0.898742 0.522564 0.233521
O O13 0.000000 0.034619 0.500000
O O14 0.032386 0.954291 0.691727
O O15 0.672278 0.947980 0.236767
O O16 0.700115 0.319739 0.657139
O O17 0.000000 0.784197 0.500000
#
# Coordination Sequence:
#
# PCOD9122273 Si02
#       8
#     4   4   2   4   4   4   4   4
#     4  10  24  45  67  93 127 169 214 275 324 383
#     4  11  19  33  64  90 122 165 210 254 309 381
#     4  10  24  46  72  92 118 176 236 256 316 396
#     4  10  26  39  57  97 134 157 207 270 336 370
#     4  11  20  38  62  90 127 165 204 260 311 395
#     4  10  22  40  66  91 124 162 217 274 310 380
#     4  10  19  40  65  90 115 164 221 250 310 393
#     4  11  20  37  56  87 126 164 202 251 307 389
#
# _framework density 19.034305
#
# number of rings (size 3 to 8) (size 9 to 14) (size 15 to 20)
#    0.000    1.600    4.000    0.000    4.667    3.733 
#    2.400    0.000    0.000    0.000    0.000    0.000 
#    0.000    0.000    0.000    0.000    0.000    0.000 
#
# Total GULP energy -83536.504017 kJ/mol
# GULP energy per Si atom -5569.100268 kJ/mol
# Density = 1.899098 g / cm^3
# Si number density = 19.034305 Si / 1000 Ang^3
#
#
#
# Elastic Constant Matrix: (Units=GPa)
#
#
# Indices 1 2 3 4 5 6 
#
# 1 118.5571 32.6871 72.0844 0.0000 -4.2652 0.0000
# 2 32.6871 42.6654 41.6926 0.0000 -10.5712 0.0000
# 3 72.0844 41.6926 145.1793 0.0000 -15.1908 0.0000
# 4 0.0000 0.0000 0.0000 23.2268 0.0000 -3.5428
# 5 -4.2652 -10.5712 -15.1908 0.0000 35.4289 0.0000
# 6 0.0000 0.0000 0.0000 -3.5428 0.0000 14.9816
#
#
#
# Elastic Compliance Matrix: (Units=1/GPa)
#
#
# Indices 1 2 3 4 5 6 
#
# 1 0.012972 -0.005525 -0.005092 0.000000 -0.002270 0.000000
# 2 -0.005525 0.036191 -0.006899 0.000000 0.007175 0.000000
# 3 -0.005092 -0.006899 0.011640 0.000000 0.002319 0.000000
# 4 0.000000 0.000000 0.000000 0.044665 0.000000 0.010562
# 5 -0.002270 0.007175 0.002319 0.000000 0.031088 0.000000
# 6 0.000000 0.000000 0.000000 0.010562 0.000000 0.069246
#
#
# Mechanical properties :
#
#
# Convention : Reuss Voigt Hill
#
# Bulk Modulus (GPa) = 38.80322 66.59222 52.69772
# Shear Modulus (GPa) = 20.04613 25.38998 22.71805
#
# Velocity S-wave (km/s) = 3.24876 3.65623 3.45850
# Velocity P-wave (km/s) = 5.87391 7.27223 6.61015
#
# Compressibility (1/GPa) = 0.02577106
#
# Stress axis : x y z
#
# Youngs Moduli (GPa) = 77.08732 27.63134 85.90907
#
# Poissons Ratio (x) = 0.15267 0.43743
# Poissons Ratio (y) = 0.42592 0.59270
# Poissons Ratio (z) = 0.39251 0.19063
#
# Static dielectric constant tensor:
#      x y z
#    x 1.694430 0.000000 -0.014180 
#    y 0.000000 1.701210 0.000000 
#    z -0.014180 0.000000 1.671190 
# 
# From -- ./inp_files/36156.got.cif
#   From: 2010.05.17/outbox.cif.g08.bks.cpg/sg5_19_cif.got.tgz:36156.got - 2010.06.03 18:56:24.
