data_PCOD9122715
_publ_section_title
;
Structure prediction by ZEFSAII (Michael W. Deem and Ramdas Pophale) SiO2 
 PCOD9122715
Probable space group: C 2
;
_chemical_formula_sum "Si O2"
_cell_formula_units_Z 28
_cell_length_a 15.726206
_cell_length_b 8.517069
_cell_length_c 11.800579
_cell_angle_alpha 90.000000
_cell_angle_beta 123.437720
_cell_angle_gamma 90.000000
_cell_volume 1318.973660
_symmetry_space_group_name_H-M "C 2"
_symmetry_group_IT_number 5
_symmetry_cell_setting 'monoclinic'
loop_
_space_group_symop_operation_xyz
x,y,z
-x,y,-z
1/2+x,1/2+y,z
1/2-x,1/2+y,-z
loop_
_atom_site_type_symbol
_atom_site_label
_atom_site_fract_x
_atom_site_fract_y
_atom_site_fract_z
Si Si1 0.978910 0.646260 0.609948
Si Si2 0.381091 0.280800 0.915994
Si Si3 0.197212 0.067863 0.702697
Si Si4 0.715507 0.586420 0.218796
Si Si5 0.829100 0.794719 0.137597
Si Si6 0.878166 0.368468 0.443407
Si Si7 0.767307 0.804692 0.454278
O O1 0.966376 0.459645 0.577677
O O2 0.869548 0.712902 0.563770
O O3 0.000000 0.716139 0.500000
O O4 0.066727 0.703573 0.755274
O O5 0.305618 0.154480 0.803412
O O6 0.368435 0.452218 0.849992
O O7 0.500000 0.234851 0.000000
O O8 0.333287 0.307713 0.006283
O O9 0.115567 0.205266 0.618598
O O10 0.173037 0.956548 0.792396
O O11 0.203574 0.958157 0.596606
O O12 0.736917 0.691503 0.123469
O O13 0.821687 0.494515 0.321306
O O14 0.704659 0.699137 0.318581
O O15 0.796197 0.337393 0.481884
#
# Coordination Sequence:
#
# PCOD9122715 Si02
#       7
#     4   4   4   4   4   4   4
#     4  11  20  40  60  92 125 159 196 245 309 365
#     4  11  25  40  64  89 116 160 218 254 292 352
#     4  10  21  40  61  92 120 165 201 246 304 359
#     4   9  20  40  59  84 125 163 194 245 308 352
#     4  11  22  42  65  84 126 166 197 250 303 363
#     4  10  20  35  63  93 126 153 195 246 304 363
#     4  10  20  37  65  89 128 158 192 252 307 356
#
# _framework density 21.228625999999998
#
# number of rings (size 3 to 8) (size 9 to 14) (size 15 to 20)
#    0.000    1.714    4.286    2.571    6.000    0.000 
#    2.571    2.857    3.143    0.000    0.000    0.000 
#    0.000    0.000    0.000    0.000    0.000    0.000 
#
# Total GULP energy -78145.153705 kJ/mol
# GULP energy per Si atom -5581.796693 kJ/mol
# Density = 2.118031 g / cm^3
# Si number density = 21.228626 Si / 1000 Ang^3
#
#
#
# Elastic Constant Matrix: (Units=GPa)
#
#
# Indices 1 2 3 4 5 6 
#
# 1 63.1631 10.4655 8.6700 0.0000 1.7445 0.0000
# 2 10.4655 131.7590 27.9626 0.0000 6.0379 0.0000
# 3 8.6700 27.9626 45.4469 0.0000 6.9150 0.0000
# 4 0.0000 0.0000 0.0000 24.2291 0.0000 6.4614
# 5 1.7445 6.0379 6.9150 0.0000 42.3734 0.0000
# 6 0.0000 0.0000 0.0000 6.4614 0.0000 23.9211
#
#
#
# Elastic Compliance Matrix: (Units=1/GPa)
#
#
# Indices 1 2 3 4 5 6 
#
# 1 0.016319 -0.000729 -0.002644 0.000000 -0.000137 0.000000
# 2 -0.000729 0.008768 -0.005199 0.000000 -0.000371 0.000000
# 3 -0.002644 -0.005199 0.026229 0.000000 -0.003431 0.000000
# 4 0.000000 0.000000 0.000000 0.044476 0.000000 -0.012014
# 5 -0.000137 -0.000371 -0.003431 0.000000 0.024218 0.000000
# 6 0.000000 0.000000 0.000000 -0.012014 0.000000 0.045049
#
#
# Mechanical properties :
#
#
# Convention : Reuss Voigt Hill
#
# Bulk Modulus (GPa) = 29.26362 37.17393 33.21877
# Shear Modulus (GPa) = 25.82708 30.98946 28.40827
#
# Velocity S-wave (km/s) = 3.49179 3.82487 3.66212
# Velocity P-wave (km/s) = 5.48376 6.08732 5.79341
#
# Compressibility (1/GPa) = 0.03417213
#
# Stress axis : x y z
#
# Youngs Moduli (GPa) = 61.27639 114.05217 38.12555
#
# Poissons Ratio (x) = 0.08313 0.10081
# Poissons Ratio (y) = 0.04466 0.19822
# Poissons Ratio (z) = 0.16202 0.59299
#
# Static dielectric constant tensor:
#      x y z
#    x 1.886340 0.000000 0.006970 
#    y 0.000000 1.808120 0.000000 
#    z 0.006970 0.000000 1.757420 
# 
# From -- ./inp_files/42018.got.cif
#   From: 2010.05.17/outbox.cif.g08.bks.cpg/sg5_22_cif.got.tgz:42018.got - 2010.06.03 18:56:24.
