data_PCOD9122434
_publ_section_title
;
Structure prediction by ZEFSAII (Michael W. Deem and Ramdas Pophale) SiO2 
 PCOD9122434
Probable space group: C 2
;
_chemical_formula_sum "Si O2"
_cell_formula_units_Z 24
_cell_length_a 5.181569
_cell_length_b 24.934138
_cell_length_c 10.226648
_cell_angle_alpha 90.000000
_cell_angle_beta 119.258151
_cell_angle_gamma 90.000000
_cell_volume 1152.703984
_symmetry_space_group_name_H-M "C 2"
_symmetry_group_IT_number 5
_symmetry_cell_setting 'monoclinic'
loop_
_space_group_symop_operation_xyz
x,y,z
-x,y,-z
1/2+x,1/2+y,z
1/2-x,1/2+y,-z
loop_
_atom_site_type_symbol
_atom_site_label
_atom_site_fract_x
_atom_site_fract_y
_atom_site_fract_z
Si Si1 0.774802 0.525760 0.819543
Si Si2 0.152616 0.913339 0.894731
Si Si3 0.845763 0.256064 0.600321
Si Si4 0.225582 0.078371 0.178941
Si Si5 0.750880 0.698989 0.173093
Si Si6 0.603097 0.303786 0.175563
O O1 0.640569 0.466769 0.805099
O O2 0.502477 0.567024 0.760616
O O3 0.002401 0.537288 0.759668
O O4 0.000000 0.532168 0.000000
O O5 0.013889 0.859898 0.799205
O O6 0.500000 0.902232 0.000000
O O7 0.000000 0.923306 0.000000
O O8 0.500000 0.269102 0.500000
O O9 0.868138 0.208141 0.710227
O O10 0.000000 0.244879 0.500000
O O11 0.046536 0.301433 0.717592
O O12 0.358390 0.137935 0.196821
O O13 0.000000 0.071400 0.000000
O O14 0.968625 0.748754 0.200019
O O15 0.500000 0.703436 0.000000
O O16 0.500000 0.303643 0.000000
#
# Coordination Sequence:
#
# PCOD9122434 Si02
#       6
#     4   4   4   4   4   4
#     4   9  16  31  46  78 119 158 190 238 305 363
#     4  10  20  32  54  83 124 165 199 250 309 368
#     4  12  26  42  60  88 132 169 209 254 312 380
#     4   9  19  29  52  79 119 157 193 242 305 358
#     4  11  22  38  63  93 128 164 208 258 313 375
#     4  11  23  38  64  92 128 164 211 255 316 373
#
# _framework density 20.820611
#
# number of rings (size 3 to 8) (size 9 to 14) (size 15 to 20)
#    0.000    1.667    3.333    3.000    4.667    0.667 
#    0.000    0.000    0.000    0.000    0.000    1.167 
#   10.000    0.000    0.000    0.000    0.000    0.000 
#
# Total GULP energy -66865.857078 kJ/mol
# GULP energy per Si atom -5572.154757 kJ/mol
# Density = 2.077322 g / cm^3
# Si number density = 20.820611 Si / 1000 Ang^3
#
#
#
# Elastic Constant Matrix: (Units=GPa)
#
#
# Indices 1 2 3 4 5 6 
#
# 1 135.9246 56.4008 34.3923 0.0000 13.9566 0.0000
# 2 56.4008 136.3744 15.4811 0.0000 25.5128 0.0000
# 3 34.3923 15.4811 76.2661 0.0000 4.3648 0.0000
# 4 0.0000 0.0000 0.0000 -14.9820 0.0000 -0.7210
# 5 13.9566 25.5128 4.3648 0.0000 20.3494 0.0000
# 6 0.0000 0.0000 0.0000 -0.7210 0.0000 34.8327
#
#
#
# Elastic Compliance Matrix: (Units=1/GPa)
#
#
# Indices 1 2 3 4 5 6 
#
# 1 0.009846 -0.003318 -0.003663 0.000000 -0.001807 0.000000
# 2 -0.003318 0.010822 -0.000055 0.000000 -0.011280 0.000000
# 3 -0.003663 -0.000055 0.014809 0.000000 -0.000595 0.000000
# 4 0.000000 0.000000 0.000000 -0.066681 0.000000 -0.001380
# 5 -0.001807 -0.011280 -0.000595 0.000000 0.064650 0.000000
# 6 0.000000 0.000000 0.000000 -0.001380 0.000000 0.028680
#
#
# Mechanical properties :
#
#
# Convention : Reuss Voigt Hill
#
# Bulk Modulus (GPa) = 46.71900 62.34594 54.53247
# Shear Modulus (GPa) = 59.99936 24.19276 42.09606
#
# Velocity S-wave (km/s) = 5.37400 3.41245 4.50137
# Velocity P-wave (km/s) = 7.80987 6.74802 7.29828
#
# Compressibility (1/GPa) = 0.02140457
#
# Stress axis : x y z
#
# Youngs Moduli (GPa) = 101.56050 92.40852 67.52600
#
# Poissons Ratio (x) = 0.30664 0.24736
# Poissons Ratio (y) = 0.33700 0.00369
# Poissons Ratio (z) = 0.37204 0.00506
#
# Static dielectric constant tensor:
#      x y z
#    x 1.861060 0.000000 -0.019770 
#    y 0.000000 1.788220 0.000000 
#    z -0.019770 0.000000 1.762610 
# 
# From -- ./inp_files/34267.got.cif
#   From: 2010.05.17/outbox.cif.g08.bks.cpg/sg5_18_cif.got.tgz:34267.got - 2010.06.03 18:56:24.
