data_PCOD9122931
_publ_section_title
;
Structure prediction by ZEFSAII (Michael W. Deem and Ramdas Pophale) SiO2 
 PCOD9122931
Probable space group: C 2
;
_chemical_formula_sum "Si O2"
_cell_formula_units_Z 26
_cell_length_a 18.282391
_cell_length_b 9.191509
_cell_length_c 9.490316
_cell_angle_alpha 90.000000
_cell_angle_beta 132.394429
_cell_angle_gamma 90.000000
_cell_volume 1177.777556
_symmetry_space_group_name_H-M "C 2"
_symmetry_group_IT_number 5
_symmetry_cell_setting 'monoclinic'
loop_
_space_group_symop_operation_xyz
x,y,z
-x,y,-z
1/2+x,1/2+y,z
1/2-x,1/2+y,-z
loop_
_atom_site_type_symbol
_atom_site_label
_atom_site_fract_x
_atom_site_fract_y
_atom_site_fract_z
Si Si1 0.453488 0.199060 0.153775
Si Si2 0.000000 0.618800 0.500000
Si Si3 0.500000 0.950328 0.000000
Si Si4 0.220506 0.327590 0.284598
Si Si5 0.694740 0.921327 0.756569
Si Si6 0.500000 0.447235 0.000000
Si Si7 0.793396 0.022786 0.613073
Si Si8 0.259232 0.684769 0.990152
O O1 0.508366 0.215299 0.372495
O O2 0.460156 0.338565 0.066829
O O3 0.340318 0.173323 0.047772
O O4 0.496271 0.059077 0.128777
O O5 0.095407 0.516198 0.628631
O O6 0.397478 0.862005 0.867041
O O7 0.245465 0.184666 0.409172
O O8 0.273769 0.461397 0.432257
O O9 0.248596 0.284547 0.161017
O O10 0.736754 0.918332 0.652814
O O11 0.773658 0.022603 0.947228
O O12 0.673220 0.773222 0.812725
O O13 0.592080 0.528108 0.190112
#
# Coordination Sequence:
#
# PCOD9122931 Si02
#       8
#     4   2   2   4   4   2   4   4
#     4  10  22  37  68  94 126 167 221 261 330 391
#     4  10  20  36  64  94 124 162 212 268 326 396
#     4  11  23  44  68 100 132 180 218 270 334 402
#     4  11  25  41  68  96 135 170 224 271 332 392
#     4  10  21  39  63  90 130 163 218 263 333 389
#     4  11  23  40  62  86 132 172 216 270 326 382
#     4  11  25  40  62  95 131 172 221 272 324 393
#     4  10  21  40  62  96 124 170 205 275 320 395
#
# _framework density 22.075476999999999
#
# number of rings (size 3 to 8) (size 9 to 14) (size 15 to 20)
#    0.000    1.538    1.538    3.231   10.769    1.231 
#    0.000    0.000    0.000    0.923    4.000    0.000 
#    0.000    0.000    0.000    0.000    0.000    0.000 
#
# Total GULP energy -72570.622974 kJ/mol
# GULP energy per Si atom -5582.355613 kJ/mol
# Density = 2.202523 g / cm^3
# Si number density = 22.075477 Si / 1000 Ang^3
#
#
#
# Elastic Constant Matrix: (Units=GPa)
#
#
# Indices 1 2 3 4 5 6 
#
# 1 79.6912 0.3341 5.5650 0.0000 -16.6187 0.0000
# 2 0.3341 37.3175 5.5897 0.0000 -11.8957 0.0000
# 3 5.5650 5.5897 56.6352 0.0000 -6.3145 0.0000
# 4 0.0000 0.0000 0.0000 30.3203 0.0000 8.4259
# 5 -16.6187 -11.8957 -6.3145 0.0000 39.3612 0.0000
# 6 0.0000 0.0000 0.0000 8.4259 0.0000 22.1509
#
#
#
# Elastic Compliance Matrix: (Units=1/GPa)
#
#
# Indices 1 2 3 4 5 6 
#
# 1 0.013925 0.002030 -0.000860 0.000000 0.006355 0.000000
# 2 0.002030 0.030166 -0.002102 0.000000 0.009636 0.000000
# 3 -0.000860 -0.002102 0.018162 0.000000 0.001915 0.000000
# 4 0.000000 0.000000 0.000000 0.036880 0.000000 -0.014029
# 5 0.006355 0.009636 0.001915 0.000000 0.031308 0.000000
# 6 0.000000 0.000000 0.000000 -0.014029 0.000000 0.050481
#
#
# Mechanical properties :
#
#
# Convention : Reuss Voigt Hill
#
# Bulk Modulus (GPa) = 16.55953 21.84685 19.20319
# Shear Modulus (GPa) = 24.64063 29.17683 26.90873
#
# Velocity S-wave (km/s) = 3.34458 3.63944 3.49512
# Velocity P-wave (km/s) = 4.73630 5.25154 5.00056
#
# Compressibility (1/GPa) = 0.06038818
#
# Stress axis : x y z
#
# Youngs Moduli (GPa) = 71.81218 33.15037 55.05881
#
# Poissons Ratio (x) = -0.06729 0.04736
# Poissons Ratio (y) = -0.14577 0.11575
# Poissons Ratio (z) = 0.06177 0.06969
#
# Static dielectric constant tensor:
#      x y z
#    x 1.831900 0.000000 0.006050 
#    y 0.000000 1.844070 0.000000 
#    z 0.006050 0.000000 1.858510 
# 
# From -- ./inp_files/22836.got.cif
#   From: 2010.05.17/outbox.cif.g08.bks.cpg/sg5_12_cif.got.tgz:22836.got - 2010.06.03 18:56:24.
