data_PCOD9122731
_publ_section_title
;
Structure prediction by ZEFSAII (Michael W. Deem and Ramdas Pophale) SiO2 
 PCOD9122731
Probable space group: C 2
;
_chemical_formula_sum "Si O2"
_cell_formula_units_Z 20
_cell_length_a 23.771784
_cell_length_b 5.075602
_cell_length_c 8.635040
_cell_angle_alpha 90.000000
_cell_angle_beta 50.031832
_cell_angle_gamma 90.000000
_cell_volume 798.490956
_symmetry_space_group_name_H-M "C 2"
_symmetry_group_IT_number 5
_symmetry_cell_setting 'monoclinic'
loop_
_space_group_symop_operation_xyz
x,y,z
-x,y,-z
1/2+x,1/2+y,z
1/2-x,1/2+y,-z
loop_
_atom_site_type_symbol
_atom_site_label
_atom_site_fract_x
_atom_site_fract_y
_atom_site_fract_z
Si Si1 0.532516 0.806070 0.087821
Si Si2 0.347826 0.115959 0.275734
Si Si3 0.663270 0.259785 0.341705
Si Si4 0.315024 0.622842 0.157235
Si Si5 0.074441 0.280838 0.453419
O O1 0.601626 0.665892 0.048970
O O2 0.572182 0.059777 0.941741
O O3 0.500000 0.646093 0.000000
O O4 0.463160 0.851456 0.315952
O O5 0.345827 0.201711 0.457054
O O6 0.309818 0.331450 0.233210
O O7 0.187463 0.328966 0.693853
O O8 0.749238 0.204437 0.162206
O O9 0.632721 0.548345 0.364348
O O10 0.614640 0.048839 0.332945
O O11 0.000000 0.198361 0.500000
#
# Coordination Sequence:
#
# PCOD9122731 Si02
#       5
#     4   4   4   4   4
#     4  10  22  41  64 100 128 171 211 271 320 390
#     4  10  20  35  65  99 128 160 212 264 330 374
#     4  12  22  43  65  95 132 174 217 271 328 395
#     4  10  22  36  65  99 132 164 212 271 331 384
#     4  12  27  44  66  94 134 176 224 268 332 389
#
# _framework density 25.047246999999999
#
# number of rings (size 3 to 8) (size 9 to 14) (size 15 to 20)
#    1.200    0.000    2.000    5.400    2.800    0.800 
#    0.000    2.000    0.000    0.000    0.000    0.000 
#    0.000    0.000    0.000    0.000    0.000    0.000 
#
# Total GULP energy -55825.695280 kJ/mol
# GULP energy per Si atom -5582.569528 kJ/mol
# Density = 2.499024 g / cm^3
# Si number density = 25.047247 Si / 1000 Ang^3
#
#
#
# Elastic Constant Matrix: (Units=GPa)
#
#
# Indices 1 2 3 4 5 6 
#
# 1 121.7761 16.3474 25.7054 0.0000 -42.6727 0.0000
# 2 16.3474 100.1927 18.3169 0.0000 -16.6640 0.0000
# 3 25.7054 18.3169 51.1260 0.0000 -25.7020 0.0000
# 4 0.0000 0.0000 0.0000 12.7135 0.0000 -1.7927
# 5 -42.6727 -16.6640 -25.7020 0.0000 47.0203 0.0000
# 6 0.0000 0.0000 0.0000 -1.7927 0.0000 34.7944
#
#
#
# Elastic Compliance Matrix: (Units=1/GPa)
#
#
# Indices 1 2 3 4 5 6 
#
# 1 0.012064 -0.000083 -0.000754 0.000000 0.010507 0.000000
# 2 -0.000083 0.010870 -0.002694 0.000000 0.002304 0.000000
# 3 -0.000754 -0.002694 0.027688 0.000000 0.013496 0.000000
# 4 0.000000 0.000000 0.000000 0.079232 0.000000 0.004082
# 5 0.010507 0.002304 0.013496 0.000000 0.038997 0.000000
# 6 0.000000 0.000000 0.000000 0.004082 0.000000 0.028951
#
#
# Mechanical properties :
#
#
# Convention : Reuss Voigt Hill
#
# Bulk Modulus (GPa) = 22.95665 43.75935 33.35800
# Shear Modulus (GPa) = 22.79110 33.08734 27.93922
#
# Velocity S-wave (km/s) = 3.01977 3.63850 3.34347
# Velocity P-wave (km/s) = 4.61995 5.92960 5.31526
#
# Compressibility (1/GPa) = 0.04356036
#
# Stress axis : x y z
#
# Youngs Moduli (GPa) = 82.89193 91.99534 36.11618
#
# Poissons Ratio (x) = 0.00764 0.02722
# Poissons Ratio (y) = 0.00688 0.09731
# Poissons Ratio (z) = 0.06248 0.24786
#
# Static dielectric constant tensor:
#      x y z
#    x 2.072160 0.000000 0.042470 
#    y 0.000000 1.916690 0.000000 
#    z 0.042470 0.000000 2.252410 
# 
# From -- ./inp_files/31244.got.cif
#   From: 2010.05.17/outbox.cif.g08.bks.cpg/sg5_16_cif.got.tgz:31244.got - 2010.06.03 18:56:24.
