data_PCOD9122147
_publ_section_title
;
Structure prediction by ZEFSAII (Michael W. Deem and Ramdas Pophale) SiO2 
 PCOD9122147
Probable space group: C 2
;
_chemical_formula_sum "Si O2"
_cell_formula_units_Z 30
_cell_length_a 13.869530
_cell_length_b 13.234715
_cell_length_c 13.611929
_cell_angle_alpha 90.000000
_cell_angle_beta 31.901005
_cell_angle_gamma 90.000000
_cell_volume 1320.391033
_symmetry_space_group_name_H-M "C 2"
_symmetry_group_IT_number 5
_symmetry_cell_setting 'monoclinic'
loop_
_space_group_symop_operation_xyz
x,y,z
-x,y,-z
1/2+x,1/2+y,z
1/2-x,1/2+y,-z
loop_
_atom_site_type_symbol
_atom_site_label
_atom_site_fract_x
_atom_site_fract_y
_atom_site_fract_z
Si Si1 0.262074 0.923590 0.943558
Si Si2 0.000000 0.746486 0.500000
Si Si3 0.820185 0.381644 0.213481
Si Si4 0.595238 0.780877 0.653752
Si Si5 0.764321 0.597213 0.567083
Si Si6 0.463369 0.058322 0.190810
Si Si7 0.420957 0.289702 0.215318
Si Si8 0.712504 0.939545 0.289360
O O1 0.408643 0.835480 0.790438
O O2 0.255647 0.984069 0.846119
O O3 0.352529 0.992554 0.949708
O O4 0.075689 0.864624 0.122866
O O5 0.854980 0.823125 0.675479
O O6 0.904021 0.672627 0.503871
O O7 0.835296 0.339613 0.310668
O O8 0.839808 0.501519 0.215826
O O9 0.000000 0.349072 0.000000
O O10 0.590058 0.663479 0.687245
O O11 0.749796 0.787403 0.437989
O O12 0.859963 0.555786 0.386273
O O13 0.716746 0.512755 0.686547
O O14 0.490957 0.175600 0.143743
O O15 0.327505 0.337402 0.199845
O O16 0.500000 0.926210 0.500000
#
# Coordination Sequence:
#
# PCOD9122147 Si02
#       8
#     4   2   4   4   4   4   4   4
#     4  11  22  41  67  92 124 166 206 256 308 368
#     4  10  20  40  68  92 118 162 204 254 312 358
#     4  10  22  39  62  90 126 159 204 257 306 366
#     4   9  21  40  63  92 125 159 203 258 310 363
#     4  10  19  38  68  91 124 161 203 257 311 362
#     4  10  22  42  61  91 127 162 207 260 300 370
#     4  11  24  40  63  92 128 166 208 251 313 371
#     4  12  20  39  64  92 128 160 202 255 307 363
#
# _framework density 22.720542999999999
#
# number of rings (size 3 to 8) (size 9 to 14) (size 15 to 20)
#    0.000    1.600    3.333    1.200    0.000    8.533 
#    1.200    9.333    0.000    0.000    0.000    0.000 
#    0.000    0.000    0.000    0.000    0.000    0.000 
#
# Total GULP energy -83753.118941 kJ/mol
# GULP energy per Si atom -5583.541263 kJ/mol
# Density = 2.266883 g / cm^3
# Si number density = 22.720543 Si / 1000 Ang^3
#
#
#
# Elastic Constant Matrix: (Units=GPa)
#
#
# Indices 1 2 3 4 5 6 
#
# 1 44.0261 26.8229 13.3230 0.0002 -0.1671 -0.0001
# 2 26.8229 120.0660 35.5714 0.0003 -20.7158 -0.0004
# 3 13.3230 35.5714 73.8029 0.0002 -20.6568 -0.0002
# 4 0.0002 0.0003 0.0002 18.5951 -0.0001 -1.1729
# 5 -0.1671 -20.7158 -20.6568 -0.0001 24.5269 0.0002
# 6 -0.0001 -0.0004 -0.0002 -1.1729 0.0002 37.2446
#
#
#
# Elastic Compliance Matrix: (Units=1/GPa)
#
#
# Indices 1 2 3 4 5 6 
#
# 1 0.027983 -0.006492 -0.004454 0.000000 -0.009044 0.000000
# 2 -0.006492 0.011843 -0.002288 0.000000 0.008031 0.000000
# 3 -0.004454 -0.002288 0.019505 0.000000 0.014464 0.000000
# 4 0.000000 0.000000 0.000000 0.053885 0.000000 0.001697
# 5 -0.009044 0.008031 0.014464 0.000000 0.059675 0.000000
# 6 0.000000 0.000000 0.000000 0.001697 0.000000 0.026903
#
#
# Mechanical properties :
#
#
# Convention : Reuss Voigt Hill
#
# Bulk Modulus (GPa) = 30.42997 43.25883 36.84440
# Shear Modulus (GPa) = 21.07795 26.88518 23.98156
#
# Velocity S-wave (km/s) = 3.04913 3.44364 3.25237
# Velocity P-wave (km/s) = 5.08119 5.90698 5.50958
#
# Compressibility (1/GPa) = 0.03286234
#
# Stress axis : x y z
#
# Youngs Moduli (GPa) = 35.73650 84.44023 51.26950
#
# Poissons Ratio (x) = 0.54821 0.22833
# Poissons Ratio (y) = 0.23201 0.11731
# Poissons Ratio (z) = 0.15915 0.19320
#
# Static dielectric constant tensor:
#      x y z
#    x 1.902090 0.000000 0.002520 
#    y 0.000000 1.923580 0.000000 
#    z 0.002520 0.000000 1.861280 
# 
# From -- ./inp_files/54775.got.cif
#   From: 2010.05.17/outbox.cif.g08.bks.cpg/sg5_28_cif.got.tgz:54775.got - 2010.06.03 18:56:24.
