data_PCOD9122326
_publ_section_title
;
Structure prediction by ZEFSAII (Michael W. Deem and Ramdas Pophale) SiO2 
 PCOD9122326
Probable space group: C 2
;
_chemical_formula_sum "Si O2"
_cell_formula_units_Z 26
_cell_length_a 17.805475
_cell_length_b 5.078999
_cell_length_c 19.874320
_cell_angle_alpha 90.000000
_cell_angle_beta 142.854731
_cell_angle_gamma 90.000000
_cell_volume 1085.286459
_symmetry_space_group_name_H-M "C 2"
_symmetry_group_IT_number 5
_symmetry_cell_setting 'monoclinic'
loop_
_space_group_symop_operation_xyz
x,y,z
-x,y,-z
1/2+x,1/2+y,z
1/2-x,1/2+y,-z
loop_
_atom_site_type_symbol
_atom_site_label
_atom_site_fract_x
_atom_site_fract_y
_atom_site_fract_z
Si Si1 0.834763 0.344390 0.555004
Si Si2 0.746934 0.002712 0.851741
Si Si3 0.786423 0.754433 0.308336
Si Si4 0.526640 0.189194 0.764280
Si Si5 0.500000 0.289049 0.000000
Si Si6 0.045909 0.078622 0.652251
Si Si7 0.357049 0.234901 0.763494
O O1 0.748451 0.598167 0.481549
O O2 0.938704 0.444710 0.681362
O O3 0.921123 0.250263 0.554489
O O4 0.889097 0.928392 0.962602
O O5 0.658220 0.777479 0.753988
O O6 0.756122 0.224510 0.800647
O O7 0.669877 0.097179 0.861668
O O8 0.917999 0.888314 0.383400
O O9 0.742539 0.472065 0.304323
O O10 0.716070 0.967537 0.302701
O O11 0.517753 0.393796 0.696398
O O12 0.465678 0.294881 0.788234
O O13 0.420379 0.176438 0.881256
#
# Coordination Sequence:
#
# PCOD9122326 Si02
#       7
#     4   4   4   4   2   4   4
#     4  11  22  38  68 103 124 162 214 274 323 395
#     4   9  20  39  62  90 125 177 218 268 314 374
#     4  10  20  39  61  90 121 177 215 249 322 390
#     4  10  23  40  64 100 135 165 212 274 335 368
#     4  10  20  44  60  94 128 184 232 252 306 392
#     4  10  19  41  63  96 126 167 218 258 331 380
#     4  11  24  38  64  94 131 177 215 266 317 375
#
# _framework density 23.956810000000001
#
# number of rings (size 3 to 8) (size 9 to 14) (size 15 to 20)
#    0.000    1.846    4.615    0.000    4.308    2.462 
#    2.769    0.000    0.000    0.923   20.000    0.000 
#    0.000    0.000    0.000    0.000    0.000    0.000 
#
# Total GULP energy -72397.661972 kJ/mol
# GULP energy per Si atom -5569.050921 kJ/mol
# Density = 2.390228 g / cm^3
# Si number density = 23.956810 Si / 1000 Ang^3
#
#
#
# Elastic Constant Matrix: (Units=GPa)
#
#
# Indices 1 2 3 4 5 6 
#
# 1 177.4792 56.0802 30.4812 0.0004 31.0287 -0.0002
# 2 56.0802 144.2113 35.0391 0.0002 28.0846 0.0058
# 3 30.4812 35.0391 67.6259 0.0005 19.1644 -0.0017
# 4 0.0004 0.0002 0.0005 13.6264 -0.0001 14.3412
# 5 31.0287 28.0846 19.1644 -0.0001 39.6730 -0.0003
# 6 -0.0002 0.0058 -0.0017 14.3412 -0.0003 36.4946
#
#
#
# Elastic Compliance Matrix: (Units=1/GPa)
#
#
# Indices 1 2 3 4 5 6 
#
# 1 0.007034 -0.001717 -0.001235 -0.000001 -0.003689 0.000000
# 2 -0.001717 0.009008 -0.002858 0.000003 -0.003653 -0.000003
# 3 -0.001235 -0.002858 0.018512 -0.000003 -0.005953 0.000003
# 4 -0.000001 0.000003 -0.000003 0.125144 0.000000 -0.049178
# 5 -0.003689 -0.003653 -0.005953 0.000000 0.033553 0.000001
# 6 0.000000 -0.000003 0.000003 -0.049178 0.000001 0.046727
#
#
# Mechanical properties :
#
#
# Convention : Reuss Voigt Hill
#
# Bulk Modulus (GPa) = 43.60492 70.27971 56.94231
# Shear Modulus (GPa) = 19.28690 35.80652 27.54671
#
# Velocity S-wave (km/s) = 2.84045 3.87024 3.39462
# Velocity P-wave (km/s) = 5.38503 7.02647 6.25979
#
# Compressibility (1/GPa) = 0.02293319
#
# Stress axis : x y z
#
# Youngs Moduli (GPa) = 142.16421 111.01531 54.01919
#
# Poissons Ratio (x) = 0.19058 0.06674
# Poissons Ratio (y) = 0.24406 0.15439
# Poissons Ratio (z) = 0.17564 0.31729
#
# Static dielectric constant tensor:
#      x y z
#    x 1.997870 0.000000 0.027500 
#    y 0.000000 1.993200 0.000000 
#    z 0.027500 0.000000 1.988740 
# 
# From -- ./inp_files/68965.got.cif
#   From: 2010.05.17/outbox.cif.g08.bks.cpg/sg5_35_cif.got.tgz:68965.got - 2010.06.03 18:56:24.
