data_PCOD9122502
_publ_section_title
;
Structure prediction by ZEFSAII (Michael W. Deem and Ramdas Pophale) SiO2 
 PCOD9122502
Probable space group: C 2
;
_chemical_formula_sum "Si O2"
_cell_formula_units_Z 32
_cell_length_a 14.388233
_cell_length_b 23.708653
_cell_length_c 13.915256
_cell_angle_alpha 90.000000
_cell_angle_beta 159.749018
_cell_angle_gamma 90.000000
_cell_volume 1643.042212
_symmetry_space_group_name_H-M "C 2"
_symmetry_group_IT_number 5
_symmetry_cell_setting 'monoclinic'
loop_
_space_group_symop_operation_xyz
x,y,z
-x,y,-z
1/2+x,1/2+y,z
1/2-x,1/2+y,-z
loop_
_atom_site_type_symbol
_atom_site_label
_atom_site_fract_x
_atom_site_fract_y
_atom_site_fract_z
Si Si1 0.388801 0.665330 0.286367
Si Si2 0.042899 0.875302 0.431159
Si Si3 0.272924 0.797466 0.204387
Si Si4 0.072818 0.327827 0.854913
Si Si5 0.033363 0.218965 0.138406
Si Si6 0.038326 0.642378 0.642756
Si Si7 0.606185 0.105517 0.296375
Si Si8 0.253351 0.998245 0.687305
O O1 0.500000 0.650824 0.500000
O O2 0.312596 0.731122 0.217177
O O3 0.638623 0.647487 0.462565
O O4 0.129934 0.631742 0.998384
O O5 0.267644 0.843861 0.585864
O O6 0.146802 0.939320 0.541761
O O7 0.000000 0.854719 0.500000
O O8 0.763360 0.866170 0.105916
O O9 0.500000 0.813721 0.500000
O O10 0.323926 0.830091 0.154162
O O11 0.000000 0.804108 0.000000
O O12 0.080869 0.262787 0.896413
O O13 0.334076 0.196388 0.446038
O O14 0.837995 0.165370 0.945266
O O15 0.000000 0.245991 0.000000
O O16 0.000000 0.616776 0.500000
O O17 0.976363 0.603961 0.673029
O O18 0.670822 0.044289 0.317759
O O19 0.000000 0.022031 0.500000
O O20 0.500000 0.988673 0.000000
#
# Coordination Sequence:
#
# PCOD9122502 Si02
#       8
#     4   4   4   4   4   4   4   4
#     4  11  22  35  54  84 117 148 185 227 274 333
#     4  11  23  39  58  85 113 140 181 237 293 343
#     4  11  23  38  55  82 119 155 193 233 270 323
#     4  12  22  37  60  82 111 153 191 226 283 341
#     4  10  20  34  53  82 115 146 183 226 275 333
#     4  10  21  35  52  79 116 150 184 226 266 319
#     4  12  21  35  58  82 112 152 189 222 276 336
#     4  11  23  39  58  84 115 142 178 231 287 338
#
# _framework density 19.476065999999999
#
# number of rings (size 3 to 8) (size 9 to 14) (size 15 to 20)
#    0.000    1.000    0.000   10.125    0.000    1.000 
#    0.000    0.000    0.000    2.250    0.000    0.000 
#    0.000    0.000    0.000    0.000    0.000    0.000 
#
# Total GULP energy -89404.398583 kJ/mol
# GULP energy per Si atom -5587.774911 kJ/mol
# Density = 1.943174 g / cm^3
# Si number density = 19.476066 Si / 1000 Ang^3
#
#
#
# Elastic Constant Matrix: (Units=GPa)
#
#
# Indices 1 2 3 4 5 6 
#
# 1 146.8833 30.1098 15.7647 0.0005 1.3717 -0.0016
# 2 30.1098 41.8392 7.9685 -0.0007 -8.1046 0.0008
# 3 15.7647 7.9685 94.1164 -0.0072 13.3121 0.0037
# 4 0.0005 -0.0007 -0.0072 14.4824 -0.0013 11.6115
# 5 1.3717 -8.1046 13.3121 -0.0013 31.7377 0.0019
# 6 -0.0016 0.0008 0.0037 11.6115 0.0019 16.0172
#
#
#
# Elastic Compliance Matrix: (Units=1/GPa)
#
#
# Indices 1 2 3 4 5 6 
#
# 1 0.008130 -0.006050 -0.000618 -0.000005 -0.001637 0.000005
# 2 -0.006050 0.030605 -0.002892 0.000008 0.009290 -0.000008
# 3 -0.000618 -0.002892 0.011773 0.000016 -0.005650 -0.000014
# 4 -0.000005 0.000008 0.000016 0.164889 0.000009 -0.119535
# 5 -0.001637 0.009290 -0.005650 0.000009 0.036321 -0.000010
# 6 0.000005 -0.000008 -0.000014 -0.119535 -0.000010 0.149089
#
#
# Mechanical properties :
#
#
# Convention : Reuss Voigt Hill
#
# Bulk Modulus (GPa) = 31.85933 43.39164 37.62549
# Shear Modulus (GPa) = 11.61738 27.71385 19.66561
#
# Velocity S-wave (km/s) = 2.44497 3.77632 3.18108
# Velocity P-wave (km/s) = 4.93602 6.42977 5.73176
#
# Compressibility (1/GPa) = 0.03138798
#
# Stress axis : x y z
#
# Youngs Moduli (GPa) = 123.00143 32.67396 84.94299
#
# Poissons Ratio (x) = 0.19768 0.05249
# Poissons Ratio (y) = 0.74419 0.24564
# Poissons Ratio (z) = 0.07601 0.09449
#
# Static dielectric constant tensor:
#      x y z
#    x 1.678910 0.000000 -0.037210 
#    y 0.000000 1.664580 0.000000 
#    z -0.037210 0.000000 1.662260 
# 
# From -- ./inp_files/55040.got.cif
#   From: 2010.05.17/outbox.cif.g08.bks.cpg/sg5_28_cif.got.tgz:55040.got - 2010.06.03 18:56:24.
