data_PCOD9122924
_publ_section_title
;
Structure prediction by ZEFSAII (Michael W. Deem and Ramdas Pophale) SiO2 
 PCOD9122924
Probable space group: C 2
;
_chemical_formula_sum "Si O2"
_cell_formula_units_Z 24
_cell_length_a 14.913756
_cell_length_b 7.106136
_cell_length_c 15.871524
_cell_angle_alpha 90.000000
_cell_angle_beta 146.105068
_cell_angle_gamma 90.000000
_cell_volume 938.032264
_symmetry_space_group_name_H-M "C 2"
_symmetry_group_IT_number 5
_symmetry_cell_setting 'monoclinic'
loop_
_space_group_symop_operation_xyz
x,y,z
-x,y,-z
1/2+x,1/2+y,z
1/2-x,1/2+y,-z
loop_
_atom_site_type_symbol
_atom_site_label
_atom_site_fract_x
_atom_site_fract_y
_atom_site_fract_z
Si Si1 0.150835 0.529600 0.991211
Si Si2 0.653007 0.190662 0.809434
Si Si3 0.332451 0.800828 0.799915
Si Si4 0.323771 0.308186 0.487593
Si Si5 0.219832 0.210475 0.755372
Si Si6 0.850724 0.248392 0.477694
O O1 0.305841 0.395934 0.119370
O O2 0.178881 0.704999 0.078080
O O3 0.132678 0.571219 0.878557
O O4 0.002367 0.403287 0.910813
O O5 0.792095 0.159312 0.846191
O O6 0.487302 0.199485 0.630858
O O7 0.272754 0.720062 0.665143
O O8 0.226087 0.984121 0.742399
O O9 0.229540 0.319316 0.500912
O O10 0.353866 0.522566 0.486838
O O11 0.254675 0.289357 0.688611
O O12 0.040791 0.290775 0.627147
#
# Coordination Sequence:
#
# PCOD9122924 Si02
#       6
#     4   4   4   4   4   4
#     4  11  23  39  67  98 125 168 216 264 327 385
#     4  11  22  40  63  96 130 166 215 269 319 386
#     4  10  21  39  67  90 123 169 212 255 327 386
#     4  11  21  38  62  94 119 168 211 261 314 388
#     4   9  18  38  59  85 121 164 202 257 311 379
#     4  10  20  36  64  87 121 162 212 255 317 377
#
# _framework density 25.585473
#
# number of rings (size 3 to 8) (size 9 to 14) (size 15 to 20)
#    0.000    1.667    3.333    4.500    2.333    0.000 
#    0.000    1.667    3.667    8.000    0.000    0.000 
#    0.000    0.000    0.000    0.000    0.000    0.000 
#
# Total GULP energy -66924.152981 kJ/mol
# GULP energy per Si atom -5577.012748 kJ/mol
# Density = 2.552724 g / cm^3
# Si number density = 25.585473 Si / 1000 Ang^3
#
#
#
# Elastic Constant Matrix: (Units=GPa)
#
#
# Indices 1 2 3 4 5 6 
#
# 1 170.3946 17.8588 75.6537 0.0000 -34.6706 0.0000
# 2 17.8588 59.3094 18.3949 0.0000 -3.0366 0.0000
# 3 75.6537 18.3949 171.6120 0.0000 -32.4606 0.0000
# 4 0.0000 0.0000 0.0000 7.2374 0.0000 -18.1393
# 5 -34.6706 -3.0366 -32.4606 0.0000 51.0287 0.0000
# 6 0.0000 0.0000 0.0000 -18.1393 0.0000 23.6301
#
#
#
# Elastic Compliance Matrix: (Units=1/GPa)
#
#
# Indices 1 2 3 4 5 6 
#
# 1 0.007931 -0.001377 -0.002666 0.000000 0.003611 0.000000
# 2 -0.001377 0.017681 -0.001439 0.000000 -0.000799 0.000000
# 3 -0.002666 -0.001439 0.007728 0.000000 0.003019 0.000000
# 4 0.000000 0.000000 0.000000 -0.149546 0.000000 -0.114797
# 5 0.003611 -0.000799 0.003019 0.000000 0.023923 0.000000
# 6 0.000000 0.000000 0.000000 -0.114797 0.000000 -0.045803
#
#
# Mechanical properties :
#
#
# Convention : Reuss Voigt Hill
#
# Bulk Modulus (GPa) = 44.69061 69.45897 57.07479
# Shear Modulus (GPa) = -41.78382 35.67314 -3.05534
#
# Velocity S-wave (km/s) = -4.04556 3.73805 -1.09397
# Velocity P-wave (km/s) = 2.07772 6.77033 4.55634
#
# Compressibility (1/GPa) = 0.02237606
#
# Stress axis : x y z
#
# Youngs Moduli (GPa) = 126.08125 56.55866 129.40569
#
# Poissons Ratio (x) = 0.07785 0.34498
# Poissons Ratio (y) = 0.17355 0.18627
# Poissons Ratio (z) = 0.33612 0.08141
#
# Static dielectric constant tensor:
#      x y z
#    x 2.045830 0.000000 -0.043810 
#    y 0.000000 2.085300 0.000000 
#    z -0.043810 0.000000 2.126260 
# 
# From -- ./inp_files/54262.got.cif
#   From: 2010.05.17/outbox.cif.g08.bks.cpg/sg5_28_cif.got.tgz:54262.got - 2010.06.03 18:56:24.
