data_PCOD9122773
_publ_section_title
;
Structure prediction by ZEFSAII (Michael W. Deem and Ramdas Pophale) SiO2 
 PCOD9122773
Probable space group: C 2
;
_chemical_formula_sum "Si O2"
_cell_formula_units_Z 32
_cell_length_a 8.370818
_cell_length_b 11.960681
_cell_length_c 20.168685
_cell_angle_alpha 90.000000
_cell_angle_beta 49.535671
_cell_angle_gamma 90.000000
_cell_volume 1536.305862
_symmetry_space_group_name_H-M "C 2"
_symmetry_group_IT_number 5
_symmetry_cell_setting 'monoclinic'
loop_
_space_group_symop_operation_xyz
x,y,z
-x,y,-z
1/2+x,1/2+y,z
1/2-x,1/2+y,-z
loop_
_atom_site_type_symbol
_atom_site_label
_atom_site_fract_x
_atom_site_fract_y
_atom_site_fract_z
Si Si1 0.868636 0.415490 0.207230
Si Si2 0.730918 0.206291 0.164580
Si Si3 0.781280 0.640754 0.528032
Si Si4 0.560422 0.510219 0.688525
Si Si5 0.634807 0.332118 0.777293
Si Si6 0.457838 0.091518 0.657565
Si Si7 0.349917 0.478851 0.097701
Si Si8 0.595326 0.841310 0.656335
O O1 0.848883 0.313462 0.161566
O O2 0.691156 0.507259 0.238008
O O3 0.815249 0.364398 0.294604
O O4 0.105257 0.458958 0.146530
O O5 0.555687 0.248693 0.161317
O O6 0.592070 0.148542 0.259878
O O7 0.880548 0.110890 0.097764
O O8 0.615722 0.547914 0.598231
O O9 0.727868 0.761230 0.573406
O O10 0.000000 0.597630 0.500000
O O11 0.852131 0.650230 0.433012
O O12 0.613758 0.390650 0.709944
O O13 0.727388 0.588574 0.683471
O O14 0.614494 0.424822 0.839968
O O15 0.866540 0.282875 0.723173
O O16 0.537726 0.963933 0.643775
O O17 0.500000 0.433725 0.000000
#
# Coordination Sequence:
#
# PCOD9122773 Si02
#       8
#     4   4   4   4   4   4   4   4
#     4  10  21  38  67  90 120 173 209 252 327 385
#     4  11  21  42  68  89 129 170 205 251 338 371
#     4  10  21  32  56  88 127 168 217 264 301 358
#     4   9  18  37  59  86 120 168 209 250 307 372
#     4   9  21  40  64  87 123 167 205 256 319 389
#     4  10  20  39  58  88 132 169 214 267 307 365
#     4  11  24  44  66  96 129 155 212 275 316 388
#     4  10  20  36  57  87 124 167 217 261 312 368
#
# _framework density 20.829187000000001
#
# number of rings (size 3 to 8) (size 9 to 14) (size 15 to 20)
#    0.000    2.000    3.750    1.500    1.750    4.000 
#    0.000    5.000    0.000    1.500    0.000    0.000 
#    0.000    0.000    0.000    0.000    0.000    0.000 
#
# Total GULP energy -89103.206052 kJ/mol
# GULP energy per Si atom -5568.950378 kJ/mol
# Density = 2.078178 g / cm^3
# Si number density = 20.829187 Si / 1000 Ang^3
#
#
#
# Elastic Constant Matrix: (Units=GPa)
#
#
# Indices 1 2 3 4 5 6 
#
# 1 73.7231 23.5088 13.4777 0.0000 -9.4687 0.0000
# 2 23.5088 63.3767 21.7257 0.0000 -2.2182 0.0000
# 3 13.4777 21.7257 95.1283 -0.0002 -0.6252 0.0001
# 4 0.0000 0.0000 -0.0002 17.7221 0.0001 -4.5948
# 5 -9.4687 -2.2182 -0.6252 0.0001 13.6568 0.0000
# 6 0.0000 0.0000 0.0001 -4.5948 0.0000 21.0946
#
#
#
# Elastic Compliance Matrix: (Units=1/GPa)
#
#
# Indices 1 2 3 4 5 6 
#
# 1 0.016906 -0.005530 -0.001061 0.000000 0.010774 0.000000
# 2 -0.005530 0.019021 -0.003567 0.000000 -0.000908 0.000000
# 3 -0.001061 -0.003567 0.011472 0.000000 -0.000790 0.000000
# 4 0.000000 0.000000 0.000000 0.059804 0.000000 0.013027
# 5 0.010774 -0.000908 -0.000790 0.000000 0.080510 0.000000
# 6 0.000000 0.000000 0.000000 0.013027 0.000000 0.050243
#
#
# Mechanical properties :
#
#
# Convention : Reuss Voigt Hill
#
# Bulk Modulus (GPa) = 36.92435 38.85027 37.88731
# Shear Modulus (GPa) = 18.70568 22.06243 20.38406
#
# Velocity S-wave (km/s) = 3.00000 3.25808 3.13170
# Velocity P-wave (km/s) = 5.45580 5.73112 5.59515
#
# Compressibility (1/GPa) = 0.02708240
#
# Stress axis : x y z
#
# Youngs Moduli (GPa) = 59.15234 52.57412 87.17003
#
# Poissons Ratio (x) = 0.29073 0.09252
# Poissons Ratio (y) = 0.32711 0.31089
# Poissons Ratio (z) = 0.06278 0.18751
#
# Static dielectric constant tensor:
#      x y z
#    x 1.789460 0.000000 0.032020 
#    y 0.000000 1.778770 0.000000 
#    z 0.032020 0.000000 1.770570 
# 
# From -- ./inp_files/64553.got.cif
#   From: 2010.05.17/outbox.cif.g08.bks.cpg/sg5_33_cif.got.tgz:64553.got - 2010.06.03 18:56:24.
