data_PCOD9122227
_publ_section_title
;
Structure prediction by ZEFSAII (Michael W. Deem and Ramdas Pophale) SiO2 
 PCOD9122227
Probable space group: C 2
;
_chemical_formula_sum "Si O2"
_cell_formula_units_Z 30
_cell_length_a 15.618868
_cell_length_b 9.168542
_cell_length_c 20.662440
_cell_angle_alpha 90.000000
_cell_angle_beta 27.830648
_cell_angle_gamma 90.000000
_cell_volume 1381.394956
_symmetry_space_group_name_H-M "C 2"
_symmetry_group_IT_number 5
_symmetry_cell_setting 'monoclinic'
loop_
_space_group_symop_operation_xyz
x,y,z
-x,y,-z
1/2+x,1/2+y,z
1/2-x,1/2+y,-z
loop_
_atom_site_type_symbol
_atom_site_label
_atom_site_fract_x
_atom_site_fract_y
_atom_site_fract_z
Si Si1 0.823522 0.441660 0.868123
Si Si2 0.880042 0.279575 0.514748
Si Si3 0.787543 0.150591 0.958853
Si Si4 0.969217 0.515771 0.089912
Si Si5 0.500000 0.250648 0.500000
Si Si6 0.784825 0.464633 0.351717
Si Si7 0.814748 0.023783 0.290105
Si Si8 0.261622 0.316940 0.205580
O O1 0.762214 0.319893 0.961187
O O2 0.716971 0.404892 0.874681
O O3 0.042670 0.423595 0.719746
O O4 0.784952 0.599709 0.923093
O O5 0.769872 0.129544 0.593525
O O6 0.757022 0.424214 0.602354
O O7 0.000000 0.283140 0.500000
O O8 0.042352 0.286862 0.354846
O O9 0.999034 0.104369 0.816219
O O10 0.664219 0.064738 0.989155
O O11 0.856655 0.455178 0.228093
O O12 0.859382 0.662167 0.144268
O O13 0.000000 0.435082 0.000000
O O14 0.608766 0.359854 0.475171
O O15 0.660742 0.140377 0.371520
O O16 0.831192 0.912419 0.219319
#
# Coordination Sequence:
#
# PCOD9122227 Si02
#       8
#     4   4   4   4   2   4   4   4
#     4  11  25  41  66  97 132 166 221 263 325 379
#     4  10  19  39  68  89 122 176 224 246 316 401
#     4  11  24  41  64  96 127 171 207 268 322 383
#     4  11  21  39  70  92 123 168 226 256 305 386
#     4  12  20  40  66  88 132 170 202 270 332 374
#     4  11  22  41  65  97 132 172 210 271 330 377
#     4  11  22  40  68  93 131 170 211 261 330 383
#     4  11  21  42  68  99 119 175 226 259 304 403
#
# _framework density 21.717175999999998
#
# number of rings (size 3 to 8) (size 9 to 14) (size 15 to 20)
#    0.000    1.067    8.000    0.800    1.867    0.000 
#    4.800    2.667    0.000    0.000    0.000    0.000 
#    0.000    0.000    0.000    0.000    0.000    0.000 
#
# Total GULP energy -83703.911850 kJ/mol
# GULP energy per Si atom -5580.260790 kJ/mol
# Density = 2.166775 g / cm^3
# Si number density = 21.717176 Si / 1000 Ang^3
#
#
#
# Elastic Constant Matrix: (Units=GPa)
#
#
# Indices 1 2 3 4 5 6 
#
# 1 61.0493 -0.6581 32.5746 -0.0014 -1.3788 -0.0005
# 2 -0.6581 61.8851 26.5814 -0.0027 2.0074 -0.0011
# 3 32.5746 26.5814 104.2314 -0.0043 -18.1773 -0.0016
# 4 -0.0014 -0.0027 -0.0043 35.4339 0.0004 -1.8941
# 5 -1.3788 2.0074 -18.1773 0.0004 26.2883 0.0002
# 6 -0.0005 -0.0011 -0.0016 -1.8941 0.0002 20.0713
#
#
#
# Elastic Compliance Matrix: (Units=1/GPa)
#
#
# Indices 1 2 3 4 5 6 
#
# 1 0.020785 0.003986 -0.008386 0.000000 -0.005013 0.000000
# 2 0.003986 0.019562 -0.007344 0.000001 -0.006363 0.000001
# 3 -0.008386 -0.007344 0.016044 0.000001 0.011214 0.000001
# 4 0.000000 0.000001 0.000001 0.028365 0.000000 0.002677
# 5 -0.005013 -0.006363 0.011214 0.000000 0.046017 0.000000
# 6 0.000000 0.000001 0.000001 0.002677 0.000000 0.050075
#
#
# Mechanical properties :
#
#
# Convention : Reuss Voigt Hill
#
# Bulk Modulus (GPa) = 30.39402 38.24018 34.31710
# Shear Modulus (GPa) = 23.22297 27.60320 25.41309
#
# Velocity S-wave (km/s) = 3.27362 3.56902 3.42451
# Velocity P-wave (km/s) = 5.32114 5.88476 5.61003
#
# Compressibility (1/GPa) = 0.03290121
#
# Stress axis : x y z
#
# Youngs Moduli (GPa) = 48.11220 51.11879 62.33003
#
# Poissons Ratio (x) = -0.20375 0.52273
# Poissons Ratio (y) = -0.19177 0.45776
# Poissons Ratio (z) = 0.40349 0.37542
#
# Static dielectric constant tensor:
#      x y z
#    x 1.771870 0.000000 0.056870 
#    y 0.000000 1.799980 0.000000 
#    z 0.056870 0.000000 1.918400 
# 
# From -- ./inp_files/68704.got.cif
#   From: 2010.05.17/outbox.cif.g08.bks.cpg/sg5_35_cif.got.tgz:68704.got - 2010.06.03 18:56:24.
