data_PCOD9122417
_publ_section_title
;
Structure prediction by ZEFSAII (Michael W. Deem and Ramdas Pophale) SiO2 
 PCOD9122417
Probable space group: C 2
;
_chemical_formula_sum "Si O2"
_cell_formula_units_Z 32
_cell_length_a 15.806534
_cell_length_b 13.117000
_cell_length_c 5.662270
_cell_angle_alpha 90.000000
_cell_angle_beta 106.207136
_cell_angle_gamma 90.000000
_cell_volume 1127.327491
_symmetry_space_group_name_H-M "C 2"
_symmetry_group_IT_number 5
_symmetry_cell_setting 'monoclinic'
loop_
_space_group_symop_operation_xyz
x,y,z
-x,y,-z
1/2+x,1/2+y,z
1/2-x,1/2+y,-z
loop_
_atom_site_type_symbol
_atom_site_label
_atom_site_fract_x
_atom_site_fract_y
_atom_site_fract_z
Si Si1 0.034397 0.012860 0.276342
Si Si2 0.326348 0.654515 0.120233
Si Si3 0.221766 0.806308 0.734656
Si Si4 0.965604 0.782702 0.223658
Si Si5 0.778234 0.989256 0.765345
Si Si6 0.826348 0.641048 0.620231
Si Si7 0.112261 0.440675 0.200445
Si Si8 0.387740 0.854889 0.299555
O O1 0.139993 0.997852 0.351444
O O2 0.000000 0.055772 0.500000
O O3 0.000001 0.897781 0.250001
O O4 0.000000 0.062725 0.000000
O O5 0.250001 0.647782 0.250003
O O6 0.395471 0.733239 0.285691
O O7 0.296072 0.725025 0.874494
O O8 0.328619 0.539054 0.029833
O O9 0.139992 0.797712 0.851444
O O10 0.171381 0.756509 0.470168
O O11 0.282809 0.903611 0.722492
O O12 0.000000 0.732836 0.500000
O O13 0.000000 0.739790 0.000000
O O14 0.703926 0.070537 0.625508
O O15 0.717191 0.891951 0.777509
O O16 0.895470 0.562324 0.785692
O O17 0.080138 0.390233 0.419345
O O18 0.080138 0.405330 0.919345
#
# Coordination Sequence:
#
# PCOD9122417 Si02
#       8
#     4   4   4   4   4   4   4   4
#     4  10  24  35  54  80 109 161 193 223 275 344
#     4  10  20  33  55  79 111 159 186 242 288 336
#     4  10  22  36  53  82 120 151 196 231 287 349
#     4  10  24  35  54  80 109 161 193 223 275 344
#     4  10  22  36  53  82 120 151 196 231 287 349
#     4  10  20  33  55  79 111 159 186 242 288 336
#     4  10  20  31  53  74 111 147 180 228 282 336
#     4  10  20  31  53  74 111 147 180 228 282 336
#
# _framework density 28.385717
#
# number of rings (size 3 to 8) (size 9 to 14) (size 15 to 20)
#    0.000    2.000    2.500    0.000   17.500    0.000 
#    0.000    0.000    0.000    0.000    0.000    0.000 
#    0.000   54.000    0.000    0.000    0.000    0.000 
#
# Total GULP energy -89249.462566 kJ/mol
# GULP energy per Si atom -5578.091410 kJ/mol
# Density = 2.832111 g / cm^3
# Si number density = 28.385717 Si / 1000 Ang^3
#
#
#
# Elastic Constant Matrix: (Units=GPa)
#
#
# Indices 1 2 3 4 5 6 
#
# 1 108.4578 21.1879 65.2277 0.0000 5.1386 0.0000
# 2 21.1879 127.2218 39.1576 0.0000 12.3868 0.0000
# 3 65.2277 39.1576 218.3091 0.0000 -13.5772 0.0000
# 4 0.0000 0.0000 0.0000 41.9461 0.0000 -1.4366
# 5 5.1386 12.3868 -13.5772 0.0000 55.3080 0.0000
# 6 0.0000 0.0000 0.0000 -1.4366 0.0000 23.9953
#
#
#
# Elastic Compliance Matrix: (Units=1/GPa)
#
#
# Indices 1 2 3 4 5 6 
#
# 1 0.011495 -0.000691 -0.003419 0.000000 -0.001753 0.000000
# 2 -0.000691 0.008650 -0.001484 0.000000 -0.002237 0.000000
# 3 -0.003419 -0.001484 0.006001 0.000000 0.002123 0.000000
# 4 0.000000 0.000000 0.000000 0.023889 0.000000 0.001430
# 5 -0.001753 -0.002237 0.002123 0.000000 0.019266 0.000000
# 6 0.000000 0.000000 0.000000 0.001430 0.000000 0.041760
#
#
# Mechanical properties :
#
#
# Convention : Reuss Voigt Hill
#
# Bulk Modulus (GPa) = 66.86435 78.34834 72.60635
# Shear Modulus (GPa) = 39.29717 46.14425 42.72071
#
# Velocity S-wave (km/s) = 3.72479 4.03627 3.88365
# Velocity P-wave (km/s) = 6.48888 7.02732 6.76346
#
# Compressibility (1/GPa) = 0.01495565
#
# Stress axis : x y z
#
# Youngs Moduli (GPa) = 86.99613 115.60617 166.64975
#
# Poissons Ratio (x) = 0.07991 0.56986
# Poissons Ratio (y) = 0.06014 0.24733
# Poissons Ratio (z) = 0.29748 0.17158
#
# Static dielectric constant tensor:
#      x y z
#    x 2.332910 0.000000 0.034000 
#    y 0.000000 2.263790 0.000000 
#    z 0.034000 0.000000 2.408710 
# 
# From -- ./inp_files/8660.got.cif
#   From: 2010.05.17/outbox.cif.g08.bks.cpg/sg5_5_cif.got.tgz:8660.got - 2010.06.03 18:56:24.
