data_PCOD9122960
_publ_section_title
;
Structure prediction by ZEFSAII (Michael W. Deem and Ramdas Pophale) SiO2 
 PCOD9122960
Probable space group: C 2
;
_chemical_formula_sum "Si O2"
_cell_formula_units_Z 26
_cell_length_a 11.311949
_cell_length_b 20.457441
_cell_length_c 8.400082
_cell_angle_alpha 90.000000
_cell_angle_beta 139.108064
_cell_angle_gamma 90.000000
_cell_volume 1272.539030
_symmetry_space_group_name_H-M "C 2"
_symmetry_group_IT_number 5
_symmetry_cell_setting 'monoclinic'
loop_
_space_group_symop_operation_xyz
x,y,z
-x,y,-z
1/2+x,1/2+y,z
1/2-x,1/2+y,-z
loop_
_atom_site_type_symbol
_atom_site_label
_atom_site_fract_x
_atom_site_fract_y
_atom_site_fract_z
Si Si1 0.649937 0.214820 0.287997
Si Si2 0.798499 0.006314 0.088538
Si Si3 0.783098 0.986438 0.447605
Si Si4 0.865675 0.851457 0.635483
Si Si5 0.510317 0.087477 0.323255
Si Si6 0.240576 0.372387 0.874495
Si Si7 0.000000 0.265372 0.500000
O O1 0.669985 0.275804 0.428438
O O2 0.591192 0.149236 0.313088
O O3 0.841672 0.218334 0.397095
O O4 0.500000 0.231089 0.000000
O O5 0.770323 0.002081 0.248820
O O6 0.014425 0.003080 0.282129
O O7 0.704955 0.946221 0.895831
O O8 0.694563 0.071326 0.934257
O O9 0.769917 0.907933 0.440827
O O10 0.637105 0.026648 0.398829
O O11 0.805379 0.868764 0.755977
O O12 0.081938 0.856224 0.842738
O O13 0.500000 0.097272 0.500000
O O14 0.086054 0.316777 0.716992
#
# Coordination Sequence:
#
# PCOD9122960 Si02
#       7
#     4   4   4   4   4   4   2
#     4  11  22  42  62  94 130 172 215 255 319 387
#     4  10  22  40  66  97 127 163 209 269 323 377
#     4  10  22  42  66  96 128 165 213 267 323 375
#     4   9  17  37  62  92 129 163 207 257 307 379
#     4  12  27  43  63  92 130 175 219 263 319 384
#     4   9  17  33  61  97 121 160 206 251 313 369
#     4  10  20  36  66  96 122 168 206 256 320 376
#
# _framework density 20.431595000000002
#
# number of rings (size 3 to 8) (size 9 to 14) (size 15 to 20)
#    0.000    1.846    3.077    2.308    5.385    4.308 
#    5.538    0.000    0.000    3.692    0.000    0.000 
#    0.000    0.000    0.000    0.000    0.000    0.000 
#
# Total GULP energy -72477.529000 kJ/mol
# GULP energy per Si atom -5575.194538 kJ/mol
# Density = 2.038509 g / cm^3
# Si number density = 20.431595 Si / 1000 Ang^3
#
#
#
# Elastic Constant Matrix: (Units=GPa)
#
#
# Indices 1 2 3 4 5 6 
#
# 1 60.1379 31.3873 22.5025 0.0000 21.2295 0.0000
# 2 31.3873 111.4991 33.0117 0.0000 8.4364 0.0000
# 3 22.5025 33.0117 49.2189 0.0000 1.7843 0.0000
# 4 0.0000 0.0000 0.0000 15.3502 0.0000 6.5055
# 5 21.2295 8.4364 1.7843 0.0000 24.4293 0.0000
# 6 0.0000 0.0000 0.0000 6.5055 0.0000 43.1403
#
#
#
# Elastic Compliance Matrix: (Units=1/GPa)
#
#
# Indices 1 2 3 4 5 6 
#
# 1 0.031699 -0.003718 -0.011076 0.000000 -0.025454 0.000000
# 2 -0.003718 0.011903 -0.006268 0.000000 -0.000422 0.000000
# 3 -0.011076 -0.006268 0.029236 0.000000 0.009655 0.000000
# 4 0.000000 0.000000 0.000000 0.069593 0.000000 -0.010495
# 5 -0.025454 -0.000422 0.009655 0.000000 0.062495 0.000000
# 6 0.000000 0.000000 0.000000 -0.010495 0.000000 0.024763
#
#
# Mechanical properties :
#
#
# Convention : Reuss Voigt Hill
#
# Bulk Modulus (GPa) = 32.55981 43.85098 38.20540
# Shear Modulus (GPa) = 17.72727 25.51427 21.62077
#
# Velocity S-wave (km/s) = 2.94877 3.53762 3.25653
# Velocity P-wave (km/s) = 5.25017 6.18023 5.73409
#
# Compressibility (1/GPa) = 0.03071271
#
# Stress axis : x y z
#
# Youngs Moduli (GPa) = 31.54665 84.01140 34.20491
#
# Poissons Ratio (x) = 0.31237 0.37885
# Poissons Ratio (y) = 0.11730 0.21441
# Poissons Ratio (z) = 0.34941 0.52662
#
# Static dielectric constant tensor:
#      x y z
#    x 1.746440 0.000000 0.029400 
#    y 0.000000 1.768410 0.000000 
#    z 0.029400 0.000000 1.742360 
# 
# From -- ./inp_files/22010.got.cif
#   From: 2010.05.17/outbox.cif.g08.bks.cpg/sg5_12_cif.got.tgz:22010.got - 2010.06.03 18:56:24.
