data_PCOD9122386
_publ_section_title
;
Structure prediction by ZEFSAII (Michael W. Deem and Ramdas Pophale) SiO2 
 PCOD9122386
Probable space group: C 2
;
_chemical_formula_sum "Si O2"
_cell_formula_units_Z 22
_cell_length_a 13.208439
_cell_length_b 13.504234
_cell_length_c 5.316355
_cell_angle_alpha 90.000000
_cell_angle_beta 84.700391
_cell_angle_gamma 90.000000
_cell_volume 944.223875
_symmetry_space_group_name_H-M "C 2"
_symmetry_group_IT_number 5
_symmetry_cell_setting 'monoclinic'
loop_
_space_group_symop_operation_xyz
x,y,z
-x,y,-z
1/2+x,1/2+y,z
1/2-x,1/2+y,-z
loop_
_atom_site_type_symbol
_atom_site_label
_atom_site_fract_x
_atom_site_fract_y
_atom_site_fract_z
Si Si1 0.500000 0.132160 0.500000
Si Si2 0.882757 0.927266 0.959321
Si Si3 0.500000 0.843768 0.000000
Si Si4 0.367975 0.021545 0.177223
Si Si5 0.832941 0.037069 0.470450
Si Si6 0.614341 0.215365 0.094024
Si Si7 0.000000 0.208324 0.500000
O O1 0.470811 0.059288 0.285605
O O2 0.591566 0.202453 0.394549
O O3 0.839510 0.997965 0.184791
O O4 0.833778 0.818108 0.980733
O O5 0.000000 0.919813 0.000000
O O6 0.879943 0.966422 0.676302
O O7 0.489981 0.776243 0.752275
O O8 0.599205 0.916224 0.942138
O O9 0.283715 0.027506 0.413443
O O10 0.336601 0.113742 0.007639
O O11 0.899973 0.137551 0.484299
O O12 0.500000 0.221867 0.000000
#
# Coordination Sequence:
#
# PCOD9122386 Si02
#       7
#     2   4   2   4   4   4   2
#     4  10  19  43  68  94 144 174 219 293 374 396
#     4  11  23  44  72  99 135 178 231 289 368 413
#     4  12  26  48  74 100 148 202 238 294 358 436
#     4  11  25  43  72 105 141 186 244 294 359 428
#     4  12  27  45  73 103 142 193 241 294 347 445
#     4   9  21  37  69  99 130 170 222 298 360 412
#     4  12  27  51  70 100 152 200 239 291 370 424
#
# _framework density 23.29956
#
# number of rings (size 3 to 8) (size 9 to 14) (size 15 to 20)
#    0.000    1.091    4.545    1.636   10.182    2.909 
#    0.000    0.000    0.000    0.000    0.000    0.000 
#    0.000    0.000    0.000    0.000    0.000    0.000 
#
# Total GULP energy -61316.074743 kJ/mol
# GULP energy per Si atom -5574.188613 kJ/mol
# Density = 2.324653 g / cm^3
# Si number density = 23.299560 Si / 1000 Ang^3
#
#
#
# Elastic Constant Matrix: (Units=GPa)
#
#
# Indices 1 2 3 4 5 6 
#
# 1 54.9630 44.1457 12.4982 0.0000 -15.7359 0.0000
# 2 44.1457 175.7435 74.7213 0.0000 -7.1890 0.0000
# 3 12.4982 74.7213 104.1060 0.0000 -11.2960 0.0000
# 4 0.0000 0.0000 0.0000 44.0134 0.0000 -5.0198
# 5 -15.7359 -7.1890 -11.2960 0.0000 41.7953 0.0000
# 6 0.0000 0.0000 0.0000 -5.0198 0.0000 -29.9662
#
#
#
# Elastic Compliance Matrix: (Units=1/GPa)
#
#
# Indices 1 2 3 4 5 6 
#
# 1 0.026286 -0.007643 0.003360 0.000000 0.009490 0.000000
# 2 -0.007643 0.010413 -0.006876 0.000000 -0.002945 0.000000
# 3 0.003360 -0.006876 0.014574 0.000000 0.004021 0.000000
# 4 0.000000 0.000000 0.000000 0.022294 0.000000 -0.003735
# 5 0.009490 -0.002945 0.004021 0.000000 0.028079 0.000000
# 6 0.000000 0.000000 0.000000 -0.003735 0.000000 -0.032745
#
#
# Mechanical properties :
#
#
# Convention : Reuss Voigt Hill
#
# Bulk Modulus (GPa) = 34.53719 66.39368 50.46544
# Shear Modulus (GPa) = 49.56842 24.73164 37.15003
#
# Velocity S-wave (km/s) = 4.61742 3.26155 3.99739
# Velocity P-wave (km/s) = 6.57896 6.53767 6.55835
#
# Compressibility (1/GPa) = 0.02895429
#
# Stress axis : x y z
#
# Youngs Moduli (GPa) = 38.04309 96.03414 68.61731
#
# Poissons Ratio (x) = 0.73401 -0.23054
# Poissons Ratio (y) = 0.29077 0.47180
# Poissons Ratio (z) = -0.12782 0.66031
#
# Static dielectric constant tensor:
#      x y z
#    x 2.062680 0.000000 -0.041680 
#    y 0.000000 1.943870 0.000000 
#    z -0.041680 0.000000 2.011910 
# 
# From -- ./inp_files/6603.got.cif
#   From: 2010.05.17/outbox.cif.g08.bks.cpg/sg5_4_cif.got.tgz:6603.got - 2010.06.03 18:56:24.
