data_PCOD9122283
_publ_section_title
;
Structure prediction by ZEFSAII (Michael W. Deem and Ramdas Pophale) SiO2 
 PCOD9122283
Probable space group: C 2
;
_chemical_formula_sum "Si O2"
_cell_formula_units_Z 32
_cell_length_a 25.887562
_cell_length_b 9.257323
_cell_length_c 15.227588
_cell_angle_alpha 90.000000
_cell_angle_beta 24.602265
_cell_angle_gamma 90.000000
_cell_volume 1519.258086
_symmetry_space_group_name_H-M "C 2"
_symmetry_group_IT_number 5
_symmetry_cell_setting 'monoclinic'
loop_
_space_group_symop_operation_xyz
x,y,z
-x,y,-z
1/2+x,1/2+y,z
1/2-x,1/2+y,-z
loop_
_atom_site_type_symbol
_atom_site_label
_atom_site_fract_x
_atom_site_fract_y
_atom_site_fract_z
Si Si1 0.112371 0.906250 0.162471
Si Si2 0.485443 0.987928 0.815524
Si Si3 0.540036 0.732766 0.847190
Si Si4 0.309205 0.077058 0.949352
Si Si5 0.462318 0.413654 0.925470
Si Si6 0.909747 0.097845 0.571432
Si Si7 0.175068 0.679582 0.610381
Si Si8 0.299186 0.166417 0.231220
O O1 0.067568 0.908337 0.131659
O O2 0.235935 0.003886 0.983044
O O3 0.153386 0.743341 0.122927
O O4 0.999529 0.971161 0.395600
O O5 0.498126 0.826746 0.829611
O O6 0.614296 0.069147 0.635486
O O7 0.430287 0.001769 0.803595
O O8 0.390983 0.072916 0.027445
O O9 0.481939 0.574524 0.927759
O O10 0.686853 0.721549 0.625561
O O11 0.500000 0.804191 0.000000
O O12 0.205179 0.060154 0.187168
O O13 0.585311 0.318335 0.750861
O O14 0.351471 0.328617 0.144334
O O15 0.838663 0.161389 0.596666
O O16 0.000000 0.184203 0.500000
O O17 0.185546 0.615867 0.692691
#
# Coordination Sequence:
#
# PCOD9122283 Si02
#       8
#     4   4   4   4   4   4   4   4
#     4  11  21  40  70  93 129 176 219 278 338 398
#     4  10  21  41  61  90 125 163 217 270 325 400
#     4  12  25  37  57  93 132 168 216 272 325 392
#     4  10  22  41  66  98 127 169 225 277 335 403
#     4  11  22  39  63  95 130 169 213 279 335 392
#     4   9  19  37  65  94 123 166 226 260 325 395
#     4  11  21  39  63  85 123 173 221 257 335 403
#     4  10  19  40  66  90 122 170 219 261 327 408
#
# _framework density 21.062913000000002
#
# number of rings (size 3 to 8) (size 9 to 14) (size 15 to 20)
#    0.000    1.500    3.750    4.500    1.750    2.000 
#    0.000    0.000    0.000    6.750    0.000    0.000 
#    0.000    0.000    0.000    0.000    0.000    0.000 
#
# Total GULP energy -89288.242692 kJ/mol
# GULP energy per Si atom -5580.515168 kJ/mol
# Density = 2.101497 g / cm^3
# Si number density = 21.062913 Si / 1000 Ang^3
#
#
#
# Elastic Constant Matrix: (Units=GPa)
#
#
# Indices 1 2 3 4 5 6 
#
# 1 117.3821 27.2736 38.6083 0.0000 -41.0133 0.0000
# 2 27.2736 108.0411 27.2267 0.0000 -27.5995 0.0000
# 3 38.6083 27.2267 69.8647 0.0000 -20.3372 0.0000
# 4 0.0000 0.0000 0.0000 16.1326 0.0000 4.4817
# 5 -41.0133 -27.5995 -20.3372 0.0000 36.9948 0.0000
# 6 0.0000 0.0000 0.0000 4.4817 0.0000 59.5813
#
#
#
# Elastic Compliance Matrix: (Units=1/GPa)
#
#
# Indices 1 2 3 4 5 6 
#
# 1 0.014925 0.001163 -0.004324 0.000000 0.015037 0.000000
# 2 0.001163 0.011859 -0.002754 0.000000 0.008623 0.000000
# 3 -0.004324 -0.002754 0.018789 0.000000 0.003481 0.000000
# 4 0.000000 0.000000 0.000000 0.063309 0.000000 -0.004762
# 5 0.015037 0.008623 0.003481 0.000000 0.052048 0.000000
# 6 0.000000 0.000000 0.000000 -0.004762 0.000000 0.017142
#
#
# Mechanical properties :
#
#
# Convention : Reuss Voigt Hill
#
# Bulk Modulus (GPa) = 29.63540 53.50058 41.56799
# Shear Modulus (GPa) = 24.85707 36.02036 30.43871
#
# Velocity S-wave (km/s) = 3.43904 4.13986 3.80561
# Velocity P-wave (km/s) = 5.46532 6.95031 6.25206
#
# Compressibility (1/GPa) = 0.03374343
#
# Stress axis : x y z
#
# Youngs Moduli (GPa) = 67.00148 84.32510 53.22135
#
# Poissons Ratio (x) = -0.09809 0.23013
# Poissons Ratio (y) = -0.07794 0.14659
# Poissons Ratio (z) = 0.28971 0.23226
#
# Static dielectric constant tensor:
#      x y z
#    x 1.794960 0.000000 0.001650 
#    y 0.000000 1.768000 0.000000 
#    z 0.001650 0.000000 1.763800 
# 
# From -- ./inp_files/57679.got.cif
#   From: 2010.05.17/outbox.cif.g08.bks.cpg/sg5_29_cif.got.tgz:57679.got - 2010.06.03 18:56:24.
