data_PCOD9122301
_publ_section_title
;
Structure prediction by ZEFSAII (Michael W. Deem and Ramdas Pophale) SiO2 
 PCOD9122301
Probable space group: C 2
;
_chemical_formula_sum "Si O2"
_cell_formula_units_Z 26
_cell_length_a 9.093994
_cell_length_b 13.138777
_cell_length_c 15.837784
_cell_angle_alpha 90.000000
_cell_angle_beta 35.751699
_cell_angle_gamma 90.000000
_cell_volume 1105.656902
_symmetry_space_group_name_H-M "C 2"
_symmetry_group_IT_number 5
_symmetry_cell_setting 'monoclinic'
loop_
_space_group_symop_operation_xyz
x,y,z
-x,y,-z
1/2+x,1/2+y,z
1/2-x,1/2+y,-z
loop_
_atom_site_type_symbol
_atom_site_label
_atom_site_fract_x
_atom_site_fract_y
_atom_site_fract_z
Si Si1 0.792872 0.691530 0.346639
Si Si2 0.552704 0.877929 0.818405
Si Si3 0.404627 0.381165 0.402725
Si Si4 0.979718 0.489038 0.694173
Si Si5 0.000000 0.524011 0.000000
Si Si6 0.520978 0.499628 0.799427
Si Si7 0.582290 0.280981 0.059073
O O1 0.500000 0.712244 0.500000
O O2 0.922865 0.775926 0.343966
O O3 0.844435 0.579414 0.356068
O O4 0.914237 0.706644 0.196780
O O5 0.572057 0.949928 0.890100
O O6 0.845392 0.875328 0.656329
O O7 0.393520 0.932911 0.819289
O O8 0.388489 0.779684 0.919518
O O9 0.141390 0.403455 0.570545
O O10 0.406049 0.468447 0.329647
O O11 0.761121 0.537166 0.739118
O O12 0.267183 0.566803 0.908439
O O13 0.467629 0.392659 0.874367
O O14 0.500000 0.270846 0.000000
#
# Coordination Sequence:
#
# PCOD9122301 Si02
#       7
#     4   4   4   4   2   4   4
#     4  11  25  42  67 101 140 182 231 293 346 414
#     4  10  20  37  65  95 131 179 230 278 336 415
#     4  10  21  41  66  96 136 184 222 284 351 409
#     4  12  22  40  69 102 136 184 235 284 347 416
#     4   8  18  34  56  92 130 170 226 276 336 400
#     4   9  18  36  65  97 129 177 227 279 341 415
#     4  10  19  40  69  98 132 181 229 280 348 411
#
# _framework density 23.515433000000002
#
# number of rings (size 3 to 8) (size 9 to 14) (size 15 to 20)
#    0.000    1.846    1.538    4.615    0.000    0.000 
#    1.385    9.231    3.385    0.000    0.000    0.000 
#    0.000    0.000    0.000    0.000    0.000    0.000 
#
# Total GULP energy -72460.027837 kJ/mol
# GULP energy per Si atom -5573.848295 kJ/mol
# Density = 2.346191 g / cm^3
# Si number density = 23.515433 Si / 1000 Ang^3
#
#
#
# Elastic Constant Matrix: (Units=GPa)
#
#
# Indices 1 2 3 4 5 6 
#
# 1 135.4663 2.7482 46.4649 -0.0021 -13.5209 -0.0004
# 2 2.7482 46.8701 0.7344 -0.0126 4.0208 0.0021
# 3 46.4649 0.7344 99.1186 -0.0242 4.3364 0.0030
# 4 -0.0021 -0.0126 -0.0242 1.6161 0.0050 -0.7515
# 5 -13.5209 4.0208 4.3364 0.0050 41.9265 0.0006
# 6 -0.0004 0.0021 0.0030 -0.7515 0.0006 17.7189
#
#
#
# Elastic Compliance Matrix: (Units=1/GPa)
#
#
# Indices 1 2 3 4 5 6 
#
# 1 0.009297 -0.000778 -0.004507 -0.000074 0.003539 -0.000002
# 2 -0.000778 0.021578 0.000308 0.000181 -0.002352 0.000005
# 3 -0.004507 0.000308 0.012320 0.000193 -0.002757 0.000006
# 4 -0.000074 0.000181 0.000193 0.631215 -0.000137 0.026772
# 5 0.003539 -0.002352 -0.002757 -0.000137 0.025503 -0.000006
# 6 -0.000002 0.000005 0.000006 0.026772 -0.000006 0.057572
#
#
# Mechanical properties :
#
#
# Convention : Reuss Voigt Hill
#
# Bulk Modulus (GPa) = 30.08403 42.37222 36.22813
# Shear Modulus (GPa) = 6.42243 27.68613 17.05428
#
# Velocity S-wave (km/s) = 1.65441 3.43499 2.69595
# Velocity P-wave (km/s) = 4.05839 5.81294 5.01302
#
# Compressibility (1/GPa) = 0.03324023
#
# Stress axis : x y z
#
# Youngs Moduli (GPa) = 107.56250 46.34306 81.16712
#
# Poissons Ratio (x) = 0.03606 0.36584
# Poissons Ratio (y) = 0.08370 -0.02499
# Poissons Ratio (z) = 0.48482 -0.01427
#
# Static dielectric constant tensor:
#      x y z
#    x 1.901350 0.000000 -0.075550 
#    y 0.000000 1.910410 0.000000 
#    z -0.075550 0.000000 1.968340 
# 
# From -- ./inp_files/51061.got.cif
#   From: 2010.05.17/outbox.cif.g08.bks.cpg/sg5_26_cif.got.tgz:51061.got - 2010.06.03 18:56:24.
