data_PCOD9122743
_publ_section_title
;
Structure prediction by ZEFSAII (Michael W. Deem and Ramdas Pophale) SiO2 
 PCOD9122743
Probable space group: C 2
;
_chemical_formula_sum "Si O2"
_cell_formula_units_Z 26
_cell_length_a 9.336586
_cell_length_b 10.132359
_cell_length_c 26.114749
_cell_angle_alpha 90.000000
_cell_angle_beta 148.353036
_cell_angle_gamma 90.000000
_cell_volume 1296.230512
_symmetry_space_group_name_H-M "C 2"
_symmetry_group_IT_number 5
_symmetry_cell_setting 'monoclinic'
loop_
_space_group_symop_operation_xyz
x,y,z
-x,y,-z
1/2+x,1/2+y,z
1/2-x,1/2+y,-z
loop_
_atom_site_type_symbol
_atom_site_label
_atom_site_fract_x
_atom_site_fract_y
_atom_site_fract_z
Si Si1 0.238388 0.091800 0.281783
Si Si2 0.305805 0.851288 0.233263
Si Si3 0.515351 0.847637 0.184488
Si Si4 0.500000 0.168176 0.000000
Si Si5 0.323711 0.504387 0.498387
Si Si6 0.350061 0.086544 0.847970
Si Si7 0.779689 0.223314 0.558659
O O1 0.250489 0.237582 0.261575
O O2 0.518353 0.055625 0.394350
O O3 0.975073 0.087362 0.238484
O O4 0.189073 0.981041 0.223901
O O5 0.438374 0.887560 0.219076
O O6 0.097314 0.731829 0.159368
O O7 0.528844 0.790367 0.340282
O O8 0.579552 0.969921 0.168472
O O9 0.261321 0.763335 0.084973
O O10 0.499921 0.082484 0.948311
O O11 0.500000 0.517118 0.500000
O O12 0.302826 0.347878 0.502740
O O13 0.422661 0.602534 0.572946
O O14 0.500000 0.176693 0.500000
#
# Coordination Sequence:
#
# PCOD9122743 Si02
#       7
#     4   4   4   2   4   4   4
#     4   9  20  38  54  81 116 145 185 231 272 323
#     4   9  20  36  54  80 113 145 182 228 275 323
#     4  10  21  38  61  83 110 146 182 224 276 334
#     4   8  20  38  54  84 118 136 176 232 276 328
#     4  10  22  36  54  81 113 149 189 233 274 320
#     4  10  21  37  60  82 109 148 183 223 277 333
#     4  10  20  36  54  77 111 147 186 233 277 319
#
# _framework density 20.058160000000001
#
# number of rings (size 3 to 8) (size 9 to 14) (size 15 to 20)
#    0.000    2.769    0.000    1.846    0.000   14.154 
#    0.000    0.000    0.000    0.000    0.000    0.000 
#    0.000    0.000    0.000    0.000    0.000    0.000 
#
# Total GULP energy -72521.015494 kJ/mol
# GULP energy per Si atom -5578.539653 kJ/mol
# Density = 2.001251 g / cm^3
# Si number density = 20.058160 Si / 1000 Ang^3
#
#
#
# Elastic Constant Matrix: (Units=GPa)
#
#
# Indices 1 2 3 4 5 6 
#
# 1 63.4141 61.0700 9.8699 0.0000 -22.8748 0.0000
# 2 61.0700 124.4082 0.1036 0.0000 -35.6286 0.0000
# 3 9.8699 0.1036 46.5980 0.0000 -11.4723 0.0000
# 4 0.0000 0.0000 0.0000 22.8543 0.0000 -18.0262
# 5 -22.8748 -35.6286 -11.4723 0.0000 27.1558 0.0000
# 6 0.0000 0.0000 0.0000 -18.0262 0.0000 46.1787
#
#
#
# Elastic Compliance Matrix: (Units=1/GPa)
#
#
# Indices 1 2 3 4 5 6 
#
# 1 0.032530 -0.014005 -0.005175 0.000000 0.006841 0.000000
# 2 -0.014005 0.019859 0.007179 0.000000 0.017290 0.000000
# 3 -0.005175 0.007179 0.026547 0.000000 0.016275 0.000000
# 4 0.000000 0.000000 0.000000 0.063221 0.000000 0.024679
# 5 0.006841 0.017290 0.016275 0.000000 0.072148 0.000000
# 6 0.000000 0.000000 0.000000 0.024679 0.000000 0.031289
#
#
# Mechanical properties :
#
#
# Convention : Reuss Voigt Hill
#
# Bulk Modulus (GPa) = 18.20361 41.83415 30.01888
# Shear Modulus (GPa) = 17.36686 30.12953 23.74819
#
# Velocity S-wave (km/s) = 2.94568 3.87991 3.44461
# Velocity P-wave (km/s) = 4.54582 6.40104 5.55148
#
# Compressibility (1/GPa) = 0.05493414
#
# Stress axis : x y z
#
# Youngs Moduli (GPa) = 30.74124 50.35616 37.66878
#
# Poissons Ratio (x) = 0.70523 0.19493
# Poissons Ratio (y) = 0.43053 -0.27043
# Poissons Ratio (z) = 0.15908 -0.36151
#
# Static dielectric constant tensor:
#      x y z
#    x 1.695700 0.000000 -0.030440 
#    y 0.000000 1.727910 0.000000 
#    z -0.030440 0.000000 1.784600 
# 
# From -- ./inp_files/67930.got.cif
#   From: 2010.05.17/outbox.cif.g08.bks.cpg/sg5_34_cif.got.tgz:67930.got - 2010.06.03 18:56:24.
