data_PCOD9122821
_publ_section_title
;
Structure prediction by ZEFSAII (Michael W. Deem and Ramdas Pophale) SiO2 
 PCOD9122821
Probable space group: C 2
;
_chemical_formula_sum "Si O2"
_cell_formula_units_Z 24
_cell_length_a 17.145802
_cell_length_b 8.241224
_cell_length_c 13.517650
_cell_angle_alpha 90.000000
_cell_angle_beta 34.351559
_cell_angle_gamma 90.000000
_cell_volume 1077.797247
_symmetry_space_group_name_H-M "C 2"
_symmetry_group_IT_number 5
_symmetry_cell_setting 'monoclinic'
loop_
_space_group_symop_operation_xyz
x,y,z
-x,y,-z
1/2+x,1/2+y,z
1/2-x,1/2+y,-z
loop_
_atom_site_type_symbol
_atom_site_label
_atom_site_fract_x
_atom_site_fract_y
_atom_site_fract_z
Si Si1 0.864619 0.552070 0.573877
Si Si2 0.618894 0.528215 0.951848
Si Si3 0.250999 0.190855 0.124228
Si Si4 0.518548 0.704259 0.722180
Si Si5 0.478594 0.080175 0.248450
Si Si6 0.255256 0.190071 0.341453
O O1 0.738703 0.628035 0.768448
O O2 0.916321 0.636300 0.419114
O O3 0.799837 0.375061 0.614358
O O4 0.000000 0.530324 0.500000
O O5 0.693605 0.373096 0.920059
O O6 0.500000 0.477843 0.000000
O O7 0.541943 0.619255 0.119201
O O8 0.099627 0.200683 0.237610
O O9 0.251212 0.118279 0.235226
O O10 0.358234 0.105043 0.938079
O O11 0.650418 0.620440 0.533495
O O12 0.549195 0.888181 0.722885
O O13 0.403324 0.169980 0.236872
#
# Coordination Sequence:
#
# PCOD9122821 Si02
#       6
#     4   4   4   4   4   4
#     4  10  20  39  61  85 115 156 196 234 284 350
#     4  11  22  38  60  86 118 156 193 234 287 349
#     4  11  21  40  63  86 114 156 197 234 284 351
#     4  11  23  40  60  88 119 151 192 244 290 336
#     4  11  22  37  61  90 117 149 194 245 288 334
#     4  10  20  36  59  85 115 152 192 233 283 344
#
# _framework density 22.26764
#
# number of rings (size 3 to 8) (size 9 to 14) (size 15 to 20)
#    0.000    1.333    0.000   10.000    0.000    2.667 
#    0.000    1.667    0.000    0.000    0.000    0.000 
#    0.000    0.000    0.000    0.000    0.000    0.000 
#
# Total GULP energy -67053.747814 kJ/mol
# GULP energy per Si atom -5587.812318 kJ/mol
# Density = 2.221696 g / cm^3
# Si number density = 22.267640 Si / 1000 Ang^3
#
#
#
# Elastic Constant Matrix: (Units=GPa)
#
#
# Indices 1 2 3 4 5 6 
#
# 1 104.5607 7.7542 3.7710 0.0000 -4.1131 0.0000
# 2 7.7542 16.2658 9.3000 0.0000 11.9057 0.0000
# 3 3.7710 9.3000 134.5933 0.0000 28.2678 0.0000
# 4 0.0000 0.0000 0.0000 40.4489 0.0000 -13.1570
# 5 -4.1131 11.9057 28.2678 0.0000 59.4960 0.0000
# 6 0.0000 0.0000 0.0000 -13.1570 0.0000 52.3560
#
#
#
# Elastic Compliance Matrix: (Units=1/GPa)
#
#
# Indices 1 2 3 4 5 6 
#
# 1 0.010114 -0.006172 -0.000292 0.000000 0.002073 0.000000
# 2 -0.006172 0.076368 -0.002005 0.000000 -0.014756 0.000000
# 3 -0.000292 -0.002005 0.008327 0.000000 -0.003576 0.000000
# 4 0.000000 0.000000 0.000000 0.026923 0.000000 0.006766
# 5 0.002073 -0.014756 -0.003576 0.000000 0.021603 0.000000
# 6 0.000000 0.000000 0.000000 0.006766 0.000000 0.020800
#
#
# Mechanical properties :
#
#
# Convention : Reuss Voigt Hill
#
# Bulk Modulus (GPa) = 12.84168 33.00780 22.92474
# Shear Modulus (GPa) = 24.15114 46.09980 35.12547
#
# Velocity S-wave (km/s) = 3.29688 4.55495 3.97599
# Velocity P-wave (km/s) = 4.50244 6.52064 5.60316
#
# Compressibility (1/GPa) = 0.07787143
#
# Stress axis : x y z
#
# Youngs Moduli (GPa) = 98.87678 13.09454 120.08456
#
# Poissons Ratio (x) = 0.08081 0.03510
# Poissons Ratio (y) = 0.61023 0.24074
# Poissons Ratio (z) = 0.02890 0.02625
#
# Static dielectric constant tensor:
#      x y z
#    x 1.822100 0.000000 0.078260 
#    y 0.000000 1.840390 0.000000 
#    z 0.078260 0.000000 1.724480 
# 
# From -- ./inp_files/55699.got.cif
#   From: 2010.05.17/outbox.cif.g08.bks.cpg/sg5_28_cif.got.tgz:55699.got - 2010.06.03 18:56:24.
