data_PCOD9122412
_publ_section_title
;
Structure prediction by ZEFSAII (Michael W. Deem and Ramdas Pophale) SiO2 
 PCOD9122412
Probable space group: C 2
;
_chemical_formula_sum "Si O2"
_cell_formula_units_Z 20
_cell_length_a 9.321379
_cell_length_b 16.107025
_cell_length_c 8.708864
_cell_angle_alpha 90.000000
_cell_angle_beta 50.357587
_cell_angle_gamma 90.000000
_cell_volume 1006.864338
_symmetry_space_group_name_H-M "C 2"
_symmetry_group_IT_number 5
_symmetry_cell_setting 'monoclinic'
loop_
_space_group_symop_operation_xyz
x,y,z
-x,y,-z
1/2+x,1/2+y,z
1/2-x,1/2+y,-z
loop_
_atom_site_type_symbol
_atom_site_label
_atom_site_fract_x
_atom_site_fract_y
_atom_site_fract_z
Si Si1 0.715449 0.739360 0.096945
Si Si2 0.500000 0.515534 0.000000
Si Si3 0.854956 0.125948 0.340968
Si Si4 0.856453 0.891763 0.841401
Si Si5 0.500000 0.501900 0.500000
Si Si6 0.401392 0.238412 0.297974
O O1 0.534927 0.684819 0.201592
O O2 0.764463 0.747873 0.244494
O O3 0.705135 0.827241 0.012638
O O4 0.903967 0.700136 0.896294
O O5 0.350204 0.572827 0.189630
O O6 0.598193 0.456820 0.056147
O O7 0.898121 0.061022 0.447744
O O8 0.688074 0.184522 0.507641
O O9 0.034704 0.830509 0.698253
O O10 0.849189 0.945054 0.692178
#
# Coordination Sequence:
#
# PCOD9122412 Si02
#       6
#     4   2   4   4   2   4
#     4   9  17  34  59  75 101 145 177 206 252 329
#     4  10  20  34  54  82 108 140 160 238 262 294
#     4  11  20  34  60  77 105 136 187 207 264 302
#     4   9  18  36  56  71 113 138 173 207 276 300
#     4  10  20  30  58  82 100 144 164 226 266 302
#     4   9  17  34  59  75 101 145 177 206 252 329
#
# _framework density 19.863647
#
# number of rings (size 3 to 8) (size 9 to 14) (size 15 to 20)
#    1.200    1.200    4.000    0.000    0.000    1.600 
#    0.000    0.000   26.400    0.000    0.000    0.000 
#    0.000    0.000    0.000    0.000    0.000    0.000 
#
# Total GULP energy -55672.733205 kJ/mol
# GULP energy per Si atom -5567.273321 kJ/mol
# Density = 1.981844 g / cm^3
# Si number density = 19.863647 Si / 1000 Ang^3
#
#
#
# Elastic Constant Matrix: (Units=GPa)
#
#
# Indices 1 2 3 4 5 6 
#
# 1 15.1667 26.4650 20.6536 0.0000 4.2980 0.0000
# 2 26.4650 124.6015 71.9231 0.0000 11.3617 0.0000
# 3 20.6536 71.9231 108.3873 0.0000 14.3362 0.0000
# 4 0.0000 0.0000 0.0000 75.5867 0.0000 24.6322
# 5 4.2980 11.3617 14.3362 0.0000 24.0263 0.0000
# 6 0.0000 0.0000 0.0000 24.6322 0.0000 -1.0657
#
#
#
# Elastic Compliance Matrix: (Units=1/GPa)
#
#
# Indices 1 2 3 4 5 6 
#
# 1 0.110602 -0.018206 -0.008160 0.000000 -0.006307 0.000000
# 2 -0.018206 0.016031 -0.007162 0.000000 -0.000051 0.000000
# 3 -0.008160 -0.007162 0.016169 0.000000 -0.004801 0.000000
# 4 0.000000 0.000000 0.000000 0.001551 0.000000 0.035839
# 5 -0.006307 -0.000051 -0.004801 0.000000 0.045638 0.000000
# 6 0.000000 0.000000 0.000000 0.035839 0.000000 -0.109976
#
#
# Mechanical properties :
#
#
# Convention : Reuss Voigt Hill
#
# Bulk Modulus (GPa) = 13.20213 54.02656 33.61435
# Shear Modulus (GPa) = 29.01571 28.31704 28.66637
#
# Velocity S-wave (km/s) = 3.82611 3.77977 3.80301
# Velocity P-wave (km/s) = 5.11661 6.80490 6.02023
#
# Compressibility (1/GPa) = 0.07574533
#
# Stress axis : x y z
#
# Youngs Moduli (GPa) = 9.04139 62.37825 61.84790
#
# Poissons Ratio (x) = 1.13567 0.50470
# Poissons Ratio (y) = 0.16461 0.44295
# Poissons Ratio (z) = 0.07378 0.44675
#
# Static dielectric constant tensor:
#      x y z
#    x 1.684270 0.000000 0.026000 
#    y 0.000000 1.704460 0.000000 
#    z 0.026000 0.000000 1.720390 
# 
# From -- ./inp_files/16023.got.cif
#   From: 2010.05.17/outbox.cif.g08.bks.cpg/sg5_9_cif.got.tgz:16023.got - 2010.06.03 18:56:24.
