data_PCOD9122374
_publ_section_title
;
Structure prediction by ZEFSAII (Michael W. Deem and Ramdas Pophale) SiO2 
 PCOD9122374
Probable space group: C 2
;
_chemical_formula_sum "Si O2"
_cell_formula_units_Z 26
_cell_length_a 8.900364
_cell_length_b 11.404372
_cell_length_c 20.529271
_cell_angle_alpha 90.000000
_cell_angle_beta 35.188029
_cell_angle_gamma 90.000000
_cell_volume 1200.804573
_symmetry_space_group_name_H-M "C 2"
_symmetry_group_IT_number 5
_symmetry_cell_setting 'monoclinic'
loop_
_space_group_symop_operation_xyz
x,y,z
-x,y,-z
1/2+x,1/2+y,z
1/2-x,1/2+y,-z
loop_
_atom_site_type_symbol
_atom_site_label
_atom_site_fract_x
_atom_site_fract_y
_atom_site_fract_z
Si Si1 0.023073 0.262790 0.654328
Si Si2 0.130010 0.750505 0.018047
Si Si3 0.636831 0.642956 0.881183
Si Si4 0.956158 0.448201 0.254315
Si Si5 0.000000 0.900459 0.500000
Si Si6 0.760766 0.048286 0.795289
Si Si7 0.521807 0.354189 0.190752
O O1 0.003416 0.316524 0.734921
O O2 0.300107 0.313185 0.533037
O O3 0.969247 0.126090 0.680825
O O4 0.784265 0.324748 0.702049
O O5 0.941856 0.643031 0.105322
O O6 0.129257 0.840924 0.078721
O O7 0.413048 0.690623 0.912988
O O8 0.000000 0.803882 0.000000
O O9 0.807592 0.529172 0.805133
O O10 0.839970 0.747674 0.820487
O O11 0.500000 0.622687 0.000000
O O12 0.688756 0.476496 0.388112
O O13 0.899784 0.468812 0.198968
O O14 0.894054 0.971878 0.803550
#
# Coordination Sequence:
#
# PCOD9122374 Si02
#       7
#     4   4   4   4   2   4   4
#     4   9  21  45  64  95 133 173 227 284 347 398
#     4  10  23  40  66  99 142 189 227 276 342 405
#     4  10  19  42  68  99 141 181 222 280 337 411
#     4  10  20  44  70  97 142 177 226 287 344 404
#     4   8  22  42  70 100 132 180 226 292 344 398
#     4  11  22  44  69  97 135 181 229 283 340 417
#     4  10  22  41  65  95 134 175 236 281 329 411
#
# _framework density 21.652149999999999
#
# number of rings (size 3 to 8) (size 9 to 14) (size 15 to 20)
#    0.923    1.231    4.615    0.000    2.154    4.308 
#    5.538    4.615    0.000    0.000    0.000    0.000 
#    0.000    0.000    0.000    0.000    0.000    0.000 
#
# Total GULP energy -72529.751002 kJ/mol
# GULP energy per Si atom -5579.211616 kJ/mol
# Density = 2.160287 g / cm^3
# Si number density = 21.652150 Si / 1000 Ang^3
#
#
#
# Elastic Constant Matrix: (Units=GPa)
#
#
# Indices 1 2 3 4 5 6 
#
# 1 128.9509 38.2441 22.8769 -0.0008 -17.1977 0.0007
# 2 38.2441 75.9762 14.0508 -0.0010 -2.1668 0.0003
# 3 22.8769 14.0508 67.1662 -0.0026 -35.3097 0.0008
# 4 -0.0008 -0.0010 -0.0026 19.1986 0.0001 0.5776
# 5 -17.1977 -2.1668 -35.3097 0.0001 35.0520 -0.0006
# 6 0.0007 0.0003 0.0008 0.5776 -0.0006 40.9183
#
#
#
# Elastic Compliance Matrix: (Units=1/GPa)
#
#
# Indices 1 2 3 4 5 6 
#
# 1 0.009777 -0.004807 0.000087 0.000000 0.004588 0.000000
# 2 -0.004807 0.016372 -0.005305 0.000000 -0.006690 0.000000
# 3 0.000087 -0.005305 0.033626 0.000004 0.033588 0.000000
# 4 0.000000 0.000000 0.000004 0.052109 0.000004 -0.000736
# 5 0.004588 -0.006690 0.033588 0.000004 0.064201 0.000000
# 6 0.000000 0.000000 0.000000 -0.000736 0.000000 0.024449
#
#
# Mechanical properties :
#
#
# Convention : Reuss Voigt Hill
#
# Bulk Modulus (GPa) = 25.17226 46.93744 36.05485
# Shear Modulus (GPa) = 21.38356 32.16186 26.77271
#
# Velocity S-wave (km/s) = 3.14601 3.85826 3.52019
# Velocity P-wave (km/s) = 4.98473 6.44773 5.76284
#
# Compressibility (1/GPa) = 0.03972627
#
# Stress axis : x y z
#
# Youngs Moduli (GPa) = 102.28311 61.08072 29.73905
#
# Poissons Ratio (x) = 0.29359 -0.00260
# Poissons Ratio (y) = 0.49164 0.15776
# Poissons Ratio (z) = -0.00893 0.32401
#
# Static dielectric constant tensor:
#      x y z
#    x 1.815650 0.000000 -0.006290 
#    y 0.000000 1.787340 0.000000 
#    z -0.006290 0.000000 1.844080 
# 
# From -- ./inp_files/64459.got.cif
#   From: 2010.05.17/outbox.cif.g08.bks.cpg/sg5_33_cif.got.tgz:64459.got - 2010.06.03 18:56:24.
