data_PCOD9122493
_publ_section_title
;
Structure prediction by ZEFSAII (Michael W. Deem and Ramdas Pophale) SiO2 
 PCOD9122493
Probable space group: C 2
;
_chemical_formula_sum "Si O2"
_cell_formula_units_Z 20
_cell_length_a 7.722776
_cell_length_b 23.152697
_cell_length_c 6.813472
_cell_angle_alpha 90.000000
_cell_angle_beta 138.316600
_cell_angle_gamma 90.000000
_cell_volume 810.166525
_symmetry_space_group_name_H-M "C 2"
_symmetry_group_IT_number 5
_symmetry_cell_setting 'monoclinic'
loop_
_space_group_symop_operation_xyz
x,y,z
-x,y,-z
1/2+x,1/2+y,z
1/2-x,1/2+y,-z
loop_
_atom_site_type_symbol
_atom_site_label
_atom_site_fract_x
_atom_site_fract_y
_atom_site_fract_z
Si Si1 0.584335 0.424420 0.839989
Si Si2 0.713605 0.035952 0.844404
Si Si3 0.920117 0.360769 0.664584
Si Si4 0.565399 0.164684 0.826677
Si Si5 0.928812 0.229807 0.673044
O O1 0.723414 0.486802 0.940177
O O2 0.682743 0.405824 0.489959
O O3 0.811727 0.378172 0.004864
O O4 0.500000 0.423810 0.000000
O O5 0.500000 0.015188 0.500000
O O6 0.615763 0.097499 0.833676
O O7 0.000000 0.047133 0.000000
O O8 0.848540 0.295137 0.652746
O O9 0.000000 0.361965 0.500000
O O10 0.308103 0.186003 0.500440
O O11 0.500000 0.170770 0.000000
O O12 0.812794 0.206019 0.005606
O O13 0.000000 0.230567 0.500000
#
# Coordination Sequence:
#
# PCOD9122493 Si02
#       5
#     4   4   4   4   4
#     4   9  16  26  42  67  98 126 156 199 250 295
#     4  11  21  34  51  75 105 137 171 208 248 300
#     4   9  15  25  43  68  97 124 152 200 258 295
#     4  10  20  34  51  74 103 134 169 208 249 298
#     4   9  17  29  47  72 101 129 162 207 256 300
#
# _framework density 24.686281999999999
#
# number of rings (size 3 to 8) (size 9 to 14) (size 15 to 20)
#    0.000    2.400    0.000    5.400    0.000    4.800 
#    0.000    0.000    0.000    0.000    0.000   14.000 
#    0.000    0.000    0.000    0.000    0.000    0.000 
#
# Total GULP energy -55958.378679 kJ/mol
# GULP energy per Si atom -5595.837868 kJ/mol
# Density = 2.463009 g / cm^3
# Si number density = 24.686282 Si / 1000 Ang^3
#
#
#
# Elastic Constant Matrix: (Units=GPa)
#
#
# Indices 1 2 3 4 5 6 
#
# 1 70.3757 20.2068 30.9573 0.0000 16.7468 0.0000
# 2 20.2068 179.9685 59.5899 0.0000 35.8490 0.0000
# 3 30.9573 59.5899 181.9642 0.0000 18.5755 0.0000
# 4 0.0000 0.0000 0.0000 39.7424 0.0000 11.8730
# 5 16.7468 35.8490 18.5755 0.0000 49.8740 0.0000
# 6 0.0000 0.0000 0.0000 11.8730 0.0000 29.5063
#
#
#
# Elastic Compliance Matrix: (Units=1/GPa)
#
#
# Indices 1 2 3 4 5 6 
#
# 1 0.016329 -0.000189 -0.002256 0.000000 -0.004507 0.000000
# 2 -0.000189 0.007045 -0.001834 0.000000 -0.004317 0.000000
# 3 -0.002256 -0.001834 0.006516 0.000000 -0.000351 0.000000
# 4 0.000000 0.000000 0.000000 0.028600 0.000000 -0.011508
# 5 -0.004507 -0.004317 -0.000351 0.000000 0.024798 0.000000
# 6 0.000000 0.000000 0.000000 -0.011508 0.000000 0.038522
#
#
# Mechanical properties :
#
#
# Convention : Reuss Voigt Hill
#
# Bulk Modulus (GPa) = 46.87884 72.64627 59.76255
# Shear Modulus (GPa) = 36.36945 45.26150 40.81548
#
# Velocity S-wave (km/s) = 3.84248 4.28655 4.07057
# Velocity P-wave (km/s) = 6.22232 7.34786 6.80839
#
# Compressibility (1/GPa) = 0.02133159
#
# Stress axis : x y z
#
# Youngs Moduli (GPa) = 61.24249 141.94299 153.47002
#
# Poissons Ratio (x) = 0.02676 0.34624
# Poissons Ratio (y) = 0.01155 0.28151
# Poissons Ratio (z) = 0.13817 0.26037
#
# Static dielectric constant tensor:
#      x y z
#    x 2.043570 0.000000 -0.091340 
#    y 0.000000 1.905680 0.000000 
#    z -0.091340 0.000000 1.928960 
# 
# From -- ./inp_files/16923.got.cif
#   From: 2010.05.17/outbox.cif.g08.bks.cpg/sg5_9_cif.got.tgz:16923.got - 2010.06.03 18:56:24.
