data_PCOD9122628
_publ_section_title
;
Structure prediction by ZEFSAII (Michael W. Deem and Ramdas Pophale) SiO2 
 PCOD9122628
Probable space group: C 2
;
_chemical_formula_sum "Si O2"
_cell_formula_units_Z 28
_cell_length_a 5.099643
_cell_length_b 14.557704
_cell_length_c 17.174440
_cell_angle_alpha 90.000000
_cell_angle_beta 98.326581
_cell_angle_gamma 90.000000
_cell_volume 1261.574555
_symmetry_space_group_name_H-M "C 2"
_symmetry_group_IT_number 5
_symmetry_cell_setting 'monoclinic'
loop_
_space_group_symop_operation_xyz
x,y,z
-x,y,-z
1/2+x,1/2+y,z
1/2-x,1/2+y,-z
loop_
_atom_site_type_symbol
_atom_site_label
_atom_site_fract_x
_atom_site_fract_y
_atom_site_fract_z
Si Si1 0.901468 0.120830 0.832880
Si Si2 0.000000 0.419789 0.000000
Si Si3 0.648339 0.118343 0.255827
Si Si4 0.419263 0.665793 0.414469
Si Si5 0.061260 0.340639 0.167917
Si Si6 0.598959 0.341833 0.257615
Si Si7 0.928395 0.798522 0.415133
Si Si8 0.000000 0.041238 0.000000
O O1 0.651863 0.087215 0.770909
O O2 0.916637 0.230673 0.825716
O O3 0.881747 0.097349 0.922459
O O4 0.176513 0.087153 0.808970
O O5 0.957930 0.364323 0.078029
O O6 0.739362 0.480410 0.978716
O O7 0.827231 0.100996 0.340026
O O8 0.623909 0.230136 0.255120
O O9 0.500000 0.621174 0.500000
O O10 0.355149 0.743328 0.599228
O O11 0.150689 0.719497 0.423279
O O12 0.359283 0.373966 0.193380
O O13 0.871008 0.373913 0.229781
O O14 0.500327 0.357742 0.341851
O O15 0.000000 0.847404 0.500000
#
# Coordination Sequence:
#
# PCOD9122628 Si02
#       8
#     4   2   4   4   4   4   4   2
#     4  10  20  35  55  75 100 135 174 212 254 308
#     4  12  25  40  55  76 104 132 170 220 273 318
#     4   9  16  28  47  72 100 134 172 207 246 300
#     4   9  15  23  38  65 104 143 170 200 251 305
#     4  10  20  35  55  75 100 135 174 212 254 308
#     4   9  16  28  47  72 100 134 172 207 246 300
#     4   9  15  23  38  65 104 143 170 200 251 305
#     4  12  25  40  55  76 104 132 170 220 273 318
#
# _framework density 22.194488
#
# number of rings (size 3 to 8) (size 9 to 14) (size 15 to 20)
#    0.000    2.286    0.000    6.429    0.000    0.000 
#    0.000    5.714    0.000    0.000    0.000    0.000 
#    0.000   17.143    0.000    2.857    0.000    0.000 
#
# Total GULP energy -78017.998011 kJ/mol
# GULP energy per Si atom -5572.714144 kJ/mol
# Density = 2.214397 g / cm^3
# Si number density = 22.194488 Si / 1000 Ang^3
#
#
#
# Elastic Constant Matrix: (Units=GPa)
#
#
# Indices 1 2 3 4 5 6 
#
# 1 134.2348 7.7228 25.5916 0.0000 -0.4946 0.0000
# 2 7.7228 52.2390 10.0012 0.0000 -0.0842 0.0000
# 3 25.5916 10.0012 168.4584 0.0000 2.2683 0.0000
# 4 0.0000 0.0000 0.0000 -11.9599 0.0000 0.6117
# 5 -0.4946 -0.0842 2.2683 0.0000 38.0563 0.0000
# 6 0.0000 0.0000 0.0000 0.6117 0.0000 2.4661
#
#
#
# Elastic Compliance Matrix: (Units=1/GPa)
#
#
# Indices 1 2 3 4 5 6 
#
# 1 0.007717 -0.000926 -0.001120 0.000000 0.000165 0.000000
# 2 -0.000926 0.019475 -0.001017 0.000000 0.000092 0.000000
# 3 -0.001120 -0.001017 0.006172 0.000000 -0.000385 0.000000
# 4 0.000000 0.000000 0.000000 -0.082565 0.000000 0.020481
# 5 0.000165 0.000092 -0.000385 0.000000 0.026302 0.000000
# 6 0.000000 0.000000 0.000000 0.020481 0.000000 0.400416
#
#
# Mechanical properties :
#
#
# Convention : Reuss Voigt Hill
#
# Bulk Modulus (GPa) = 36.71305 49.06262 42.88783
# Shear Modulus (GPa) = 12.73168 26.48694 19.60931
#
# Velocity S-wave (km/s) = 2.39768 3.45831 2.97563
# Velocity P-wave (km/s) = 4.92368 6.17255 5.58314
#
# Compressibility (1/GPa) = 0.02723827
#
# Stress axis : x y z
#
# Youngs Moduli (GPa) = 129.58450 51.34914 162.02716
#
# Poissons Ratio (x) = 0.04756 0.18140
# Poissons Ratio (y) = 0.12003 0.16473
# Poissons Ratio (z) = 0.14508 0.05221
#
# Static dielectric constant tensor:
#      x y z
#    x 1.794050 0.000000 -0.004410 
#    y 0.000000 1.848690 0.000000 
#    z -0.004410 0.000000 1.938010 
# 
# From -- ./inp_files/49121.got.cif
#   From: 2010.05.17/outbox.cif.g08.bks.cpg/sg5_25_cif.got.tgz:49121.got - 2010.06.03 18:56:24.
