data_PCOD9122883
_publ_section_title
;
Structure prediction by ZEFSAII (Michael W. Deem and Ramdas Pophale) SiO2 
 PCOD9122883
Probable space group: C 2
;
_chemical_formula_sum "Si O2"
_cell_formula_units_Z 22
_cell_length_a 20.347929
_cell_length_b 9.278357
_cell_length_c 17.304328
_cell_angle_alpha 90.000000
_cell_angle_beta 158.894930
_cell_angle_gamma 90.000000
_cell_volume 1176.370869
_symmetry_space_group_name_H-M "C 2"
_symmetry_group_IT_number 5
_symmetry_cell_setting 'monoclinic'
loop_
_space_group_symop_operation_xyz
x,y,z
-x,y,-z
1/2+x,1/2+y,z
1/2-x,1/2+y,-z
loop_
_atom_site_type_symbol
_atom_site_label
_atom_site_fract_x
_atom_site_fract_y
_atom_site_fract_z
Si Si1 0.085383 0.105560 0.839067
Si Si2 0.231007 0.446041 0.387144
Si Si3 0.781669 0.198635 0.853573
Si Si4 0.110957 0.658072 0.511580
Si Si5 0.952183 0.435431 0.221441
Si Si6 0.500000 0.938509 0.000000
O O1 0.086877 0.267726 0.808342
O O2 0.105335 0.120913 0.954673
O O3 0.904346 0.027321 0.611898
O O4 0.261168 0.017974 0.003386
O O5 0.288961 0.283058 0.427000
O O6 0.077283 0.445662 0.283525
O O7 0.145489 0.514922 0.215168
O O8 0.729220 0.117277 0.716678
O O9 0.583145 0.226864 0.673996
O O10 0.885626 0.337294 0.933852
O O11 0.059651 0.518530 0.406589
#
# Coordination Sequence:
#
# PCOD9122883 Si02
#       6
#     4   4   4   4   4   2
#     4  11  22  38  63  87 121 155 197 244 298 346
#     4  11  22  37  63  90 116 157 198 251 288 350
#     4   9  18  36  61  89 113 156 200 245 278 355
#     4   9  20  38  64  87 121 150 201 243 296 343
#     4  11  22  38  61  92 119 155 197 244 295 356
#     4  10  20  36  62  86 116 152 210 240 286 348
#
# _framework density 18.701585999999999
#
# number of rings (size 3 to 8) (size 9 to 14) (size 15 to 20)
#    0.000    1.818    1.818    3.273    2.545    0.000 
#    0.000    0.000   24.000    0.000    0.000    0.000 
#    0.000    0.000    0.000    0.000    0.000    0.000 
#
# Total GULP energy -61336.672335 kJ/mol
# GULP energy per Si atom -5576.061121 kJ/mol
# Density = 1.865902 g / cm^3
# Si number density = 18.701586 Si / 1000 Ang^3
#
#
#
# Elastic Constant Matrix: (Units=GPa)
#
#
# Indices 1 2 3 4 5 6 
#
# 1 115.9351 44.9459 62.0275 0.0000 1.6012 0.0000
# 2 44.9459 88.7362 51.0705 0.0000 -1.0311 0.0000
# 3 62.0275 51.0705 163.7774 0.0000 -23.4903 0.0000
# 4 0.0000 0.0000 0.0000 35.7196 0.0000 -3.1132
# 5 1.6012 -1.0311 -23.4903 0.0000 29.5481 0.0000
# 6 0.0000 0.0000 0.0000 -3.1132 0.0000 16.3474
#
#
#
# Elastic Compliance Matrix: (Units=1/GPa)
#
#
# Indices 1 2 3 4 5 6 
#
# 1 0.012382 -0.004008 -0.004013 0.000000 -0.004002 0.000000
# 2 -0.004008 0.015323 -0.003558 0.000000 -0.002077 0.000000
# 3 -0.004013 -0.003558 0.009875 0.000000 0.007944 0.000000
# 4 0.000000 0.000000 0.000000 0.028468 0.000000 0.005421
# 5 -0.004002 -0.002077 0.007944 0.000000 0.040303 0.000000
# 6 0.000000 0.000000 0.000000 0.005421 0.000000 0.062204
#
#
# Mechanical properties :
#
#
# Convention : Reuss Voigt Hill
#
# Bulk Modulus (GPa) = 69.34616 76.05962 72.70289
# Shear Modulus (GPa) = 25.44255 30.35002 27.89628
#
# Velocity S-wave (km/s) = 3.69243 4.03284 3.86638
# Velocity P-wave (km/s) = 7.43906 7.90212 7.67408
#
# Compressibility (1/GPa) = 0.01442041
#
# Stress axis : x y z
#
# Youngs Moduli (GPa) = 80.76240 65.26057 101.26882
#
# Poissons Ratio (x) = 0.26158 0.40644
# Poissons Ratio (y) = 0.32371 0.36032
# Poissons Ratio (z) = 0.32414 0.23220
#
# Static dielectric constant tensor:
#      x y z
#    x 1.661820 0.000000 -0.008630 
#    y 0.000000 1.619360 0.000000 
#    z -0.008630 0.000000 1.715960 
# 
# From -- ./inp_files/26256.got.cif
#   From: 2010.05.17/outbox.cif.g08.bks.cpg/sg5_14_cif.got.tgz:26256.got - 2010.06.03 18:56:24.
