data_PCOD9122937
_publ_section_title
;
Structure prediction by ZEFSAII (Michael W. Deem and Ramdas Pophale) SiO2 
 PCOD9122937
Probable space group: C 2
;
_chemical_formula_sum "Si O2"
_cell_formula_units_Z 32
_cell_length_a 25.355885
_cell_length_b 13.997551
_cell_length_c 17.743702
_cell_angle_alpha 90.000000
_cell_angle_beta 166.337031
_cell_angle_gamma 90.000000
_cell_volume 1487.557160
_symmetry_space_group_name_H-M "C 2"
_symmetry_group_IT_number 5
_symmetry_cell_setting 'monoclinic'
loop_
_space_group_symop_operation_xyz
x,y,z
-x,y,-z
1/2+x,1/2+y,z
1/2-x,1/2+y,-z
loop_
_atom_site_type_symbol
_atom_site_label
_atom_site_fract_x
_atom_site_fract_y
_atom_site_fract_z
Si Si1 0.251494 0.622410 0.863406
Si Si2 0.794432 0.544805 0.956575
Si Si3 0.360453 0.339389 0.534595
Si Si4 0.745080 0.902154 0.809472
Si Si5 0.502195 0.794794 0.157770
Si Si6 0.279304 0.221292 0.026691
Si Si7 0.428606 0.882342 0.590795
Si Si8 0.177994 0.953164 0.658805
O O1 0.263340 0.514098 0.854408
O O2 0.000000 0.657105 0.500000
O O3 0.430746 0.686916 0.070564
O O4 0.277251 0.644186 0.987353
O O5 0.752827 0.655010 0.916803
O O6 0.821735 0.531541 0.904371
O O7 0.574807 0.484376 0.675801
O O8 0.986604 0.489396 0.270105
O O9 0.146651 0.308966 0.284226
O O10 0.307732 0.431387 0.409756
O O11 0.557297 0.355671 0.868497
O O12 0.468823 0.261006 0.629212
O O13 0.500000 0.871918 0.500000
O O14 0.743328 0.886592 0.717098
O O15 0.626952 0.834487 0.405814
O O16 0.278314 0.858668 0.838397
O O17 0.127556 0.313231 0.835125
#
# Coordination Sequence:
#
# PCOD9122937 Si02
#       8
#     4   4   4   4   4   4   4   4
#     4  10  21  37  67  95 123 164 218 271 307 371
#     4  10  20  36  64  99 119 160 216 268 308 370
#     4  12  23  40  64  93 132 168 207 262 320 384
#     4  11  21  39  67  92 125 166 217 259 318 370
#     4  10  24  40  63  93 129 172 209 254 325 377
#     4  11  21  37  67  95 128 163 213 267 313 372
#     4  10  21  41  63  94 127 169 211 260 317 373
#     4  10  20  37  61  87 127 159 206 258 310 363
#
# _framework density 21.511779000000001
#
# number of rings (size 3 to 8) (size 9 to 14) (size 15 to 20)
#    0.000    1.500    2.500    3.375    5.250    2.500 
#    4.500    0.000    8.250    0.000    0.000    0.000 
#    0.000    0.000    0.000    0.000    0.000    0.000 
#
# Total GULP energy -89196.322956 kJ/mol
# GULP energy per Si atom -5574.770185 kJ/mol
# Density = 2.146282 g / cm^3
# Si number density = 21.511779 Si / 1000 Ang^3
#
#
#
# Elastic Constant Matrix: (Units=GPa)
#
#
# Indices 1 2 3 4 5 6 
#
# 1 112.3833 33.5875 22.6500 0.0025 -8.6349 0.0018
# 2 33.5875 66.6271 19.4056 0.0016 5.8521 0.0022
# 3 22.6500 19.4056 41.5265 0.0040 -17.3795 0.0029
# 4 0.0025 0.0016 0.0040 13.1638 0.0014 -5.2511
# 5 -8.6349 5.8521 -17.3795 0.0014 46.0520 0.0013
# 6 0.0018 0.0022 0.0029 -5.2511 0.0013 25.6798
#
#
#
# Elastic Compliance Matrix: (Units=1/GPa)
#
#
# Indices 1 2 3 4 5 6 
#
# 1 0.011086 -0.004791 -0.003186 -0.000001 0.001485 0.000000
# 2 -0.004791 0.021110 -0.010391 0.000002 -0.007502 0.000001
# 3 -0.003186 -0.010391 0.036788 -0.000013 0.014606 -0.000007
# 4 -0.000001 0.000002 -0.000013 0.082713 -0.000009 0.016913
# 5 0.001485 -0.007502 0.014606 -0.000009 0.028459 -0.000004
# 6 0.000000 0.000001 -0.000007 0.016913 -0.000004 0.042400
#
#
# Mechanical properties :
#
#
# Convention : Reuss Voigt Hill
#
# Bulk Modulus (GPa) = 31.01145 41.31367 36.16256
# Shear Modulus (GPa) = 18.51567 26.63870 22.57719
#
# Velocity S-wave (km/s) = 2.93699 3.52281 3.24315
# Velocity P-wave (km/s) = 5.09397 5.98279 5.55618
#
# Compressibility (1/GPa) = 0.03224615
#
# Stress axis : x y z
#
# Youngs Moduli (GPa) = 90.20126 47.37165 27.18284
#
# Poissons Ratio (x) = 0.22696 0.08662
# Poissons Ratio (y) = 0.43216 0.28247
# Poissons Ratio (z) = 0.28742 0.49225
#
# Static dielectric constant tensor:
#      x y z
#    x 1.878450 0.000000 -0.060520 
#    y 0.000000 1.799790 0.000000 
#    z -0.060520 0.000000 1.805770 
# 
# From -- ./inp_files/57185.got.cif
#   From: 2010.05.17/outbox.cif.g08.bks.cpg/sg5_29_cif.got.tgz:57185.got - 2010.06.03 18:56:24.
