data_PCOD9122178
_publ_section_title
;
Structure prediction by ZEFSAII (Michael W. Deem and Ramdas Pophale) SiO2 
 PCOD9122178
Probable space group: C 2
;
_chemical_formula_sum "Si O2"
_cell_formula_units_Z 28
_cell_length_a 9.231260
_cell_length_b 13.404375
_cell_length_c 22.236891
_cell_angle_alpha 90.000000
_cell_angle_beta 27.628135
_cell_angle_gamma 90.000000
_cell_volume 1275.991811
_symmetry_space_group_name_H-M "C 2"
_symmetry_group_IT_number 5
_symmetry_cell_setting 'monoclinic'
loop_
_space_group_symop_operation_xyz
x,y,z
-x,y,-z
1/2+x,1/2+y,z
1/2-x,1/2+y,-z
loop_
_atom_site_type_symbol
_atom_site_label
_atom_site_fract_x
_atom_site_fract_y
_atom_site_fract_z
Si Si1 0.000000 0.904330 0.500000
Si Si2 0.019878 0.452498 0.770793
Si Si3 0.518856 0.558803 0.324693
Si Si4 0.500000 0.888133 0.500000
Si Si5 0.153900 0.270404 0.095362
Si Si6 0.016212 0.268666 0.613542
Si Si7 0.869243 0.066406 0.854502
Si Si8 0.476706 0.380353 0.130131
O O1 0.754823 0.966495 0.628853
O O2 0.811763 0.833069 0.524917
O O3 0.136530 0.527357 0.778641
O O4 0.052683 0.342822 0.788061
O O5 0.678178 0.444869 0.867319
O O6 0.415128 0.651671 0.404062
O O7 0.542517 0.589376 0.246391
O O8 0.282990 0.464276 0.413557
O O9 0.419896 0.814541 0.584902
O O10 0.025001 0.159097 0.143085
O O11 0.500000 0.263778 0.000000
O O12 0.221152 0.325987 0.007999
O O13 0.754875 0.296021 0.759829
O O14 0.500000 0.057387 0.000000
O O15 0.994124 0.959668 0.827910
#
# Coordination Sequence:
#
# PCOD9122178 Si02
#       8
#     2   4   4   2   4   4   4   4
#     4  10  19  39  62  84 122 174 205 259 326 378
#     4  10  21  38  60  88 127 165 213 265 324 390
#     4  12  24  42  65  95 129 176 214 272 339 386
#     4  12  25  47  64 100 136 170 231 277 320 398
#     4   9  19  37  62  90 122 167 214 261 325 395
#     4  11  23  43  65  93 132 170 223 273 327 396
#     4  11  21  39  67  95 124 171 218 266 338 393
#     4  10  21  41  64  92 127 166 219 275 320 399
#
# _framework density 21.943715000000001
#
# number of rings (size 3 to 8) (size 9 to 14) (size 15 to 20)
#    0.000    1.429    2.857    4.714    0.000    0.571 
#    2.571    0.000    0.000    0.000    0.000    0.000 
#    0.000    0.000    0.000    0.000    0.000    0.000 
#
# Total GULP energy -78102.179030 kJ/mol
# GULP energy per Si atom -5578.727074 kJ/mol
# Density = 2.189377 g / cm^3
# Si number density = 21.943715 Si / 1000 Ang^3
#
#
#
# Elastic Constant Matrix: (Units=GPa)
#
#
# Indices 1 2 3 4 5 6 
#
# 1 63.6785 43.0622 5.4186 -0.0429 17.4688 0.0100
# 2 43.0622 90.6070 7.5760 -0.0023 21.7356 0.0012
# 3 5.4186 7.5760 61.2068 -0.0327 23.8281 0.0087
# 4 -0.0429 -0.0023 -0.0327 -22.8497 0.0262 7.2360
# 5 17.4688 21.7356 23.8281 0.0262 22.7902 -0.0115
# 6 0.0100 0.0012 0.0087 7.2360 -0.0115 33.0158
#
#
#
# Elastic Compliance Matrix: (Units=1/GPa)
#
#
# Indices 1 2 3 4 5 6 
#
# 1 0.025789 -0.008537 0.005564 -0.000075 -0.017442 0.000001
# 2 -0.008537 0.018561 0.004726 -0.000012 -0.016099 -0.000002
# 3 0.005564 0.004726 0.031495 -0.000104 -0.041701 -0.000002
# 4 -0.000075 -0.000012 -0.000104 -0.040923 0.000229 0.008969
# 5 -0.017442 -0.016099 -0.041701 0.000229 0.116202 0.000007
# 6 0.000001 -0.000002 -0.000002 0.008969 0.000007 0.028323
#
#
# Mechanical properties :
#
#
# Convention : Reuss Voigt Hill
#
# Bulk Modulus (GPa) = 12.60252 36.40066 24.50159
# Shear Modulus (GPa) = 24.70462 17.22030 20.96246
#
# Velocity S-wave (km/s) = 3.35896 2.80438 3.09412
# Velocity P-wave (km/s) = 4.56060 5.20675 4.89435
#
# Compressibility (1/GPa) = 0.07934922
#
# Stress axis : x y z
#
# Youngs Moduli (GPa) = 38.77680 53.87618 31.75112
#
# Poissons Ratio (x) = 0.45997 -0.17666
# Poissons Ratio (y) = 0.33106 -0.15005
# Poissons Ratio (z) = -0.21575 -0.25461
#
# Static dielectric constant tensor:
#      x y z
#    x 1.855070 0.000000 -0.024610 
#    y 0.000000 1.825460 0.000000 
#    z -0.024610 0.000000 1.817180 
# 
# From -- ./inp_files/50999.got.cif
#   From: 2010.05.17/outbox.cif.g08.bks.cpg/sg5_26_cif.got.tgz:50999.got - 2010.06.03 18:56:24.
