data_PCOD9122355
_publ_section_title
;
Structure prediction by ZEFSAII (Michael W. Deem and Ramdas Pophale) SiO2 
 PCOD9122355
Probable space group: C 2
;
_chemical_formula_sum "Si O2"
_cell_formula_units_Z 28
_cell_length_a 9.640949
_cell_length_b 11.567418
_cell_length_c 18.152033
_cell_angle_alpha 90.000000
_cell_angle_beta 37.907648
_cell_angle_gamma 90.000000
_cell_volume 1243.729673
_symmetry_space_group_name_H-M "C 2"
_symmetry_group_IT_number 5
_symmetry_cell_setting 'monoclinic'
loop_
_space_group_symop_operation_xyz
x,y,z
-x,y,-z
1/2+x,1/2+y,z
1/2-x,1/2+y,-z
loop_
_atom_site_type_symbol
_atom_site_label
_atom_site_fract_x
_atom_site_fract_y
_atom_site_fract_z
Si Si1 0.357070 0.694090 0.153430
Si Si2 0.206338 0.013034 0.186765
Si Si3 0.840327 0.403783 0.974595
Si Si4 0.884791 0.813424 0.335847
Si Si5 0.493418 0.867827 0.608039
Si Si6 0.000000 0.979594 0.000000
Si Si7 0.070570 0.226757 0.704421
Si Si8 0.000000 0.581379 0.500000
O O1 0.568970 0.776882 0.041814
O O2 0.396108 0.567486 0.104525
O O3 0.372340 0.718235 0.234041
O O4 0.103466 0.733311 0.239999
O O5 0.430406 0.976159 0.135612
O O6 0.994933 0.939438 0.303732
O O7 0.236797 0.966795 0.089894
O O8 0.148454 0.146389 0.214132
O O9 0.678814 0.406349 0.972123
O O10 0.695286 0.803353 0.478538
O O11 0.742891 0.813403 0.319955
O O12 0.533846 0.846112 0.676881
O O13 0.481741 0.996107 0.578452
O O14 0.284734 0.161704 0.580038
#
# Coordination Sequence:
#
# PCOD9122355 Si02
#       8
#     4   4   4   4   4   2   4   2
#     4  11  24  41  64  98 126 174 218 273 323 392
#     4  10  19  42  64  86 126 175 204 272 332 372
#     4  10  24  42  62  93 129 162 227 272 320 391
#     4   9  19  41  64  85 134 166 207 266 325 368
#     4  10  21  37  66  97 122 178 215 258 317 400
#     4  12  24  44  66  92 130 178 214 274 334 382
#     4  12  22  38  69  96 125 175 219 258 335 388
#     4  10  22  44  64  96 142 166 212 278 320 388
#
# _framework density 22.512931999999999
#
# number of rings (size 3 to 8) (size 9 to 14) (size 15 to 20)
#    0.000    1.714    4.286    2.571    2.000    2.286 
#    2.571    0.000    6.286    0.000    0.000    0.000 
#    0.000    0.000    0.000    0.000    0.000    0.000 
#
# Total GULP energy -78126.875592 kJ/mol
# GULP energy per Si atom -5580.491114 kJ/mol
# Density = 2.246169 g / cm^3
# Si number density = 22.512932 Si / 1000 Ang^3
#
#
#
# Elastic Constant Matrix: (Units=GPa)
#
#
# Indices 1 2 3 4 5 6 
#
# 1 162.1792 23.6853 41.3271 0.0000 -7.0735 0.0000
# 2 23.6853 43.3891 5.7559 -0.0001 -0.7749 0.0000
# 3 41.3271 5.7559 36.7468 0.0000 -14.6234 0.0001
# 4 0.0000 -0.0001 0.0000 21.4244 0.0000 8.6827
# 5 -7.0735 -0.7749 -14.6234 0.0000 37.1053 0.0000
# 6 0.0000 0.0000 0.0001 8.6827 0.0000 22.9675
#
#
#
# Elastic Compliance Matrix: (Units=1/GPa)
#
#
# Indices 1 2 3 4 5 6 
#
# 1 0.009410 -0.003718 -0.011050 0.000000 -0.002639 0.000000
# 2 -0.003718 0.025046 0.000219 0.000000 -0.000100 0.000000
# 3 -0.011050 0.000219 0.045982 0.000000 0.016020 0.000000
# 4 0.000000 0.000000 0.000000 0.055121 0.000000 -0.020838
# 5 -0.002639 -0.000100 0.016020 0.000000 0.032759 0.000000
# 6 0.000000 0.000000 0.000000 -0.020838 0.000000 0.051417
#
#
# Mechanical properties :
#
#
# Convention : Reuss Voigt Hill
#
# Bulk Modulus (GPa) = 19.47871 42.65015 31.06443
# Shear Modulus (GPa) = 18.80076 27.73590 23.26833
#
# Velocity S-wave (km/s) = 2.89296 3.51379 3.21838
# Velocity P-wave (km/s) = 4.45309 5.95384 5.25729
#
# Compressibility (1/GPa) = 0.05133810
#
# Stress axis : x y z
#
# Youngs Moduli (GPa) = 106.27203 39.92652 21.74771
#
# Poissons Ratio (x) = 0.14844 0.24032
# Poissons Ratio (y) = 0.39510 -0.00475
# Poissons Ratio (z) = 1.17436 -0.00872
#
# Static dielectric constant tensor:
#      x y z
#    x 1.831590 0.000000 0.042630 
#    y 0.000000 1.834640 0.000000 
#    z 0.042630 0.000000 1.929060 
# 
# From -- ./inp_files/59726.got.cif
#   From: 2010.05.17/outbox.cif.g08.bks.cpg/sg5_30_cif.got.tgz:59726.got - 2010.06.03 18:56:24.
