data_PCOD9122418
_publ_section_title
;
Structure prediction by ZEFSAII (Michael W. Deem and Ramdas Pophale) SiO2 
 PCOD9122418
Probable space group: C 2
;
_chemical_formula_sum "Si O2"
_cell_formula_units_Z 30
_cell_length_a 10.744836
_cell_length_b 28.715511
_cell_length_c 5.262441
_cell_angle_alpha 90.000000
_cell_angle_beta 104.211981
_cell_angle_gamma 90.000000
_cell_volume 1573.997079
_symmetry_space_group_name_H-M "C 2"
_symmetry_group_IT_number 5
_symmetry_cell_setting 'monoclinic'
loop_
_space_group_symop_operation_xyz
x,y,z
-x,y,-z
1/2+x,1/2+y,z
1/2-x,1/2+y,-z
loop_
_atom_site_type_symbol
_atom_site_label
_atom_site_fract_x
_atom_site_fract_y
_atom_site_fract_z
Si Si1 0.419906 0.040890 0.718827
Si Si2 0.344324 0.868142 0.927426
Si Si3 0.656573 0.705074 0.562052
Si Si4 0.250110 0.470990 0.106069
Si Si5 0.344767 0.649810 0.940143
Si Si6 0.000000 0.008305 0.500000
Si Si7 0.198486 0.051941 0.263619
Si Si8 0.155610 0.311952 0.575388
O O1 0.500000 0.038454 0.500000
O O2 0.288822 0.063809 0.550557
O O3 0.367402 0.991028 0.786165
O O4 0.500000 0.060236 0.000000
O O5 0.278792 0.917427 0.953383
O O6 0.306485 0.845287 0.639136
O O7 0.500000 0.873887 0.000000
O O8 0.308240 0.833224 0.135803
O O9 0.500000 0.705659 0.500000
O O10 0.697214 0.676621 0.334840
O O11 0.699122 0.758686 0.568180
O O12 0.697919 0.678337 0.835999
O O13 0.383132 0.478843 0.324452
O O14 0.257670 0.505617 0.866580
O O15 0.300179 0.596568 0.913737
O O16 0.500000 0.649075 0.000000
O O17 0.060457 0.040397 0.312038
O O18 0.000000 0.310761 0.500000
#
# Coordination Sequence:
#
# PCOD9122418 Si02
#       8
#     4   4   4   4   4   2   4   4
#     4  11  23  39  58  81 114 153 198 240 283 335
#     4  10  21  32  56  80 113 151 188 229 285 351
#     4   9  18  31  51  76 112 148 183 233 281 351
#     4  11  23  38  58  83 119 158 199 239 288 340
#     4  10  20  31  53  81 112 152 192 223 284 348
#     4  10  24  38  56  80 124 160 196 246 284 332
#     4  11  24  38  59  82 125 160 198 242 289 341
#     4   9  18  34  50  78 113 146 181 230 292 345
#
# _framework density 19.059754999999999
#
# number of rings (size 3 to 8) (size 9 to 14) (size 15 to 20)
#    0.000    1.867    1.333    2.400   10.267    3.733 
#    0.000    0.000    0.000    0.000    0.000    0.000 
#   20.000    0.000    0.000    0.000    0.000    0.000 
#
# Total GULP energy -83680.275215 kJ/mol
# GULP energy per Si atom -5578.685014 kJ/mol
# Density = 1.901637 g / cm^3
# Si number density = 19.059755 Si / 1000 Ang^3
#
#
#
# Elastic Constant Matrix: (Units=GPa)
#
#
# Indices 1 2 3 4 5 6 
#
# 1 42.0887 23.6882 30.5933 0.0000 -8.5862 0.0000
# 2 23.6882 133.9374 51.3720 0.0000 -15.8202 0.0000
# 3 30.5933 51.3720 133.4116 0.0000 -18.2770 0.0000
# 4 0.0000 0.0000 0.0000 28.1527 0.0000 -7.4144
# 5 -8.5862 -15.8202 -18.2770 0.0000 34.0583 0.0000
# 6 0.0000 0.0000 0.0000 -7.4144 0.0000 14.6667
#
#
#
# Elastic Compliance Matrix: (Units=1/GPa)
#
#
# Indices 1 2 3 4 5 6 
#
# 1 0.029905 -0.002860 -0.005295 0.000000 0.003369 0.000000
# 2 -0.002860 0.009225 -0.002599 0.000000 0.002169 0.000000
# 3 -0.005295 -0.002599 0.010105 0.000000 0.002881 0.000000
# 4 0.000000 0.000000 0.000000 0.040976 0.000000 0.020714
# 5 0.003369 0.002169 0.002881 0.000000 0.032764 0.000000
# 6 0.000000 0.000000 0.000000 0.020714 0.000000 0.078653
#
#
# Mechanical properties :
#
#
# Convention : Reuss Voigt Hill
#
# Bulk Modulus (GPa) = 36.06575 57.86051 46.96313
# Shear Modulus (GPa) = 21.51648 28.96115 25.23881
#
# Velocity S-wave (km/s) = 3.36355 3.90230 3.64290
# Velocity P-wave (km/s) = 5.83508 7.12230 6.51058
#
# Compressibility (1/GPa) = 0.02772714
#
# Stress axis : x y z
#
# Youngs Moduli (GPa) = 33.43915 108.39877 98.95823
#
# Poissons Ratio (x) = 0.31005 0.52396
# Poissons Ratio (y) = 0.09564 0.25721
# Poissons Ratio (z) = 0.17705 0.28175
#
# Static dielectric constant tensor:
#      x y z
#    x 1.696650 0.000000 0.014450 
#    y 0.000000 1.647380 0.000000 
#    z 0.014450 0.000000 1.703240 
# 
# From -- ./inp_files/5989.got.cif
#   From: 2010.05.17/outbox.cif.g08.bks.cpg/sg5_3_cif.got.tgz:5989.got - 2010.06.03 18:56:24.
