data_PCOD9122551
_publ_section_title
;
Structure prediction by ZEFSAII (Michael W. Deem and Ramdas Pophale) SiO2 
 PCOD9122551
Probable space group: C 2
;
_chemical_formula_sum "Si O2"
_cell_formula_units_Z 30
_cell_length_a 19.228559
_cell_length_b 14.829577
_cell_length_c 8.355806
_cell_angle_alpha 90.000000
_cell_angle_beta 36.161680
_cell_angle_gamma 90.000000
_cell_volume 1405.932008
_symmetry_space_group_name_H-M "C 2"
_symmetry_group_IT_number 5
_symmetry_cell_setting 'monoclinic'
loop_
_space_group_symop_operation_xyz
x,y,z
-x,y,-z
1/2+x,1/2+y,z
1/2-x,1/2+y,-z
loop_
_atom_site_type_symbol
_atom_site_label
_atom_site_fract_x
_atom_site_fract_y
_atom_site_fract_z
Si Si1 0.977200 0.231960 0.363590
Si Si2 0.732024 0.973625 0.223164
Si Si3 0.361227 0.901547 0.263782
Si Si4 0.500000 0.199825 0.000000
Si Si5 0.229523 0.216794 0.474571
Si Si6 0.399750 0.580332 0.074190
Si Si7 0.120665 0.421049 0.108552
Si Si8 0.533866 0.103356 0.598409
O O1 0.035559 0.332973 0.250957
O O2 0.000000 0.200521 0.500000
O O3 0.839846 0.222721 0.566177
O O4 0.044615 0.165279 0.119966
O O5 0.688998 0.934383 0.473775
O O6 0.696894 0.918329 0.130248
O O7 0.863016 0.004542 0.015788
O O8 0.666575 0.070115 0.329613
O O9 0.339487 0.795361 0.305083
O O10 0.500000 0.924473 0.000000
O O11 0.310489 0.932673 0.186999
O O12 0.631844 0.240717 0.780191
O O13 0.514876 0.146420 0.805392
O O14 0.200490 0.123047 0.620324
O O15 0.500000 0.540552 0.000000
O O16 0.041560 0.510730 0.265907
O O17 0.500000 0.156980 0.500000
#
# Coordination Sequence:
#
# PCOD9122551 Si02
#       8
#     4   4   4   2   4   4   4   4
#     4  11  21  39  68  97 127 168 225 276 323 385
#     4  11  22  38  63  97 127 161 215 274 326 383
#     4  12  20  38  67  92 122 163 218 277 318 380
#     4  12  24  40  58  90 140 180 210 260 342 400
#     4  11  22  40  63  93 132 174 218 263 335 394
#     4  10  22  42  62  93 137 173 207 270 335 393
#     4  11  21  35  65 100 118 158 223 279 316 367
#     4  10  20  34  57  91 127 159 210 269 315 375
#
# _framework density 21.338159000000001
#
# number of rings (size 3 to 8) (size 9 to 14) (size 15 to 20)
#    0.000    1.067    5.333    3.200    0.000    2.133 
#    3.600    0.000    0.000    0.000    0.000    0.000 
#    0.000    0.000    0.000    0.000    0.000    0.000 
#
# Total GULP energy -83540.989112 kJ/mol
# GULP energy per Si atom -5569.399274 kJ/mol
# Density = 2.128959 g / cm^3
# Si number density = 21.338159 Si / 1000 Ang^3
#
#
#
# Elastic Constant Matrix: (Units=GPa)
#
#
# Indices 1 2 3 4 5 6 
#
# 1 212.0440 39.8163 48.6745 0.0000 15.8720 0.0000
# 2 39.8163 29.5873 2.4044 0.0000 -4.4416 0.0000
# 3 48.6745 2.4044 41.0538 0.0000 5.4769 0.0000
# 4 0.0000 0.0000 0.0000 10.7779 0.0000 -1.2571
# 5 15.8720 -4.4416 5.4769 0.0000 40.7796 0.0000
# 6 0.0000 0.0000 0.0000 -1.2571 0.0000 31.9267
#
#
#
# Elastic Compliance Matrix: (Units=1/GPa)
#
#
# Indices 1 2 3 4 5 6 
#
# 1 0.009811 -0.012937 -0.010363 0.000000 -0.003836 0.000000
# 2 -0.012937 0.051684 0.011087 0.000000 0.009175 0.000000
# 3 -0.010363 0.011087 0.035940 0.000000 0.000414 0.000000
# 4 0.000000 0.000000 0.000000 0.093211 0.000000 0.003670
# 5 -0.003836 0.009175 0.000414 0.000000 0.026959 0.000000
# 6 0.000000 0.000000 0.000000 0.003670 0.000000 0.031466
#
#
# Mechanical properties :
#
#
# Convention : Reuss Voigt Hill
#
# Bulk Modulus (GPa) = 13.69672 51.60839 32.65256
# Shear Modulus (GPa) = 16.78795 29.48284 23.13540
#
# Velocity S-wave (km/s) = 2.80796 3.72115 3.29633
# Velocity P-wave (km/s) = 4.11651 6.53461 5.46108
#
# Compressibility (1/GPa) = 0.07301019
#
# Stress axis : x y z
#
# Youngs Moduli (GPa) = 101.92542 19.34837 27.82399
#
# Poissons Ratio (x) = 0.25030 0.28834
# Poissons Ratio (y) = 1.31858 -0.30849
# Poissons Ratio (z) = 1.05624 -0.21452
#
# Static dielectric constant tensor:
#      x y z
#    x 1.921050 0.000000 -0.012550 
#    y 0.000000 1.802940 0.000000 
#    z -0.012550 0.000000 1.838360 
# 
# From -- ./inp_files/27871.got.cif
#   From: 2010.05.17/outbox.cif.g08.bks.cpg/sg5_14_cif.got.tgz:27871.got - 2010.06.03 18:56:24.
