data_PCOD9122972
_publ_section_title
;
Structure prediction by ZEFSAII (Michael W. Deem and Ramdas Pophale) SiO2 
 PCOD9122972
Probable space group: C 2
;
_chemical_formula_sum "Si O2"
_cell_formula_units_Z 14
_cell_length_a 11.629867
_cell_length_b 7.584719
_cell_length_c 9.223383
_cell_angle_alpha 90.000000
_cell_angle_beta 139.182064
_cell_angle_gamma 90.000000
_cell_volume 531.807875
_symmetry_space_group_name_H-M "C 2"
_symmetry_group_IT_number 5
_symmetry_cell_setting 'monoclinic'
loop_
_space_group_symop_operation_xyz
x,y,z
-x,y,-z
1/2+x,1/2+y,z
1/2-x,1/2+y,-z
loop_
_atom_site_type_symbol
_atom_site_label
_atom_site_fract_x
_atom_site_fract_y
_atom_site_fract_z
Si Si1 0.997818 0.203790 0.167824
Si Si2 0.500000 0.298492 0.500000
Si Si3 0.148249 0.589380 0.371818
Si Si4 0.183903 0.143897 0.737946
O O1 0.059642 0.403550 0.255265
O O2 0.147599 0.078140 0.381712
O O3 0.822261 0.178649 0.097437
O O4 0.000000 0.168407 0.000000
O O5 0.554627 0.185088 0.414758
O O6 0.656306 0.433425 0.691616
O O7 0.168245 0.691257 0.236999
O O8 0.000000 0.225227 0.500000
#
# Coordination Sequence:
#
# PCOD9122972 Si02
#       4
#     4   2   4   4
#     4  11  23  44  68  96 127 171 217 261 322 381
#     4  10  20  36  68  90 122 178 202 252 336 362
#     4  11  21  42  65  94 134 165 210 270 318 375
#     4   8  19  39  61  91 128 164 212 260 313 377
#
# _framework density 26.325296000000002
#
# number of rings (size 3 to 8) (size 9 to 14) (size 15 to 20)
#    0.857    1.143    2.857    0.000    6.000    0.000 
#    5.143    5.714    0.000    0.000    0.000    0.000 
#    0.000    0.000    0.000    0.000    0.000    0.000 
#
# Total GULP energy -39137.985984 kJ/mol
# GULP energy per Si atom -5591.140855 kJ/mol
# Density = 2.626538 g / cm^3
# Si number density = 26.325296 Si / 1000 Ang^3
#
#
#
# Elastic Constant Matrix: (Units=GPa)
#
#
# Indices 1 2 3 4 5 6 
#
# 1 237.3405 52.9873 71.7491 0.0000 -97.3558 0.0000
# 2 52.9873 74.5935 26.8480 0.0000 -23.1650 0.0000
# 3 71.7491 26.8480 140.4335 0.0000 -43.1378 0.0000
# 4 0.0000 0.0000 0.0000 24.3873 0.0000 -14.1122
# 5 -97.3558 -23.1650 -43.1378 0.0000 67.3289 0.0000
# 6 0.0000 0.0000 0.0000 -14.1122 0.0000 44.0987
#
#
#
# Elastic Compliance Matrix: (Units=1/GPa)
#
#
# Indices 1 2 3 4 5 6 
#
# 1 0.011043 -0.003125 -0.000585 0.000000 0.014518 0.000000
# 2 -0.003125 0.016188 -0.001463 0.000000 0.000113 0.000000
# 3 -0.000585 -0.001463 0.009070 0.000000 0.004462 0.000000
# 4 0.000000 0.000000 0.000000 0.050324 0.000000 0.016104
# 5 0.014518 0.000113 0.004462 0.000000 0.038743 0.000000
# 6 0.000000 0.000000 0.000000 0.016104 0.000000 0.027830
#
#
# Mechanical properties :
#
#
# Convention : Reuss Voigt Hill
#
# Bulk Modulus (GPa) = 38.53032 83.94847 61.23939
# Shear Modulus (GPa) = 29.03664 47.21517 38.12590
#
# Velocity S-wave (km/s) = 3.32474 4.23960 3.80973
# Velocity P-wave (km/s) = 5.42278 7.47822 6.53186
#
# Compressibility (1/GPa) = 0.02595359
#
# Stress axis : x y z
#
# Youngs Moduli (GPa) = 90.55378 61.77491 110.25341
#
# Poissons Ratio (x) = 0.19307 0.06450
# Poissons Ratio (y) = 0.28301 0.16134
# Poissons Ratio (z) = 0.05297 0.09040
#
# Static dielectric constant tensor:
#      x y z
#    x 2.149790 0.000000 0.037530 
#    y 0.000000 2.032920 0.000000 
#    z 0.037530 0.000000 2.171560 
# 
# From -- ./inp_files/17849.got.cif
#   From: 2010.05.17/outbox.cif.g08.bks.cpg/sg5_9_cif.got.tgz:17849.got - 2010.06.03 18:56:24.
