data_PCOD9122604
_publ_section_title
;
Structure prediction by ZEFSAII (Michael W. Deem and Ramdas Pophale) SiO2 
 PCOD9122604
Probable space group: C 2
;
_chemical_formula_sum "Si O2"
_cell_formula_units_Z 22
_cell_length_a 16.639909
_cell_length_b 11.807303
_cell_length_c 14.409389
_cell_angle_alpha 90.000000
_cell_angle_beta 161.117215
_cell_angle_gamma 90.000000
_cell_volume 916.220941
_symmetry_space_group_name_H-M "C 2"
_symmetry_group_IT_number 5
_symmetry_cell_setting 'monoclinic'
loop_
_space_group_symop_operation_xyz
x,y,z
-x,y,-z
1/2+x,1/2+y,z
1/2-x,1/2+y,-z
loop_
_atom_site_type_symbol
_atom_site_label
_atom_site_fract_x
_atom_site_fract_y
_atom_site_fract_z
Si Si1 0.323602 0.203910 0.587926
Si Si2 0.388541 0.558362 0.041341
Si Si3 0.607959 0.275200 0.712508
Si Si4 0.720586 0.711000 0.793837
Si Si5 0.500000 0.397656 0.000000
Si Si6 0.444344 0.876962 0.224267
O O1 0.432008 0.227368 0.603133
O O2 0.101975 0.112543 0.338876
O O3 0.216364 0.328772 0.497042
O O4 0.520388 0.163071 0.881734
O O5 0.266945 0.665228 0.857858
O O6 0.515661 0.479352 0.104395
O O7 0.164384 0.490202 0.847293
O O8 0.500000 0.322177 0.500000
O O9 0.787262 0.363478 0.958912
O O10 0.500000 0.644659 0.500000
O O11 0.781802 0.810988 0.786959
O O12 0.639132 0.777760 0.796638
#
# Coordination Sequence:
#
# PCOD9122604 Si02
#       6
#     4   4   4   4   2   4
#     4  10  21  38  59  91 133 165 198 263 318 356
#     4  10  21  37  61  94 124 160 210 255 308 372
#     4  10  21  36  60  91 122 158 206 252 305 372
#     4  10  20  35  59  92 125 165 207 248 310 372
#     4  10  20  34  62  94 126 160 202 260 312 358
#     4   9  21  37  56  89 128 164 204 250 307 372
#
# _framework density 24.011676000000001
#
# number of rings (size 3 to 8) (size 9 to 14) (size 15 to 20)
#    0.000    2.182    0.000    2.182    0.000   13.818 
#    0.000    0.000    0.000   22.909    0.000   10.182 
#    0.000    0.000    0.000    5.273    0.000    0.000 
#
# Total GULP energy -61313.606411 kJ/mol
# GULP energy per Si atom -5573.964219 kJ/mol
# Density = 2.395702 g / cm^3
# Si number density = 24.011676 Si / 1000 Ang^3
#
#
#
# Elastic Constant Matrix: (Units=GPa)
#
#
# Indices 1 2 3 4 5 6 
#
# 1 102.5931 22.8376 32.7245 0.0047 -8.7322 0.0044
# 2 22.8376 50.9068 11.3989 0.0106 0.1978 0.0126
# 3 32.7245 11.3989 136.3024 0.0071 -23.7360 0.0064
# 4 0.0047 0.0106 0.0071 18.8779 0.0016 1.7951
# 5 -8.7322 0.1978 -23.7360 0.0016 37.1580 0.0034
# 6 0.0044 0.0126 0.0064 1.7951 0.0034 27.2497
#
#
#
# Elastic Compliance Matrix: (Units=1/GPa)
#
#
# Indices 1 2 3 4 5 6 
#
# 1 0.011603 -0.004729 -0.002150 0.000000 0.001378 0.000001
# 2 -0.004729 0.022004 -0.001034 -0.000010 -0.001889 -0.000008
# 3 -0.002150 -0.001034 0.008835 -0.000002 0.005144 -0.000002
# 4 0.000000 -0.000010 -0.000002 0.053306 -0.000003 -0.003512
# 5 0.001378 -0.001889 0.005144 -0.000003 0.030532 -0.000004
# 6 0.000001 -0.000008 -0.000002 -0.003512 -0.000004 0.036929
#
#
# Mechanical properties :
#
#
# Convention : Reuss Voigt Hill
#
# Bulk Modulus (GPa) = 37.57126 47.08049 42.32587
# Shear Modulus (GPa) = 26.60879 31.51319 29.06099
#
# Velocity S-wave (km/s) = 3.33252 3.62665 3.48269
# Velocity P-wave (km/s) = 5.52165 6.09809 5.81701
#
# Compressibility (1/GPa) = 0.02661609
#
# Stress axis : x y z
#
# Youngs Moduli (GPa) = 86.18321 45.44597 113.18498
#
# Poissons Ratio (x) = 0.21493 0.24337
# Poissons Ratio (y) = 0.40758 0.11700
# Poissons Ratio (z) = 0.18531 0.04698
#
# Static dielectric constant tensor:
#      x y z
#    x 1.960410 0.000000 0.092680 
#    y 0.000000 1.899480 0.000010 
#    z 0.092680 0.000010 2.129100 
# 
# From -- ./inp_files/55999.got.cif
#   From: 2010.05.17/outbox.cif.g08.bks.cpg/sg5_28_cif.got.tgz:55999.got - 2010.06.03 18:56:24.
