data_PCOD9122166
_publ_section_title
;
Structure prediction by ZEFSAII (Michael W. Deem and Ramdas Pophale) SiO2 
 PCOD9122166
Probable space group: C 2
;
_chemical_formula_sum "Si O2"
_cell_formula_units_Z 32
_cell_length_a 11.155788
_cell_length_b 8.900835
_cell_length_c 18.347169
_cell_angle_alpha 90.000000
_cell_angle_beta 127.617276
_cell_angle_gamma 90.000000
_cell_volume 1443.055940
_symmetry_space_group_name_H-M "C 2"
_symmetry_group_IT_number 5
_symmetry_cell_setting 'monoclinic'
loop_
_space_group_symop_operation_xyz
x,y,z
-x,y,-z
1/2+x,1/2+y,z
1/2-x,1/2+y,-z
loop_
_atom_site_type_symbol
_atom_site_label
_atom_site_fract_x
_atom_site_fract_y
_atom_site_fract_z
Si Si1 0.693369 0.700180 0.265501
Si Si2 0.666244 0.490213 0.024018
Si Si3 0.598421 0.160934 0.789038
Si Si4 0.104665 0.403301 0.357859
Si Si5 0.405763 0.628038 0.304708
Si Si6 0.156075 0.186625 0.882389
Si Si7 0.366860 0.403166 0.679165
Si Si8 0.678273 0.634651 0.573316
O O1 0.811074 0.728268 0.246252
O O2 0.705809 0.797873 0.342831
O O3 0.521254 0.731140 0.176237
O O4 0.702693 0.525209 0.291982
O O5 0.779104 0.604120 0.108085
O O6 0.734918 0.323610 0.057049
O O7 0.500000 0.497551 0.000000
O O8 0.670325 0.546820 0.942224
O O9 0.477835 0.289332 0.763921
O O10 0.508502 0.014053 0.727651
O O11 0.221586 0.520242 0.436754
O O12 0.997144 0.282447 0.357033
O O13 0.326309 0.648987 0.196852
O O14 0.529723 0.500475 0.336576
O O15 0.298557 0.595416 0.332047
O O16 0.246432 0.300604 0.592624
O O17 0.500000 0.620288 0.500000
#
# Coordination Sequence:
#
# PCOD9122166 Si02
#       8
#     4   4   4   4   4   4   4   4
#     4  10  19  39  60  85 116 161 200 235 301 359
#     4  12  24  40  58  89 126 158 205 260 297 345
#     4  11  19  35  61  82 114 162 196 242 299 347
#     4   9  20  39  60  85 120 159 200 238 299 370
#     4  10  21  43  60  84 125 161 199 244 310 362
#     4  10  24  40  59  88 122 161 203 253 298 353
#     4   9  22  36  62  90 116 157 202 242 296 374
#     4  11  23  39  64  95 120 154 202 254 305 363
#
# _framework density 22.175162
#
# number of rings (size 3 to 8) (size 9 to 14) (size 15 to 20)
#    0.000    2.000    3.750    1.500    3.500    1.000 
#    2.250    4.375    0.000    0.000    0.000    0.000 
#    0.000    0.000    0.000    0.000    0.000    0.000 
#
# Total GULP energy -89317.922979 kJ/mol
# GULP energy per Si atom -5582.370186 kJ/mol
# Density = 2.212469 g / cm^3
# Si number density = 22.175162 Si / 1000 Ang^3
#
#
#
# Elastic Constant Matrix: (Units=GPa)
#
#
# Indices 1 2 3 4 5 6 
#
# 1 46.1936 16.0153 13.2707 0.0000 -6.2528 0.0000
# 2 16.0153 94.4890 27.0537 0.0000 18.1681 0.0000
# 3 13.2707 27.0537 56.7452 0.0000 13.2786 0.0000
# 4 0.0000 0.0000 0.0000 19.6325 0.0000 8.5168
# 5 -6.2528 18.1681 13.2786 0.0000 36.6872 0.0000
# 6 0.0000 0.0000 0.0000 8.5168 0.0000 37.7692
#
#
#
# Elastic Compliance Matrix: (Units=1/GPa)
#
#
# Indices 1 2 3 4 5 6 
#
# 1 0.026107 -0.004380 -0.006081 0.000000 0.008820 0.000000
# 2 -0.004380 0.013652 -0.004073 0.000000 -0.006033 0.000000
# 3 -0.006081 -0.004073 0.022678 0.000000 -0.007228 0.000000
# 4 0.000000 0.000000 0.000000 0.056459 0.000000 -0.012731
# 5 0.008820 -0.006033 -0.007228 0.000000 0.034364 0.000000
# 6 0.000000 0.000000 0.000000 -0.012731 0.000000 0.029347
#
#
# Mechanical properties :
#
#
# Convention : Reuss Voigt Hill
#
# Bulk Modulus (GPa) = 29.96739 34.45637 32.21188
# Shear Modulus (GPa) = 22.44188 28.22366 25.33277
#
# Velocity S-wave (km/s) = 3.18469 3.57145 3.38360
# Velocity P-wave (km/s) = 5.20253 5.70780 5.46101
#
# Compressibility (1/GPa) = 0.03336960
#
# Stress axis : x y z
#
# Youngs Moduli (GPa) = 38.30338 73.25159 44.09596
#
# Poissons Ratio (x) = 0.32082 0.26817
# Poissons Ratio (y) = 0.16776 0.17958
# Poissons Ratio (z) = 0.23294 0.29832
#
# Static dielectric constant tensor:
#      x y z
#    x 1.757120 0.000000 -0.008330 
#    y 0.000000 1.845330 0.000000 
#    z -0.008330 0.000000 1.878660 
# 
# From -- ./inp_files/65133.got.cif
#   From: 2010.05.17/outbox.cif.g08.bks.cpg/sg5_33_cif.got.tgz:65133.got - 2010.06.03 18:56:24.
