data_PCOD9122196
_publ_section_title
;
Structure prediction by ZEFSAII (Michael W. Deem and Ramdas Pophale) SiO2 
 PCOD9122196
Probable space group: C 2
;
_chemical_formula_sum "Si O2"
_cell_formula_units_Z 28
_cell_length_a 12.720566
_cell_length_b 13.850924
_cell_length_c 10.705730
_cell_angle_alpha 90.000000
_cell_angle_beta 129.670423
_cell_angle_gamma 90.000000
_cell_volume 1451.909100
_symmetry_space_group_name_H-M "C 2"
_symmetry_group_IT_number 5
_symmetry_cell_setting 'monoclinic'
loop_
_space_group_symop_operation_xyz
x,y,z
-x,y,-z
1/2+x,1/2+y,z
1/2-x,1/2+y,-z
loop_
_atom_site_type_symbol
_atom_site_label
_atom_site_fract_x
_atom_site_fract_y
_atom_site_fract_z
Si Si1 0.654791 0.748280 0.627947
Si Si2 0.051625 0.587338 0.809443
Si Si3 0.259198 0.536359 0.361475
Si Si4 0.000000 0.921403 0.000000
Si Si5 0.150803 0.418940 0.053441
Si Si6 0.280364 0.435916 0.635860
Si Si7 0.199366 0.779093 0.005337
Si Si8 0.500000 0.038160 0.500000
O O1 0.500000 0.782096 0.500000
O O2 0.662254 0.636883 0.593323
O O3 0.757326 0.820062 0.630767
O O4 0.697813 0.757329 0.804149
O O5 0.896789 0.571596 0.735856
O O6 0.047516 0.595225 0.657732
O O7 0.129776 0.493289 0.921865
O O8 0.118676 0.681889 0.915999
O O9 0.247035 0.470415 0.229047
O O10 0.308337 0.474715 0.518109
O O11 0.107458 0.970190 0.177164
O O12 0.092778 0.856473 0.979129
O O13 0.220149 0.323969 0.050171
O O14 0.000000 0.402838 0.000000
O O15 0.132241 0.477693 0.559766
#
# Coordination Sequence:
#
# PCOD9122196 Si02
#       8
#     4   4   4   2   4   4   4   2
#     4  11  22  38  62  89 121 167 209 259 316 375
#     4  10  19  39  64  86 122 163 211 258 310 382
#     4  10  22  40  63  91 123 162 212 258 315 378
#     4  10  22  38  66  92 122 164 214 260 312 368
#     4  10  22  39  65  93 126 166 211 260 314 379
#     4  10  21  40  64  90 123 166 213 260 311 379
#     4  11  22  40  65  93 123 170 211 259 318 376
#     4  10  20  38  64  90 120 172 212 256 308 380
#
# _framework density 19.284953999999999
#
# number of rings (size 3 to 8) (size 9 to 14) (size 15 to 20)
#    0.000    1.714    2.143    3.429    5.000    1.143 
#   10.286    0.000    1.571    0.000    0.000    0.000 
#    0.000    0.000    0.000    0.000    0.000    0.000 
#
# Total GULP energy -78115.713305 kJ/mol
# GULP energy per Si atom -5579.693808 kJ/mol
# Density = 1.924106 g / cm^3
# Si number density = 19.284954 Si / 1000 Ang^3
#
#
#
# Elastic Constant Matrix: (Units=GPa)
#
#
# Indices 1 2 3 4 5 6 
#
# 1 44.4404 14.0896 21.3743 0.0000 -12.5376 0.0000
# 2 14.0896 61.1691 32.5880 0.0000 -9.7665 0.0000
# 3 21.3743 32.5880 141.1155 0.0000 -10.7750 0.0000
# 4 0.0000 0.0000 0.0000 14.8599 0.0000 -9.0818
# 5 -12.5376 -9.7665 -10.7750 0.0000 24.3437 0.0000
# 6 0.0000 0.0000 0.0000 -9.0818 0.0000 16.1626
#
#
#
# Elastic Compliance Matrix: (Units=1/GPa)
#
#
# Indices 1 2 3 4 5 6 
#
# 1 0.028172 -0.003168 -0.002613 0.000000 0.012082 0.000000
# 2 -0.003168 0.019815 -0.003740 0.000000 0.004663 0.000000
# 3 -0.002613 -0.003740 0.008413 0.000000 0.000877 0.000000
# 4 0.000000 0.000000 0.000000 0.102493 0.000000 0.057591
# 5 0.012082 0.004663 0.000877 0.000000 0.049560 0.000000
# 6 0.000000 0.000000 0.000000 0.057591 0.000000 0.094232
#
#
# Mechanical properties :
#
#
# Convention : Reuss Voigt Hill
#
# Bulk Modulus (GPa) = 26.76843 42.53651 34.65247
# Shear Modulus (GPa) = 14.96207 22.98479 18.97343
#
# Velocity S-wave (km/s) = 2.78842 3.45606 3.14004
# Velocity P-wave (km/s) = 4.92723 6.16689 5.58159
#
# Compressibility (1/GPa) = 0.03735744
#
# Stress axis : x y z
#
# Youngs Moduli (GPa) = 35.49661 50.46749 118.86570
#
# Poissons Ratio (x) = 0.15988 0.31059
# Poissons Ratio (y) = 0.11245 0.44456
# Poissons Ratio (z) = 0.09275 0.18875
#
# Static dielectric constant tensor:
#      x y z
#    x 1.688470 0.000000 0.003920 
#    y 0.000000 1.666210 0.000000 
#    z 0.003920 0.000000 1.682070 
# 
# From -- ./inp_files/39931.got.cif
#   From: 2010.05.17/outbox.cif.g08.bks.cpg/sg5_20_cif.got.tgz:39931.got - 2010.06.03 18:56:24.
