data_PCOD9122823
_publ_section_title
;
Structure prediction by ZEFSAII (Michael W. Deem and Ramdas Pophale) SiO2 
 PCOD9122823
Probable space group: C 2
;
_chemical_formula_sum "Si O2"
_cell_formula_units_Z 24
_cell_length_a 8.010665
_cell_length_b 28.169993
_cell_length_c 8.605234
_cell_angle_alpha 90.000000
_cell_angle_beta 145.385932
_cell_angle_gamma 90.000000
_cell_volume 1103.065683
_symmetry_space_group_name_H-M "C 2"
_symmetry_group_IT_number 5
_symmetry_cell_setting 'monoclinic'
loop_
_space_group_symop_operation_xyz
x,y,z
-x,y,-z
1/2+x,1/2+y,z
1/2-x,1/2+y,-z
loop_
_atom_site_type_symbol
_atom_site_label
_atom_site_fract_x
_atom_site_fract_y
_atom_site_fract_z
Si Si1 0.703493 0.092900 0.381788
Si Si2 0.416302 0.644444 0.109886
Si Si3 0.833406 0.487859 0.713561
Si Si4 0.865398 0.390422 0.569770
Si Si5 0.645793 0.331301 0.938032
Si Si6 0.665450 0.738776 0.785010
O O1 0.000000 0.099163 0.500000
O O2 0.852318 0.104439 0.659953
O O3 0.569574 0.039924 0.268839
O O4 0.422735 0.126854 0.134416
O O5 0.474674 0.690704 0.260228
O O6 0.500000 0.657472 0.000000
O O7 0.500000 0.496730 0.500000
O O8 0.820621 0.444608 0.583588
O O9 0.000000 0.475101 0.000000
O O10 0.599901 0.352413 0.363101
O O11 0.000000 0.390025 0.500000
O O12 0.102203 0.370011 0.868768
O O13 0.500000 0.331204 0.000000
O O14 0.798576 0.279751 0.056456
O O15 0.500000 0.755623 0.500000
O O16 0.000000 0.726882 0.000000
#
# Coordination Sequence:
#
# PCOD9122823 Si02
#       6
#     4   4   4   4   4   4
#     4  11  23  43  65  86 119 168 212 245 294 371
#     4  12  25  40  61  94 129 155 197 261 317 357
#     4  11  23  40  61  88 119 154 200 248 296 357
#     4  10  20  36  59  85 117 152 193 244 295 346
#     4   9  18  34  57  86 113 150 201 243 279 344
#     4  11  21  37  63  87 115 161 209 243 289 361
#
# _framework density 21.757542999999998
#
# number of rings (size 3 to 8) (size 9 to 14) (size 15 to 20)
#    0.000    1.333    0.000    9.000    0.000    1.333 
#    0.000    4.167    0.000    0.000    0.000    0.000 
#    0.000    0.000    0.000    0.000    0.000    0.000 
#
# Total GULP energy -66913.510506 kJ/mol
# GULP energy per Si atom -5576.125875 kJ/mol
# Density = 2.170802 g / cm^3
# Si number density = 21.757543 Si / 1000 Ang^3
#
#
#
# Elastic Constant Matrix: (Units=GPa)
#
#
# Indices 1 2 3 4 5 6 
#
# 1 23.9552 24.8719 11.5871 0.0000 -1.9443 0.0000
# 2 24.8719 129.8994 12.2041 0.0000 1.0700 0.0000
# 3 11.5871 12.2041 108.1272 0.0000 6.1249 0.0000
# 4 0.0000 0.0000 0.0000 36.8976 0.0000 2.2580
# 5 -1.9443 1.0700 6.1249 0.0000 22.0723 0.0000
# 6 0.0000 0.0000 0.0000 2.2580 0.0000 22.2074
#
#
#
# Elastic Compliance Matrix: (Units=1/GPa)
#
#
# Indices 1 2 3 4 5 6 
#
# 1 0.055356 -0.010169 -0.005170 0.000000 0.006804 0.000000
# 2 -0.010169 0.009649 0.000079 0.000000 -0.001386 0.000000
# 3 -0.005170 0.000079 0.009976 0.000000 -0.003228 0.000000
# 4 0.000000 0.000000 0.000000 0.027272 0.000000 -0.002773
# 5 0.006804 -0.001386 -0.003228 0.000000 0.046868 0.000000
# 6 0.000000 0.000000 0.000000 -0.002773 0.000000 0.045312
#
#
# Mechanical properties :
#
#
# Convention : Reuss Voigt Hill
#
# Bulk Modulus (GPa) = 22.49120 39.92309 31.20714
# Shear Modulus (GPa) = 20.85303 30.45672 25.65487
#
# Velocity S-wave (km/s) = 3.09921 3.74548 3.43756
# Velocity P-wave (km/s) = 4.81315 6.09046 5.48909
#
# Compressibility (1/GPa) = 0.04446184
#
# Stress axis : x y z
#
# Youngs Moduli (GPa) = 18.06490 103.63366 100.23810
#
# Poissons Ratio (x) = 1.05389 0.51820
# Poissons Ratio (y) = 0.18371 -0.00793
# Poissons Ratio (z) = 0.09339 -0.00820
#
# Static dielectric constant tensor:
#      x y z
#    x 1.828480 0.000000 -0.013570 
#    y 0.000000 1.871270 0.000000 
#    z -0.013570 0.000000 1.795340 
# 
# From -- ./inp_files/17661.got.cif
#   From: 2010.05.17/outbox.cif.g08.bks.cpg/sg5_9_cif.got.tgz:17661.got - 2010.06.03 18:56:24.
