data_PCOD9122368
_publ_section_title
;
Structure prediction by ZEFSAII (Michael W. Deem and Ramdas Pophale) SiO2 
 PCOD9122368
Probable space group: C 2
;
_chemical_formula_sum "Si O2"
_cell_formula_units_Z 24
_cell_length_a 8.400484
_cell_length_b 19.558960
_cell_length_c 9.418007
_cell_angle_alpha 90.000000
_cell_angle_beta 43.791222
_cell_angle_gamma 90.000000
_cell_volume 1070.867215
_symmetry_space_group_name_H-M "C 2"
_symmetry_group_IT_number 5
_symmetry_cell_setting 'monoclinic'
loop_
_space_group_symop_operation_xyz
x,y,z
-x,y,-z
1/2+x,1/2+y,z
1/2-x,1/2+y,-z
loop_
_atom_site_type_symbol
_atom_site_label
_atom_site_fract_x
_atom_site_fract_y
_atom_site_fract_z
Si Si1 0.500000 0.329461 0.000000
Si Si2 0.000000 0.530687 0.000000
Si Si3 0.448644 0.916253 0.799916
Si Si4 0.000000 0.314496 0.000000
Si Si5 0.730818 0.609602 0.761986
Si Si6 0.000000 0.481631 0.500000
Si Si7 0.614223 0.220430 0.133074
Si Si8 0.590834 0.639221 0.285513
O O1 0.287475 0.379141 0.097396
O O2 0.449491 0.277660 0.166272
O O3 0.071843 0.482550 0.085594
O O4 0.773748 0.576158 0.182951
O O5 0.590423 0.935879 0.569328
O O6 0.564310 0.861027 0.826097
O O7 0.788120 0.267192 0.106029
O O8 0.908311 0.657106 0.739526
O O9 0.633097 0.628795 0.669472
O O10 0.822716 0.533280 0.686269
O O11 0.500000 0.610551 0.000000
O O12 0.752710 0.190233 0.908617
O O13 0.500000 0.658914 0.500000
#
# Coordination Sequence:
#
# PCOD9122368 Si02
#       8
#     2   2   4   2   4   2   4   4
#     4  10  23  40  70  90 125 186 224 260 322 392
#     4  11  23  42  64  96 139 179 218 260 346 395
#     4  10  23  40  66  91 131 179 223 266 316 392
#     4   9  18  42  62  86 128 183 208 264 320 395
#     4  10  22  40  68  95 137 175 207 285 341 390
#     4  12  24  40  64 106 128 166 234 270 326 394
#     4  10  19  42  66  94 128 171 225 261 343 392
#     4  11  22  37  67 102 132 170 216 288 329 396
#
# _framework density 22.411743000000001
#
# number of rings (size 3 to 8) (size 9 to 14) (size 15 to 20)
#    0.000    1.667    2.500    3.500    3.500    1.333 
#    6.000    1.667    0.000    2.000    0.000    0.000 
#    0.000    0.000    0.000    0.000    0.000    0.000 
#
# Total GULP energy -66830.178915 kJ/mol
# GULP energy per Si atom -5569.181576 kJ/mol
# Density = 2.236073 g / cm^3
# Si number density = 22.411743 Si / 1000 Ang^3
#
#
#
# Elastic Constant Matrix: (Units=GPa)
#
#
# Indices 1 2 3 4 5 6 
#
# 1 122.5676 61.1306 62.1892 0.0000 30.7781 0.0000
# 2 61.1306 117.4441 49.4430 0.0000 14.0063 0.0000
# 3 62.1892 49.4430 90.3305 0.0000 27.7218 0.0000
# 4 0.0000 0.0000 0.0000 28.4305 0.0000 25.3576
# 5 30.7781 14.0063 27.7218 0.0000 43.2697 0.0000
# 6 0.0000 0.0000 0.0000 25.3576 0.0000 60.4475
#
#
#
# Elastic Compliance Matrix: (Units=1/GPa)
#
#
# Indices 1 2 3 4 5 6 
#
# 1 0.014824 -0.004510 -0.006161 0.000000 -0.005138 0.000000
# 2 -0.004510 0.012441 -0.004299 0.000000 0.001935 0.000000
# 3 -0.006161 -0.004299 0.019782 0.000000 -0.006901 0.000000
# 4 0.000000 0.000000 0.000000 0.056202 0.000000 -0.023576
# 5 -0.005138 0.001935 -0.006901 0.000000 0.030560 0.000000
# 6 0.000000 0.000000 0.000000 -0.023576 0.000000 0.026434
#
#
# Mechanical properties :
#
#
# Convention : Reuss Voigt Hill
#
# Bulk Modulus (GPa) = 58.44723 75.09644 66.77183
# Shear Modulus (GPa) = 25.52539 36.93484 31.23012
#
# Velocity S-wave (km/s) = 3.37846 4.06398 3.73697
# Velocity P-wave (km/s) = 6.43072 7.45665 6.96260
#
# Compressibility (1/GPa) = 0.01710945
#
# Stress axis : x y z
#
# Youngs Moduli (GPa) = 67.45866 80.37942 50.54992
#
# Poissons Ratio (x) = 0.36249 0.31142
# Poissons Ratio (y) = 0.30422 0.21730
# Poissons Ratio (z) = 0.41558 0.34552
#
# Static dielectric constant tensor:
#      x y z
#    x 1.845480 0.000000 0.009740 
#    y 0.000000 1.866910 0.000000 
#    z 0.009740 0.000000 1.812550 
# 
# From -- ./inp_files/16768.got.cif
#   From: 2010.05.17/outbox.cif.g08.bks.cpg/sg5_9_cif.got.tgz:16768.got - 2010.06.03 18:56:24.
