data_PCOD9122177
_publ_section_title
;
Structure prediction by ZEFSAII (Michael W. Deem and Ramdas Pophale) SiO2 
 PCOD9122177
Probable space group: C 2
;
_chemical_formula_sum "Si O2"
_cell_formula_units_Z 32
_cell_length_a 23.340624
_cell_length_b 9.285873
_cell_length_c 14.688997
_cell_angle_alpha 90.000000
_cell_angle_beta 28.959826
_cell_angle_gamma 90.000000
_cell_volume 1541.518573
_symmetry_space_group_name_H-M "C 2"
_symmetry_group_IT_number 5
_symmetry_cell_setting 'monoclinic'
loop_
_space_group_symop_operation_xyz
x,y,z
-x,y,-z
1/2+x,1/2+y,z
1/2-x,1/2+y,-z
loop_
_atom_site_type_symbol
_atom_site_label
_atom_site_fract_x
_atom_site_fract_y
_atom_site_fract_z
Si Si1 0.428006 0.718910 0.227621
Si Si2 0.391229 0.757332 0.711247
Si Si3 0.848295 0.248811 0.975077
Si Si4 0.247970 0.049661 0.651640
Si Si5 0.262101 0.213336 0.345145
Si Si6 0.364154 0.082085 0.681281
Si Si7 0.204087 0.566001 0.885303
Si Si8 0.063461 0.556587 0.773679
O O1 0.557336 0.677807 0.086451
O O2 0.365824 0.632720 0.231862
O O3 0.339865 0.702807 0.436716
O O4 0.437729 0.889535 0.192749
O O5 0.500000 0.698438 0.500000
O O6 0.413859 0.775105 0.787456
O O7 0.280542 0.653993 0.850477
O O8 0.366109 0.913563 0.703260
O O9 0.731398 0.156361 0.121645
O O10 0.802627 0.398472 0.080890
O O11 0.308325 0.107274 0.659291
O O12 0.348820 0.060356 0.434057
O O13 0.223649 0.880255 0.700547
O O14 0.240720 0.111333 0.288524
O O15 0.380071 0.155375 0.228382
O O16 0.500000 0.132922 0.500000
O O17 0.066297 0.608139 0.072688
#
# Coordination Sequence:
#
# PCOD9122177 Si02
#       8
#     4   4   4   4   4   4   4   4
#     4   9  21  40  66  91 131 167 211 267 320 386
#     4  11  24  43  70  91 123 174 219 269 322 385
#     4  11  25  42  64  99 129 167 215 271 327 382
#     4  10  21  41  65  93 127 172 216 256 325 381
#     4  10  19  39  61  97 122 169 215 254 327 378
#     4  11  26  43  66  93 129 175 213 267 318 389
#     4  11  22  38  65  92 130 163 212 271 320 389
#     4   9  21  36  65  92 129 168 205 271 316 389
#
# _framework density 20.758751
#
# number of rings (size 3 to 8) (size 9 to 14) (size 15 to 20)
#    0.000    1.750    1.250    1.875   12.250    2.000 
#    2.250    1.250    0.000    0.000    0.000    0.000 
#    0.000    0.000    0.000    0.000    0.000    0.000 
#
# Total GULP energy -89353.132171 kJ/mol
# GULP energy per Si atom -5584.570761 kJ/mol
# Density = 2.071150 g / cm^3
# Si number density = 20.758751 Si / 1000 Ang^3
#
#
#
# Elastic Constant Matrix: (Units=GPa)
#
#
# Indices 1 2 3 4 5 6 
#
# 1 141.5069 40.5391 56.8847 0.0000 -4.6777 0.0000
# 2 40.5391 41.3620 40.1451 0.0000 -9.8628 0.0000
# 3 56.8847 40.1451 97.6568 0.0000 -16.5887 0.0000
# 4 0.0000 0.0000 0.0000 17.5642 0.0000 -17.3020
# 5 -4.6777 -9.8628 -16.5887 0.0000 46.8934 0.0000
# 6 0.0000 0.0000 0.0000 -17.3020 0.0000 22.1337
#
#
#
# Elastic Compliance Matrix: (Units=1/GPa)
#
#
# Indices 1 2 3 4 5 6 
#
# 1 0.010484 -0.007443 -0.003336 0.000000 -0.001700 0.000000
# 2 -0.007443 0.045854 -0.013833 0.000000 0.004008 0.000000
# 3 -0.003336 -0.013833 0.018426 0.000000 0.003276 0.000000
# 4 0.000000 0.000000 0.000000 0.247583 0.000000 0.193537
# 5 -0.001700 0.004008 0.003276 0.000000 0.023157 0.000000
# 6 0.000000 0.000000 0.000000 0.193537 0.000000 0.196470
#
#
# Mechanical properties :
#
#
# Convention : Reuss Voigt Hill
#
# Bulk Modulus (GPa) = 39.15501 61.74038 50.44770
# Shear Modulus (GPa) = 8.33735 26.84870 17.59302
#
# Velocity S-wave (km/s) = 2.00625 3.60024 2.91434
# Velocity P-wave (km/s) = 4.92642 6.86213 5.97320
#
# Compressibility (1/GPa) = 0.02553951
#
# Stress axis : x y z
#
# Youngs Moduli (GPa) = 95.38490 21.80852 54.27024
#
# Poissons Ratio (x) = 0.16232 0.18104
# Poissons Ratio (y) = 0.70993 0.75074
# Poissons Ratio (z) = 0.31820 0.30169
#
# Static dielectric constant tensor:
#      x y z
#    x 1.797610 0.000000 0.042100 
#    y 0.000000 1.708880 0.000000 
#    z 0.042100 0.000000 1.782310 
# 
# From -- ./inp_files/57667.got.cif
#   From: 2010.05.17/outbox.cif.g08.bks.cpg/sg5_29_cif.got.tgz:57667.got - 2010.06.03 18:56:24.
