data_PCOD9122728
_publ_section_title
;
Structure prediction by ZEFSAII (Michael W. Deem and Ramdas Pophale) SiO2 
 PCOD9122728
Probable space group: C 2
;
_chemical_formula_sum "Si O2"
_cell_formula_units_Z 30
_cell_length_a 20.582202
_cell_length_b 9.085804
_cell_length_c 24.205500
_cell_angle_alpha 90.000000
_cell_angle_beta 19.789714
_cell_angle_gamma 90.000000
_cell_volume 1532.556356
_symmetry_space_group_name_H-M "C 2"
_symmetry_group_IT_number 5
_symmetry_cell_setting 'monoclinic'
loop_
_space_group_symop_operation_xyz
x,y,z
-x,y,-z
1/2+x,1/2+y,z
1/2-x,1/2+y,-z
loop_
_atom_site_type_symbol
_atom_site_label
_atom_site_fract_x
_atom_site_fract_y
_atom_site_fract_z
Si Si1 0.439363 0.476260 0.867331
Si Si2 0.773813 0.694315 0.040750
Si Si3 0.593218 0.986560 0.783581
Si Si4 0.500000 0.424070 0.500000
Si Si5 0.685201 0.071325 0.484599
Si Si6 0.901117 0.371036 0.343271
Si Si7 0.453696 0.688388 0.952191
Si Si8 0.315377 0.194332 0.732988
O O1 0.337207 0.563833 0.900520
O O2 0.663429 0.500580 0.678509
O O3 0.383246 0.559422 0.968683
O O4 0.374458 0.309516 0.919143
O O5 0.600289 0.792877 0.203782
O O6 0.955399 0.609620 0.921275
O O7 0.814555 0.007586 0.624136
O O8 0.571817 0.968555 0.734194
O O9 0.524510 0.827202 0.860255
O O10 0.417270 0.321639 0.615672
O O11 0.760012 0.236070 0.439747
O O12 0.480002 0.084077 0.619987
O O13 0.677051 0.973212 0.545868
O O14 0.642336 0.633698 0.833983
O O15 0.293903 0.741155 0.123478
#
# Coordination Sequence:
#
# PCOD9122728 Si02
#       8
#     4   4   4   2   4   4   4   4
#     4  11  21  38  59  88 121 163 206 261 311 373
#     4  11  22  38  60  86 121 168 201 253 315 371
#     4  11  21  41  62  91 124 162 211 264 306 379
#     4  10  20  42  64  90 126 156 216 256 322 364
#     4  11  23  37  58  93 125 161 207 259 320 366
#     4  11  23  38  59  96 125 164 200 265 318 376
#     4  10  20  38  63  90 117 161 220 250 319 366
#     4  10  20  35  65  89 117 163 206 270 296 388
#
# _framework density 19.575137000000002
#
# number of rings (size 3 to 8) (size 9 to 14) (size 15 to 20)
#    0.000    1.333    5.333    1.600    1.867    2.133 
#    0.000    1.333    0.000    6.400    0.000    0.000 
#    0.000    0.000    0.000    0.000    0.000    0.000 
#
# Total GULP energy -83621.085433 kJ/mol
# GULP energy per Si atom -5574.739029 kJ/mol
# Density = 1.953058 g / cm^3
# Si number density = 19.575137 Si / 1000 Ang^3
#
#
#
# Elastic Constant Matrix: (Units=GPa)
#
#
# Indices 1 2 3 4 5 6 
#
# 1 29.6402 -10.8524 24.4818 -0.0197 5.7098 -0.0038
# 2 -10.8524 39.6993 13.5384 -0.0336 -3.7580 -0.0049
# 3 24.4818 13.5384 96.4802 -0.0348 -8.9837 -0.0077
# 4 -0.0197 -0.0336 -0.0348 33.5478 0.0044 -3.3846
# 5 5.7098 -3.7580 -8.9837 0.0044 37.1784 0.0039
# 6 -0.0038 -0.0049 -0.0077 -3.3846 0.0039 14.5768
#
#
#
# Elastic Compliance Matrix: (Units=1/GPa)
#
#
# Indices 1 2 3 4 5 6 
#
# 1 0.060041 0.021922 -0.019400 0.000041 -0.011693 0.000025
# 2 0.021922 0.034580 -0.010643 0.000039 -0.002443 0.000021
# 3 -0.019400 -0.010643 0.017349 -0.000005 0.006096 -0.000002
# 4 0.000041 0.000039 -0.000005 0.030523 -0.000008 0.007087
# 5 -0.011693 -0.002443 0.006096 -0.000008 0.029919 -0.000010
# 6 0.000025 0.000021 -0.000002 0.007087 -0.000010 0.070248
#
#
# Mechanical properties :
#
#
# Convention : Reuss Voigt Hill
#
# Bulk Modulus (GPa) = 10.44621 24.46169 17.45395
# Shear Modulus (GPa) = 17.19328 26.30406 21.74867
#
# Velocity S-wave (km/s) = 2.96687 3.66969 3.33684
# Velocity P-wave (km/s) = 4.13333 5.52078 4.87665
#
# Compressibility (1/GPa) = 0.09572854
#
# Stress axis : x y z
#
# Youngs Moduli (GPa) = 16.65526 28.91822 57.64132
#
# Poissons Ratio (x) = -0.63395 1.11826
# Poissons Ratio (y) = -0.36512 0.61346
# Poissons Ratio (z) = 0.32312 0.30777
#
# Static dielectric constant tensor:
#      x y z
#    x 1.700470 0.000000 -0.021870 
#    y 0.000000 1.653390 0.000000 
#    z -0.021870 0.000000 1.743610 
# 
# From -- ./inp_files/30560.got.cif
#   From: 2010.05.17/outbox.cif.g08.bks.cpg/sg5_16_cif.got.tgz:30560.got - 2010.06.03 18:56:24.
