data_PCOD9122660
_publ_section_title
;
Structure prediction by ZEFSAII (Michael W. Deem and Ramdas Pophale) SiO2 
 PCOD9122660
Probable space group: C 2
;
_chemical_formula_sum "Si O2"
_cell_formula_units_Z 24
_cell_length_a 8.541486
_cell_length_b 28.823304
_cell_length_c 9.452656
_cell_angle_alpha 90.000000
_cell_angle_beta 32.297235
_cell_angle_gamma 90.000000
_cell_volume 1243.442244
_symmetry_space_group_name_H-M "C 2"
_symmetry_group_IT_number 5
_symmetry_cell_setting 'monoclinic'
loop_
_space_group_symop_operation_xyz
x,y,z
-x,y,-z
1/2+x,1/2+y,z
1/2-x,1/2+y,-z
loop_
_atom_site_type_symbol
_atom_site_label
_atom_site_fract_x
_atom_site_fract_y
_atom_site_fract_z
Si Si1 0.842910 0.106500 0.268248
Si Si2 0.842373 0.209458 0.269635
Si Si3 0.241131 0.306571 0.580905
Si Si4 0.665501 0.519503 0.521688
Si Si5 0.173769 0.457900 0.015877
Si Si6 0.133957 0.855926 0.051700
O O1 0.500000 0.109667 0.500000
O O2 0.954077 0.158165 0.226865
O O3 0.859782 0.067024 0.373084
O O4 0.000000 0.094275 0.000000
O O5 0.500000 0.203769 0.500000
O O6 0.846074 0.252402 0.375291
O O7 0.000000 0.222186 0.000000
O O8 0.500000 0.306436 0.500000
O O9 0.932389 0.328614 0.859192
O O10 0.382460 0.337646 0.349675
O O11 0.500000 0.526541 0.500000
O O12 0.976783 0.494998 0.252745
O O13 0.478240 0.481984 0.748621
O O14 0.259897 0.409159 0.018299
O O15 0.000000 0.449244 0.000000
O O16 0.000000 0.847079 0.000000
#
# Coordination Sequence:
#
# PCOD9122660 Si02
#       6
#     4   4   4   4   4   4
#     4  10  20  35  58  86 115 146 186 235 286 337
#     4   9  18  34  58  87 112 144 193 238 274 334
#     4  11  21  39  64  84 111 157 201 233 281 352
#     4  10  21  37  57  82 112 147 190 236 281 338
#     4  10  21  38  58  79 109 153 198 232 276 348
#     4  12  25  39  57  88 121 147 189 250 303 339
#
# _framework density 19.301259999999999
#
# number of rings (size 3 to 8) (size 9 to 14) (size 15 to 20)
#    0.000    1.667    0.000    6.000    0.000    3.333 
#    0.000    1.667    0.000    2.000    0.000    0.000 
#    0.000    0.000    0.000    0.000    0.000    0.000 
#
# Total GULP energy -66861.708355 kJ/mol
# GULP energy per Si atom -5571.809030 kJ/mol
# Density = 1.925733 g / cm^3
# Si number density = 19.301260 Si / 1000 Ang^3
#
#
#
# Elastic Constant Matrix: (Units=GPa)
#
#
# Indices 1 2 3 4 5 6 
#
# 1 21.6874 23.7176 2.8295 0.0000 0.3109 0.0000
# 2 23.7176 113.6438 -0.1529 0.0000 20.0332 0.0000
# 3 2.8295 -0.1529 102.6375 0.0000 1.8932 0.0000
# 4 0.0000 0.0000 0.0000 28.7640 0.0000 5.1165
# 5 0.3109 20.0332 1.8932 0.0000 19.3322 0.0000
# 6 0.0000 0.0000 0.0000 5.1165 0.0000 6.0936
#
#
#
# Elastic Compliance Matrix: (Units=1/GPa)
#
#
# Indices 1 2 3 4 5 6 
#
# 1 0.063771 -0.016110 -0.002075 0.000000 0.015871 0.000000
# 2 -0.016110 0.014841 0.000746 0.000000 -0.015193 0.000000
# 3 -0.002075 0.000746 0.009833 0.000000 -0.001703 0.000000
# 4 0.000000 0.000000 0.000000 0.040870 0.000000 -0.034317
# 5 0.015871 -0.015193 -0.001703 0.000000 0.067382 0.000000
# 6 0.000000 0.000000 0.000000 -0.034317 0.000000 0.192921
#
#
# Mechanical properties :
#
#
# Convention : Reuss Voigt Hill
#
# Bulk Modulus (GPa) = 18.66781 32.30635 25.48708
# Shear Modulus (GPa) = 11.30329 24.94294 18.12312
#
# Velocity S-wave (km/s) = 2.42259 3.59875 3.06757
# Velocity P-wave (km/s) = 4.18546 5.83458 5.07742
#
# Compressibility (1/GPa) = 0.05356815
#
# Stress axis : x y z
#
# Youngs Moduli (GPa) = 15.68123 67.38215 101.70096
#
# Poissons Ratio (x) = 1.08550 0.21101
# Poissons Ratio (y) = 0.25262 -0.07592
# Poissons Ratio (z) = 0.03254 -0.05030
#
# Static dielectric constant tensor:
#      x y z
#    x 1.652170 0.000000 0.019370 
#    y 0.000000 1.752490 0.000000 
#    z 0.019370 0.000000 1.655150 
# 
# From -- ./inp_files/17610.got.cif
#   From: 2010.05.17/outbox.cif.g08.bks.cpg/sg5_9_cif.got.tgz:17610.got - 2010.06.03 18:56:24.
