data_PCOD9122575
_publ_section_title
;
Structure prediction by ZEFSAII (Michael W. Deem and Ramdas Pophale) SiO2 
 PCOD9122575
Probable space group: C 2
;
_chemical_formula_sum "Si O2"
_cell_formula_units_Z 24
_cell_length_a 5.290474
_cell_length_b 23.462585
_cell_length_c 9.053702
_cell_angle_alpha 90.000000
_cell_angle_beta 90.419782
_cell_angle_gamma 90.000000
_cell_volume 1123.789533
_symmetry_space_group_name_H-M "C 2"
_symmetry_group_IT_number 5
_symmetry_cell_setting 'monoclinic'
loop_
_space_group_symop_operation_xyz
x,y,z
-x,y,-z
1/2+x,1/2+y,z
1/2-x,1/2+y,-z
loop_
_atom_site_type_symbol
_atom_site_label
_atom_site_fract_x
_atom_site_fract_y
_atom_site_fract_z
Si Si1 0.500000 0.793581 0.500000
Si Si2 0.548503 0.601956 0.673492
Si Si3 0.257207 0.477581 0.399896
Si Si4 0.000000 0.295787 0.000000
Si Si5 0.153220 0.767492 0.243006
Si Si6 0.212005 0.861805 0.742735
Si Si7 0.955153 0.658799 0.321479
O O1 0.337125 0.758210 0.383053
O O2 0.320415 0.833908 0.594268
O O3 0.500000 0.615295 0.500000
O O4 0.657067 0.537794 0.669359
O O5 0.272674 0.618485 0.732157
O O6 0.774645 0.638972 0.739832
O O7 0.500000 0.460409 0.500000
O O8 0.243952 0.428478 0.277226
O O9 0.000000 0.482587 0.500000
O O10 0.798259 0.259712 0.091371
O O11 0.140768 0.335380 0.118904
O O12 0.065114 0.833605 0.245806
O O13 0.923580 0.724078 0.269812
O O14 0.000000 0.655662 0.500000
#
# Coordination Sequence:
#
# PCOD9122575 Si02
#       7
#     2   4   4   2   4   4   4
#     4  10  20  34  58  98 130 158 212 260 334 384
#     4   9  19  34  54  92 129 161 198 255 326 380
#     4  11  21  37  64  97 135 166 206 270 330 391
#     4  10  26  42  58  88 130 178 222 262 330 388
#     4  11  23  38  61  92 129 172 216 268 325 387
#     4  11  22  39  60  95 127 172 215 267 328 386
#     4  10  20  34  59  91 129 162 204 260 321 387
#
# _framework density 21.356311999999999
#
# number of rings (size 3 to 8) (size 9 to 14) (size 15 to 20)
#    0.000    1.667    0.833    5.500   10.500    0.000 
#    0.000    0.000    0.000    0.000    8.667    0.000 
#    0.000    0.000    0.000    0.000    0.000    0.000 
#
# Total GULP energy -66957.235558 kJ/mol
# GULP energy per Si atom -5579.769630 kJ/mol
# Density = 2.130770 g / cm^3
# Si number density = 21.356312 Si / 1000 Ang^3
#
#
#
# Elastic Constant Matrix: (Units=GPa)
#
#
# Indices 1 2 3 4 5 6 
#
# 1 130.2620 59.0819 31.0860 0.0000 -13.8300 0.0000
# 2 59.0819 101.6719 18.4091 0.0000 0.4247 0.0000
# 3 31.0860 18.4091 70.4498 0.0000 -8.3196 0.0000
# 4 0.0000 0.0000 0.0000 11.8068 0.0000 1.8098
# 5 -13.8300 0.4247 -8.3196 0.0000 22.1687 0.0000
# 6 0.0000 0.0000 0.0000 1.8098 0.0000 23.4288
#
#
#
# Elastic Compliance Matrix: (Units=1/GPa)
#
#
# Indices 1 2 3 4 5 6 
#
# 1 0.011984 -0.006480 -0.002822 0.000000 0.006541 0.000000
# 2 -0.006480 0.013862 -0.001331 0.000000 -0.004808 0.000000
# 3 -0.002822 -0.001331 0.016305 0.000000 0.004384 0.000000
# 4 0.000000 0.000000 0.000000 0.085712 0.000000 -0.006621
# 5 0.006541 -0.004808 0.004384 0.000000 0.050927 0.000000
# 6 0.000000 0.000000 0.000000 -0.006621 0.000000 0.043194
#
#
# Mechanical properties :
#
#
# Convention : Reuss Voigt Hill
#
# Bulk Modulus (GPa) = 47.88035 57.72640 52.80338
# Shear Modulus (GPa) = 19.98303 24.40130 22.19217
#
# Velocity S-wave (km/s) = 3.06223 3.38387 3.22706
# Velocity P-wave (km/s) = 5.91367 6.50817 6.21803
#
# Compressibility (1/GPa) = 0.02088539
#
# Stress axis : x y z
#
# Youngs Moduli (GPa) = 83.44439 72.13808 61.33010
#
# Poissons Ratio (x) = 0.46748 0.17308
# Poissons Ratio (y) = 0.54074 0.08161
# Poissons Ratio (z) = 0.23549 0.09599
#
# Static dielectric constant tensor:
#      x y z
#    x 1.878530 0.000000 -0.016570 
#    y 0.000000 1.832640 0.000000 
#    z -0.016570 0.000000 1.740820 
# 
# From -- ./inp_files/12857.got.cif
#   From: 2010.05.17/outbox.cif.g08.bks.cpg/sg5_7_cif.got.tgz:12857.got - 2010.06.03 18:56:24.
