data_PCOD9122341
_publ_section_title
;
Structure prediction by ZEFSAII (Michael W. Deem and Ramdas Pophale) SiO2 
 PCOD9122341
Probable space group: C 2
;
_chemical_formula_sum "Si O2"
_cell_formula_units_Z 18
_cell_length_a 9.684436
_cell_length_b 11.416794
_cell_length_c 8.237321
_cell_angle_alpha 90.000000
_cell_angle_beta 122.107968
_cell_angle_gamma 90.000000
_cell_volume 771.458408
_symmetry_space_group_name_H-M "C 2"
_symmetry_group_IT_number 5
_symmetry_cell_setting 'monoclinic'
loop_
_space_group_symop_operation_xyz
x,y,z
-x,y,-z
1/2+x,1/2+y,z
1/2-x,1/2+y,-z
loop_
_atom_site_type_symbol
_atom_site_label
_atom_site_fract_x
_atom_site_fract_y
_atom_site_fract_z
Si Si1 0.389224 0.232380 0.118305
Si Si2 0.500000 0.570530 0.500000
Si Si3 0.000000 0.660098 0.500000
Si Si4 0.000000 0.511103 0.000000
Si Si5 0.192160 0.461944 0.431212
Si Si6 0.233404 0.278453 0.729860
O O1 0.380122 0.229703 0.305916
O O2 0.576413 0.267795 0.201023
O O3 0.387496 0.100720 0.038553
O O4 0.258487 0.308640 0.936331
O O5 0.383717 0.489140 0.534338
O O6 0.628621 0.660202 0.659882
O O7 0.890308 0.577654 0.544158
O O8 0.892383 0.444929 0.797310
O O9 0.165636 0.362805 0.548815
#
# Coordination Sequence:
#
# PCOD9122341 Si02
#       6
#     4   2   2   2   4   4
#     4   9  18  42  65  84 140 180 208 271 354 385
#     4  12  21  43  68 102 140 164 235 293 308 408
#     4  10  19  41  68  88 128 194 207 259 362 400
#     4   8  16  40  66  86 134 182 204 270 346 394
#     4  11  22  40  74  98 132 180 226 272 346 400
#     4  10  21  41  64  96 135 175 217 287 326 397
#
# _framework density 23.332432000000001
#
# number of rings (size 3 to 8) (size 9 to 14) (size 15 to 20)
#    0.000    2.222    6.667    0.667    0.000    0.889 
#    8.000   11.111    0.000    0.000    0.000    0.000 
#    0.000    0.000    0.000    0.000    0.000    0.000 
#
# Total GULP energy -50140.474650 kJ/mol
# GULP energy per Si atom -5571.163850 kJ/mol
# Density = 2.327933 g / cm^3
# Si number density = 23.332432 Si / 1000 Ang^3
#
#
#
# Elastic Constant Matrix: (Units=GPa)
#
#
# Indices 1 2 3 4 5 6 
#
# 1 97.8247 19.5119 26.4488 0.0000 9.3312 0.0000
# 2 19.5119 64.7806 65.5195 0.0000 0.7116 0.0000
# 3 26.4488 65.5195 244.5515 0.0000 -17.8718 0.0000
# 4 0.0000 0.0000 0.0000 38.7624 0.0000 -2.6246
# 5 9.3312 0.7116 -17.8718 0.0000 30.1373 0.0000
# 6 0.0000 0.0000 0.0000 -2.6246 0.0000 25.9085
#
#
#
# Elastic Compliance Matrix: (Units=1/GPa)
#
#
# Indices 1 2 3 4 5 6 
#
# 1 0.011328 -0.002521 -0.000838 0.000000 -0.003945 0.000000
# 2 -0.002521 0.022217 -0.005917 0.000000 -0.003253 0.000000
# 3 -0.000838 -0.005917 0.006057 0.000000 0.003991 0.000000
# 4 0.000000 0.000000 0.000000 0.025976 0.000000 0.002631
# 5 -0.003945 -0.003253 0.003991 0.000000 0.036846 0.000000
# 6 0.000000 0.000000 0.000000 0.002631 0.000000 0.038864
#
#
# Mechanical properties :
#
#
# Convention : Reuss Voigt Hill
#
# Bulk Modulus (GPa) = 47.50906 70.01302 58.76104
# Shear Modulus (GPa) = 29.96578 38.67341 34.31960
#
# Velocity S-wave (km/s) = 3.58760 4.07565 3.83939
# Velocity P-wave (km/s) = 6.12921 7.22633 6.70026
#
# Compressibility (1/GPa) = 0.02104862
#
# Stress axis : x y z
#
# Youngs Moduli (GPa) = 88.27622 45.01149 165.10550
#
# Poissons Ratio (x) = 0.11348 0.13836
# Poissons Ratio (y) = 0.22256 0.97697
# Poissons Ratio (z) = 0.07397 0.26634
#
# Static dielectric constant tensor:
#      x y z
#    x 1.938010 0.000000 -0.071270 
#    y 0.000000 2.005270 0.000000 
#    z -0.071270 0.000000 2.075120 
# 
# From -- ./inp_files/18833.got.cif
#   From: 2010.05.17/outbox.cif.g08.bks.cpg/sg5_10_cif.got.tgz:18833.got - 2010.06.03 18:56:24.
