data_PCOD9122778
_publ_section_title
;
Structure prediction by ZEFSAII (Michael W. Deem and Ramdas Pophale) SiO2 
 PCOD9122778
Probable space group: C 2
;
_chemical_formula_sum "Si O2"
_cell_formula_units_Z 30
_cell_length_a 21.045959
_cell_length_b 9.123205
_cell_length_c 9.664562
_cell_angle_alpha 90.000000
_cell_angle_beta 56.719254
_cell_angle_gamma 90.000000
_cell_volume 1551.316292
_symmetry_space_group_name_H-M "C 2"
_symmetry_group_IT_number 5
_symmetry_cell_setting 'monoclinic'
loop_
_space_group_symop_operation_xyz
x,y,z
-x,y,-z
1/2+x,1/2+y,z
1/2-x,1/2+y,-z
loop_
_atom_site_type_symbol
_atom_site_label
_atom_site_fract_x
_atom_site_fract_y
_atom_site_fract_z
Si Si1 0.289311 0.370830 0.210576
Si Si2 0.901224 0.729382 0.270457
Si Si3 0.275299 0.000296 0.445996
Si Si4 0.662857 0.643835 0.360791
Si Si5 0.366796 0.581432 0.921036
Si Si6 0.000000 0.522639 0.000000
Si Si7 0.125506 0.279800 0.838070
Si Si8 0.548420 0.555712 0.719964
O O1 0.358012 0.265620 0.177521
O O2 0.276682 0.473936 0.359107
O O3 0.207382 0.296724 0.295634
O O4 0.318073 0.449204 0.040937
O O5 0.837705 0.623066 0.413026
O O6 0.974109 0.629432 0.153989
O O7 0.924600 0.885467 0.305856
O O8 0.315617 0.852273 0.341490
O O9 0.222491 0.051694 0.382638
O O10 0.650195 0.596381 0.219519
O O11 0.585392 0.632326 0.540818
O O12 0.457456 0.560003 0.829105
O O13 0.345395 0.713863 0.052199
O O14 0.929933 0.414481 0.057891
O O15 0.079721 0.152023 0.811458
#
# Coordination Sequence:
#
# PCOD9122778 Si02
#       8
#     4   4   4   4   4   2   4   4
#     4  11  22  42  64  94 123 170 217 267 315 384
#     4  10  21  35  65  93 122 154 218 271 309 365
#     4  10  22  41  65  93 119 167 219 268 311 384
#     4  11  25  41  64  94 133 168 210 270 331 386
#     4  12  25  37  65  95 132 169 209 269 328 389
#     4  10  20  36  58 100 118 154 212 276 308 374
#     4  11  21  38  67  90 122 169 223 259 318 379
#     4  12  21  43  66  94 127 177 214 262 317 393
#
# _framework density 19.338418000000001
#
# number of rings (size 3 to 8) (size 9 to 14) (size 15 to 20)
#    0.000    1.067    5.333    1.200    3.733    0.000 
#    0.000    0.000    0.000    0.000    0.000    0.000 
#    0.000    0.000    0.000    0.000    0.000    0.000 
#
# Total GULP energy -83644.141896 kJ/mol
# GULP energy per Si atom -5576.276126 kJ/mol
# Density = 1.929440 g / cm^3
# Si number density = 19.338418 Si / 1000 Ang^3
#
#
#
# Elastic Constant Matrix: (Units=GPa)
#
#
# Indices 1 2 3 4 5 6 
#
# 1 55.6269 29.8521 47.6565 0.0000 -2.4175 0.0000
# 2 29.8521 86.7816 39.2981 0.0000 -6.5606 0.0000
# 3 47.6565 39.2981 136.8067 0.0000 2.5092 0.0000
# 4 0.0000 0.0000 0.0000 29.3751 0.0000 -4.4346
# 5 -2.4175 -6.5606 2.5092 0.0000 35.3523 0.0000
# 6 0.0000 0.0000 0.0000 -4.4346 0.0000 18.5262
#
#
#
# Elastic Compliance Matrix: (Units=1/GPa)
#
#
# Indices 1 2 3 4 5 6 
#
# 1 0.028186 -0.005898 -0.008150 0.000000 0.001411 0.000000
# 2 -0.005898 0.014749 -0.002228 0.000000 0.002492 0.000000
# 3 -0.008150 -0.002228 0.010821 0.000000 -0.001739 0.000000
# 4 0.000000 0.000000 0.000000 0.035319 0.000000 0.008454
# 5 0.001411 0.002492 -0.001739 0.000000 0.028969 0.000000
# 6 0.000000 0.000000 0.000000 0.008454 0.000000 0.056001
#
#
# Mechanical properties :
#
#
# Convention : Reuss Voigt Hill
#
# Bulk Modulus (GPa) = 47.16250 56.98095 52.07173
# Shear Modulus (GPa) = 23.40110 27.47797 25.43953
#
# Velocity S-wave (km/s) = 3.48240 3.77357 3.63091
# Velocity P-wave (km/s) = 6.37263 6.96531 6.67555
#
# Compressibility (1/GPa) = 0.02120329
#
# Stress axis : x y z
#
# Youngs Moduli (GPa) = 35.47873 67.79943 92.41714
#
# Poissons Ratio (x) = 0.39990 0.75321
# Poissons Ratio (y) = 0.20926 0.20589
# Poissons Ratio (z) = 0.28916 0.15105
#
# Static dielectric constant tensor:
#      x y z
#    x 1.674120 0.000000 -0.039110 
#    y 0.000000 1.757090 0.000000 
#    z -0.039110 0.000000 1.681240 
# 
# From -- ./inp_files/30669.got.cif
#   From: 2010.05.17/outbox.cif.g08.bks.cpg/sg5_16_cif.got.tgz:30669.got - 2010.06.03 18:56:24.
