data_PCOD9122703
_publ_section_title
;
Structure prediction by ZEFSAII (Michael W. Deem and Ramdas Pophale) SiO2 
 PCOD9122703
Probable space group: C 2
;
_chemical_formula_sum "Si O2"
_cell_formula_units_Z 24
_cell_length_a 10.233917
_cell_length_b 7.322710
_cell_length_c 12.440680
_cell_angle_alpha 90.000000
_cell_angle_beta 86.335271
_cell_angle_gamma 90.000000
_cell_volume 930.398220
_symmetry_space_group_name_H-M "C 2"
_symmetry_group_IT_number 5
_symmetry_cell_setting 'monoclinic'
loop_
_space_group_symop_operation_xyz
x,y,z
-x,y,-z
1/2+x,1/2+y,z
1/2-x,1/2+y,-z
loop_
_atom_site_type_symbol
_atom_site_label
_atom_site_fract_x
_atom_site_fract_y
_atom_site_fract_z
Si Si1 0.672842 0.179730 0.031140
Si Si2 0.898184 0.800681 0.417726
Si Si3 0.144072 0.750588 0.804023
Si Si4 0.633002 0.868860 0.545774
Si Si5 0.827714 0.315614 0.217075
Si Si6 0.397152 0.787147 0.883003
O O1 0.707191 0.266174 0.145110
O O2 0.611240 0.983953 0.058985
O O3 0.607281 0.279912 0.930669
O O4 0.817357 0.155760 0.967423
O O5 0.929746 0.839441 0.291447
O O6 0.754102 0.862344 0.458762
O O7 0.895845 0.580493 0.426634
O O8 0.000000 0.870758 0.500000
O O9 0.145716 0.532119 0.793235
O O10 0.296725 0.808207 0.788988
O O11 0.500000 0.793153 0.500000
O O12 0.678275 0.775626 0.655737
O O13 0.961002 0.231098 0.161673
#
# Coordination Sequence:
#
# PCOD9122703 Si02
#       6
#     4   4   4   4   4   4
#     4  10  20  35  62  88 117 156 196 243 312 362
#     4  10  22  42  63  90 125 161 212 258 308 364
#     4   9  20  37  60  86 118 155 196 252 300 363
#     4  10  23  41  65  91 122 166 211 255 311 365
#     4  11  21  39  61  86 121 161 199 253 305 364
#     4  10  21  39  59  86 124 155 198 249 306 365
#
# _framework density 25.795407000000001
#
# number of rings (size 3 to 8) (size 9 to 14) (size 15 to 20)
#    1.000    1.000    1.667    1.500    0.000    6.000 
#    0.000    8.333    0.000    0.000    0.000    0.000 
#    0.000    0.000    0.000    0.000    0.000    0.000 
#
# Total GULP energy -66985.587406 kJ/mol
# GULP energy per Si atom -5582.132284 kJ/mol
# Density = 2.573670 g / cm^3
# Si number density = 25.795407 Si / 1000 Ang^3
#
#
#
# Elastic Constant Matrix: (Units=GPa)
#
#
# Indices 1 2 3 4 5 6 
#
# 1 96.6205 4.8149 83.1445 0.0000 7.9916 0.0000
# 2 4.8149 74.0708 27.5292 0.0000 2.6839 0.0000
# 3 83.1445 27.5292 210.6937 0.0000 23.9498 0.0000
# 4 0.0000 0.0000 0.0000 15.0364 0.0000 -3.6002
# 5 7.9916 2.6839 23.9498 0.0000 42.3256 0.0000
# 6 0.0000 0.0000 0.0000 -3.6002 0.0000 14.2393
#
#
#
# Elastic Compliance Matrix: (Units=1/GPa)
#
#
# Indices 1 2 3 4 5 6 
#
# 1 0.015814 0.001361 -0.006487 0.000000 0.000598 0.000000
# 2 0.001361 0.014308 -0.002431 0.000000 0.000211 0.000000
# 3 -0.006487 -0.002431 0.007980 0.000000 -0.003137 0.000000
# 4 0.000000 0.000000 0.000000 0.070791 0.000000 0.017899
# 5 0.000598 0.000211 -0.003137 0.000000 0.025275 0.000000
# 6 0.000000 0.000000 0.000000 0.017899 0.000000 0.074754
#
#
# Mechanical properties :
#
#
# Convention : Reuss Voigt Hill
#
# Bulk Modulus (GPa) = 43.49675 68.04025 55.76850
# Shear Modulus (GPa) = 21.57992 32.04669 26.81330
#
# Velocity S-wave (km/s) = 2.89551 3.52851 3.22756
# Velocity P-wave (km/s) = 5.29881 6.56008 5.96289
#
# Compressibility (1/GPa) = 0.02299022
#
# Stress axis : x y z
#
# Youngs Moduli (GPa) = 63.23401 69.89186 125.31220
#
# Poissons Ratio (x) = -0.09513 0.81284
# Poissons Ratio (y) = -0.08607 0.30458
# Poissons Ratio (z) = 0.41017 0.16988
#
# Static dielectric constant tensor:
#      x y z
#    x 2.152660 0.000000 0.067070 
#    y 0.000000 2.036870 0.000000 
#    z 0.067070 0.000000 2.073620 
# 
# From -- ./inp_files/38344.got.cif
#   From: 2010.05.17/outbox.cif.g08.bks.cpg/sg5_20_cif.got.tgz:38344.got - 2010.06.03 18:56:24.
