data_PCOD9122949
_publ_section_title
;
Structure prediction by ZEFSAII (Michael W. Deem and Ramdas Pophale) SiO2 
 PCOD9122949
Probable space group: C 2
;
_chemical_formula_sum "Si O2"
_cell_formula_units_Z 28
_cell_length_a 20.577379
_cell_length_b 6.559548
_cell_length_c 19.578654
_cell_angle_alpha 90.000000
_cell_angle_beta 151.222073
_cell_angle_gamma 90.000000
_cell_volume 1272.235068
_symmetry_space_group_name_H-M "C 2"
_symmetry_group_IT_number 5
_symmetry_cell_setting 'monoclinic'
loop_
_space_group_symop_operation_xyz
x,y,z
-x,y,-z
1/2+x,1/2+y,z
1/2-x,1/2+y,-z
loop_
_atom_site_type_symbol
_atom_site_label
_atom_site_fract_x
_atom_site_fract_y
_atom_site_fract_z
Si Si1 0.308697 0.280380 0.884743
Si Si2 0.709364 0.638019 0.650108
Si Si3 0.500000 0.298548 0.500000
Si Si4 0.134004 0.548441 0.821333
Si Si5 0.838858 0.398262 0.003301
Si Si6 0.111353 0.527086 0.485010
Si Si7 0.627232 0.781782 0.239787
Si Si8 0.500000 0.584989 0.000000
O O1 0.263167 0.260242 0.764604
O O2 0.194141 0.373262 0.827707
O O3 0.429871 0.440222 0.990911
O O4 0.351101 0.065010 0.954993
O O5 0.621946 0.455740 0.602351
O O6 0.822267 0.515164 0.712474
O O7 0.630939 0.797204 0.530062
O O8 0.515229 0.149364 0.449735
O O9 0.175057 0.506604 0.936780
O O10 0.973132 0.546308 0.662216
O O11 0.210479 0.755864 0.871579
O O12 0.978879 0.273421 0.135398
O O13 0.257056 0.638006 0.621727
O O14 0.605091 0.718678 0.139838
#
# Coordination Sequence:
#
# PCOD9122949 Si02
#       8
#     4   4   2   4   4   4   4   2
#     4  12  23  40  72 100 138 180 231 289 354 414
#     4  11  22  40  67 107 137 182 223 292 368 416
#     4  10  20  36  66 100 140 172 220 290 358 418
#     4  12  26  47  70  98 138 191 242 293 336 422
#     4  12  26  49  69 100 137 193 248 283 344 420
#     4  11  24  43  66 103 144 179 233 295 357 414
#     4  11  25  44  67 106 143 180 232 288 360 423
#     4  12  22  42  70 108 144 178 224 300 356 422
#
# _framework density 22.008512
#
# number of rings (size 3 to 8) (size 9 to 14) (size 15 to 20)
#    0.000    0.571    4.286    4.714    2.000    1.143 
#    2.571    0.000    0.000    0.000    0.000    0.000 
#    0.000    0.000    0.000    0.000    0.000    0.000 
#
# Total GULP energy -78258.714620 kJ/mol
# GULP energy per Si atom -5589.908187 kJ/mol
# Density = 2.195842 g / cm^3
# Si number density = 22.008512 Si / 1000 Ang^3
#
#
#
# Elastic Constant Matrix: (Units=GPa)
#
#
# Indices 1 2 3 4 5 6 
#
# 1 31.8318 9.3910 5.0191 0.0000 10.3977 0.0000
# 2 9.3910 100.8143 41.3885 -0.0001 4.8107 0.0000
# 3 5.0191 41.3885 121.8513 0.0000 11.2567 0.0000
# 4 0.0000 -0.0001 0.0000 30.6162 0.0000 4.9928
# 5 10.3977 4.8107 11.2567 0.0000 23.5252 0.0000
# 6 0.0000 0.0000 0.0000 4.9928 0.0000 32.7081
#
#
#
# Elastic Compliance Matrix: (Units=1/GPa)
#
#
# Indices 1 2 3 4 5 6 
#
# 1 0.037552 -0.003140 0.001040 0.000000 -0.016453 0.000000
# 2 -0.003140 0.011795 -0.003957 0.000000 0.000869 0.000000
# 3 0.001040 -0.003957 0.009914 0.000000 -0.004394 0.000000
# 4 0.000000 0.000000 0.000000 0.033496 0.000000 -0.005113
# 5 -0.016453 0.000869 -0.004394 0.000000 0.051704 0.000000
# 6 0.000000 0.000000 0.000000 -0.005113 0.000000 0.031354
#
#
# Mechanical properties :
#
#
# Convention : Reuss Voigt Hill
#
# Bulk Modulus (GPa) = 21.21082 40.67715 30.94399
# Shear Modulus (GPa) = 24.55254 30.61648 27.58451
#
# Velocity S-wave (km/s) = 3.34367 3.73382 3.54412
# Velocity P-wave (km/s) = 4.95634 6.09189 5.55322
#
# Compressibility (1/GPa) = 0.04714575
#
# Stress axis : x y z
#
# Youngs Moduli (GPa) = 26.62995 84.78285 100.86775
#
# Poissons Ratio (x) = 0.26619 -0.10486
# Poissons Ratio (y) = 0.08361 0.39916
# Poissons Ratio (z) = -0.02768 0.33551
#
# Static dielectric constant tensor:
#      x y z
#    x 1.817100 0.000000 0.018210 
#    y 0.000000 1.849240 0.000000 
#    z 0.018210 0.000000 1.821210 
# 
# From -- ./inp_files/67257.got.cif
#   From: 2010.05.17/outbox.cif.g08.bks.cpg/sg5_34_cif.got.tgz:67257.got - 2010.06.03 18:56:24.
