data_PCOD9122466
_publ_section_title
;
Structure prediction by ZEFSAII (Michael W. Deem and Ramdas Pophale) SiO2 
 PCOD9122466
Probable space group: C 2
;
_chemical_formula_sum "Si O2"
_cell_formula_units_Z 18
_cell_length_a 19.645321
_cell_length_b 7.565549
_cell_length_c 15.368026
_cell_angle_alpha 90.000000
_cell_angle_beta 159.568272
_cell_angle_gamma 90.000000
_cell_volume 797.363485
_symmetry_space_group_name_H-M "C 2"
_symmetry_group_IT_number 5
_symmetry_cell_setting 'monoclinic'
loop_
_space_group_symop_operation_xyz
x,y,z
-x,y,-z
1/2+x,1/2+y,z
1/2-x,1/2+y,-z
loop_
_atom_site_type_symbol
_atom_site_label
_atom_site_fract_x
_atom_site_fract_y
_atom_site_fract_z
Si Si1 0.548099 0.228790 0.295239
Si Si2 0.706826 0.733285 0.761732
Si Si3 0.389727 0.123974 0.283648
Si Si4 0.969683 0.110583 0.778716
Si Si5 0.000000 0.914831 0.000000
O O1 0.517214 0.142228 0.351126
O O2 0.766403 0.205990 0.521458
O O3 0.521697 0.439129 0.272183
O O4 0.381374 0.157691 0.029947
O O5 0.500000 0.638579 0.500000
O O6 0.814323 0.793645 0.801730
O O7 0.648834 0.917228 0.741032
O O8 0.500000 0.196371 0.500000
O O9 0.175456 0.207942 0.013824
O O10 0.969273 0.033257 0.877421
#
# Coordination Sequence:
#
# PCOD9122466 Si02
#       5
#     4   4   4   4   2
#     4  10  20  33  55  83 106 136 175 218 264 307
#     4   9  18  32  55  78 103 139 178 219 253 305
#     4   9  18  33  55  79 103 138 180 217 253 305
#     4  10  20  33  57  80 105 138 174 221 261 307
#     4   8  16  32  54  78  98 136 186 216 246 302
#
# _framework density 22.574397999999999
#
# number of rings (size 3 to 8) (size 9 to 14) (size 15 to 20)
#    0.000    3.111    0.000    4.000    0.000    7.111 
#    0.000    0.000    0.000   60.000    0.000    0.000 
#    0.000    0.000    0.000    0.000    0.000    0.000 
#
# Total GULP energy -50197.736525 kJ/mol
# GULP energy per Si atom -5577.526281 kJ/mol
# Density = 2.252302 g / cm^3
# Si number density = 22.574398 Si / 1000 Ang^3
#
#
#
# Elastic Constant Matrix: (Units=GPa)
#
#
# Indices 1 2 3 4 5 6 
#
# 1 41.3396 -4.2482 -16.0615 0.0000 11.6890 0.0000
# 2 -4.2482 26.3502 1.3949 0.0000 3.3320 0.0000
# 3 -16.0615 1.3949 155.6343 0.0000 43.4672 0.0000
# 4 0.0000 0.0000 0.0000 9.4130 0.0000 4.0072
# 5 11.6890 3.3320 43.4672 0.0000 43.1232 0.0000
# 6 0.0000 0.0000 0.0000 4.0072 0.0000 5.0911
#
#
#
# Elastic Compliance Matrix: (Units=1/GPa)
#
#
# Indices 1 2 3 4 5 6 
#
# 1 0.033314 0.007211 0.008422 0.000000 -0.018077 0.000000
# 2 0.007211 0.039936 0.002497 0.000000 -0.007557 0.000000
# 3 0.008422 0.002497 0.011084 0.000000 -0.013648 0.000000
# 4 0.000000 0.000000 0.000000 0.159770 0.000000 -0.125755
# 5 -0.018077 -0.007557 -0.013648 0.000000 0.042430 0.000000
# 6 0.000000 0.000000 0.000000 -0.125755 0.000000 0.295403
#
#
# Mechanical properties :
#
#
# Convention : Reuss Voigt Hill
#
# Bulk Modulus (GPa) = 8.29226 20.61051 14.45139
# Shear Modulus (GPa) = 8.53422 27.67472 18.10447
#
# Velocity S-wave (km/s) = 1.94646 3.50513 2.83502
# Velocity P-wave (km/s) = 2.95514 5.05283 4.13908
#
# Compressibility (1/GPa) = 0.12059434
#
# Stress axis : x y z
#
# Youngs Moduli (GPa) = 30.01706 25.03985 90.22101
#
# Poissons Ratio (x) = -0.18056 -0.75985
# Poissons Ratio (y) = -0.21645 -0.22527
# Poissons Ratio (z) = -0.25281 -0.06252
#
# Static dielectric constant tensor:
#      x y z
#    x 1.807600 0.000000 0.020420 
#    y 0.000000 1.872420 0.000000 
#    z 0.020420 0.000000 1.953040 
# 
# From -- ./inp_files/28629.got.cif
#   From: 2010.05.17/outbox.cif.g08.bks.cpg/sg5_15_cif.got.tgz:28629.got - 2010.06.03 18:56:24.
