data_PCOD9122936
_publ_section_title
;
Structure prediction by ZEFSAII (Michael W. Deem and Ramdas Pophale) SiO2 
 PCOD9122936
Probable space group: C 2
;
_chemical_formula_sum "Si O2"
_cell_formula_units_Z 26
_cell_length_a 21.230583
_cell_length_b 5.282117
_cell_length_c 9.769413
_cell_angle_alpha 90.000000
_cell_angle_beta 68.548389
_cell_angle_gamma 90.000000
_cell_volume 1019.672271
_symmetry_space_group_name_H-M "C 2"
_symmetry_group_IT_number 5
_symmetry_cell_setting 'monoclinic'
loop_
_space_group_symop_operation_xyz
x,y,z
-x,y,-z
1/2+x,1/2+y,z
1/2-x,1/2+y,-z
loop_
_atom_site_type_symbol
_atom_site_label
_atom_site_fract_x
_atom_site_fract_y
_atom_site_fract_z
Si Si1 0.235237 0.528320 0.853473
Si Si2 0.000000 0.531664 0.000000
Si Si3 0.730434 0.271749 0.433927
Si Si4 0.121216 0.906693 0.888203
Si Si5 0.141502 0.268177 0.124160
Si Si6 0.496170 0.907455 0.306324
Si Si7 0.918562 0.918959 0.396956
O O1 0.232330 0.312302 0.740373
O O2 0.193139 0.765502 0.831618
O O3 0.312936 0.584421 0.821663
O O4 0.196769 0.466386 0.024811
O O5 0.064314 0.706156 0.982946
O O6 0.016706 0.387241 0.847959
O O7 0.740095 0.996942 0.492850
O O8 0.651395 0.336090 0.478783
O O9 0.102201 0.953041 0.746370
O O10 0.118664 0.126440 0.002814
O O11 0.076575 0.371889 0.253421
O O12 0.453604 0.682269 0.408715
O O13 0.470234 0.184525 0.366946
#
# Coordination Sequence:
#
# PCOD9122936 Si02
#       7
#     4   2   4   4   4   4   4
#     4  12  26  42  70 101 144 189 231 291 357 434
#     4  10  20  36  64  98 134 174 220 292 352 408
#     4  12  26  47  73 104 145 187 242 295 351 421
#     4  11  21  40  61 103 138 178 228 286 354 414
#     4  12  24  43  67 102 146 185 232 291 366 432
#     4  11  23  40  67  98 138 177 228 292 347 414
#     4  11  24  42  69 102 133 179 238 287 347 405
#
# _framework density 25.498387999999998
#
# number of rings (size 3 to 8) (size 9 to 14) (size 15 to 20)
#    0.000    0.615    4.615    4.615    4.308    0.615 
#    0.000    0.769    0.000    3.692    0.000    0.000 
#    0.000    0.000    0.000    0.000    0.000    0.000 
#
# Total GULP energy -72866.109742 kJ/mol
# GULP energy per Si atom -5605.085365 kJ/mol
# Density = 2.544035 g / cm^3
# Si number density = 25.498388 Si / 1000 Ang^3
#
#
#
# Elastic Constant Matrix: (Units=GPa)
#
#
# Indices 1 2 3 4 5 6 
#
# 1 113.3501 30.5168 31.7421 0.0000 -17.2083 0.0000
# 2 30.5168 76.5565 17.7372 0.0000 -2.8294 0.0000
# 3 31.7421 17.7372 91.7330 0.0000 -12.3720 0.0000
# 4 0.0000 0.0000 0.0000 22.1230 0.0000 -19.8047
# 5 -17.2083 -2.8294 -12.3720 0.0000 46.1235 0.0000
# 6 0.0000 0.0000 0.0000 -19.8047 0.0000 37.2890
#
#
#
# Elastic Compliance Matrix: (Units=1/GPa)
#
#
# Indices 1 2 3 4 5 6 
#
# 1 0.011042 -0.003662 -0.002685 0.000000 0.003175 0.000000
# 2 -0.003662 0.014890 -0.001736 0.000000 -0.000919 0.000000
# 3 -0.002685 -0.001736 0.012467 0.000000 0.002236 0.000000
# 4 0.000000 0.000000 0.000000 0.086173 0.000000 0.045768
# 5 0.003175 -0.000919 0.002236 0.000000 0.023409 0.000000
# 6 0.000000 0.000000 0.000000 0.045768 0.000000 0.051125
#
#
# Mechanical properties :
#
#
# Convention : Reuss Voigt Hill
#
# Bulk Modulus (GPa) = 44.97507 49.07021 47.02264
# Shear Modulus (GPa) = 22.45335 34.55000 28.50167
#
# Velocity S-wave (km/s) = 2.97067 3.68501 3.34695
# Velocity P-wave (km/s) = 5.42616 6.11489 5.78079
#
# Compressibility (1/GPa) = 0.02223454
#
# Stress axis : x y z
#
# Youngs Moduli (GPa) = 90.56369 67.15790 80.20962
#
# Poissons Ratio (x) = 0.24595 0.21532
# Poissons Ratio (y) = 0.33166 0.13923
# Poissons Ratio (z) = 0.24312 0.11657
#
# Static dielectric constant tensor:
#      x y z
#    x 1.994390 0.000000 0.017150 
#    y 0.000000 2.010600 0.000000 
#    z 0.017150 0.000000 2.013700 
# 
# From -- ./inp_files/45593.got.cif
#   From: 2010.05.17/outbox.cif.g08.bks.cpg/sg5_23_cif.got.tgz:45593.got - 2010.06.03 18:56:24.
