data_PCOD9122402
_publ_section_title
;
Structure prediction by ZEFSAII (Michael W. Deem and Ramdas Pophale) SiO2 
 PCOD9122402
Probable space group: C 2
;
_chemical_formula_sum "Si O2"
_cell_formula_units_Z 24
_cell_length_a 5.782114
_cell_length_b 25.274835
_cell_length_c 7.685152
_cell_angle_alpha 90.000000
_cell_angle_beta 108.638984
_cell_angle_gamma 90.000000
_cell_volume 1064.216807
_symmetry_space_group_name_H-M "C 2"
_symmetry_group_IT_number 5
_symmetry_cell_setting 'monoclinic'
loop_
_space_group_symop_operation_xyz
x,y,z
-x,y,-z
1/2+x,1/2+y,z
1/2-x,1/2+y,-z
loop_
_atom_site_type_symbol
_atom_site_label
_atom_site_fract_x
_atom_site_fract_y
_atom_site_fract_z
Si Si1 0.472039 0.862640 0.788807
Si Si2 0.000000 0.595649 0.000000
Si Si3 0.500000 0.702335 0.000000
Si Si4 0.971546 0.672801 0.293734
Si Si5 0.500000 0.535664 0.000000
Si Si6 0.808701 0.774736 0.814994
Si Si7 0.500000 0.384584 0.500000
Si Si8 0.699948 0.962210 0.675996
O O1 0.644452 0.823515 0.719125
O O2 0.553182 0.923072 0.771444
O O3 0.196743 0.853106 0.660186
O O4 0.500000 0.851984 0.000000
O O5 0.248910 0.564599 0.005864
O O6 0.913236 0.632986 0.818633
O O7 0.642142 0.737950 0.896941
O O8 0.307249 0.671250 0.837956
O O9 0.070158 0.732907 0.287437
O O10 0.000000 0.657907 0.500000
O O11 0.386624 0.499853 0.818987
O O12 0.000000 0.797410 0.000000
O O13 0.352549 0.422469 0.593188
O O14 0.500000 0.988985 0.500000
#
# Coordination Sequence:
#
# PCOD9122402 Si02
#       8
#     4   2   2   4   2   4   2   4
#     4  11  23  41  70 102 144 201 237 296 367 439
#     4  12  28  52  82 116 147 187 268 328 374 474
#     4  10  19  46  67 100 144 187 246 301 350 450
#     4  11  25  50  75 103 148 198 239 314 390 440
#     4  12  29  50  83 106 145 198 246 323 400 438
#     4  10  22  41  69 102 146 191 248 297 359 447
#     4  10  24  44  66 102 152 180 254 298 352 460
#     4  10  25  47  71 104 147 190 242 307 371 458
#
# _framework density 22.551796
#
# number of rings (size 3 to 8) (size 9 to 14) (size 15 to 20)
#    0.000    1.333    3.333    1.500    9.333    1.333 
#   12.000    1.667    0.000    0.000    0.000    0.000 
#    0.000    0.000    0.000    0.000    0.000    0.000 
#
# Total GULP energy -67032.762014 kJ/mol
# GULP energy per Si atom -5586.063501 kJ/mol
# Density = 2.250047 g / cm^3
# Si number density = 22.551796 Si / 1000 Ang^3
#
#
#
# Elastic Constant Matrix: (Units=GPa)
#
#
# Indices 1 2 3 4 5 6 
#
# 1 107.4463 34.7112 54.6325 0.0000 24.3735 0.0000
# 2 34.7112 73.5738 66.2256 0.0000 17.2281 0.0000
# 3 54.6325 66.2256 161.0473 0.0000 5.6713 0.0000
# 4 0.0000 0.0000 0.0000 -222.1996 0.0000 -94.3085
# 5 24.3735 17.2281 5.6713 0.0000 41.5598 0.0000
# 6 0.0000 0.0000 0.0000 -94.3085 0.0000 -5.6999
#
#
#
# Elastic Compliance Matrix: (Units=1/GPa)
#
#
# Indices 1 2 3 4 5 6 
#
# 1 0.013105 -0.001331 -0.003665 0.000000 -0.006634 0.000000
# 2 -0.001331 0.024540 -0.009354 0.000000 -0.008116 0.000000
# 3 -0.003665 -0.009354 0.011140 0.000000 0.004507 0.000000
# 4 0.000000 0.000000 0.000000 0.000747 0.000000 -0.012364
# 5 -0.006634 -0.008116 0.004507 0.000000 0.030702 0.000000
# 6 0.000000 0.000000 0.000000 -0.012364 0.000000 0.029131
#
#
# Mechanical properties :
#
#
# Convention : Reuss Voigt Hill
#
# Bulk Modulus (GPa) = 49.78494 72.57847 61.18170
# Shear Modulus (GPa) = 34.53994 -24.83474 4.85260
#
# Velocity S-wave (km/s) = 3.91779 -3.32208 1.46848
# Velocity P-wave (km/s) = 6.52604 4.18783 5.48302
#
# Compressibility (1/GPa) = 0.02008640
#
# Stress axis : x y z
#
# Youngs Moduli (GPa) = 76.30554 40.75029 89.76280
#
# Poissons Ratio (x) = 0.05422 0.32898
# Poissons Ratio (y) = 0.10152 0.83964
# Poissons Ratio (z) = 0.27966 0.38118
#
# Static dielectric constant tensor:
#      x y z
#    x 2.127600 0.000000 -0.195510 
#    y 0.000000 1.859460 0.000000 
#    z -0.195510 0.000000 1.973110 
# 
# From -- ./inp_files/12926.got.cif
#   From: 2010.05.17/outbox.cif.g08.bks.cpg/sg5_7_cif.got.tgz:12926.got - 2010.06.03 18:56:24.
