data_PCOD9122145
_publ_section_title
;
Structure prediction by ZEFSAII (Michael W. Deem and Ramdas Pophale) SiO2 
 PCOD9122145
Probable space group: C 2
;
_chemical_formula_sum "Si O2"
_cell_formula_units_Z 24
_cell_length_a 13.615946
_cell_length_b 18.154356
_cell_length_c 8.322359
_cell_angle_alpha 90.000000
_cell_angle_beta 150.282423
_cell_angle_gamma 90.000000
_cell_volume 1019.802427
_symmetry_space_group_name_H-M "C 2"
_symmetry_group_IT_number 5
_symmetry_cell_setting 'monoclinic'
loop_
_space_group_symop_operation_xyz
x,y,z
-x,y,-z
1/2+x,1/2+y,z
1/2-x,1/2+y,-z
loop_
_atom_site_type_symbol
_atom_site_label
_atom_site_fract_x
_atom_site_fract_y
_atom_site_fract_z
Si Si1 0.662509 0.322090 0.371983
Si Si2 0.346239 0.959848 0.132653
Si Si3 0.087292 0.575955 0.279679
Si Si4 0.452373 0.482520 0.742178
Si Si5 0.275769 0.692742 0.753069
Si Si6 0.421239 0.796252 0.211008
O O1 0.632972 0.401340 0.410411
O O2 0.659775 0.257217 0.495137
O O3 0.881514 0.316072 0.609192
O O4 0.500000 0.314490 0.000000
O O5 0.500000 0.957542 0.500000
O O6 0.303609 0.873529 0.038350
O O7 0.450325 0.007988 0.142961
O O8 0.144540 0.995489 0.908966
O O9 0.288817 0.543721 0.493585
O O10 0.149308 0.621625 0.525514
O O11 0.000000 0.618114 0.000000
O O12 0.500000 0.481282 0.000000
O O13 0.500000 0.682841 0.000000
O O14 0.311037 0.726132 0.979054
O O15 0.500000 0.780419 0.500000
#
# Coordination Sequence:
#
# PCOD9122145 Si02
#       6
#     4   4   4   4   4   4
#     4  10  19  38  68 104 139 189 239 298 361 424
#     4  11  22  42  73 111 141 186 253 305 366 432
#     4  12  26  45  72 105 154 197 241 303 373 435
#     4  11  21  41  76 102 143 193 247 304 357 432
#     4  10  24  43  72  96 151 196 241 291 376 434
#     4  10  20  41  71 106 141 183 246 310 353 437
#
# _framework density 23.533968999999999
#
# number of rings (size 3 to 8) (size 9 to 14) (size 15 to 20)
#    0.000    1.333    3.333    4.000    2.333    0.667 
#    0.000    9.167    0.000    0.000    0.000    0.000 
#    0.000    0.000    0.000    0.000    0.000    0.000 
#
# Total GULP energy -67111.476966 kJ/mol
# GULP energy per Si atom -5592.623080 kJ/mol
# Density = 2.348040 g / cm^3
# Si number density = 23.533969 Si / 1000 Ang^3
#
#
#
# Elastic Constant Matrix: (Units=GPa)
#
#
# Indices 1 2 3 4 5 6 
#
# 1 73.5241 12.0901 38.0087 0.0000 9.3964 0.0000
# 2 12.0901 92.2399 49.9384 0.0000 -14.3870 0.0000
# 3 38.0087 49.9384 88.9260 0.0000 -12.7281 0.0000
# 4 0.0000 0.0000 0.0000 47.8531 0.0000 -9.6689
# 5 9.3964 -14.3870 -12.7281 0.0000 47.1664 0.0000
# 6 0.0000 0.0000 0.0000 -9.6689 0.0000 7.1410
#
#
#
# Elastic Compliance Matrix: (Units=1/GPa)
#
#
# Indices 1 2 3 4 5 6 
#
# 1 0.019353 0.002114 -0.010317 0.000000 -0.005995 0.000000
# 2 0.002114 0.016094 -0.009673 0.000000 0.001878 0.000000
# 3 -0.010317 -0.009673 0.021801 0.000000 0.004988 0.000000
# 4 0.000000 0.000000 0.000000 0.028768 0.000000 0.038951
# 5 -0.005995 0.001878 0.004988 0.000000 0.024315 0.000000
# 6 0.000000 0.000000 0.000000 0.038951 0.000000 0.192776
#
#
# Mechanical properties :
#
#
# Convention : Reuss Voigt Hill
#
# Bulk Modulus (GPa) = 46.51986 50.52937 48.52462
# Shear Modulus (GPa) = 14.44994 30.74229 22.59612
#
# Velocity S-wave (km/s) = 2.48060 3.61819 3.10199
# Velocity P-wave (km/s) = 5.29287 6.24280 5.78736
#
# Compressibility (1/GPa) = 0.02149620
#
# Stress axis : x y z
#
# Youngs Moduli (GPa) = 51.67180 62.13572 45.86994
#
# Poissons Ratio (x) = -0.13135 0.47324
# Poissons Ratio (y) = -0.10923 0.44368
# Poissons Ratio (z) = 0.53310 0.60101
#
# Static dielectric constant tensor:
#      x y z
#    x 1.891200 0.000000 -0.026360 
#    y 0.000000 1.901470 0.000000 
#    z -0.026360 0.000000 1.901110 
# 
# From -- ./inp_files/25263.got.cif
#   From: 2010.05.17/outbox.cif.g08.bks.cpg/sg5_13_cif.got.tgz:25263.got - 2010.06.03 18:56:24.
