data_PCOD9122510
_publ_section_title
;
Structure prediction by ZEFSAII (Michael W. Deem and Ramdas Pophale) SiO2 
 PCOD9122510
Probable space group: C 2
;
_chemical_formula_sum "Si O2"
_cell_formula_units_Z 30
_cell_length_a 6.893219
_cell_length_b 13.916931
_cell_length_c 15.974044
_cell_angle_alpha 90.000000
_cell_angle_beta 125.597893
_cell_angle_gamma 90.000000
_cell_volume 1246.052176
_symmetry_space_group_name_H-M "C 2"
_symmetry_group_IT_number 5
_symmetry_cell_setting 'monoclinic'
loop_
_space_group_symop_operation_xyz
x,y,z
-x,y,-z
1/2+x,1/2+y,z
1/2-x,1/2+y,-z
loop_
_atom_site_type_symbol
_atom_site_label
_atom_site_fract_x
_atom_site_fract_y
_atom_site_fract_z
Si Si1 0.437068 0.456930 0.663701
Si Si2 0.953440 0.646651 0.803530
Si Si3 0.484845 0.960285 0.727917
Si Si4 0.759675 0.356477 0.527726
Si Si5 0.361538 0.363771 0.135465
Si Si6 0.000000 0.661821 0.000000
Si Si7 0.335817 0.841347 0.081685
Si Si8 0.450037 0.645955 0.586127
O O1 0.712244 0.456287 0.697684
O O2 0.282719 0.374144 0.580832
O O3 0.479306 0.436828 0.771229
O O4 0.329250 0.555682 0.601633
O O5 0.069131 0.568180 0.770254
O O6 0.690131 0.658005 0.700254
O O7 0.049400 0.754351 0.832730
O O8 0.979179 0.607753 0.905925
O O9 0.440986 0.925814 0.622669
O O10 0.639929 0.885883 0.820661
O O11 0.500000 0.378399 0.500000
O O12 0.815926 0.246094 0.557453
O O13 0.098795 0.353541 0.109773
O O14 0.330079 0.390081 0.030573
O O15 0.230647 0.733262 0.058224
O O16 0.500000 0.624662 0.500000
#
# Coordination Sequence:
#
# PCOD9122510 Si02
#       8
#     4   4   4   4   4   2   4   4
#     4   9  18  33  55  78 103 140 180 214 262 322
#     4  10  20  34  56  82 108 140 180 222 266 315
#     4   9  18  33  54  77 105 141 180 216 262 316
#     4  10  20  36  56  77 108 144 176 217 266 318
#     4   9  18  34  56  78 106 143 179 217 263 317
#     4  10  20  34  54  82 110 138 178 224 268 310
#     4   9  18  34  54  76 107 143 177 218 265 313
#     4  11  21  35  57  82 107 138 180 223 267 315
#
# _framework density 24.076039000000002
#
# number of rings (size 3 to 8) (size 9 to 14) (size 15 to 20)
#    0.000    2.400    0.000    3.600    0.000    3.200 
#    0.000    4.667    0.000   22.400    0.000    0.000 
#    0.000    0.000    0.000    0.000    0.000    0.000 
#
# Total GULP energy -83786.111708 kJ/mol
# GULP energy per Si atom -5585.740781 kJ/mol
# Density = 2.402124 g / cm^3
# Si number density = 24.076039 Si / 1000 Ang^3
#
#
#
# Elastic Constant Matrix: (Units=GPa)
#
#
# Indices 1 2 3 4 5 6 
#
# 1 65.4927 -3.3303 35.0062 0.0000 -16.7721 0.0000
# 2 -3.3303 93.0364 62.9759 0.0000 -2.4260 0.0000
# 3 35.0062 62.9759 186.2290 0.0000 -16.1912 0.0000
# 4 0.0000 0.0000 0.0000 25.0042 0.0000 -8.8988
# 5 -16.7721 -2.4260 -16.1912 0.0000 39.1671 0.0000
# 6 0.0000 0.0000 0.0000 -8.8988 0.0000 21.9738
#
#
#
# Elastic Compliance Matrix: (Units=1/GPa)
#
#
# Indices 1 2 3 4 5 6 
#
# 1 0.019548 0.003844 -0.004384 0.000000 0.006797 0.000000
# 2 0.003844 0.014743 -0.005690 0.000000 0.000207 0.000000
# 3 -0.004384 -0.005690 0.008220 0.000000 0.001168 0.000000
# 4 0.000000 0.000000 0.000000 0.046728 0.000000 0.018924
# 5 0.006797 0.000207 0.001168 0.000000 0.028938 0.000000
# 6 0.000000 0.000000 0.000000 0.018924 0.000000 0.053172
#
#
# Mechanical properties :
#
#
# Convention : Reuss Voigt Hill
#
# Bulk Modulus (GPa) = 33.27618 59.34017 46.30818
# Shear Modulus (GPa) = 25.79644 33.90279 29.84962
#
# Velocity S-wave (km/s) = 3.27686 3.75661 3.52491
# Velocity P-wave (km/s) = 5.30739 6.59671 5.98686
#
# Compressibility (1/GPa) = 0.03005152
#
# Stress axis : x y z
#
# Youngs Moduli (GPa) = 51.15617 67.82806 121.66170
#
# Poissons Ratio (x) = -0.26074 0.53331
# Poissons Ratio (y) = -0.19665 0.69228
# Poissons Ratio (z) = 0.22424 0.38596
#
# Static dielectric constant tensor:
#      x y z
#    x 2.012110 0.000000 -0.011600 
#    y 0.000000 1.923360 0.000000 
#    z -0.011600 0.000000 1.900790 
# 
# From -- ./inp_files/59754.got.cif
#   From: 2010.05.17/outbox.cif.g08.bks.cpg/sg5_30_cif.got.tgz:59754.got - 2010.06.03 18:56:24.
