data_PCOD9122574
_publ_section_title
;
Structure prediction by ZEFSAII (Michael W. Deem and Ramdas Pophale) SiO2 
 PCOD9122574
Probable space group: C 2
;
_chemical_formula_sum "Si O2"
_cell_formula_units_Z 22
_cell_length_a 20.666234
_cell_length_b 9.178601
_cell_length_c 13.433807
_cell_angle_alpha 90.000000
_cell_angle_beta 22.678784
_cell_angle_gamma 90.000000
_cell_volume 982.502983
_symmetry_space_group_name_H-M "C 2"
_symmetry_group_IT_number 5
_symmetry_cell_setting 'monoclinic'
loop_
_space_group_symop_operation_xyz
x,y,z
-x,y,-z
1/2+x,1/2+y,z
1/2-x,1/2+y,-z
loop_
_atom_site_type_symbol
_atom_site_label
_atom_site_fract_x
_atom_site_fract_y
_atom_site_fract_z
Si Si1 0.070920 0.564490 0.509007
Si Si2 0.949117 0.987874 0.354198
Si Si3 0.793830 0.760022 0.012292
Si Si4 0.000000 0.079077 0.500000
Si Si5 0.156266 0.303044 0.840368
Si Si6 0.015179 0.320595 0.242755
O O1 0.224102 0.676305 0.287904
O O2 0.000000 0.528944 0.500000
O O3 0.111216 0.425052 0.519487
O O4 0.923877 0.648125 0.778018
O O5 0.770945 0.907212 0.608755
O O6 0.000662 0.988295 0.398464
O O7 0.950596 0.155362 0.319638
O O8 0.096038 0.890112 0.098053
O O9 0.665745 0.678529 0.266818
O O10 0.671736 0.811767 0.096715
O O11 0.080277 0.380773 0.045582
O O12 0.000000 0.245111 0.000000
#
# Coordination Sequence:
#
# PCOD9122574 Si02
#       6
#     4   4   4   2   4   4
#     4  11  23  41  66  98 132 165 210 268 323 379
#     4  10  22  37  60  91 124 164 208 259 315 377
#     4  10  20  36  61  93 131 162 200 260 323 374
#     4  10  20  34  58  96 126 156 202 262 318 372
#     4  11  25  45  64  88 130 176 217 259 313 381
#     4  11  22  37  62  95 125 165 210 262 319 376
#
# _framework density 22.39179
#
# number of rings (size 3 to 8) (size 9 to 14) (size 15 to 20)
#    0.000    1.455    1.818    4.364    7.636    1.455 
#    0.000    0.909    0.000    0.000    0.000    0.000 
#    0.000    0.000    0.000    0.000    0.000    0.000 
#
# Total GULP energy -61516.007228 kJ/mol
# GULP energy per Si atom -5592.364293 kJ/mol
# Density = 2.234083 g / cm^3
# Si number density = 22.391790 Si / 1000 Ang^3
#
#
#
# Elastic Constant Matrix: (Units=GPa)
#
#
# Indices 1 2 3 4 5 6 
#
# 1 30.8301 5.7065 22.3298 0.0000 -3.4425 0.0000
# 2 5.7065 98.5267 42.7049 0.0000 0.0376 0.0000
# 3 22.3298 42.7049 101.3299 0.0000 3.0455 0.0000
# 4 0.0000 0.0000 0.0000 26.9434 0.0000 12.5520
# 5 -3.4425 0.0376 3.0455 0.0000 21.6388 0.0000
# 6 0.0000 0.0000 0.0000 12.5520 0.0000 9.9283
#
#
#
# Elastic Compliance Matrix: (Units=1/GPa)
#
#
# Indices 1 2 3 4 5 6 
#
# 1 0.040111 0.001965 -0.009901 0.000000 0.007771 0.000000
# 2 0.001965 0.012525 -0.005745 0.000000 0.001099 0.000000
# 3 -0.009901 -0.005745 0.014580 0.000000 -0.003617 0.000000
# 4 0.000000 0.000000 0.000000 0.090299 0.000000 -0.114162
# 5 0.007771 0.001099 -0.003617 0.000000 0.047957 0.000000
# 6 0.000000 0.000000 0.000000 -0.114162 0.000000 0.245053
#
#
# Mechanical properties :
#
#
# Convention : Reuss Voigt Hill
#
# Bulk Modulus (GPa) = 25.09053 41.35211 33.22132
# Shear Modulus (GPa) = 10.17974 22.36515 16.27244
#
# Velocity S-wave (km/s) = 2.13449 3.16382 2.69869
# Velocity P-wave (km/s) = 4.15985 5.64393 4.95774
#
# Compressibility (1/GPa) = 0.03985567
#
# Stress axis : x y z
#
# Youngs Moduli (GPa) = 24.93089 79.83839 68.58506
#
# Poissons Ratio (x) = -0.15691 0.67906
# Poissons Ratio (y) = -0.04900 0.39401
# Poissons Ratio (z) = 0.24684 0.45866
#
# Static dielectric constant tensor:
#      x y z
#    x 1.777390 0.000000 0.017220 
#    y 0.000000 1.912660 0.000000 
#    z 0.017220 0.000000 1.849210 
# 
# From -- ./inp_files/57577.got.cif
#   From: 2010.05.17/outbox.cif.g08.bks.cpg/sg5_29_cif.got.tgz:57577.got - 2010.06.03 18:56:24.
