data_PCOD9122004
_publ_section_title
;
Structure prediction by ZEFSAII (Michael W. Deem and Ramdas Pophale) SiO2 
 PCOD9122004
Probable space group: C 2
;
_chemical_formula_sum "Si O2"
_cell_formula_units_Z 28
_cell_length_a 9.618126
_cell_length_b 32.224758
_cell_length_c 5.509041
_cell_angle_alpha 90.000000
_cell_angle_beta 49.902153
_cell_angle_gamma 90.000000
_cell_volume 1306.130842
_symmetry_space_group_name_H-M "C 2"
_symmetry_group_IT_number 5
_symmetry_cell_setting 'monoclinic'
loop_
_space_group_symop_operation_xyz
x,y,z
-x,y,-z
1/2+x,1/2+y,z
1/2-x,1/2+y,-z
loop_
_atom_site_type_symbol
_atom_site_label
_atom_site_fract_x
_atom_site_fract_y
_atom_site_fract_z
Si Si1 0.854838 0.820720 0.970133
Si Si2 0.000000 0.894350 0.500000
Si Si3 0.616629 0.748514 0.117217
Si Si4 0.705824 0.652072 0.022908
Si Si5 0.882521 0.532500 0.384970
Si Si6 0.326758 0.941988 0.357025
Si Si7 0.709607 0.618267 0.520373
Si Si8 0.500000 0.872355 0.500000
O O1 0.783924 0.780727 0.903940
O O2 0.660171 0.842063 0.238887
O O3 0.000000 0.803932 0.000000
O O4 0.960456 0.861125 0.753000
O O5 0.165229 0.923877 0.379767
O O6 0.500000 0.755957 0.500000
O O7 0.685056 0.701378 0.061689
O O8 0.500000 0.752236 0.000000
O O9 0.789866 0.633474 0.173464
O O10 0.501321 0.632448 0.247785
O O11 0.790197 0.639640 0.670328
O O12 0.791225 0.486732 0.515027
O O13 0.738003 0.569389 0.521476
O O14 0.000000 0.538636 0.500000
O O15 0.000000 0.534757 0.000000
O O16 0.393947 0.904169 0.446075
O O17 0.500000 0.950508 0.000000
#
# Coordination Sequence:
#
# PCOD9122004 Si02
#       8
#     4   2   4   4   4   4   4   2
#     4  12  28  43  69 105 142 181 245 300 359 428
#     4  12  26  44  68 106 140 184 246 296 354 432
#     4  12  24  44  73 101 136 188 237 288 357 428
#     4  10  19  40  68  93 126 173 229 275 341 428
#     4  11  24  42  64  98 139 185 232 286 353 419
#     4  11  24  43  70  97 141 189 232 290 356 421
#     4  10  19  37  65  94 125 163 223 284 327 408
#     4  12  22  46  70  92 138 200 224 290 368 424
#
# _framework density 21.437362
#
# number of rings (size 3 to 8) (size 9 to 14) (size 15 to 20)
#    0.000    0.857    7.143    0.857    4.000    1.143 
#    0.000    6.429    0.000    0.000    0.000    0.000 
#    0.000    0.000    0.000    0.000    0.000    0.000 
#
# Total GULP energy -78013.319446 kJ/mol
# GULP energy per Si atom -5572.379960 kJ/mol
# Density = 2.138857 g / cm^3
# Si number density = 21.437362 Si / 1000 Ang^3
#
#
#
# Elastic Constant Matrix: (Units=GPa)
#
#
# Indices 1 2 3 4 5 6 
#
# 1 127.9854 59.3570 18.7840 0.0000 20.6263 0.0000
# 2 59.3570 180.6247 8.1070 0.0000 -1.3113 0.0000
# 3 18.7840 8.1070 47.7222 0.0000 30.1824 0.0000
# 4 0.0000 0.0000 0.0000 22.6194 0.0000 -13.2454
# 5 20.6263 -1.3113 30.1824 0.0000 40.1173 0.0000
# 6 0.0000 0.0000 0.0000 -13.2454 0.0000 76.4536
#
#
#
# Elastic Compliance Matrix: (Units=1/GPa)
#
#
# Indices 1 2 3 4 5 6 
#
# 1 0.010265 -0.003407 -0.000101 0.000000 -0.005313 0.000000
# 2 -0.003407 0.006772 -0.002017 0.000000 0.003491 0.000000
# 3 -0.000101 -0.002017 0.040723 0.000000 -0.030652 0.000000
# 4 0.000000 0.000000 0.000000 0.049201 0.000000 0.008524
# 5 -0.005313 0.003491 -0.030652 0.000000 0.050834 0.000000
# 6 0.000000 0.000000 0.000000 0.008524 0.000000 0.014557
#
#
# Mechanical properties :
#
#
# Convention : Reuss Voigt Hill
#
# Bulk Modulus (GPa) = 21.40930 58.75871 40.08400
# Shear Modulus (GPa) = 25.12914 45.84370 35.48642
#
# Velocity S-wave (km/s) = 3.42747 4.62940 4.07302
# Velocity P-wave (km/s) = 5.06676 7.48626 6.39203
#
# Compressibility (1/GPa) = 0.04670868
#
# Stress axis : x y z
#
# Youngs Moduli (GPa) = 97.42174 147.66945 24.55591
#
# Poissons Ratio (x) = 0.50314 0.00249
# Poissons Ratio (y) = 0.33193 0.04953
# Poissons Ratio (z) = 0.00988 0.29785
#
# Static dielectric constant tensor:
#      x y z
#    x 1.750450 0.000000 0.061760 
#    y 0.000000 1.785400 0.000000 
#    z 0.061760 0.000000 1.798980 
# 
# From -- ./inp_files/3904.got.cif
#   From: 2010.05.17/outbox.cif.g08.bks.cpg/sg5_2_cif.got.tgz:3904.got - 2010.06.03 18:56:24.
