data_PCOD9122328
_publ_section_title
;
Structure prediction by ZEFSAII (Michael W. Deem and Ramdas Pophale) SiO2 
 PCOD9122328
Probable space group: C 2
;
_chemical_formula_sum "Si O2"
_cell_formula_units_Z 24
_cell_length_a 6.890359
_cell_length_b 11.646094
_cell_length_c 18.298654
_cell_angle_alpha 90.000000
_cell_angle_beta 41.980537
_cell_angle_gamma 90.000000
_cell_volume 982.173654
_symmetry_space_group_name_H-M "C 2"
_symmetry_group_IT_number 5
_symmetry_cell_setting 'monoclinic'
loop_
_space_group_symop_operation_xyz
x,y,z
-x,y,-z
1/2+x,1/2+y,z
1/2-x,1/2+y,-z
loop_
_atom_site_type_symbol
_atom_site_label
_atom_site_fract_x
_atom_site_fract_y
_atom_site_fract_z
Si Si1 0.529070 0.353790 0.146224
Si Si2 0.448121 0.439939 0.413564
Si Si3 0.585778 0.894220 0.097983
Si Si4 0.147556 0.484363 0.353445
Si Si5 0.728694 0.723836 0.717662
Si Si6 0.451064 0.110644 0.231244
O O1 0.263396 0.432085 0.246180
O O2 0.793554 0.387849 0.128423
O O3 0.600663 0.166625 0.260978
O O4 0.654597 0.376241 0.031170
O O5 0.286245 0.414950 0.381557
O O6 0.615810 0.320327 0.374992
O O7 0.669413 0.543855 0.339108
O O8 0.196337 0.474977 0.540002
O O9 0.534481 0.790492 0.169508
O O10 0.598019 0.013616 0.138351
O O11 0.067404 0.723279 0.814160
O O12 0.287538 0.609615 0.325196
#
# Coordination Sequence:
#
# PCOD9122328 Si02
#       6
#     4   4   4   4   4   4
#     4  10  20  38  64  86 119 160 196 240 300 351
#     4  10  23  42  59  87 119 159 201 242 295 351
#     4   9  20  40  61  89 119 156 197 245 295 350
#     4  11  22  39  63  86 119 158 197 243 298 348
#     4  10  22  41  62  88 121 152 201 247 294 350
#     4  10  19  41  64  83 122 158 193 248 298 342
#
# _framework density 24.435597999999999
#
# number of rings (size 3 to 8) (size 9 to 14) (size 15 to 20)
#    0.000    2.000    5.000    0.000    4.667    0.667 
#    6.000    0.000    0.000    0.000    0.000    0.000 
#    0.000    0.000    0.000    0.000    0.000    0.000 
#
# Total GULP energy -67075.586203 kJ/mol
# GULP energy per Si atom -5589.632184 kJ/mol
# Density = 2.437998 g / cm^3
# Si number density = 24.435598 Si / 1000 Ang^3
#
#
#
# Elastic Constant Matrix: (Units=GPa)
#
#
# Indices 1 2 3 4 5 6 
#
# 1 75.1952 27.4759 25.4706 -0.0030 9.9015 0.0031
# 2 27.4759 202.9902 93.9744 -0.0010 -15.2187 0.0012
# 3 25.4706 93.9744 228.8170 -0.0043 -23.0230 0.0028
# 4 -0.0030 -0.0010 -0.0043 19.3827 0.0031 9.2242
# 5 9.9015 -15.2187 -23.0230 0.0031 36.6029 -0.0022
# 6 0.0031 0.0012 0.0028 9.2242 -0.0022 35.0863
#
#
#
# Elastic Compliance Matrix: (Units=1/GPa)
#
#
# Indices 1 2 3 4 5 6 
#
# 1 0.015245 -0.001783 -0.001553 0.000004 -0.005842 -0.000003
# 2 -0.001783 0.006327 -0.002228 -0.000001 0.001712 0.000000
# 3 -0.001553 -0.002228 0.005773 0.000000 0.003125 0.000000
# 4 0.000004 -0.000001 0.000000 0.058970 -0.000007 -0.015503
# 5 -0.005842 0.001712 0.003125 -0.000007 0.031577 0.000004
# 6 -0.000003 0.000000 0.000000 -0.015503 0.000004 0.032577
#
#
# Mechanical properties :
#
#
# Convention : Reuss Voigt Hill
#
# Bulk Modulus (GPa) = 61.65780 88.98269 75.32024
# Shear Modulus (GPa) = 29.93959 42.21982 36.07971
#
# Velocity S-wave (km/s) = 3.50415 4.16119 3.84672
# Velocity P-wave (km/s) = 6.45443 7.71891 7.11482
#
# Compressibility (1/GPa) = 0.01621855
#
# Stress axis : x y z
#
# Youngs Moduli (GPa) = 65.59405 158.04229 173.23365
#
# Poissons Ratio (x) = 0.28174 0.26897
# Poissons Ratio (y) = 0.11694 0.38596
# Poissons Ratio (z) = 0.10185 0.35212
#
# Static dielectric constant tensor:
#      x y z
#    x 2.111990 0.000000 0.015440 
#    y 0.000000 1.895010 0.000000 
#    z 0.015440 0.000000 1.907610 
# 
# From -- ./inp_files/41325.got.cif
#   From: 2010.05.17/outbox.cif.g08.bks.cpg/sg5_21_cif.got.tgz:41325.got - 2010.06.03 18:56:24.
