data_PCOD9122247
_publ_section_title
;
Structure prediction by ZEFSAII (Michael W. Deem and Ramdas Pophale) SiO2 
 PCOD9122247
Probable space group: C 2
;
_chemical_formula_sum "Si O2"
_cell_formula_units_Z 32
_cell_length_a 9.048577
_cell_length_b 22.104070
_cell_length_c 11.293321
_cell_angle_alpha 90.000000
_cell_angle_beta 127.058538
_cell_angle_gamma 90.000000
_cell_volume 1802.553268
_symmetry_space_group_name_H-M "C 2"
_symmetry_group_IT_number 5
_symmetry_cell_setting 'monoclinic'
loop_
_space_group_symop_operation_xyz
x,y,z
-x,y,-z
1/2+x,1/2+y,z
1/2-x,1/2+y,-z
loop_
_atom_site_type_symbol
_atom_site_label
_atom_site_fract_x
_atom_site_fract_y
_atom_site_fract_z
Si Si1 0.051444 0.073800 0.663415
Si Si2 0.022595 0.208932 0.652250
Si Si3 0.202586 0.460106 0.151872
Si Si4 0.847453 0.771414 0.529853
Si Si5 0.294925 0.003845 0.420737
Si Si6 0.882261 0.780486 0.825261
Si Si7 0.546119 0.423044 0.152051
Si Si8 0.782014 0.904791 0.423657
O O1 0.092839 0.142416 0.721189
O O2 0.000000 0.073280 0.500000
O O3 0.211000 0.024315 0.763093
O O4 0.864601 0.052968 0.638998
O O5 0.174805 0.259054 0.754334
O O6 0.000000 0.208470 0.500000
O O7 0.816959 0.227060 0.590485
O O8 0.365565 0.434660 0.145902
O O9 0.185178 0.412281 0.250867
O O10 0.000000 0.468394 0.000000
O O11 0.911204 0.759977 0.698679
O O12 0.769651 0.840556 0.483294
O O13 0.000000 0.768494 0.500000
O O14 0.500000 0.027713 0.500000
O O15 0.221701 0.959933 0.282894
O O16 0.288904 0.959313 0.530465
O O17 0.908172 0.852340 0.829932
O O18 0.000000 0.760615 0.000000
O O19 0.500000 0.445181 0.000000
O O20 0.000000 0.914790 0.500000
#
# Coordination Sequence:
#
# PCOD9122247 Si02
#       8
#     4   4   4   4   4   4   4   4
#     4  10  19  40  57  77 110 149 196 233 264 335
#     4   9  21  36  59  81 107 154 196 224 274 337
#     4  11  22  35  57  83 111 150 187 229 285 337
#     4  10  20  35  59  86 115 149 186 239 277 334
#     4  11  21  31  57  82 108 145 180 231 280 323
#     4  10  20  36  56  83 116 150 186 231 283 337
#     4  10  21  34  50  83 122 139 173 234 282 336
#     4  11  18  36  55  79 115 141 187 223 280 338
#
# _framework density 17.752596
#
# number of rings (size 3 to 8) (size 9 to 14) (size 15 to 20)
#    0.000    1.750    5.000    0.750    3.500    2.000 
#    0.000    0.625    0.000    6.000    0.000    0.000 
#    0.000    0.000    0.000    0.000    0.000    0.000 
#
# Total GULP energy -89077.729464 kJ/mol
# GULP energy per Si atom -5567.358091 kJ/mol
# Density = 1.771219 g / cm^3
# Si number density = 17.752596 Si / 1000 Ang^3
#
#
#
# Elastic Constant Matrix: (Units=GPa)
#
#
# Indices 1 2 3 4 5 6 
#
# 1 38.0288 17.9493 35.1271 0.0000 3.9847 0.0000
# 2 17.9493 58.9006 18.2182 0.0000 10.6049 0.0000
# 3 35.1271 18.2182 114.4247 0.0000 1.9965 0.0000
# 4 0.0000 0.0000 0.0000 14.6430 0.0000 0.5605
# 5 3.9847 10.6049 1.9965 0.0000 33.9156 0.0000
# 6 0.0000 0.0000 0.0000 0.5605 0.0000 11.2716
#
#
#
# Elastic Compliance Matrix: (Units=1/GPa)
#
#
# Indices 1 2 3 4 5 6 
#
# 1 0.040848 -0.008755 -0.011122 0.000000 -0.001407 0.000000
# 2 -0.008755 0.020788 -0.000527 0.000000 -0.005441 0.000000
# 3 -0.011122 -0.000527 0.012224 0.000000 0.000752 0.000000
# 4 0.000000 0.000000 0.000000 0.068422 0.000000 -0.003402
# 5 -0.001407 -0.005441 0.000752 0.000000 0.031307 0.000000
# 6 0.000000 0.000000 0.000000 -0.003402 0.000000 0.088887
#
#
# Mechanical properties :
#
#
# Convention : Reuss Voigt Hill
#
# Bulk Modulus (GPa) = 30.25363 39.32702 34.79032
# Shear Modulus (GPa) = 15.90820 21.30335 18.60578
#
# Velocity S-wave (km/s) = 2.99675 3.46788 3.24089
# Velocity P-wave (km/s) = 5.39007 6.18351 5.80037
#
# Compressibility (1/GPa) = 0.03305388
#
# Stress axis : x y z
#
# Youngs Moduli (GPa) = 24.48071 48.10383 81.80369
#
# Poissons Ratio (x) = 0.42114 0.90978
# Poissons Ratio (y) = 0.21433 0.04313
# Poissons Ratio (z) = 0.27226 0.02536
#
# Static dielectric constant tensor:
#      x y z
#    x 1.628100 0.000000 -0.019350 
#    y 0.000000 1.614930 0.000000 
#    z -0.019350 0.000000 1.657800 
# 
# From -- ./inp_files/28038.got.cif
#   From: 2010.05.17/outbox.cif.g08.bks.cpg/sg5_15_cif.got.tgz:28038.got - 2010.06.03 18:56:24.
