data_PCOD9122184
_publ_section_title
;
Structure prediction by ZEFSAII (Michael W. Deem and Ramdas Pophale) SiO2 
 PCOD9122184
Probable space group: C 2
;
_chemical_formula_sum "Si O2"
_cell_formula_units_Z 20
_cell_length_a 6.709627
_cell_length_b 13.178002
_cell_length_c 11.967406
_cell_angle_alpha 90.000000
_cell_angle_beta 47.528547
_cell_angle_gamma 90.000000
_cell_volume 780.507418
_symmetry_space_group_name_H-M "C 2"
_symmetry_group_IT_number 5
_symmetry_cell_setting 'monoclinic'
loop_
_space_group_symop_operation_xyz
x,y,z
-x,y,-z
1/2+x,1/2+y,z
1/2-x,1/2+y,-z
loop_
_atom_site_type_symbol
_atom_site_label
_atom_site_fract_x
_atom_site_fract_y
_atom_site_fract_z
Si Si1 0.711550 0.011810 0.555103
Si Si2 0.216949 0.733688 0.041919
Si Si3 0.500000 0.047459 0.000000
Si Si4 0.993477 0.329720 0.272944
Si Si5 0.000000 0.203875 0.500000
Si Si6 0.056183 0.895433 0.268865
O O1 0.000000 0.983516 0.500000
O O2 0.737803 0.130290 0.573848
O O3 0.483253 0.948381 0.703166
O O4 0.792776 0.961491 0.404975
O O5 0.031644 0.810821 0.182237
O O6 0.500000 0.724072 0.000000
O O7 0.296920 0.784738 0.893655
O O8 0.101487 0.623640 0.057676
O O9 0.731612 0.976814 0.861016
O O10 0.711959 0.332156 0.307954
O O11 0.988453 0.267940 0.390345
#
# Coordination Sequence:
#
# PCOD9122184 Si02
#       6
#     4   4   2   4   2   4
#     4   8  19  35  59  86 120 171 208 269 333 379
#     4  10  23  41  67 101 129 178 228 277 340 407
#     4  12  22  42  72  94 140 180 220 278 352 396
#     4  10  19  39  62  91 131 167 227 277 322 404
#     4  10  20  34  64  90 120 180 222 254 348 400
#     4  10  20  42  62  92 137 169 220 288 328 393
#
# _framework density 25.624358000000001
#
# number of rings (size 3 to 8) (size 9 to 14) (size 15 to 20)
#    0.600    1.600    3.000    1.200    0.000    3.200 
#    1.800    6.000    2.200    0.000    0.000    0.000 
#    0.000    0.000    0.000    0.000    0.000    0.000 
#
# Total GULP energy -55743.143274 kJ/mol
# GULP energy per Si atom -5574.314327 kJ/mol
# Density = 2.556604 g / cm^3
# Si number density = 25.624358 Si / 1000 Ang^3
#
#
#
# Elastic Constant Matrix: (Units=GPa)
#
#
# Indices 1 2 3 4 5 6 
#
# 1 90.1523 56.3287 51.6353 -0.0006 28.1324 0.0007
# 2 56.3287 188.3221 89.1340 0.0000 5.7442 0.0001
# 3 51.6353 89.1340 148.8861 -0.0003 24.8551 0.0002
# 4 -0.0006 0.0000 -0.0003 42.1713 0.0005 5.3156
# 5 28.1324 5.7442 24.8551 0.0005 58.7698 -0.0004
# 6 0.0007 0.0001 0.0002 5.3156 -0.0004 27.8161
#
#
#
# Elastic Compliance Matrix: (Units=1/GPa)
#
#
# Indices 1 2 3 4 5 6 
#
# 1 0.016918 -0.003636 -0.002580 0.000000 -0.006652 -0.000001
# 2 -0.003636 0.008276 -0.004141 0.000000 0.002683 0.000000
# 3 -0.002580 -0.004141 0.010563 0.000000 -0.002827 0.000000
# 4 0.000000 0.000000 0.000000 0.024298 0.000000 -0.004643
# 5 -0.006652 0.002683 -0.002827 0.000000 0.021133 0.000001
# 6 -0.000001 0.000000 0.000000 -0.004643 0.000001 0.036838
#
#
# Mechanical properties :
#
#
# Convention : Reuss Voigt Hill
#
# Bulk Modulus (GPa) = 66.48407 91.28406 78.88406
# Shear Modulus (GPa) = 34.78152 41.10226 37.94189
#
# Velocity S-wave (km/s) = 3.68824 4.00938 3.85216
# Velocity P-wave (km/s) = 6.64375 7.55876 7.11598
#
# Compressibility (1/GPa) = 0.01504120
#
# Stress axis : x y z
#
# Youngs Moduli (GPa) = 59.10970 120.83076 94.67298
#
# Poissons Ratio (x) = 0.43937 0.24424
# Poissons Ratio (y) = 0.21494 0.39209
# Poissons Ratio (z) = 0.15249 0.50042
#
# Static dielectric constant tensor:
#      x y z
#    x 2.210050 0.000000 0.255130 
#    y 0.000000 2.022270 0.000000 
#    z 0.255130 0.000000 2.455400 
# 
# From -- ./inp_files/35145.got.cif
#   From: 2010.05.17/outbox.cif.g08.bks.cpg/sg5_18_cif.got.tgz:35145.got - 2010.06.03 18:56:24.
