data_PCOD9122726
_publ_section_title
;
Structure prediction by ZEFSAII (Michael W. Deem and Ramdas Pophale) SiO2 
 PCOD9122726
Probable space group: C 2
;
_chemical_formula_sum "Si O2"
_cell_formula_units_Z 26
_cell_length_a 14.748337
_cell_length_b 7.369641
_cell_length_c 11.788768
_cell_angle_alpha 90.000000
_cell_angle_beta 125.091423
_cell_angle_gamma 90.000000
_cell_volume 1048.422361
_symmetry_space_group_name_H-M "C 2"
_symmetry_group_IT_number 5
_symmetry_cell_setting 'monoclinic'
loop_
_space_group_symop_operation_xyz
x,y,z
-x,y,-z
1/2+x,1/2+y,z
1/2-x,1/2+y,-z
loop_
_atom_site_type_symbol
_atom_site_label
_atom_site_fract_x
_atom_site_fract_y
_atom_site_fract_z
Si Si1 0.000000 0.965040 0.500000
Si Si2 0.044859 0.186129 0.908825
Si Si3 0.401687 0.064441 0.025281
Si Si4 0.170791 0.385867 0.335658
Si Si5 0.493291 0.352734 0.743108
Si Si6 0.748806 0.998951 0.632947
Si Si7 0.284895 0.677437 0.261163
O O1 0.976699 0.850630 0.596468
O O2 0.098370 0.090905 0.619213
O O3 0.129012 0.350522 0.989391
O O4 0.947885 0.304687 0.779955
O O5 0.070077 0.016413 0.847930
O O6 0.000000 0.122453 0.000000
O O7 0.454945 0.170237 0.169656
O O8 0.500000 0.079224 0.000000
O O9 0.288512 0.157434 0.903507
O O10 0.182938 0.431893 0.475615
O O11 0.207317 0.562584 0.293763
O O12 0.247910 0.214386 0.358403
O O13 0.374330 0.422058 0.705487
O O14 0.704978 0.890761 0.708223
#
# Coordination Sequence:
#
# PCOD9122726 Si02
#       7
#     2   4   4   4   4   4   4
#     4  12  28  50  64  96 154 186 214 280 354 410
#     4  10  20  35  65 104 132 161 224 293 336 381
#     4  11  21  39  72 104 130 170 236 289 328 399
#     4  11  19  33  60  99 127 167 222 279 327 390
#     4  11  23  42  67  96 138 181 223 278 342 405
#     4  11  21  36  70  97 125 177 235 281 325 394
#     4  12  23  43  64  97 141 174 227 279 339 406
#
# _framework density 24.799164999999999
#
# number of rings (size 3 to 8) (size 9 to 14) (size 15 to 20)
#    0.000    0.923    7.692    1.385    2.154    0.000 
#    2.769    3.077    0.000    0.000    0.000    0.000 
#    0.000    0.000    0.000    0.000    0.000    0.000 
#
# Total GULP energy -72623.525152 kJ/mol
# GULP energy per Si atom -5586.425012 kJ/mol
# Density = 2.474272 g / cm^3
# Si number density = 24.799165 Si / 1000 Ang^3
#
#
#
# Elastic Constant Matrix: (Units=GPa)
#
#
# Indices 1 2 3 4 5 6 
#
# 1 35.6400 6.6693 24.2171 0.0000 5.3048 0.0000
# 2 6.6693 127.8438 24.1814 0.0000 -29.1391 0.0000
# 3 24.2171 24.1814 132.4673 0.0000 -5.3926 0.0000
# 4 0.0000 0.0000 0.0000 -44.7660 0.0000 23.7455
# 5 5.3048 -29.1391 -5.3926 0.0000 28.0223 0.0000
# 6 0.0000 0.0000 0.0000 23.7455 0.0000 -1.2622
#
#
#
# Elastic Compliance Matrix: (Units=1/GPa)
#
#
# Indices 1 2 3 4 5 6 
#
# 1 0.034475 -0.003130 -0.006178 0.000000 -0.010970 0.000000
# 2 -0.003130 0.010820 -0.000928 0.000000 0.011665 0.000000
# 3 -0.006178 -0.000928 0.008926 0.000000 0.001922 0.000000
# 4 0.000000 0.000000 0.000000 0.002488 0.000000 0.046803
# 5 -0.010970 0.011665 0.001922 0.000000 0.050262 0.000000
# 6 0.000000 0.000000 0.000000 0.046803 0.000000 0.088236
#
#
# Mechanical properties :
#
#
# Convention : Reuss Voigt Hill
#
# Bulk Modulus (GPa) = 29.63107 45.12075 37.37591
# Shear Modulus (GPa) = 22.03344 12.45770 17.24557
#
# Velocity S-wave (km/s) = 2.98396 2.24373 2.63992
# Velocity P-wave (km/s) = 4.88328 4.99464 4.93927
#
# Compressibility (1/GPa) = 0.03374836
#
# Stress axis : x y z
#
# Youngs Moduli (GPa) = 29.00683 92.42486 112.03168
#
# Poissons Ratio (x) = 0.28933 0.69209
# Poissons Ratio (y) = 0.09080 0.10396
# Poissons Ratio (z) = 0.17919 0.08576
#
# Static dielectric constant tensor:
#      x y z
#    x 2.194350 0.000000 -0.015300 
#    y 0.000000 1.975110 0.000000 
#    z -0.015300 0.000000 1.991010 
# 
# From -- ./inp_files/44229.got.cif
#   From: 2010.05.17/outbox.cif.g08.bks.cpg/sg5_23_cif.got.tgz:44229.got - 2010.06.03 18:56:24.
