data_PCOD9122025
_publ_section_title
;
Structure prediction by ZEFSAII (Michael W. Deem and Ramdas Pophale) SiO2 
 PCOD9122025
Probable space group: C 2
;
_chemical_formula_sum "Si O2"
_cell_formula_units_Z 24
_cell_length_a 16.113887
_cell_length_b 9.334048
_cell_length_c 16.351942
_cell_angle_alpha 90.000000
_cell_angle_beta 152.852109
_cell_angle_gamma 90.000000
_cell_volume 1122.223932
_symmetry_space_group_name_H-M "C 2"
_symmetry_group_IT_number 5
_symmetry_cell_setting 'monoclinic'
loop_
_space_group_symop_operation_xyz
x,y,z
-x,y,-z
1/2+x,1/2+y,z
1/2-x,1/2+y,-z
loop_
_atom_site_type_symbol
_atom_site_label
_atom_site_fract_x
_atom_site_fract_y
_atom_site_fract_z
Si Si1 0.075903 0.813050 0.191799
Si Si2 0.000000 0.581224 0.000000
Si Si3 0.752423 0.414146 0.911277
Si Si4 0.897897 0.687754 0.326403
Si Si5 0.531913 0.873947 0.429641
Si Si6 0.000000 0.064517 0.000000
Si Si7 0.315079 0.717226 0.100126
O O1 0.113503 0.689080 0.157327
O O2 0.257469 0.840915 0.400985
O O3 0.024775 0.957286 0.098257
O O4 0.898629 0.756456 0.082016
O O5 0.127751 0.487355 0.054425
O O6 0.600293 0.317855 0.734707
O O7 0.672397 0.546585 0.893087
O O8 0.875239 0.309688 0.075051
O O9 0.018439 0.538914 0.632774
O O10 0.684545 0.653920 0.154740
O O11 0.000000 0.721824 0.500000
O O12 0.500000 0.857618 0.500000
O O13 0.409173 0.774368 0.264900
#
# Coordination Sequence:
#
# PCOD9122025 Si02
#       7
#     4   2   4   4   4   2   4
#     4  10  19  37  67  98 126 167 216 269 326 395
#     4   9  21  42  70  96 128 174 226 268 328 400
#     4  11  24  44  64  96 134 180 218 279 333 391
#     4  11  22  36  63  99 128 171 224 274 319 400
#     4  11  19  37  66 100 127 173 220 270 328 403
#     4  11  17  36  64  98 128 162 218 264 328 382
#     4  11  24  42  65  93 138 173 218 276 341 387
#
# _framework density 21.386106000000002
#
# number of rings (size 3 to 8) (size 9 to 14) (size 15 to 20)
#    0.000    1.333    5.000    3.500    0.000    2.000 
#    0.000    8.333    0.000    0.000    0.000    0.000 
#    0.000    0.000    0.000    0.000    0.000    0.000 
#
# Total GULP energy -67071.771398 kJ/mol
# GULP energy per Si atom -5589.314283 kJ/mol
# Density = 2.133743 g / cm^3
# Si number density = 21.386106 Si / 1000 Ang^3
#
#
#
# Elastic Constant Matrix: (Units=GPa)
#
#
# Indices 1 2 3 4 5 6 
#
# 1 50.7252 21.2115 31.1647 0.0004 1.1692 0.0003
# 2 21.2115 146.4110 67.4063 0.0005 -15.3006 0.0002
# 3 31.1647 67.4063 130.1701 0.0004 11.6362 0.0002
# 4 0.0004 0.0005 0.0004 30.3417 0.0004 1.7477
# 5 1.1692 -15.3006 11.6362 0.0004 37.1483 0.0003
# 6 0.0003 0.0002 0.0002 1.7477 0.0003 15.4055
#
#
#
# Elastic Compliance Matrix: (Units=1/GPa)
#
#
# Indices 1 2 3 4 5 6 
#
# 1 0.023245 -0.000968 -0.005106 0.000000 0.000469 0.000000
# 2 -0.000968 0.010150 -0.005557 0.000000 0.005952 0.000000
# 3 -0.005106 -0.005557 0.012317 0.000000 -0.005986 0.000000
# 4 0.000000 0.000000 0.000000 0.033175 0.000000 -0.003764
# 5 0.000469 0.005952 -0.005986 0.000000 0.031231 0.000000
# 6 0.000000 0.000000 0.000000 -0.003764 0.000000 0.065339
#
#
# Mechanical properties :
#
#
# Convention : Reuss Voigt Hill
#
# Bulk Modulus (GPa) = 44.53972 62.98570 53.76271
# Shear Modulus (GPa) = 24.24812 30.41405 27.33109
#
# Velocity S-wave (km/s) = 3.37089 3.77522 3.57877
# Velocity P-wave (km/s) = 6.00185 6.96553 6.50157
#
# Compressibility (1/GPa) = 0.02245187
#
# Stress axis : x y z
#
# Youngs Moduli (GPa) = 43.02001 98.51741 81.18751
#
# Poissons Ratio (x) = 0.09536 0.41454
# Poissons Ratio (y) = 0.04164 0.45112
# Poissons Ratio (z) = 0.21966 0.54742
#
# Static dielectric constant tensor:
#      x y z
#    x 1.851030 0.000000 -0.024280 
#    y 0.000000 1.785450 0.000000 
#    z -0.024280 0.000000 1.741290 
# 
# From -- ./inp_files/55806.got.cif
#   From: 2010.05.17/outbox.cif.g08.bks.cpg/sg5_28_cif.got.tgz:55806.got - 2010.06.03 18:56:24.
