data_PCOD9122168
_publ_section_title
;
Structure prediction by ZEFSAII (Michael W. Deem and Ramdas Pophale) SiO2 
 PCOD9122168
Probable space group: C 2
;
_chemical_formula_sum "Si O2"
_cell_formula_units_Z 32
_cell_length_a 10.739399
_cell_length_b 12.098651
_cell_length_c 12.205969
_cell_angle_alpha 90.000000
_cell_angle_beta 102.136795
_cell_angle_gamma 90.000000
_cell_volume 1550.500434
_symmetry_space_group_name_H-M "C 2"
_symmetry_group_IT_number 5
_symmetry_cell_setting 'monoclinic'
loop_
_space_group_symop_operation_xyz
x,y,z
-x,y,-z
1/2+x,1/2+y,z
1/2-x,1/2+y,-z
loop_
_atom_site_type_symbol
_atom_site_label
_atom_site_fract_x
_atom_site_fract_y
_atom_site_fract_z
Si Si1 0.467370 0.295390 0.621736
Si Si2 0.632491 0.654315 0.331811
Si Si3 0.403410 0.511057 0.258763
Si Si4 0.794791 0.160997 0.413288
Si Si5 0.493679 0.851251 0.381657
Si Si6 0.558395 0.951625 0.855725
Si Si7 0.833632 0.667111 0.193232
Si Si8 0.208092 0.384106 0.079610
O O1 0.500000 0.294279 0.500000
O O2 0.502436 0.417679 0.673146
O O3 0.331550 0.235198 0.608973
O O4 0.561240 0.222407 0.711403
O O5 0.500404 0.611228 0.256418
O O6 0.669449 0.613701 0.460264
O O7 0.617615 0.786658 0.354934
O O8 0.735664 0.618375 0.263249
O O9 0.304000 0.559643 0.330066
O O10 0.322223 0.462940 0.143417
O O11 0.902208 0.249435 0.397960
O O12 0.500000 0.913645 0.500000
O O13 0.441986 0.921568 0.272178
O O14 0.597470 0.079511 0.871123
O O15 0.420935 0.920174 0.880066
O O16 0.666998 0.890527 0.945810
O O17 0.754600 0.761681 0.116960
#
# Coordination Sequence:
#
# PCOD9122168 Si02
#       8
#     4   4   4   4   4   4   4   4
#     4  11  21  36  58  90 130 172 204 264 322 381
#     4  10  19  39  60  93 131 167 214 265 320 396
#     4  10  22  38  62  88 127 172 214 260 330 377
#     4  10  20  37  60  94 131 170 209 267 324 391
#     4   9  20  37  63  95 131 165 210 265 330 389
#     4  11  23  43  68  94 123 179 215 267 333 382
#     4  11  23  39  64  93 126 165 224 260 319 401
#     4  10  24  46  64  90 130 168 222 273 321 387
#
# _framework density 20.638497000000001
#
# number of rings (size 3 to 8) (size 9 to 14) (size 15 to 20)
#    0.000    1.750    2.500    2.625    1.750    2.500 
#    2.250    0.000    0.000    0.000    0.000    0.000 
#    0.000    0.000    0.000    0.000    0.000    0.000 
#
# Total GULP energy -89170.877382 kJ/mol
# GULP energy per Si atom -5573.179836 kJ/mol
# Density = 2.059152 g / cm^3
# Si number density = 20.638497 Si / 1000 Ang^3
#
#
#
# Elastic Constant Matrix: (Units=GPa)
#
#
# Indices 1 2 3 4 5 6 
#
# 1 63.2626 23.0893 18.0996 0.0000 17.2496 0.0000
# 2 23.0893 43.8889 21.3759 0.0000 8.5868 0.0000
# 3 18.0996 21.3759 101.7878 0.0000 15.3125 0.0000
# 4 0.0000 0.0000 0.0000 16.8272 0.0000 12.7308
# 5 17.2496 8.5868 15.3125 0.0000 23.2013 0.0000
# 6 0.0000 0.0000 0.0000 12.7308 0.0000 26.3332
#
#
#
# Elastic Compliance Matrix: (Units=1/GPa)
#
#
# Indices 1 2 3 4 5 6 
#
# 1 0.022945 -0.009387 -0.000072 0.000000 -0.013537 0.000000
# 2 -0.009387 0.030143 -0.004477 0.000000 -0.001222 0.000000
# 3 -0.000072 -0.004477 0.011680 0.000000 -0.005998 0.000000
# 4 0.000000 0.000000 0.000000 0.093699 0.000000 -0.045299
# 5 -0.013537 -0.001222 -0.005998 0.000000 0.057576 0.000000
# 6 0.000000 0.000000 0.000000 -0.045299 0.000000 0.059875
#
#
# Mechanical properties :
#
#
# Convention : Reuss Voigt Hill
#
# Bulk Modulus (GPa) = 27.10438 37.11877 32.11157
# Shear Modulus (GPa) = 15.81832 23.03064 19.42448
#
# Velocity S-wave (km/s) = 2.77148 3.34414 3.07119
# Velocity P-wave (km/s) = 4.83766 5.73893 5.30746
#
# Compressibility (1/GPa) = 0.03689441
#
# Stress axis : x y z
#
# Youngs Moduli (GPa) = 43.58229 33.17517 85.61869
#
# Poissons Ratio (x) = 0.31143 0.00618
# Poissons Ratio (y) = 0.40913 0.38333
# Poissons Ratio (z) = 0.00314 0.14853
#
# Static dielectric constant tensor:
#      x y z
#    x 1.574780 0.000000 0.074990 
#    y 0.000000 1.857570 0.000000 
#    z 0.074990 0.000000 1.715380 
# 
# From -- ./inp_files/39410.got.cif
#   From: 2010.05.17/outbox.cif.g08.bks.cpg/sg5_20_cif.got.tgz:39410.got - 2010.06.03 18:56:24.
