data_PCOD9122371
_publ_section_title
;
Structure prediction by ZEFSAII (Michael W. Deem and Ramdas Pophale) SiO2 
 PCOD9122371
Probable space group: C 2
;
_chemical_formula_sum "Si O2"
_cell_formula_units_Z 28
_cell_length_a 12.354502
_cell_length_b 12.837388
_cell_length_c 8.373676
_cell_angle_alpha 90.000000
_cell_angle_beta 116.006823
_cell_angle_gamma 90.000000
_cell_volume 1193.584096
_symmetry_space_group_name_H-M "C 2"
_symmetry_group_IT_number 5
_symmetry_cell_setting 'monoclinic'
loop_
_space_group_symop_operation_xyz
x,y,z
-x,y,-z
1/2+x,1/2+y,z
1/2-x,1/2+y,-z
loop_
_atom_site_type_symbol
_atom_site_label
_atom_site_fract_x
_atom_site_fract_y
_atom_site_fract_z
Si Si1 0.500000 0.586470 0.500000
Si Si2 0.271528 0.260911 0.929940
Si Si3 0.085932 0.926831 0.779940
Si Si4 0.888985 0.755127 0.654139
Si Si5 0.432997 0.079886 0.123510
Si Si6 0.500000 0.579826 0.000000
Si Si7 0.644855 0.716032 0.323844
Si Si8 0.533324 0.865408 0.706442
O O1 0.598116 0.509211 0.645082
O O2 0.575396 0.656137 0.424124
O O3 0.336770 0.276468 0.799461
O O4 0.132309 0.277845 0.807509
O O5 0.315944 0.345547 0.089500
O O6 0.314962 0.147800 0.012837
O O7 0.970521 0.854162 0.666878
O O8 0.053331 0.003144 0.903311
O O9 0.782582 0.730021 0.462413
O O10 0.976747 0.656331 0.723926
O O11 0.413332 0.974233 0.203475
O O12 0.500000 0.057177 0.000000
O O13 0.395441 0.651312 0.855831
O O14 0.585832 0.830471 0.277297
O O15 0.500000 0.871405 0.500000
#
# Coordination Sequence:
#
# PCOD9122371 Si02
#       8
#     2   4   4   4   4   2   4   4
#     4  10  22  40  62  92 132 166 210 260 332 370
#     4  10  20  42  66  92 126 173 209 265 319 391
#     4  10  20  40  67  94 119 168 218 261 313 384
#     4  10  19  42  68  92 126 166 217 261 315 380
#     4   9  23  42  67  92 125 171 216 260 316 384
#     4  10  22  38  64  90 122 162 222 256 308 376
#     4  11  23  40  61  94 130 169 208 270 315 385
#     4  12  24  41  63  95 135 164 208 265 334 370
#
# _framework density 23.458760000000002
#
# number of rings (size 3 to 8) (size 9 to 14) (size 15 to 20)
#    0.000    1.714    3.571    0.857    1.000    8.000 
#    7.714    0.000    0.000    0.000    0.000    0.000 
#    0.000    0.000    0.000    0.000    0.000    0.000 
#
# Total GULP energy -78360.960328 kJ/mol
# GULP energy per Si atom -5597.211452 kJ/mol
# Density = 2.340537 g / cm^3
# Si number density = 23.458760 Si / 1000 Ang^3
#
#
#
# Elastic Constant Matrix: (Units=GPa)
#
#
# Indices 1 2 3 4 5 6 
#
# 1 57.1835 20.9012 43.9575 0.0000 26.0051 0.0000
# 2 20.9012 115.0914 72.7128 0.0000 16.9388 0.0000
# 3 43.9575 72.7128 143.2752 0.0000 34.8420 0.0000
# 4 0.0000 0.0000 0.0000 -58.5474 0.0000 -14.4437
# 5 26.0051 16.9388 34.8420 0.0000 40.5136 0.0000
# 6 0.0000 0.0000 0.0000 -14.4437 0.0000 7.6100
#
#
#
# Elastic Compliance Matrix: (Units=1/GPa)
#
#
# Indices 1 2 3 4 5 6 
#
# 1 0.027501 0.000370 -0.005431 0.000000 -0.013137 0.000000
# 2 0.000370 0.012797 -0.006637 0.000000 0.000120 0.000000
# 3 -0.005431 -0.006637 0.013266 0.000000 -0.005148 0.000000
# 4 0.000000 0.000000 0.000000 -0.011633 0.000000 -0.022079
# 5 -0.013137 0.000120 -0.005148 0.000000 0.037493 0.000000
# 6 0.000000 0.000000 0.000000 -0.022079 0.000000 0.089499
#
#
# Mechanical properties :
#
#
# Convention : Reuss Voigt Hill
#
# Bulk Modulus (GPa) = 33.14707 65.63255 49.38981
# Shear Modulus (GPa) = 24.70661 9.78049 17.24355
#
# Velocity S-wave (km/s) = 3.24881 2.04408 2.71414
# Velocity P-wave (km/s) = 5.31354 5.79738 5.56072
#
# Compressibility (1/GPa) = 0.03016858
#
# Stress axis : x y z
#
# Youngs Moduli (GPa) = 36.36221 78.14164 75.37990
#
# Poissons Ratio (x) = -0.02892 0.40936
# Poissons Ratio (y) = -0.01346 0.50033
# Poissons Ratio (z) = 0.19747 0.51866
#
# Static dielectric constant tensor:
#      x y z
#    x 1.881180 0.000000 -0.029020 
#    y 0.000000 1.843220 0.000000 
#    z -0.029020 0.000000 1.906550 
# 
# From -- ./inp_files/23740.got.cif
#   From: 2010.05.17/outbox.cif.g08.bks.cpg/sg5_12_cif.got.tgz:23740.got - 2010.06.03 18:56:24.
