data_PCOD9122608
_publ_section_title
;
Structure prediction by ZEFSAII (Michael W. Deem and Ramdas Pophale) SiO2 
 PCOD9122608
Probable space group: C 2
;
_chemical_formula_sum "Si O2"
_cell_formula_units_Z 28
_cell_length_a 14.511773
_cell_length_b 5.338981
_cell_length_c 17.769074
_cell_angle_alpha 90.000000
_cell_angle_beta 115.162972
_cell_angle_gamma 90.000000
_cell_volume 1246.066400
_symmetry_space_group_name_H-M "C 2"
_symmetry_group_IT_number 5
_symmetry_cell_setting 'monoclinic'
loop_
_space_group_symop_operation_xyz
x,y,z
-x,y,-z
1/2+x,1/2+y,z
1/2-x,1/2+y,-z
loop_
_atom_site_type_symbol
_atom_site_label
_atom_site_fract_x
_atom_site_fract_y
_atom_site_fract_z
Si Si1 0.358361 0.333820 0.366875
Si Si2 0.219199 0.230718 0.031821
Si Si3 0.000000 0.432438 0.000000
Si Si4 0.760711 0.095363 0.799017
Si Si5 0.169918 0.465011 0.516500
Si Si6 0.174080 0.655073 0.354582
Si Si7 0.388503 0.097115 0.819669
Si Si8 0.000000 0.072800 0.500000
O O1 0.328075 0.137246 0.292961
O O2 0.267834 0.533952 0.339762
O O3 0.469338 0.451279 0.408134
O O4 0.364011 0.210238 0.451487
O O5 0.273445 0.159468 0.128972
O O6 0.261376 0.494419 0.015479
O O7 0.099692 0.273396 0.010412
O O8 0.970763 0.594045 0.915609
O O9 0.844142 0.312414 0.808712
O O10 0.809996 0.820942 0.813660
O O11 0.161340 0.491130 0.424700
O O12 0.280294 0.405553 0.591621
O O13 0.095240 0.248189 0.515363
O O14 0.088127 0.658594 0.260412
#
# Coordination Sequence:
#
# PCOD9122608 Si02
#       8
#     4   4   2   4   4   4   4   2
#     4  10  20  38  58  87 123 174 209 265 332 399
#     4  11  24  44  71 104 138 181 231 284 352 415
#     4  10  24  46  72 102 146 182 228 298 344 412
#     4  10  21  40  68  93 131 173 222 268 336 418
#     4  11  19  37  59  85 126 163 215 273 321 390
#     4  10  20  34  63  91 119 167 222 270 323 393
#     4  10  21  39  66 100 128 175 221 273 344 402
#     4  10  24  36  54  86 128 168 214 262 342 382
#
# _framework density 22.470711000000001
#
# number of rings (size 3 to 8) (size 9 to 14) (size 15 to 20)
#    0.000    1.714    2.857    2.143    0.000    5.143 
#    2.571    1.429    0.000    0.000    0.000    0.000 
#    0.000    0.000    0.000    0.000    0.000    0.000 
#
# Total GULP energy -77959.885066 kJ/mol
# GULP energy per Si atom -5568.563219 kJ/mol
# Density = 2.241957 g / cm^3
# Si number density = 22.470711 Si / 1000 Ang^3
#
#
#
# Elastic Constant Matrix: (Units=GPa)
#
#
# Indices 1 2 3 4 5 6 
#
# 1 41.0224 12.8906 23.0450 0.0000 -4.2241 0.0000
# 2 12.8906 72.8318 20.9950 0.0000 1.4898 0.0000
# 3 23.0450 20.9950 188.9089 0.0000 -14.3060 0.0000
# 4 0.0000 0.0000 0.0000 17.8093 0.0000 4.2670
# 5 -4.2241 1.4898 -14.3060 0.0000 29.7095 0.0000
# 6 0.0000 0.0000 0.0000 4.2670 0.0000 -6.2911
#
#
#
# Elastic Compliance Matrix: (Units=1/GPa)
#
#
# Indices 1 2 3 4 5 6 
#
# 1 0.027475 -0.004149 -0.002677 0.000000 0.002826 0.000000
# 2 -0.004149 0.014878 -0.001296 0.000000 -0.001960 0.000000
# 3 -0.002677 -0.001296 0.005957 0.000000 0.002553 0.000000
# 4 0.000000 0.000000 0.000000 0.048301 0.000000 0.032761
# 5 0.002826 -0.001960 0.002553 0.000000 0.035389 0.000000
# 6 0.000000 0.000000 0.000000 0.032761 0.000000 -0.136735
#
#
# Mechanical properties :
#
#
# Convention : Reuss Voigt Hill
#
# Bulk Modulus (GPa) = 31.18381 46.29159 38.73770
# Shear Modulus (GPa) = 225.24228 24.63440 124.93834
#
# Velocity S-wave (km/s) = 10.02276 3.31462 7.46467
# Velocity P-wave (km/s) = 12.15930 5.94092 9.56931
#
# Compressibility (1/GPa) = 0.03206792
#
# Stress axis : x y z
#
# Youngs Moduli (GPa) = 36.39631 67.21215 167.85753
#
# Poissons Ratio (x) = 0.27887 0.44929
# Poissons Ratio (y) = 0.15101 0.21751
# Poissons Ratio (z) = 0.09742 0.08709
#
# Static dielectric constant tensor:
#      x y z
#    x 1.967400 0.000000 0.071430 
#    y 0.000000 1.964770 0.000000 
#    z 0.071430 0.000000 1.957510 
# 
# From -- ./inp_files/61120.got.cif
#   From: 2010.05.17/outbox.cif.g08.bks.cpg/sg5_31_cif.got.tgz:61120.got - 2010.06.03 18:56:24.
