data_PCOD9122211
_publ_section_title
;
Structure prediction by ZEFSAII (Michael W. Deem and Ramdas Pophale) SiO2 
 PCOD9122211
Probable space group: C 2
;
_chemical_formula_sum "Si O2"
_cell_formula_units_Z 22
_cell_length_a 18.961837
_cell_length_b 7.766815
_cell_length_c 7.545342
_cell_angle_alpha 90.000000
_cell_angle_beta 61.495670
_cell_angle_gamma 90.000000
_cell_volume 976.524137
_symmetry_space_group_name_H-M "C 2"
_symmetry_group_IT_number 5
_symmetry_cell_setting 'monoclinic'
loop_
_space_group_symop_operation_xyz
x,y,z
-x,y,-z
1/2+x,1/2+y,z
1/2-x,1/2+y,-z
loop_
_atom_site_type_symbol
_atom_site_label
_atom_site_fract_x
_atom_site_fract_y
_atom_site_fract_z
Si Si1 0.413577 0.046250 0.016948
Si Si2 0.181215 0.219892 0.957167
Si Si3 0.500000 0.637999 0.500000
Si Si4 0.561059 0.424875 0.091656
Si Si5 0.265694 0.949395 0.406157
Si Si6 0.173611 0.234062 0.361085
O O1 0.417666 0.224777 0.907009
O O2 0.385445 0.873887 0.951214
O O3 0.500000 0.016076 0.000000
O O4 0.343709 0.059661 0.249439
O O5 0.212432 0.206466 0.120386
O O6 0.138134 0.043194 0.960206
O O7 0.236334 0.291408 0.733636
O O8 0.523718 0.515575 0.308086
O O9 0.578137 0.748575 0.456914
O O10 0.500000 0.432464 0.000000
O O11 0.284994 0.882545 0.576599
O O12 0.189159 0.063376 0.458653
#
# Coordination Sequence:
#
# PCOD9122211 Si02
#       6
#     4   4   2   4   4   4
#     4   9  21  41  65 101 127 172 220 261 332 383
#     4   9  22  42  65  91 129 172 217 262 322 386
#     4  10  24  40  70 100 124 178 222 260 332 382
#     4  10  19  39  65  96 134 166 213 272 320 382
#     4  10  25  41  63  99 133 170 216 269 332 382
#     4  11  24  44  67  97 131 176 216 270 330 384
#
# _framework density 22.528887000000001
#
# number of rings (size 3 to 8) (size 9 to 14) (size 15 to 20)
#    1.091    1.091    0.000    1.636    5.091    8.727 
#   13.091    0.000    0.000    0.000    0.000    0.000 
#    0.000    0.000    0.000    0.000    0.000    0.000 
#
# Total GULP energy -61406.079155 kJ/mol
# GULP energy per Si atom -5582.370832 kJ/mol
# Density = 2.247761 g / cm^3
# Si number density = 22.528887 Si / 1000 Ang^3
#
#
#
# Elastic Constant Matrix: (Units=GPa)
#
#
# Indices 1 2 3 4 5 6 
#
# 1 106.0171 27.7895 27.7587 0.0000 13.7736 0.0000
# 2 27.7895 92.5666 0.9518 0.0000 13.4326 0.0000
# 3 27.7587 0.9518 60.4776 0.0000 10.5477 0.0000
# 4 0.0000 0.0000 0.0000 20.5497 0.0000 -19.6760
# 5 13.7736 13.4326 10.5477 0.0000 30.8173 0.0000
# 6 0.0000 0.0000 0.0000 -19.6760 0.0000 2.4676
#
#
#
# Elastic Compliance Matrix: (Units=1/GPa)
#
#
# Indices 1 2 3 4 5 6 
#
# 1 0.011867 -0.003192 -0.005014 0.000000 -0.002197 0.000000
# 2 -0.003192 0.012422 0.002090 0.000000 -0.004703 0.000000
# 3 -0.005014 0.002090 0.019750 0.000000 -0.005430 0.000000
# 4 0.000000 0.000000 0.000000 -0.007335 0.000000 -0.058484
# 5 -0.002197 -0.004703 -0.005430 0.000000 0.037340 0.000000
# 6 0.000000 0.000000 0.000000 -0.058484 0.000000 -0.061081
#
#
# Mechanical properties :
#
#
# Convention : Reuss Voigt Hill
#
# Bulk Modulus (GPa) = 31.43846 41.34014 36.38930
# Shear Modulus (GPa) = 139.66823 24.27101 81.96962
#
# Velocity S-wave (km/s) = 7.88224 3.28583 6.03848
# Velocity P-wave (km/s) = 9.83995 5.72584 8.05015
#
# Compressibility (1/GPa) = 0.03180817
#
# Stress axis : x y z
#
# Youngs Moduli (GPa) = 84.26471 80.49947 50.63174
#
# Poissons Ratio (x) = 0.25699 0.25385
# Poissons Ratio (y) = 0.26901 -0.10582
# Poissons Ratio (z) = 0.42248 -0.16825
#
# Static dielectric constant tensor:
#      x y z
#    x 1.821830 0.000000 -0.015310 
#    y 0.000000 1.839830 0.000000 
#    z -0.015310 0.000000 1.901470 
# 
# From -- ./inp_files/28519.got.cif
#   From: 2010.05.17/outbox.cif.g08.bks.cpg/sg5_15_cif.got.tgz:28519.got - 2010.06.03 18:56:24.
