data_PCOD9122251
_publ_section_title
;
Structure prediction by ZEFSAII (Michael W. Deem and Ramdas Pophale) SiO2 
 PCOD9122251
Probable space group: C 2
;
_chemical_formula_sum "Si O2"
_cell_formula_units_Z 30
_cell_length_a 10.909322
_cell_length_b 7.705283
_cell_length_c 28.162232
_cell_angle_alpha 90.000000
_cell_angle_beta 149.260957
_cell_angle_gamma 90.000000
_cell_volume 1209.995395
_symmetry_space_group_name_H-M "C 2"
_symmetry_group_IT_number 5
_symmetry_cell_setting 'monoclinic'
loop_
_space_group_symop_operation_xyz
x,y,z
-x,y,-z
1/2+x,1/2+y,z
1/2-x,1/2+y,-z
loop_
_atom_site_type_symbol
_atom_site_label
_atom_site_fract_x
_atom_site_fract_y
_atom_site_fract_z
Si Si1 0.729461 0.079440 0.843864
Si Si2 0.500000 0.281229 0.500000
Si Si3 0.423269 0.672263 0.385076
Si Si4 0.957783 0.764694 0.584066
Si Si5 0.834398 0.989353 0.069681
Si Si6 0.732336 0.988857 0.139225
Si Si7 0.080910 0.546162 0.344387
Si Si8 0.109896 0.655290 0.192526
O O1 0.697249 0.287413 0.832958
O O2 0.597983 0.986037 0.756008
O O3 0.578037 0.030823 0.840666
O O4 0.006835 0.056959 0.921738
O O5 0.537685 0.180974 0.560791
O O6 0.267570 0.405574 0.426305
O O7 0.670857 0.752088 0.484690
O O8 0.463509 0.464404 0.389547
O O9 0.245864 0.681693 0.370312
O O10 0.292628 0.730759 0.293367
O O11 0.046383 0.650872 0.656723
O O12 0.847711 0.064659 0.128733
O O13 0.937609 0.797485 0.111965
O O14 0.555249 0.993734 0.964544
O O15 0.763801 0.073382 0.201209
#
# Coordination Sequence:
#
# PCOD9122251 Si02
#       8
#     4   2   4   4   4   4   4   4
#     4  10  22  38  64  89 115 165 198 241 299 358
#     4  10  22  36  54  84 116 154 190 254 286 336
#     4  10  22  37  62  84 117 157 197 247 293 342
#     4  11  19  39  56  81 116 158 192 241 293 341
#     4  10  22  38  62  87 120 160 194 244 304 359
#     4  10  21  41  58  88 126 151 196 251 298 354
#     4  10  19  40  60  80 120 154 195 241 293 339
#     4  10  22  40  60  91 121 152 202 250 292 354
#
# _framework density 24.793483999999999
#
# number of rings (size 3 to 8) (size 9 to 14) (size 15 to 20)
#    0.000    1.867    2.667    1.600    1.867    2.667 
#    4.800    0.000    0.000    0.000    0.000    0.000 
#    0.000    0.000    0.000    0.000    0.000    0.000 
#
# Total GULP energy -83712.256716 kJ/mol
# GULP energy per Si atom -5580.817114 kJ/mol
# Density = 2.473705 g / cm^3
# Si number density = 24.793484 Si / 1000 Ang^3
#
#
#
# Elastic Constant Matrix: (Units=GPa)
#
#
# Indices 1 2 3 4 5 6 
#
# 1 92.3638 20.9227 9.0087 0.0000 -13.8057 0.0000
# 2 20.9227 36.7851 0.3654 0.0000 -5.1370 0.0000
# 3 9.0087 0.3654 73.7730 0.0000 5.9193 0.0000
# 4 0.0000 0.0000 0.0000 30.7346 0.0000 0.4346
# 5 -13.8057 -5.1370 5.9193 0.0000 46.9703 0.0000
# 6 0.0000 0.0000 0.0000 0.4346 0.0000 26.0812
#
#
#
# Elastic Compliance Matrix: (Units=1/GPa)
#
#
# Indices 1 2 3 4 5 6 
#
# 1 0.013076 -0.006957 -0.001828 0.000000 0.003313 0.000000
# 2 -0.006957 0.031318 0.000590 0.000000 0.001306 0.000000
# 3 -0.001828 0.000590 0.013954 0.000000 -0.002231 0.000000
# 4 0.000000 0.000000 0.000000 0.032544 0.000000 -0.000542
# 5 0.003313 0.001306 -0.002231 0.000000 0.022688 0.000000
# 6 0.000000 0.000000 0.000000 -0.000542 0.000000 0.038351
#
#
# Mechanical properties :
#
#
# Convention : Reuss Voigt Hill
#
# Bulk Modulus (GPa) = 23.83311 29.27950 26.55630
# Shear Modulus (GPa) = 27.42606 32.26556 29.84581
#
# Velocity S-wave (km/s) = 3.32954 3.61137 3.47331
# Velocity P-wave (km/s) = 4.94111 5.40595 5.17875
#
# Compressibility (1/GPa) = 0.04195843
#
# Stress axis : x y z
#
# Youngs Moduli (GPa) = 76.47540 31.93024 71.66166
#
# Poissons Ratio (x) = 0.22213 0.13101
# Poissons Ratio (y) = 0.53201 -0.04225
# Poissons Ratio (z) = 0.13981 -0.01882
#
# Static dielectric constant tensor:
#      x y z
#    x 2.107080 0.000000 0.015610 
#    y 0.000000 1.971100 0.000000 
#    z 0.015610 0.000000 1.977460 
# 
# From -- ./inp_files/71713.got.cif
#   From: 2010.05.17/outbox.cif.g08.bks.cpg/sg5_36_cif.got.tgz:71713.got - 2010.06.03 18:56:24.
