data_PCOD9122006
_publ_section_title
;
Structure prediction by ZEFSAII (Michael W. Deem and Ramdas Pophale) SiO2 
 PCOD9122006
Probable space group: C 2
;
_chemical_formula_sum "Si O2"
_cell_formula_units_Z 32
_cell_length_a 14.797563
_cell_length_b 11.385329
_cell_length_c 14.342724
_cell_angle_alpha 90.000000
_cell_angle_beta 142.225418
_cell_angle_gamma 90.000000
_cell_volume 1480.176644
_symmetry_space_group_name_H-M "C 2"
_symmetry_group_IT_number 5
_symmetry_cell_setting 'monoclinic'
loop_
_space_group_symop_operation_xyz
x,y,z
-x,y,-z
1/2+x,1/2+y,z
1/2-x,1/2+y,-z
loop_
_atom_site_type_symbol
_atom_site_label
_atom_site_fract_x
_atom_site_fract_y
_atom_site_fract_z
Si Si1 0.030169 0.860920 0.766872
Si Si2 0.040250 0.670671 0.140325
Si Si3 0.008304 0.651041 0.396002
Si Si4 0.701854 0.533060 0.372090
Si Si5 0.152675 0.180869 0.680590
Si Si6 0.715191 0.949029 0.759347
Si Si7 0.256155 0.567375 0.054164
Si Si8 0.067067 0.123033 0.965740
O O1 0.989404 0.786919 0.825098
O O2 0.048672 0.767142 0.700553
O O3 0.173392 0.939678 0.904071
O O4 0.887577 0.945536 0.634313
O O5 0.213164 0.643642 0.278473
O O6 0.000000 0.692073 0.000000
O O7 0.919714 0.577183 0.078396
O O8 0.170989 0.619799 0.490112
O O9 0.000000 0.672817 0.500000
O O10 0.911851 0.533646 0.304539
O O11 0.777684 0.465334 0.346988
O O12 0.572098 0.602119 0.213826
O O13 0.184726 0.312620 0.744879
O O14 0.168473 0.104669 0.786880
O O15 0.000000 0.175826 0.500000
O O16 0.859437 0.008786 0.922993
O O17 0.309374 0.650719 0.011865
O O18 0.000000 0.193716 0.000000
#
# Coordination Sequence:
#
# PCOD9122006 Si02
#       8
#     4   4   4   4   4   4   4   4
#     4  11  22  40  65  95 136 174 224 289 347 405
#     4  10  23  41  69  99 128 182 232 292 343 403
#     4  10  22  40  62  92 130 178 219 270 341 411
#     4   9  19  35  61  94 121 168 227 270 325 402
#     4  11  23  40  69 102 140 181 233 290 349 413
#     4  10  19  37  65  94 125 168 225 285 330 392
#     4  10  24  38  63 103 131 183 233 278 354 418
#     4   9  19  35  62  91 131 166 217 282 333 384
#
# _framework density 21.619040999999999
#
# number of rings (size 3 to 8) (size 9 to 14) (size 15 to 20)
#    0.000    2.000    1.250    1.875    7.000    2.500 
#    0.000    1.250    0.000   40.500    0.000    0.000 
#    0.000    0.000    0.000    0.000    0.000    0.000 
#
# Total GULP energy -89175.188719 kJ/mol
# GULP energy per Si atom -5573.449295 kJ/mol
# Density = 2.156984 g / cm^3
# Si number density = 21.619041 Si / 1000 Ang^3
#
#
#
# Elastic Constant Matrix: (Units=GPa)
#
#
# Indices 1 2 3 4 5 6 
#
# 1 136.4802 28.3402 42.0953 0.0000 14.5790 0.0000
# 2 28.3402 41.8517 14.0129 0.0000 11.7003 0.0000
# 3 42.0953 14.0129 95.5199 0.0000 42.2860 0.0000
# 4 0.0000 0.0000 0.0000 24.4107 0.0000 -0.3781
# 5 14.5790 11.7003 42.2860 0.0000 37.5119 0.0000
# 6 0.0000 0.0000 0.0000 -0.3781 0.0000 36.9091
#
#
#
# Elastic Compliance Matrix: (Units=1/GPa)
#
#
# Indices 1 2 3 4 5 6 
#
# 1 0.009730 -0.005950 -0.005115 0.000000 0.003841 0.000000
# 2 -0.005950 0.029824 0.002677 0.000000 -0.010008 0.000000
# 3 -0.005115 0.002677 0.023595 0.000000 -0.025444 0.000000
# 4 0.000000 0.000000 0.000000 0.040972 0.000000 0.000420
# 5 0.003841 -0.010008 -0.025444 0.000000 0.056970 0.000000
# 6 0.000000 0.000000 0.000000 0.000420 0.000000 0.027098
#
#
# Mechanical properties :
#
#
# Convention : Reuss Voigt Hill
#
# Bulk Modulus (GPa) = 21.56413 49.19431 35.37922
# Shear Modulus (GPa) = 22.68372 32.39323 27.53848
#
# Velocity S-wave (km/s) = 3.24272 3.87507 3.57291
# Velocity P-wave (km/s) = 4.90067 6.54416 5.78112
#
# Compressibility (1/GPa) = 0.04637331
#
# Stress axis : x y z
#
# Youngs Moduli (GPa) = 102.77456 33.52972 42.38248
#
# Poissons Ratio (x) = 0.19949 0.21680
# Poissons Ratio (y) = 0.61148 -0.11347
# Poissons Ratio (z) = 0.52573 -0.08977
#
# Static dielectric constant tensor:
#      x y z
#    x 1.872100 0.000000 0.033540 
#    y 0.000000 1.793540 0.000000 
#    z 0.033540 0.000000 1.828390 
# 
# From -- ./inp_files/54591.got.cif
#   From: 2010.05.17/outbox.cif.g08.bks.cpg/sg5_28_cif.got.tgz:54591.got - 2010.06.03 18:56:24.
