data_PCOD9122625
_publ_section_title
;
Structure prediction by ZEFSAII (Michael W. Deem and Ramdas Pophale) SiO2 
 PCOD9122625
Probable space group: C 2
;
_chemical_formula_sum "Si O2"
_cell_formula_units_Z 28
_cell_length_a 14.871572
_cell_length_b 8.856488
_cell_length_c 12.773627
_cell_angle_alpha 90.000000
_cell_angle_beta 65.803426
_cell_angle_gamma 90.000000
_cell_volume 1534.604087
_symmetry_space_group_name_H-M "C 2"
_symmetry_group_IT_number 5
_symmetry_cell_setting 'monoclinic'
loop_
_space_group_symop_operation_xyz
x,y,z
-x,y,-z
1/2+x,1/2+y,z
1/2-x,1/2+y,-z
loop_
_atom_site_type_symbol
_atom_site_label
_atom_site_fract_x
_atom_site_fract_y
_atom_site_fract_z
Si Si1 0.885309 0.332320 0.549174
Si Si2 0.099168 0.467400 0.890907
Si Si3 0.387683 0.628325 0.739980
Si Si4 0.687865 0.275187 0.909672
Si Si5 0.754276 0.049309 0.253430
Si Si6 0.901172 0.266368 0.305911
Si Si7 0.693024 0.321812 0.149006
O O1 0.876373 0.181000 0.624603
O O2 0.816763 0.453773 0.637991
O O3 0.861457 0.308134 0.439497
O O4 0.000000 0.378788 0.500000
O O5 0.120268 0.645447 0.891544
O O6 0.091819 0.408497 0.775728
O O7 0.194422 0.384750 0.896272
O O8 0.000000 0.427940 0.000000
O O9 0.299441 0.710813 0.844732
O O10 0.491876 0.691407 0.728828
O O11 0.372849 0.451069 0.765533
O O12 0.687284 0.431486 0.847527
O O13 0.664894 0.299629 0.042015
O O14 0.829094 0.148611 0.284791
O O15 0.692830 0.163778 0.209796
#
# Coordination Sequence:
#
# PCOD9122625 Si02
#       7
#     4   4   4   4   4   4   4
#     4   9  20  39  57  74 105 146 181 217 271 331
#     4  10  21  35  54  81 111 146 183 222 271 323
#     4   9  19  37  57  76 105 147 184 217 270 333
#     4  10  20  35  54  79 112 146 179 217 268 331
#     4  10  21  35  55  84 109 138 182 229 273 319
#     4  10  21  37  57  80 109 143 180 230 276 314
#     4  10  20  36  57  80 110 146 181 224 274 327
#
# _framework density 18.245749
#
# number of rings (size 3 to 8) (size 9 to 14) (size 15 to 20)
#    0.000    2.286    0.000    2.571    0.000    9.143 
#    0.000    4.286    0.000    0.000    0.000    0.000 
#    0.000    0.000    0.000    0.000    0.000    0.000 
#
# Total GULP energy -78133.024100 kJ/mol
# GULP energy per Si atom -5580.930293 kJ/mol
# Density = 1.820422 g / cm^3
# Si number density = 18.245749 Si / 1000 Ang^3
#
#
#
# Elastic Constant Matrix: (Units=GPa)
#
#
# Indices 1 2 3 4 5 6 
#
# 1 47.4543 37.3126 52.6122 0.0000 10.2962 0.0000
# 2 37.3126 129.7468 88.0748 0.0000 24.2802 0.0000
# 3 52.6122 88.0748 160.2269 0.0000 28.0643 0.0000
# 4 0.0000 0.0000 0.0000 18.7294 0.0000 0.8727
# 5 10.2962 24.2802 28.0643 0.0000 31.5993 0.0000
# 6 0.0000 0.0000 0.0000 0.8727 0.0000 13.4023
#
#
#
# Elastic Compliance Matrix: (Units=1/GPa)
#
#
# Indices 1 2 3 4 5 6 
#
# 1 0.034116 -0.003496 -0.009242 0.000000 -0.000222 0.000000
# 2 -0.003496 0.013114 -0.005323 0.000000 -0.004210 0.000000
# 3 -0.009242 -0.005323 0.012977 0.000000 -0.004423 0.000000
# 4 0.000000 0.000000 0.000000 0.053555 0.000000 -0.003487
# 5 -0.000222 -0.004210 -0.004423 0.000000 0.038882 0.000000
# 6 0.000000 0.000000 0.000000 -0.003487 0.000000 0.074841
#
#
# Mechanical properties :
#
#
# Convention : Reuss Voigt Hill
#
# Bulk Modulus (GPa) = 41.52014 77.04746 59.28380
# Shear Modulus (GPa) = 18.40703 23.37475 20.89089
#
# Velocity S-wave (km/s) = 3.17967 3.58314 3.38742
# Velocity P-wave (km/s) = 6.02377 7.70959 6.91822
#
# Compressibility (1/GPa) = 0.02408470
#
# Stress axis : x y z
#
# Youngs Moduli (GPa) = 29.31146 76.25383 77.06092
#
# Poissons Ratio (x) = 0.26659 0.71218
# Poissons Ratio (y) = 0.10248 0.41022
# Poissons Ratio (z) = 0.27089 0.40593
#
# Static dielectric constant tensor:
#      x y z
#    x 1.619110 0.000000 0.000430 
#    y 0.000000 1.628120 0.000000 
#    z 0.000430 0.000000 1.612310 
# 
# From -- ./inp_files/41672.got.cif
#   From: 2010.05.17/outbox.cif.g08.bks.cpg/sg5_21_cif.got.tgz:41672.got - 2010.06.03 18:56:24.
