data_PCOD9122699
_publ_section_title
;
Structure prediction by ZEFSAII (Michael W. Deem and Ramdas Pophale) SiO2 
 PCOD9122699
Probable space group: C 2
;
_chemical_formula_sum "Si O2"
_cell_formula_units_Z 30
_cell_length_a 14.195679
_cell_length_b 14.507298
_cell_length_c 13.200140
_cell_angle_alpha 90.000000
_cell_angle_beta 149.323126
_cell_angle_gamma 90.000000
_cell_volume 1386.941473
_symmetry_space_group_name_H-M "C 2"
_symmetry_group_IT_number 5
_symmetry_cell_setting 'monoclinic'
loop_
_space_group_symop_operation_xyz
x,y,z
-x,y,-z
1/2+x,1/2+y,z
1/2-x,1/2+y,-z
loop_
_atom_site_type_symbol
_atom_site_label
_atom_site_fract_x
_atom_site_fract_y
_atom_site_fract_z
Si Si1 0.058298 0.777050 0.312921
Si Si2 0.113943 0.256051 0.884918
Si Si3 0.188454 0.148829 0.313961
Si Si4 0.627246 0.620104 0.716064
Si Si5 0.029795 0.982728 0.786077
Si Si6 0.130458 0.419351 0.769364
Si Si7 0.688640 0.279058 0.208800
Si Si8 0.000000 0.562546 0.500000
O O1 0.057885 0.886823 0.331998
O O2 0.163632 0.709981 0.486260
O O3 0.168207 0.768865 0.308619
O O4 0.837669 0.752395 0.101368
O O5 0.057977 0.191286 0.738084
O O6 0.059780 0.358426 0.798459
O O7 0.992617 0.213605 0.862363
O O8 0.309278 0.118273 0.329681
O O9 0.115566 0.055878 0.302694
O O10 0.500000 0.608519 0.500000
O O11 0.638291 0.527918 0.791288
O O12 0.796040 0.678318 0.827311
O O13 0.178404 0.960768 0.011066
O O14 0.167220 0.346120 0.712476
O O15 0.009869 0.499103 0.609160
O O16 0.500000 0.324556 0.000000
#
# Coordination Sequence:
#
# PCOD9122699 Si02
#       8
#     4   4   4   4   4   4   4   2
#     4  11  22  43  69  95 134 181 225 268 345 400
#     4   9  21  41  66  93 134 169 218 285 335 384
#     4  11  26  41  65  99 135 180 216 284 326 405
#     4  10  20  35  61  96 127 173 212 272 329 394
#     4  10  22  44  65  95 142 176 219 284 338 392
#     4  10  23  39  68 102 132 176 224 283 341 395
#     4  11  18  34  64 100 125 162 221 282 324 387
#     4  12  28  38  66 104 130 172 238 272 338 416
#
# _framework density 21.630327000000001
#
# number of rings (size 3 to 8) (size 9 to 14) (size 15 to 20)
#    0.000    1.600    4.000    2.400   11.200    0.000 
#    1.200    0.000    0.000    0.000    0.000    0.000 
#    0.000    0.000    0.000    0.000    0.000    0.000 
#
# Total GULP energy -83552.206457 kJ/mol
# GULP energy per Si atom -5570.147097 kJ/mol
# Density = 2.158110 g / cm^3
# Si number density = 21.630327 Si / 1000 Ang^3
#
#
#
# Elastic Constant Matrix: (Units=GPa)
#
#
# Indices 1 2 3 4 5 6 
#
# 1 75.0000 47.4919 14.7409 0.0008 25.5002 0.0002
# 2 47.4919 113.6114 39.6111 0.0004 14.3451 0.0001
# 3 14.7409 39.6111 91.4455 0.0019 8.7133 0.0005
# 4 0.0008 0.0004 0.0019 31.4811 0.0005 9.6302
# 5 25.5002 14.3451 8.7133 0.0005 31.6811 0.0000
# 6 0.0002 0.0001 0.0005 9.6302 0.0000 30.2038
#
#
#
# Elastic Compliance Matrix: (Units=1/GPa)
#
#
# Indices 1 2 3 4 5 6 
#
# 1 0.023708 -0.008390 0.001303 0.000000 -0.015642 0.000000
# 2 -0.008390 0.013741 -0.004776 0.000000 0.001844 0.000000
# 3 0.001303 -0.004776 0.013029 -0.000001 -0.002470 0.000000
# 4 0.000000 0.000000 -0.000001 0.035198 0.000000 -0.011223
# 5 -0.015642 0.001844 -0.002470 0.000000 0.043999 0.000000
# 6 0.000000 0.000000 0.000000 -0.011223 0.000000 0.036687
#
#
# Mechanical properties :
#
#
# Convention : Reuss Voigt Hill
#
# Bulk Modulus (GPa) = 37.37755 53.74941 45.56348
# Shear Modulus (GPa) = 25.12494 30.55408 27.83951
#
# Velocity S-wave (km/s) = 3.41186 3.76248 3.59145
# Velocity P-wave (km/s) = 5.73051 6.61650 6.18938
#
# Compressibility (1/GPa) = 0.02675403
#
# Stress axis : x y z
#
# Youngs Moduli (GPa) = 42.17941 72.77422 76.74965
#
# Poissons Ratio (x) = 0.61055 -0.09999
# Poissons Ratio (y) = 0.35387 0.36652
# Poissons Ratio (z) = -0.05495 0.34753
#
# Static dielectric constant tensor:
#      x y z
#    x 1.841980 0.000000 0.030900 
#    y 0.000000 1.823300 0.000000 
#    z 0.030900 0.000000 1.817960 
# 
# From -- ./inp_files/54799.got.cif
#   From: 2010.05.17/outbox.cif.g08.bks.cpg/sg5_28_cif.got.tgz:54799.got - 2010.06.03 18:56:24.
