data_PCOD9122818
_publ_section_title
;
Structure prediction by ZEFSAII (Michael W. Deem and Ramdas Pophale) SiO2 
 PCOD9122818
Probable space group: C 2
;
_chemical_formula_sum "Si O2"
_cell_formula_units_Z 24
_cell_length_a 7.190060
_cell_length_b 14.298503
_cell_length_c 10.050677
_cell_angle_alpha 90.000000
_cell_angle_beta 86.352337
_cell_angle_gamma 90.000000
_cell_volume 1031.187627
_symmetry_space_group_name_H-M "C 2"
_symmetry_group_IT_number 5
_symmetry_cell_setting 'monoclinic'
loop_
_space_group_symop_operation_xyz
x,y,z
-x,y,-z
1/2+x,1/2+y,z
1/2-x,1/2+y,-z
loop_
_atom_site_type_symbol
_atom_site_label
_atom_site_fract_x
_atom_site_fract_y
_atom_site_fract_z
Si Si1 0.263373 0.312880 0.708131
Si Si2 0.702728 0.436608 0.047105
Si Si3 0.129658 0.133740 0.613807
Si Si4 0.222584 0.432428 0.464139
Si Si5 0.174109 0.327429 0.204897
Si Si6 0.633949 0.630370 0.122246
O O1 0.331895 0.356425 0.842158
O O2 0.286546 0.207216 0.655774
O O3 0.310013 0.383647 0.588352
O O4 0.039883 0.313454 0.743815
O O5 0.761549 0.538514 0.097735
O O6 0.500000 0.458701 0.000000
O O7 0.819499 0.396842 0.919876
O O8 0.000000 0.174683 0.500000
O O9 0.000508 0.110294 0.746267
O O10 0.214395 0.038205 0.556447
O O11 0.266886 0.373141 0.329410
O O12 0.000000 0.431350 0.500000
O O13 0.242223 0.225698 0.154152
O O14 0.500000 0.651155 0.000000
#
# Coordination Sequence:
#
# PCOD9122818 Si02
#       6
#     4   4   4   4   4   4
#     4  10  21  39  61  83 113 157 194 228 284 351
#     4  11  22  37  58  88 117 146 193 247 285 325
#     4  11  21  39  63  85 113 155 195 230 281 353
#     4  10  21  37  59  89 118 145 189 243 287 329
#     4  10  20  38  60  82 116 156 192 229 281 352
#     4  10  20  36  59  83 110 153 195 227 276 344
#
# _framework density 23.274134
#
# number of rings (size 3 to 8) (size 9 to 14) (size 15 to 20)
#    0.000    1.667    0.000    8.000    0.000    0.000 
#    0.000   12.500    0.000    1.000    0.000    0.000 
#    0.000    0.000    0.000    0.000    0.000    0.000 
#
# Total GULP energy -67083.624914 kJ/mol
# GULP energy per Si atom -5590.302076 kJ/mol
# Density = 2.322116 g / cm^3
# Si number density = 23.274134 Si / 1000 Ang^3
#
#
#
# Elastic Constant Matrix: (Units=GPa)
#
#
# Indices 1 2 3 4 5 6 
#
# 1 20.7101 5.1506 4.9478 0.0000 0.1503 0.0000
# 2 5.1506 184.9126 53.6702 0.0000 -11.7311 0.0000
# 3 4.9478 53.6702 157.5345 0.0000 -10.0960 0.0000
# 4 0.0000 0.0000 0.0000 51.7631 0.0000 -12.8478
# 5 0.1503 -11.7311 -10.0960 0.0000 28.6166 0.0000
# 6 0.0000 0.0000 0.0000 -12.8478 0.0000 29.5452
#
#
#
# Elastic Compliance Matrix: (Units=1/GPa)
#
#
# Indices 1 2 3 4 5 6 
#
# 1 0.048857 -0.001072 -0.001242 0.000000 -0.001134 0.000000
# 2 -0.001072 0.006115 -0.001932 0.000000 0.001831 0.000000
# 3 -0.001242 -0.001932 0.007157 0.000000 0.001739 0.000000
# 4 0.000000 0.000000 0.000000 0.021656 0.000000 0.009417
# 5 -0.001134 0.001831 0.001739 0.000000 0.036315 0.000000
# 6 0.000000 0.000000 0.000000 0.009417 0.000000 0.037942
#
#
# Mechanical properties :
#
#
# Convention : Reuss Voigt Hill
#
# Bulk Modulus (GPa) = 18.64428 54.52159 36.58293
# Shear Modulus (GPa) = 27.11308 41.94422 34.52865
#
# Velocity S-wave (km/s) = 3.41683 4.24982 3.85588
# Velocity P-wave (km/s) = 4.85741 6.89623 5.96458
#
# Compressibility (1/GPa) = 0.05363577
#
# Stress axis : x y z
#
# Youngs Moduli (GPa) = 20.46775 163.53777 139.73159
#
# Poissons Ratio (x) = 0.17538 0.17352
# Poissons Ratio (y) = 0.02195 0.27000
# Poissons Ratio (z) = 0.02542 0.31599
#
# Static dielectric constant tensor:
#      x y z
#    x 1.899240 0.000000 0.034180 
#    y 0.000000 1.968570 0.000000 
#    z 0.034180 0.000000 1.649490 
# 
# From -- ./inp_files/14948.got.cif
#   From: 2010.05.17/outbox.cif.g08.bks.cpg/sg5_8_cif.got.tgz:14948.got - 2010.06.03 18:56:24.
