data_PCOD9122542
_publ_section_title
;
Structure prediction by ZEFSAII (Michael W. Deem and Ramdas Pophale) SiO2 
 PCOD9122542
Probable space group: C 2
;
_chemical_formula_sum "Si O2"
_cell_formula_units_Z 28
_cell_length_a 8.794197
_cell_length_b 33.186079
_cell_length_c 5.044726
_cell_angle_alpha 90.000000
_cell_angle_beta 79.739320
_cell_angle_gamma 90.000000
_cell_volume 1448.732255
_symmetry_space_group_name_H-M "C 2"
_symmetry_group_IT_number 5
_symmetry_cell_setting 'monoclinic'
loop_
_space_group_symop_operation_xyz
x,y,z
-x,y,-z
1/2+x,1/2+y,z
1/2-x,1/2+y,-z
loop_
_atom_site_type_symbol
_atom_site_label
_atom_site_fract_x
_atom_site_fract_y
_atom_site_fract_z
Si Si1 0.676533 0.339530 0.458939
Si Si2 0.103446 0.751187 0.703701
Si Si3 0.814460 0.128145 0.057954
Si Si4 0.111205 0.461903 0.214843
Si Si5 0.887997 0.551313 0.781106
Si Si6 0.169507 0.375872 0.086395
Si Si7 0.185260 0.178372 0.438471
O O1 0.500000 0.355680 0.500000
O O2 0.661113 0.293708 0.566472
O O3 0.795498 0.359425 0.630361
O O4 0.735322 0.347959 0.144987
O O5 0.241441 0.719688 0.688138
O O6 0.000000 0.733174 0.500000
O O7 0.000000 0.756651 0.000000
O O8 0.737180 0.086092 0.153745
O O9 0.769788 0.162457 0.285315
O O10 0.768243 0.143725 0.783221
O O11 0.000000 0.124303 0.000000
O O12 0.182177 0.506165 0.234523
O O13 0.212985 0.423179 0.106513
O O14 0.000000 0.451885 0.500000
O O15 0.000000 0.467195 0.000000
O O16 0.000000 0.558565 0.500000
O O17 0.000000 0.552408 0.000000
O O18 0.000000 0.375774 0.000000
O O19 0.000000 0.182513 0.500000
#
# Coordination Sequence:
#
# PCOD9122542 Si02
#       7
#     4   4   4   4   4   4   4
#     4  11  23  40  57  83 120 150 181 236 297 340
#     4  11  23  40  59  81 111 148 186 231 282 335
#     4  10  21  37  54  80 116 147 176 226 285 330
#     4   9  18  34  55  83 114 142 182 239 282 315
#     4  10  20  34  57  83 109 145 189 230 271 326
#     4  11  21  37  62  86 110 150 197 235 276 340
#     4  10  22  38  57  80 111 146 183 229 279 328
#
# _framework density 19.327241999999998
#
# number of rings (size 3 to 8) (size 9 to 14) (size 15 to 20)
#    0.000    1.714    0.000    6.000    0.000    4.571 
#    0.000    2.857    0.000    1.714    0.000    0.000 
#    0.000    0.000    0.000    0.000    0.000    0.000 
#
# Total GULP energy -78008.112602 kJ/mol
# GULP energy per Si atom -5572.008043 kJ/mol
# Density = 1.928325 g / cm^3
# Si number density = 19.327242 Si / 1000 Ang^3
#
#
#
# Elastic Constant Matrix: (Units=GPa)
#
#
# Indices 1 2 3 4 5 6 
#
# 1 28.7200 19.3591 8.0677 0.0000 3.9327 0.0000
# 2 19.3591 119.3742 31.4423 0.0000 -25.8061 0.0000
# 3 8.0677 31.4423 126.6361 0.0000 0.1164 0.0000
# 4 0.0000 0.0000 0.0000 21.2243 0.0000 6.5150
# 5 3.9327 -25.8061 0.1164 0.0000 28.1391 0.0000
# 6 0.0000 0.0000 0.0000 6.5150 0.0000 6.9054
#
#
#
# Elastic Compliance Matrix: (Units=1/GPa)
#
#
# Indices 1 2 3 4 5 6 
#
# 1 0.044135 -0.010530 -0.000183 0.000000 -0.015825 0.000000
# 2 -0.010530 0.013896 -0.002792 0.000000 0.014227 0.000000
# 3 -0.000183 -0.002792 0.008604 0.000000 -0.002571 0.000000
# 4 0.000000 0.000000 0.000000 0.066323 0.000000 -0.062574
# 5 -0.015825 0.014227 -0.002571 0.000000 0.050808 0.000000
# 6 0.000000 0.000000 0.000000 -0.062574 0.000000 0.203850
#
#
# Mechanical properties :
#
#
# Convention : Reuss Voigt Hill
#
# Bulk Modulus (GPa) = 25.23708 43.60761 34.42234
# Shear Modulus (GPa) = 11.68676 25.64450 18.66563
#
# Velocity S-wave (km/s) = 2.46169 3.64656 3.11105
# Velocity P-wave (km/s) = 4.60065 6.35150 5.54561
#
# Compressibility (1/GPa) = 0.03962424
#
# Stress axis : x y z
#
# Youngs Moduli (GPa) = 22.65761 71.96406 116.22557
#
# Poissons Ratio (x) = 0.75781 0.02123
# Poissons Ratio (y) = 0.23859 0.32455
# Poissons Ratio (z) = 0.00414 0.20095
#
# Static dielectric constant tensor:
#      x y z
#    x 1.684190 0.000000 0.002050 
#    y 0.000000 1.698290 0.000000 
#    z 0.002050 0.000000 1.658680 
# 
# From -- ./inp_files/3764.got.cif
#   From: 2010.05.17/outbox.cif.g08.bks.cpg/sg5_2_cif.got.tgz:3764.got - 2010.06.03 18:56:24.
