data_PCOD9122087
_publ_section_title
;
Structure prediction by ZEFSAII (Michael W. Deem and Ramdas Pophale) SiO2 
 PCOD9122087
Probable space group: C 2
;
_chemical_formula_sum "Si O2"
_cell_formula_units_Z 24
_cell_length_a 9.602440
_cell_length_b 27.915796
_cell_length_c 5.413766
_cell_angle_alpha 90.000000
_cell_angle_beta 45.308096
_cell_angle_gamma 90.000000
_cell_volume 1031.665517
_symmetry_space_group_name_H-M "C 2"
_symmetry_group_IT_number 5
_symmetry_cell_setting 'monoclinic'
loop_
_space_group_symop_operation_xyz
x,y,z
-x,y,-z
1/2+x,1/2+y,z
1/2-x,1/2+y,-z
loop_
_atom_site_type_symbol
_atom_site_label
_atom_site_fract_x
_atom_site_fract_y
_atom_site_fract_z
Si Si1 0.767091 0.762170 0.302170
Si Si2 0.124520 0.107117 0.091307
Si Si3 0.264201 0.213812 0.806022
Si Si4 0.875636 0.367426 0.405747
Si Si5 0.741360 0.971160 0.460978
Si Si6 0.708097 0.010022 0.005908
O O1 0.693426 0.730183 0.623663
O O2 0.728678 0.817432 0.410003
O O3 0.694737 0.747113 0.120512
O O4 0.000000 0.754753 0.000000
O O5 0.000000 0.109207 0.500000
O O6 0.211088 0.159384 0.932016
O O7 0.000000 0.094421 0.000000
O O8 0.285809 0.066059 0.938220
O O9 0.500000 0.217787 0.500000
O O10 0.745482 0.414389 0.519901
O O11 0.000000 0.378143 0.500000
O O12 0.000000 0.361597 0.000000
O O13 0.815547 0.984329 0.098458
O O14 0.509273 0.987192 0.736732
O O15 0.804937 0.000186 0.621483
#
# Coordination Sequence:
#
# PCOD9122087 Si02
#       6
#     4   4   4   4   4   4
#     4  10  23  42  62  93 131 163 210 265 320 377
#     4  12  26  42  63  97 134 163 210 268 336 370
#     4  10  23  44  65  89 124 173 218 255 309 394
#     4  12  21  37  65  98 121 165 214 264 310 373
#     4  10  19  38  63  90 121 157 228 251 289 377
#     4  10  20  38  61  87 126 162 200 268 299 371
#
# _framework density 23.263354
#
# number of rings (size 3 to 8) (size 9 to 14) (size 15 to 20)
#    0.000    1.333    3.333    3.000    2.333    4.000 
#    6.000    2.500    0.000    0.000    0.000    0.000 
#    0.000    0.000    0.000    0.000    0.000    0.000 
#
# Total GULP energy -67127.120378 kJ/mol
# GULP energy per Si atom -5593.926698 kJ/mol
# Density = 2.321041 g / cm^3
# Si number density = 23.263354 Si / 1000 Ang^3
#
#
#
# Elastic Constant Matrix: (Units=GPa)
#
#
# Indices 1 2 3 4 5 6 
#
# 1 100.2461 9.8384 50.2903 0.0000 39.5801 0.0000
# 2 9.8384 183.2589 54.3596 0.0000 25.1619 0.0000
# 3 50.2903 54.3596 159.6989 0.0000 43.6626 0.0000
# 4 0.0000 0.0000 0.0000 34.0078 0.0000 13.2659
# 5 39.5801 25.1619 43.6626 0.0000 48.5871 0.0000
# 6 0.0000 0.0000 0.0000 13.2659 0.0000 32.5728
#
#
#
# Elastic Compliance Matrix: (Units=1/GPa)
#
#
# Indices 1 2 3 4 5 6 
#
# 1 0.015409 0.001384 -0.002248 0.000000 -0.011249 0.000000
# 2 0.001384 0.006302 -0.001830 0.000000 -0.002747 0.000000
# 3 -0.002248 -0.001830 0.009058 0.000000 -0.005361 0.000000
# 4 0.000000 0.000000 0.000000 0.034959 0.000000 -0.014238
# 5 -0.011249 -0.002747 -0.005361 0.000000 0.035986 0.000000
# 6 0.000000 0.000000 0.000000 -0.014238 0.000000 0.036499
#
#
# Mechanical properties :
#
#
# Convention : Reuss Voigt Hill
#
# Bulk Modulus (GPa) = 39.39854 74.68673 57.04263
# Shear Modulus (GPa) = 32.88137 44.94791 38.91464
#
# Velocity S-wave (km/s) = 3.76365 4.40037 4.09441
# Velocity P-wave (km/s) = 5.98827 7.61527 6.85025
#
# Compressibility (1/GPa) = 0.02538165
#
# Stress axis : x y z
#
# Youngs Moduli (GPa) = 64.89818 158.66817 110.39393
#
# Poissons Ratio (x) = -0.21961 0.24816
# Poissons Ratio (y) = -0.08982 0.20204
# Poissons Ratio (z) = 0.14588 0.29039
#
# Static dielectric constant tensor:
#      x y z
#    x 1.917050 0.000000 -0.004520 
#    y 0.000000 1.808320 0.000000 
#    z -0.004520 0.000000 1.848700 
# 
# From -- ./inp_files/5914.got.cif
#   From: 2010.05.17/outbox.cif.g08.bks.cpg/sg5_3_cif.got.tgz:5914.got - 2010.06.03 18:56:24.
