data_PCOD9122255
_publ_section_title
;
Structure prediction by ZEFSAII (Michael W. Deem and Ramdas Pophale) SiO2 
 PCOD9122255
Probable space group: C 2
;
_chemical_formula_sum "Si O2"
_cell_formula_units_Z 26
_cell_length_a 24.986077
_cell_length_b 4.928919
_cell_length_c 17.594946
_cell_angle_alpha 90.000000
_cell_angle_beta 150.495304
_cell_angle_gamma 90.000000
_cell_volume 1067.184294
_symmetry_space_group_name_H-M "C 2"
_symmetry_group_IT_number 5
_symmetry_cell_setting 'monoclinic'
loop_
_space_group_symop_operation_xyz
x,y,z
-x,y,-z
1/2+x,1/2+y,z
1/2-x,1/2+y,-z
loop_
_atom_site_type_symbol
_atom_site_label
_atom_site_fract_x
_atom_site_fract_y
_atom_site_fract_z
Si Si1 0.500000 0.217741 0.500000
Si Si2 0.229578 0.543142 0.828239
Si Si3 0.941689 0.178389 0.157027
Si Si4 0.788815 0.559736 0.810247
Si Si5 0.765237 0.426805 0.568902
Si Si6 0.397418 0.507500 0.517212
Si Si7 0.504071 0.170723 0.134805
O O1 0.599896 0.067727 0.665085
O O2 0.447795 0.386749 0.503684
O O3 0.253790 0.232594 0.840166
O O4 0.270982 0.745036 0.810688
O O5 0.311476 0.626844 0.997107
O O6 0.965214 0.476752 0.155706
O O7 0.988952 0.970692 0.150742
O O8 0.006927 0.132711 0.315073
O O9 0.706728 0.670382 0.644658
O O10 0.915276 0.624051 0.959506
O O11 0.711300 0.678238 0.457692
O O12 0.673660 0.318685 0.513970
O O13 0.876598 0.558978 0.736691
#
# Coordination Sequence:
#
# PCOD9122255 Si02
#       7
#     2   4   4   4   4   4   4
#     4  10  24  44  64  94 138 174 216 268 324 384
#     4   9  20  41  61  89 124 170 212 261 314 381
#     4  10  20  38  67  90 125 165 219 264 318 379
#     4   9  21  37  63  90 128 163 209 261 325 380
#     4  12  23  39  66  99 129 169 216 269 323 384
#     4  11  23  42  66  97 131 171 217 267 323 385
#     4  10  19  40  61  94 128 165 208 269 319 385
#
# _framework density 24.363177
#
# number of rings (size 3 to 8) (size 9 to 14) (size 15 to 20)
#    0.000    1.846    3.077    0.000    0.000    8.000 
#    0.000    9.231    0.000   11.077    0.000    0.000 
#    0.000    0.000    0.000    0.000    0.000    0.000 
#
# Total GULP energy -72491.686379 kJ/mol
# GULP energy per Si atom -5576.283568 kJ/mol
# Density = 2.430773 g / cm^3
# Si number density = 24.363177 Si / 1000 Ang^3
#
#
#
# Elastic Constant Matrix: (Units=GPa)
#
#
# Indices 1 2 3 4 5 6 
#
# 1 82.1573 12.7897 43.9457 0.0002 12.3969 0.0002
# 2 12.7897 77.8578 17.7001 0.0010 1.7418 0.0001
# 3 43.9457 17.7001 267.8674 0.0001 4.8214 -0.0001
# 4 0.0002 0.0010 0.0001 31.6733 -0.0002 2.0771
# 5 12.3969 1.7418 4.8214 -0.0002 42.6164 -0.0002
# 6 0.0002 0.0001 -0.0001 2.0771 -0.0002 -0.7364
#
#
#
# Elastic Compliance Matrix: (Units=1/GPa)
#
#
# Indices 1 2 3 4 5 6 
#
# 1 0.014164 -0.001755 -0.002139 0.000000 -0.003806 0.000003
# 2 -0.001755 0.013265 -0.000589 0.000000 0.000035 0.000000
# 3 -0.002139 -0.000589 0.004120 0.000000 0.000180 -0.000001
# 4 0.000000 0.000000 0.000000 0.026644 0.000001 0.075155
# 5 -0.003806 0.000035 0.000180 0.000001 0.024551 -0.000005
# 6 0.000003 0.000000 -0.000001 0.075155 -0.000005 -1.146036
#
#
# Mechanical properties :
#
#
# Convention : Reuss Voigt Hill
#
# Bulk Modulus (GPa) = 44.28360 64.08369 54.18365
# Shear Modulus (GPa) = -4.77647 38.27380 16.74867
#
# Velocity S-wave (km/s) = -1.40171 3.96785 2.62479
# Velocity P-wave (km/s) = 3.94920 6.88130 5.61019
#
# Compressibility (1/GPa) = 0.02258172
#
# Stress axis : x y z
#
# Youngs Moduli (GPa) = 70.60359 75.38393 242.72880
#
# Poissons Ratio (x) = 0.13231 0.51923
# Poissons Ratio (y) = 0.12392 0.14302
# Poissons Ratio (z) = 0.15103 0.04442
#
# Static dielectric constant tensor:
#      x y z
#    x 2.029240 0.000000 -0.003870 
#    y 0.000000 1.880220 0.000000 
#    z -0.003870 0.000000 2.084580 
# 
# From -- ./inp_files/63186.got.cif
#   From: 2010.05.17/outbox.cif.g08.bks.cpg/sg5_32_cif.got.tgz:63186.got - 2010.06.03 18:56:24.
