data_PCOD9122369
_publ_section_title
;
Structure prediction by ZEFSAII (Michael W. Deem and Ramdas Pophale) SiO2 
 PCOD9122369
Probable space group: C 2
;
_chemical_formula_sum "Si O2"
_cell_formula_units_Z 30
_cell_length_a 8.416393
_cell_length_b 13.105615
_cell_length_c 12.567021
_cell_angle_alpha 90.000000
_cell_angle_beta 105.174014
_cell_angle_gamma 90.000000
_cell_volume 1337.839324
_symmetry_space_group_name_H-M "C 2"
_symmetry_group_IT_number 5
_symmetry_cell_setting 'monoclinic'
loop_
_space_group_symop_operation_xyz
x,y,z
-x,y,-z
1/2+x,1/2+y,z
1/2-x,1/2+y,-z
loop_
_atom_site_type_symbol
_atom_site_label
_atom_site_fract_x
_atom_site_fract_y
_atom_site_fract_z
Si Si1 0.178937 0.239080 0.875614
Si Si2 0.000000 0.100045 0.000000
Si Si3 0.671022 0.417684 0.683161
Si Si4 0.378965 0.304394 0.733784
Si Si5 0.039543 0.123308 0.337605
Si Si6 0.995772 0.455590 0.876787
Si Si7 0.762405 0.019584 0.786809
Si Si8 0.169284 0.307066 0.492960
O O1 0.352155 0.247460 0.842295
O O2 0.070117 0.186253 0.765020
O O3 0.099199 0.348868 0.889916
O O4 0.142884 0.169441 0.971910
O O5 0.085898 0.033065 0.104953
O O6 0.559256 0.335877 0.727218
O O7 0.559796 0.520390 0.648656
O O8 0.736818 0.372104 0.582458
O O9 0.821043 0.441502 0.789716
O O10 0.279118 0.408355 0.740969
O O11 0.285056 0.271086 0.610362
O O12 0.900057 0.203433 0.567936
O O13 0.204239 0.093763 0.303223
O O14 0.096321 0.533014 0.820882
O O15 0.000000 0.487228 0.000000
O O16 0.000000 0.363745 0.500000
#
# Coordination Sequence:
#
# PCOD9122369 Si02
#       8
#     4   2   4   4   4   4   4   4
#     4  10  19  42  66  97 136 181 231 295 366 421
#     4  10  20  38  72 100 138 188 240 300 366 430
#     4  11  25  45  68 102 144 188 245 298 372 445
#     4  10  22  42  68 100 137 183 238 296 366 442
#     4  10  22  43  71  97 139 182 238 301 364 436
#     4  11  22  40  68 100 141 197 241 296 364 433
#     4   9  22  40  67  99 141 185 239 296 363 441
#     4  12  22  44  76  99 137 190 235 301 378 439
#
# _framework density 22.424216999999999
#
# number of rings (size 3 to 8) (size 9 to 14) (size 15 to 20)
#    0.000    1.600    3.333    1.200    5.600    2.133 
#    2.400    0.000    2.933    0.000    0.000    0.000 
#    0.000    0.000    0.000    0.000    0.000    0.000 
#
# Total GULP energy -83682.381986 kJ/mol
# GULP energy per Si atom -5578.825466 kJ/mol
# Density = 2.237318 g / cm^3
# Si number density = 22.424217 Si / 1000 Ang^3
#
#
#
# Elastic Constant Matrix: (Units=GPa)
#
#
# Indices 1 2 3 4 5 6 
#
# 1 110.6909 7.2869 32.0541 0.0000 -37.5935 0.0000
# 2 7.2869 43.8757 22.5356 0.0000 -16.5133 0.0000
# 3 32.0541 22.5356 98.3219 0.0000 -34.1444 0.0000
# 4 0.0000 0.0000 0.0000 20.5008 0.0000 -4.8653
# 5 -37.5935 -16.5133 -34.1444 0.0000 46.8905 0.0000
# 6 0.0000 0.0000 0.0000 -4.8653 0.0000 25.6517
#
#
#
# Elastic Compliance Matrix: (Units=1/GPa)
#
#
# Indices 1 2 3 4 5 6 
#
# 1 0.012650 0.002291 -0.001134 0.000000 0.010123 0.000000
# 2 0.002291 0.027770 -0.004120 0.000000 0.008617 0.000000
# 3 -0.001134 -0.004120 0.014275 0.000000 0.008035 0.000000
# 4 0.000000 0.000000 0.000000 0.051078 0.000000 0.009688
# 5 0.010123 0.008617 0.008035 0.000000 0.038328 0.000000
# 6 0.000000 0.000000 0.000000 0.009688 0.000000 0.040821
#
#
# Mechanical properties :
#
#
# Convention : Reuss Voigt Hill
#
# Bulk Modulus (GPa) = 20.50399 41.84906 31.17653
# Shear Modulus (GPa) = 24.14272 31.34274 27.74273
#
# Velocity S-wave (km/s) = 3.28477 3.74266 3.52117
# Velocity P-wave (km/s) = 4.85282 6.11389 5.51949
#
# Compressibility (1/GPa) = 0.04877098
#
# Stress axis : x y z
#
# Youngs Moduli (GPa) = 79.05347 36.00983 70.05387
#
# Poissons Ratio (x) = -0.08251 0.07942
# Poissons Ratio (y) = -0.18114 0.28859
# Poissons Ratio (z) = 0.08962 0.14834
#
# Static dielectric constant tensor:
#      x y z
#    x 1.889210 0.000000 -0.086030 
#    y 0.000000 1.860900 0.000000 
#    z -0.086030 0.000000 1.866840 
# 
# From -- ./inp_files/36143.got.cif
#   From: 2010.05.17/outbox.cif.g08.bks.cpg/sg5_19_cif.got.tgz:36143.got - 2010.06.03 18:56:24.
