data_PCOD9122717
_publ_section_title
;
Structure prediction by ZEFSAII (Michael W. Deem and Ramdas Pophale) SiO2 
 PCOD9122717
Probable space group: C 2
;
_chemical_formula_sum "Si O2"
_cell_formula_units_Z 30
_cell_length_a 14.353343
_cell_length_b 20.789269
_cell_length_c 15.212776
_cell_angle_alpha 90.000000
_cell_angle_beta 160.387505
_cell_angle_gamma 90.000000
_cell_volume 1523.689474
_symmetry_space_group_name_H-M "C 2"
_symmetry_group_IT_number 5
_symmetry_cell_setting 'monoclinic'
loop_
_space_group_symop_operation_xyz
x,y,z
-x,y,-z
1/2+x,1/2+y,z
1/2-x,1/2+y,-z
loop_
_atom_site_type_symbol
_atom_site_label
_atom_site_fract_x
_atom_site_fract_y
_atom_site_fract_z
Si Si1 0.276934 0.638860 0.372090
Si Si2 0.783119 0.469207 0.977440
Si Si3 0.000000 0.532075 0.000000
Si Si4 0.750751 0.045635 0.495424
Si Si5 0.707599 0.829209 0.930149
Si Si6 0.655398 0.733458 0.047433
Si Si7 0.801708 0.284647 0.411444
Si Si8 0.346856 0.150133 0.452061
O O1 0.500000 0.658572 0.500000
O O2 0.117449 0.583960 0.174814
O O3 0.391768 0.598799 0.556122
O O4 0.183190 0.710297 0.316789
O O5 0.470802 0.492126 0.716151
O O6 0.833662 0.399173 0.062646
O O7 0.832299 0.483765 0.916430
O O8 0.993510 0.514593 0.217223
O O9 0.650893 0.088897 0.485260
O O10 0.488954 0.806342 0.661211
O O11 0.676609 0.783003 0.987112
O O12 0.015291 0.824719 0.160349
O O13 0.962612 0.707896 0.341689
O O14 0.500000 0.756006 0.000000
O O15 0.461147 0.675129 0.841285
O O16 0.000000 0.292088 0.500000
O O17 0.500000 0.131533 0.500000
#
# Coordination Sequence:
#
# PCOD9122717 Si02
#       8
#     4   4   2   4   4   4   4   4
#     4  10  20  35  63  94 127 151 206 266 338 374
#     4  11  25  39  63  87 131 162 214 245 320 387
#     4  10  22  40  62 100 128 166 200 274 326 402
#     4  11  21  39  60  91 120 166 198 266 312 378
#     4  12  24  44  62  93 129 177 213 257 315 390
#     4  10  21  37  63  95 125 162 202 259 320 379
#     4  11  26  42  67  93 126 168 221 272 320 373
#     4  10  21  39  61  90 124 156 212 263 310 368
#
# _framework density 19.689050000000002
#
# number of rings (size 3 to 8) (size 9 to 14) (size 15 to 20)
#    0.000    1.333    1.333    4.400    4.667    1.067 
#    0.000    4.000    0.000    0.000    0.000    0.000 
#    0.000    0.000    0.000    0.000    0.000    0.000 
#
# Total GULP energy -83509.555720 kJ/mol
# GULP energy per Si atom -5567.303715 kJ/mol
# Density = 1.964424 g / cm^3
# Si number density = 19.689050 Si / 1000 Ang^3
#
#
#
# Elastic Constant Matrix: (Units=GPa)
#
#
# Indices 1 2 3 4 5 6 
#
# 1 100.2630 84.0768 39.1091 0.0054 -10.9493 0.0092
# 2 84.0768 72.9757 -11.0849 0.0157 -8.9487 0.0219
# 3 39.1091 -11.0849 57.2730 0.0243 -8.7246 0.0307
# 4 0.0054 0.0157 0.0243 19.5789 0.0064 -6.9005
# 5 -10.9493 -8.9487 -8.7246 0.0064 35.1563 0.0121
# 6 0.0092 0.0219 0.0307 -6.9005 0.0121 28.8895
#
#
#
# Elastic Compliance Matrix: (Units=1/GPa)
#
#
# Indices 1 2 3 4 5 6 
#
# 1 -0.021093 0.028154 0.020727 -0.000063 0.005741 -0.000054
# 2 0.028154 -0.022760 -0.024087 0.000059 -0.003003 0.000049
# 3 0.020727 -0.024087 -0.001357 0.000022 -0.000013 0.000018
# 4 -0.000063 0.000059 0.000022 0.055770 -0.000014 0.013321
# 5 0.005741 -0.003003 -0.000013 -0.000014 0.029465 -0.000015
# 6 -0.000054 0.000049 0.000018 0.013321 -0.000015 0.037797
#
#
# Mechanical properties :
#
#
# Convention : Reuss Voigt Hill
#
# Bulk Modulus (GPa) = 228.52291 50.52375 139.52333
# Shear Modulus (GPa) = 168.38109 24.61899 96.50004
#
# Velocity S-wave (km/s) = 9.25774 3.53992 7.00845
# Velocity P-wave (km/s) = 15.18527 6.51342 11.68368
#
# Compressibility (1/GPa) = 0.00437593
#
# Stress axis : x y z
#
# Youngs Moduli (GPa) = -47.40997 -43.93635 -736.88051
#
# Poissons Ratio (x) = 1.23697 15.27313
# Poissons Ratio (y) = 1.33476 -17.74954
# Poissons Ratio (z) = 0.98265 -1.05831
#
# Static dielectric constant tensor:
#      x y z
#    x 1.726770 -0.000010 -0.000070 
#    y -0.000010 1.821500 0.000000 
#    z -0.000070 0.000000 1.718090 
# 
# From -- ./inp_files/55000.got.cif
#   From: 2010.05.17/outbox.cif.g08.bks.cpg/sg5_28_cif.got.tgz:55000.got - 2010.06.03 18:56:24.
