data_PCOD9122148
_publ_section_title
;
Structure prediction by ZEFSAII (Michael W. Deem and Ramdas Pophale) SiO2 
 PCOD9122148
Probable space group: C 2
;
_chemical_formula_sum "Si O2"
_cell_formula_units_Z 28
_cell_length_a 15.881056
_cell_length_b 13.384958
_cell_length_c 7.573036
_cell_angle_alpha 90.000000
_cell_angle_beta 128.712564
_cell_angle_gamma 90.000000
_cell_volume 1256.100186
_symmetry_space_group_name_H-M "C 2"
_symmetry_group_IT_number 5
_symmetry_cell_setting 'monoclinic'
loop_
_space_group_symop_operation_xyz
x,y,z
-x,y,-z
1/2+x,1/2+y,z
1/2-x,1/2+y,-z
loop_
_atom_site_type_symbol
_atom_site_label
_atom_site_fract_x
_atom_site_fract_y
_atom_site_fract_z
Si Si1 0.730618 0.795110 0.097206
Si Si2 0.787722 0.995953 0.740368
Si Si3 0.052170 0.708626 0.763371
Si Si4 0.142382 0.832004 0.402457
Si Si5 0.852990 0.046593 0.462606
Si Si6 0.179276 0.519607 0.952510
Si Si7 0.048631 0.142806 0.884522
O O1 0.837904 0.772847 0.122631
O O2 0.769781 0.783650 0.352124
O O3 0.678280 0.904028 0.006187
O O4 0.640393 0.714854 0.936991
O O5 0.776972 0.052307 0.538267
O O6 0.697527 0.017715 0.765513
O O7 0.806017 0.881733 0.703866
O O8 0.895297 0.040456 0.972164
O O9 0.000000 0.700537 0.500000
O O10 0.960364 0.762888 0.755729
O O11 0.086134 0.598409 0.871115
O O12 0.106128 0.931668 0.465767
O O13 0.952866 0.117872 0.626640
O O14 0.784271 0.057436 0.198142
O O15 0.000000 0.189431 0.000000
#
# Coordination Sequence:
#
# PCOD9122148 Si02
#       7
#     4   4   4   4   4   4   4
#     4  10  21  38  65  97 129 177 213 277 334 400
#     4   9  19  38  68  95 122 167 222 275 317 390
#     4  10  21  39  65  96 133 180 211 276 339 398
#     4   8  19  39  65  93 128 161 224 265 338 379
#     4   8  20  37  67  96 122 165 225 278 320 392
#     4  11  21  40  71  91 138 168 225 273 340 387
#     4  10  19  38  68  92 130 166 220 272 341 381
#
# _framework density 22.291217
#
# number of rings (size 3 to 8) (size 9 to 14) (size 15 to 20)
#    0.857    1.714    1.429    0.000    2.000    0.571 
#    0.000    5.714   18.857    0.000    0.000    0.000 
#    0.000    0.000    0.000    0.000    0.000    0.000 
#
# Total GULP energy -78086.604675 kJ/mol
# GULP energy per Si atom -5577.614620 kJ/mol
# Density = 2.224048 g / cm^3
# Si number density = 22.291217 Si / 1000 Ang^3
#
#
#
# Elastic Constant Matrix: (Units=GPa)
#
#
# Indices 1 2 3 4 5 6 
#
# 1 48.7623 21.8613 20.1820 0.0000 -9.9109 0.0000
# 2 21.8613 99.8595 48.0023 0.0000 8.4224 0.0000
# 3 20.1820 48.0023 66.1273 0.0000 -7.1744 0.0000
# 4 0.0000 0.0000 0.0000 35.1170 0.0000 5.5628
# 5 -9.9109 8.4224 -7.1744 0.0000 31.0108 0.0000
# 6 0.0000 0.0000 0.0000 5.5628 0.0000 31.4965
#
#
#
# Elastic Compliance Matrix: (Units=1/GPa)
#
#
# Indices 1 2 3 4 5 6 
#
# 1 0.025847 -0.004695 -0.003535 0.000000 0.008718 0.000000
# 2 -0.004695 0.017839 -0.012520 0.000000 -0.009242 0.000000
# 3 -0.003535 -0.012520 0.026193 0.000000 0.008330 0.000000
# 4 0.000000 0.000000 0.000000 0.029296 0.000000 -0.005174
# 5 0.008718 -0.009242 0.008330 0.000000 0.039470 0.000000
# 6 0.000000 0.000000 0.000000 -0.005174 0.000000 0.032663
#
#
# Mechanical properties :
#
#
# Convention : Reuss Voigt Hill
#
# Bulk Modulus (GPa) = 35.23420 43.87115 39.55268
# Shear Modulus (GPa) = 22.49531 27.83842 25.16686
#
# Velocity S-wave (km/s) = 3.18017 3.53774 3.36371
# Velocity P-wave (km/s) = 5.41528 6.03416 5.73308
#
# Compressibility (1/GPa) = 0.02838152
#
# Stress axis : x y z
#
# Youngs Moduli (GPa) = 38.68871 56.05539 38.17792
#
# Poissons Ratio (x) = 0.26316 0.13496
# Poissons Ratio (y) = 0.18163 0.47798
# Poissons Ratio (z) = 0.13676 0.70180
#
# Static dielectric constant tensor:
#      x y z
#    x 1.868100 0.000000 -0.032710 
#    y 0.000000 1.860170 0.000000 
#    z -0.032710 0.000000 1.790610 
# 
# From -- ./inp_files/27724.got.cif
#   From: 2010.05.17/outbox.cif.g08.bks.cpg/sg5_14_cif.got.tgz:27724.got - 2010.06.03 18:56:24.
