data_PCOD9122975
_publ_section_title
;
Structure prediction by ZEFSAII (Michael W. Deem and Ramdas Pophale) SiO2 
 PCOD9122975
Probable space group: C 2
;
_chemical_formula_sum "Si O2"
_cell_formula_units_Z 30
_cell_length_a 13.380868
_cell_length_b 13.649407
_cell_length_c 18.778343
_cell_angle_alpha 90.000000
_cell_angle_beta 25.113361
_cell_angle_gamma 90.000000
_cell_volume 1455.598313
_symmetry_space_group_name_H-M "C 2"
_symmetry_group_IT_number 5
_symmetry_cell_setting 'monoclinic'
loop_
_space_group_symop_operation_xyz
x,y,z
-x,y,-z
1/2+x,1/2+y,z
1/2-x,1/2+y,-z
loop_
_atom_site_type_symbol
_atom_site_label
_atom_site_fract_x
_atom_site_fract_y
_atom_site_fract_z
Si Si1 0.349351 0.028610 0.527028
Si Si2 0.322509 0.538396 0.859782
Si Si3 0.134361 0.512457 0.761995
Si Si4 0.995056 0.416369 0.712836
Si Si5 0.772048 0.355733 0.180278
Si Si6 0.653064 0.682939 0.287640
Si Si7 0.500000 0.336023 0.000000
Si Si8 0.708772 0.238314 0.507706
O O1 0.500000 0.020516 0.500000
O O2 0.353150 0.137040 0.490539
O O3 0.431565 0.954135 0.412649
O O4 0.078630 0.015278 0.722942
O O5 0.252806 0.447778 0.855757
O O6 0.327002 0.628976 0.802422
O O7 0.123446 0.546859 0.046345
O O8 0.110180 0.490627 0.694770
O O9 0.196580 0.410115 0.763410
O O10 0.296905 0.599500 0.686691
O O11 0.713131 0.399125 0.897380
O O12 0.123136 0.312689 0.644362
O O13 0.536998 0.293360 0.324615
O O14 0.000000 0.301517 0.000000
O O15 0.381762 0.718689 0.463673
O O16 0.851189 0.767829 0.152109
#
# Coordination Sequence:
#
# PCOD9122975 Si02
#       8
#     4   4   4   4   4   4   2   4
#     4  11  25  43  64  86 131 183 211 267 344 396
#     4   9  17  38  64  92 123 169 216 254 317 401
#     4  10  20  36  69 100 123 170 217 278 315 384
#     4  11  25  42  65  98 134 164 230 276 322 388
#     4   9  18  37  65  94 129 165 212 265 326 385
#     4   9  17  38  68  93 130 171 217 256 332 393
#     4  10  20  40  64  98 134 172 210 278 326 392
#     4  10  22  42  64  98 125 171 222 272 320 402
#
# _framework density 20.610082999999999
#
# number of rings (size 3 to 8) (size 9 to 14) (size 15 to 20)
#    0.000    2.133    2.667    0.800    3.733    0.000 
#    1.200    5.333    0.000    0.000    0.000    0.000 
#    0.000    0.000    0.000    0.000    0.000    0.000 
#
# Total GULP energy -83630.325929 kJ/mol
# GULP energy per Si atom -5575.355062 kJ/mol
# Density = 2.056317 g / cm^3
# Si number density = 20.610083 Si / 1000 Ang^3
#
#
#
# Elastic Constant Matrix: (Units=GPa)
#
#
# Indices 1 2 3 4 5 6 
#
# 1 117.8728 35.1379 47.5530 -0.1117 -22.3904 -0.0706
# 2 35.1379 66.3388 24.1103 -0.4290 -4.5128 -0.3197
# 3 47.5530 24.1103 116.8492 -0.7324 -41.0996 -0.5286
# 4 -0.1117 -0.4290 -0.7324 98.3053 -0.0531 35.7941
# 5 -22.3904 -4.5128 -41.0996 -0.0531 33.8070 -0.0705
# 6 -0.0706 -0.3197 -0.5286 35.7941 -0.0705 67.6615
#
#
#
# Elastic Compliance Matrix: (Units=1/GPa)
#
#
# Indices 1 2 3 4 5 6 
#
# 1 0.011727 -0.005130 -0.002137 -0.000017 0.004484 -0.000015
# 2 -0.005130 0.018759 -0.003663 0.000035 -0.005347 0.000031
# 3 -0.002137 -0.003663 0.016623 0.000084 0.018305 0.000085
# 4 -0.000017 0.000035 0.000084 0.012600 0.000102 -0.006665
# 5 0.004484 -0.005347 0.018305 0.000102 0.054089 0.000125
# 6 -0.000015 0.000031 0.000085 -0.006665 0.000125 0.018306
#
#
# Mechanical properties :
#
#
# Convention : Reuss Voigt Hill
#
# Bulk Modulus (GPa) = 39.60620 57.18479 48.39550
# Shear Modulus (GPa) = 30.79187 52.90541 41.84864
#
# Velocity S-wave (km/s) = 3.86945 5.07202 4.51099
# Velocity P-wave (km/s) = 6.26276 7.88079 7.11790
#
# Compressibility (1/GPa) = 0.02524857
#
# Stress axis : x y z
#
# Youngs Moduli (GPa) = 85.27529 53.30663 60.15852
#
# Poissons Ratio (x) = 0.27346 0.12855
# Poissons Ratio (y) = 0.43745 0.22039
# Poissons Ratio (z) = 0.18222 0.19529
#
# Static dielectric constant tensor:
#      x y z
#    x 0.971330 0.000310 0.856070 
#    y 0.000310 1.769730 -0.000360 
#    z 0.856070 -0.000360 0.800790 
# 
# From -- ./inp_files/60625.got.cif
#   From: 2010.05.17/outbox.cif.g08.bks.cpg/sg5_31_cif.got.tgz:60625.got - 2010.06.03 18:56:24.
