data_PCOD9122915
_publ_section_title
;
Structure prediction by ZEFSAII (Michael W. Deem and Ramdas Pophale) SiO2 
 PCOD9122915
Probable space group: C 2
;
_chemical_formula_sum "Si O2"
_cell_formula_units_Z 20
_cell_length_a 18.112235
_cell_length_b 5.058239
_cell_length_c 9.070568
_cell_angle_alpha 90.000000
_cell_angle_beta 61.941226
_cell_angle_gamma 90.000000
_cell_volume 733.337057
_symmetry_space_group_name_H-M "C 2"
_symmetry_group_IT_number 5
_symmetry_cell_setting 'monoclinic'
loop_
_space_group_symop_operation_xyz
x,y,z
-x,y,-z
1/2+x,1/2+y,z
1/2-x,1/2+y,-z
loop_
_atom_site_type_symbol
_atom_site_label
_atom_site_fract_x
_atom_site_fract_y
_atom_site_fract_z
Si Si1 0.092459 0.158740 0.962589
Si Si2 0.896217 0.830467 0.780605
Si Si3 0.062561 0.960657 0.557431
Si Si4 0.688422 0.162495 0.870019
Si Si5 0.292715 0.804592 0.522942
O O1 0.161195 0.370810 0.853447
O O2 0.117612 0.869074 0.881207
O O3 0.100309 0.109779 0.132287
O O4 0.000000 0.232895 0.000000
O O5 0.882579 0.813285 0.619273
O O6 0.996683 0.767877 0.700385
O O7 0.825599 0.684091 0.941188
O O8 0.117741 0.171262 0.589405
O O9 0.000000 0.108130 0.500000
O O10 0.773832 0.597012 0.485846
O O11 0.771705 0.265386 0.716281
#
# Coordination Sequence:
#
# PCOD9122915 Si02
#       5
#     4   4   4   4   4
#     4  10  20  36  63  95 130 174 223 273 325 408
#     4   7  20  41  65  92 130 174 230 258 340 399
#     4   8  20  48  66 100 134 186 220 284 333 414
#     4  10  22  38  63  96 127 176 220 280 334 393
#     4  12  27  45  67 103 141 177 226 288 344 399
#
# _framework density 27.272584999999999
#
# number of rings (size 3 to 8) (size 9 to 14) (size 15 to 20)
#    2.400    0.000    0.000    1.800    5.600    0.000 
#    7.200    3.000    0.000    0.000    0.000    0.000 
#    0.000    0.000    0.000    0.000    0.000    0.000 
#
# Total GULP energy -55699.668976 kJ/mol
# GULP energy per Si atom -5569.966898 kJ/mol
# Density = 2.721051 g / cm^3
# Si number density = 27.272585 Si / 1000 Ang^3
#
#
#
# Elastic Constant Matrix: (Units=GPa)
#
#
# Indices 1 2 3 4 5 6 
#
# 1 85.8309 11.1755 6.1070 0.0000 -1.5115 0.0000
# 2 11.1755 86.4169 20.6126 0.0000 6.5907 0.0000
# 3 6.1070 20.6126 133.1685 0.0000 6.6262 0.0000
# 4 0.0000 0.0000 0.0000 34.4426 0.0000 2.2147
# 5 -1.5115 6.5907 6.6262 0.0000 25.6737 0.0000
# 6 0.0000 0.0000 0.0000 2.2147 0.0000 19.9510
#
#
#
# Elastic Compliance Matrix: (Units=1/GPa)
#
#
# Indices 1 2 3 4 5 6 
#
# 1 0.011899 -0.001542 -0.000366 0.000000 0.001191 0.000000
# 2 -0.001542 0.012394 -0.001707 0.000000 -0.002832 0.000000
# 3 -0.000366 -0.001707 0.007871 0.000000 -0.001615 0.000000
# 4 0.000000 0.000000 0.000000 0.029243 0.000000 -0.003246
# 5 0.001191 -0.002832 -0.001615 0.000000 0.040164 0.000000
# 6 0.000000 0.000000 0.000000 -0.003246 0.000000 0.050483
#
#
# Mechanical properties :
#
#
# Convention : Reuss Voigt Hill
#
# Bulk Modulus (GPa) = 40.10732 42.35629 41.23181
# Shear Modulus (GPa) = 29.83381 33.84820 31.84100
#
# Velocity S-wave (km/s) = 3.31102 3.52676 3.42059
# Velocity P-wave (km/s) = 5.41804 5.66996 5.54543
#
# Compressibility (1/GPa) = 0.02493310
#
# Stress axis : x y z
#
# Youngs Moduli (GPa) = 84.04315 80.68184 127.05489
#
# Poissons Ratio (x) = 0.12443 0.04653
# Poissons Ratio (y) = 0.12961 0.21686
# Poissons Ratio (z) = 0.03078 0.13771
#
# Static dielectric constant tensor:
#      x y z
#    x 2.126380 0.000000 0.065160 
#    y 0.000000 2.079540 0.000000 
#    z 0.065160 0.000000 2.354570 
# 
# From -- ./inp_files/31821.got.cif
#   From: 2010.05.17/outbox.cif.g08.bks.cpg/sg5_16_cif.got.tgz:31821.got - 2010.06.03 18:56:24.
