data_PCOD9122929
_publ_section_title
;
Structure prediction by ZEFSAII (Michael W. Deem and Ramdas Pophale) SiO2 
 PCOD9122929
Probable space group: C 2
;
_chemical_formula_sum "Si O2"
_cell_formula_units_Z 30
_cell_length_a 31.192447
_cell_length_b 9.009950
_cell_length_c 11.955493
_cell_angle_alpha 90.000000
_cell_angle_beta 152.755053
_cell_angle_gamma 90.000000
_cell_volume 1538.193050
_symmetry_space_group_name_H-M "C 2"
_symmetry_group_IT_number 5
_symmetry_cell_setting 'monoclinic'
loop_
_space_group_symop_operation_xyz
x,y,z
-x,y,-z
1/2+x,1/2+y,z
1/2-x,1/2+y,-z
loop_
_atom_site_type_symbol
_atom_site_label
_atom_site_fract_x
_atom_site_fract_y
_atom_site_fract_z
Si Si1 0.175992 0.900240 0.178153
Si Si2 0.299209 0.648563 0.362247
Si Si3 0.000000 0.254344 0.500000
Si Si4 0.135659 0.397604 0.642333
Si Si5 0.716906 0.412813 0.838870
Si Si6 0.110402 0.897670 0.277116
Si Si7 0.501115 0.460331 0.624908
Si Si8 0.310052 0.146874 0.378294
O O1 0.230722 0.750646 0.274481
O O2 0.161522 0.909809 0.276645
O O3 0.237471 0.035527 0.269620
O O4 0.075570 0.899670 0.884185
O O5 0.363653 0.760470 0.440956
O O6 0.243782 0.547917 0.143732
O O7 0.357743 0.537309 0.574566
O O8 0.071984 0.357514 0.600451
O O9 0.969242 0.131301 0.335636
O O10 0.120019 0.544781 0.533508
O O11 0.239487 0.411558 0.937262
O O12 0.605664 0.444242 0.583353
O O13 0.735451 0.260153 0.816785
O O14 0.140811 0.750867 0.416031
O O15 0.000000 0.897910 0.000000
O O16 0.500000 0.384320 0.500000
#
# Coordination Sequence:
#
# PCOD9122929 Si02
#       8
#     4   4   2   4   4   4   4   4
#     4  11  21  40  67  92 122 164 214 263 306 374
#     4  10  21  39  64  90 120 164 212 248 316 372
#     4  10  22  38  60  94 130 164 214 242 316 384
#     4  11  21  39  62  91 129 165 204 261 307 375
#     4  11  20  39  61  92 129 169 199 250 318 381
#     4  11  24  43  65  87 120 169 216 263 313 377
#     4  10  20  36  64  93 126 162 210 243 312 385
#     4  10  23  38  62  92 126 162 210 264 317 360
#
# _framework density 19.503402999999999
#
# number of rings (size 3 to 8) (size 9 to 14) (size 15 to 20)
#    0.400    1.067    1.333    5.600    0.000    0.000 
#    6.000    2.667    2.933    0.000    0.000    0.000 
#    0.000    0.000    0.000    0.000    0.000    0.000 
#
# Total GULP energy -83687.229112 kJ/mol
# GULP energy per Si atom -5579.148607 kJ/mol
# Density = 1.945901 g / cm^3
# Si number density = 19.503403 Si / 1000 Ang^3
#
#
#
# Elastic Constant Matrix: (Units=GPa)
#
#
# Indices 1 2 3 4 5 6 
#
# 1 140.4243 56.5720 43.1202 0.0000 -4.6000 0.0000
# 2 56.5720 123.0658 40.7460 0.0000 -6.4659 0.0000
# 3 43.1202 40.7460 105.3940 0.0000 -9.5315 0.0000
# 4 0.0000 0.0000 0.0000 11.9071 0.0000 -4.4590
# 5 -4.6000 -6.4659 -9.5315 0.0000 33.5337 0.0000
# 6 0.0000 0.0000 0.0000 -4.4590 0.0000 33.5470
#
#
#
# Elastic Compliance Matrix: (Units=1/GPa)
#
#
# Indices 1 2 3 4 5 6 
#
# 1 0.009264 -0.003447 -0.002466 0.000000 -0.000095 0.000000
# 2 -0.003447 0.010622 -0.002621 0.000000 0.000830 0.000000
# 3 -0.002466 -0.002621 0.011736 0.000000 0.002492 0.000000
# 4 0.000000 0.000000 0.000000 0.088383 0.000000 0.011748
# 5 -0.000095 0.000830 0.002492 0.000000 0.030676 0.000000
# 6 0.000000 0.000000 0.000000 0.011748 0.000000 0.031370
#
#
# Mechanical properties :
#
#
# Convention : Reuss Voigt Hill
#
# Bulk Modulus (GPa) = 68.71350 72.19562 70.45456
# Shear Modulus (GPa) = 24.51330 31.02727 27.77028
#
# Velocity S-wave (km/s) = 3.54909 3.99289 3.77751
# Velocity P-wave (km/s) = 7.21822 7.63904 7.43161
#
# Compressibility (1/GPa) = 0.01455318
#
# Stress axis : x y z
#
# Youngs Moduli (GPa) = 107.94265 94.14647 85.20872
#
# Poissons Ratio (x) = 0.32453 0.21014
# Poissons Ratio (y) = 0.37209 0.22333
# Poissons Ratio (z) = 0.26621 0.24676
#
# Static dielectric constant tensor:
#      x y z
#    x 1.713330 0.000000 0.021720 
#    y 0.000000 1.698240 0.000000 
#    z 0.021720 0.000000 1.663700 
# 
# From -- ./inp_files/48357.got.cif
#   From: 2010.05.17/outbox.cif.g08.bks.cpg/sg5_25_cif.got.tgz:48357.got - 2010.06.03 18:56:24.
