data_PCOD9122352
_publ_section_title
;
Structure prediction by ZEFSAII (Michael W. Deem and Ramdas Pophale) SiO2 
 PCOD9122352
Probable space group: C 2
;
_chemical_formula_sum "Si O2"
_cell_formula_units_Z 18
_cell_length_a 5.499451
_cell_length_b 20.006681
_cell_length_c 6.652456
_cell_angle_alpha 90.000000
_cell_angle_beta 102.901938
_cell_angle_gamma 90.000000
_cell_volume 713.462682
_symmetry_space_group_name_H-M "C 2"
_symmetry_group_IT_number 5
_symmetry_cell_setting 'monoclinic'
loop_
_space_group_symop_operation_xyz
x,y,z
-x,y,-z
1/2+x,1/2+y,z
1/2-x,1/2+y,-z
loop_
_atom_site_type_symbol
_atom_site_label
_atom_site_fract_x
_atom_site_fract_y
_atom_site_fract_z
Si Si1 0.085928 0.098990 0.250150
Si Si2 0.719257 0.814194 0.779185
Si Si3 0.706786 0.366040 0.748023
Si Si4 0.582750 0.163229 0.235030
Si Si5 0.500000 0.482338 0.500000
O O1 0.325949 0.148835 0.307542
O O2 0.137452 0.027023 0.355778
O O3 0.835953 0.123592 0.317901
O O4 0.000000 0.094960 0.000000
O O5 0.424385 0.820661 0.692503
O O6 0.824633 0.739352 0.777520
O O7 0.910472 0.852792 0.672568
O O8 0.753772 0.847571 0.007577
O O9 0.710344 0.441175 0.666099
O O10 0.500000 0.139951 0.000000
#
# Coordination Sequence:
#
# PCOD9122352 Si02
#       5
#     4   4   4   4   2
#     4  10  25  42  73 104 138 200 229 304 351 421
#     4  10  20  42  73 107 131 188 237 300 371 412
#     4  10  23  38  71 103 146 185 231 301 346 435
#     4  10  19  41  75 103 136 180 247 298 362 421
#     4  12  28  50  66 112 154 194 252 274 362 458
#
# _framework density 25.229068999999999
#
# number of rings (size 3 to 8) (size 9 to 14) (size 15 to 20)
#    0.000    1.778    2.222    1.333    9.333    5.333 
#    8.000    4.444    0.000    0.000    0.000    0.000 
#    0.000    0.000    0.000    0.000    0.000    0.000 
#
# Total GULP energy -50164.000624 kJ/mol
# GULP energy per Si atom -5573.777847 kJ/mol
# Density = 2.517165 g / cm^3
# Si number density = 25.229069 Si / 1000 Ang^3
#
#
#
# Elastic Constant Matrix: (Units=GPa)
#
#
# Indices 1 2 3 4 5 6 
#
# 1 240.1405 57.7479 50.1981 0.0000 -15.3578 0.0000
# 2 57.7479 107.9458 45.1094 0.0000 10.8674 0.0000
# 3 50.1981 45.1094 96.8977 0.0000 2.8835 0.0000
# 4 0.0000 0.0000 0.0000 63.5674 0.0000 -11.1141
# 5 -15.3578 10.8674 2.8835 0.0000 49.5222 0.0000
# 6 0.0000 0.0000 0.0000 -11.1141 0.0000 35.4926
#
#
#
# Elastic Compliance Matrix: (Units=1/GPa)
#
#
# Indices 1 2 3 4 5 6 
#
# 1 0.005215 -0.002305 -0.001694 0.000000 0.002222 0.000000
# 2 -0.002305 0.012769 -0.004653 0.000000 -0.003246 0.000000
# 3 -0.001694 -0.004653 0.013373 0.000000 -0.000283 0.000000
# 4 0.000000 0.000000 0.000000 0.016643 0.000000 0.005211
# 5 0.002222 -0.003246 -0.000283 0.000000 0.021611 0.000000
# 6 0.000000 0.000000 0.000000 0.005211 0.000000 0.029807
#
#
# Mechanical properties :
#
#
# Convention : Reuss Voigt Hill
#
# Bulk Modulus (GPa) = 71.17537 83.45500 77.31518
# Shear Modulus (GPa) = 41.18410 49.17833 45.18122
#
# Velocity S-wave (km/s) = 4.04469 4.41985 4.23642
# Velocity P-wave (km/s) = 7.07712 7.69399 7.39199
#
# Compressibility (1/GPa) = 0.01404980
#
# Stress axis : x y z
#
# Youngs Moduli (GPa) = 191.75734 78.31705 74.77912
#
# Poissons Ratio (x) = 0.18055 0.12671
# Poissons Ratio (y) = 0.44208 0.34797
# Poissons Ratio (z) = 0.32493 0.36444
#
# Static dielectric constant tensor:
#      x y z
#    x 2.001530 0.000000 -0.085660 
#    y 0.000000 2.268020 0.000000 
#    z -0.085660 0.000000 1.839350 
# 
# From -- ./inp_files/12326.got.cif
#   From: 2010.05.17/outbox.cif.g08.bks.cpg/sg5_7_cif.got.tgz:12326.got - 2010.06.03 18:56:24.
