data_PCOD9122017
_publ_section_title
;
Structure prediction by ZEFSAII (Michael W. Deem and Ramdas Pophale) SiO2 
 PCOD9122017
Probable space group: C 2
;
_chemical_formula_sum "Si O2"
_cell_formula_units_Z 30
_cell_length_a 16.478989
_cell_length_b 9.179404
_cell_length_c 14.809895
_cell_angle_alpha 90.000000
_cell_angle_beta 38.649007
_cell_angle_gamma 90.000000
_cell_volume 1399.145019
_symmetry_space_group_name_H-M "C 2"
_symmetry_group_IT_number 5
_symmetry_cell_setting 'monoclinic'
loop_
_space_group_symop_operation_xyz
x,y,z
-x,y,-z
1/2+x,1/2+y,z
1/2-x,1/2+y,-z
loop_
_atom_site_type_symbol
_atom_site_label
_atom_site_fract_x
_atom_site_fract_y
_atom_site_fract_z
Si Si1 0.877357 0.469440 0.236951
Si Si2 0.165126 0.740000 0.424944
Si Si3 0.361826 0.920926 0.515346
Si Si4 0.818164 0.954783 0.744610
Si Si5 0.600786 0.952271 0.167810
Si Si6 0.172364 0.781446 0.080331
Si Si7 0.611703 0.270895 0.672786
Si Si8 0.000000 0.178312 0.500000
O O1 0.803096 0.319295 0.327389
O O2 0.817453 0.497871 0.189025
O O3 0.844286 0.613864 0.325269
O O4 0.026139 0.444202 0.135601
O O5 0.158341 0.569604 0.413045
O O6 0.131544 0.824975 0.363959
O O7 0.089287 0.760873 0.584679
O O8 0.483865 0.937789 0.341470
O O9 0.223857 0.886800 0.590278
O O10 0.395290 0.783600 0.547008
O O11 0.808803 0.890920 0.851803
O O12 0.925464 0.079200 0.637486
O O13 0.667346 0.111908 0.113755
O O14 0.706991 0.826065 0.086845
O O15 0.028890 0.807608 0.163989
#
# Coordination Sequence:
#
# PCOD9122017 Si02
#       8
#     4   4   4   4   4   4   4   2
#     4   9  20  40  65  94 128 172 218 266 340 397
#     4  10  19  37  66  96 125 165 213 279 329 391
#     4  12  23  38  67 101 130 162 227 282 332 397
#     4  10  23  42  63  98 133 175 218 275 350 393
#     4  11  25  44  64  99 132 179 228 271 335 400
#     4  11  26  43  67  93 137 181 223 274 330 413
#     4  11  19  42  64 100 130 171 218 276 333 398
#     4  12  26  34  66 102 136 168 218 288 348 388
#
# _framework density 21.441666999999999
#
# number of rings (size 3 to 8) (size 9 to 14) (size 15 to 20)
#    0.800    0.533    5.333    0.800    3.733    2.667 
#    0.000    0.000    0.000    0.800    0.000    0.000 
#    0.000    0.000    0.000    0.000    0.000    0.000 
#
# Total GULP energy -83573.500695 kJ/mol
# GULP energy per Si atom -5571.566713 kJ/mol
# Density = 2.139286 g / cm^3
# Si number density = 21.441667 Si / 1000 Ang^3
#
#
#
# Elastic Constant Matrix: (Units=GPa)
#
#
# Indices 1 2 3 4 5 6 
#
# 1 59.8812 25.0144 10.1139 0.0000 -9.1722 0.0000
# 2 25.0144 116.8675 49.9506 0.0000 -14.2658 0.0000
# 3 10.1139 49.9506 79.5666 0.0000 -20.6576 0.0000
# 4 0.0000 0.0000 0.0000 35.3491 0.0000 -9.6103
# 5 -9.1722 -14.2658 -20.6576 0.0000 29.4685 0.0000
# 6 0.0000 0.0000 0.0000 -9.6103 0.0000 31.7602
#
#
#
# Elastic Compliance Matrix: (Units=1/GPa)
#
#
# Indices 1 2 3 4 5 6 
#
# 1 0.018906 -0.004052 0.001417 0.000000 0.004916 0.000000
# 2 -0.004052 0.012573 -0.007488 0.000000 -0.000424 0.000000
# 3 0.001417 -0.007488 0.019880 0.000000 0.010752 0.000000
# 4 0.000000 0.000000 0.000000 0.030825 0.000000 0.009327
# 5 0.004916 -0.000424 0.010752 0.000000 0.042797 0.000000
# 6 0.000000 0.000000 0.000000 0.009327 0.000000 0.034308
#
#
# Mechanical properties :
#
#
# Convention : Reuss Voigt Hill
#
# Bulk Modulus (GPa) = 32.14068 47.38591 39.76329
# Shear Modulus (GPa) = 26.32869 30.73133 28.53001
#
# Velocity S-wave (km/s) = 3.50797 3.78994 3.65168
# Velocity P-wave (km/s) = 5.60626 6.42646 6.03032
#
# Compressibility (1/GPa) = 0.03111322
#
# Stress axis : x y z
#
# Youngs Moduli (GPa) = 52.89273 79.53722 50.30090
#
# Poissons Ratio (x) = 0.32231 -0.07128
# Poissons Ratio (y) = 0.21434 0.37665
# Poissons Ratio (z) = -0.07496 0.59557
#
# Static dielectric constant tensor:
#      x y z
#    x 1.831960 0.000000 -0.015960 
#    y 0.000000 1.780750 0.000000 
#    z -0.015960 0.000000 1.838040 
# 
# From -- ./inp_files/62170.got.cif
#   From: 2010.05.17/outbox.cif.g08.bks.cpg/sg5_32_cif.got.tgz:62170.got - 2010.06.03 18:56:24.
