data_PCOD9122918
_publ_section_title
;
Structure prediction by ZEFSAII (Michael W. Deem and Ramdas Pophale) SiO2 
 PCOD9122918
Probable space group: C 2
;
_chemical_formula_sum "Si O2"
_cell_formula_units_Z 30
_cell_length_a 26.034696
_cell_length_b 7.428809
_cell_length_c 13.843248
_cell_angle_alpha 90.000000
_cell_angle_beta 153.102076
_cell_angle_gamma 90.000000
_cell_volume 1211.252258
_symmetry_space_group_name_H-M "C 2"
_symmetry_group_IT_number 5
_symmetry_cell_setting 'monoclinic'
loop_
_space_group_symop_operation_xyz
x,y,z
-x,y,-z
1/2+x,1/2+y,z
1/2-x,1/2+y,-z
loop_
_atom_site_type_symbol
_atom_site_label
_atom_site_fract_x
_atom_site_fract_y
_atom_site_fract_z
Si Si1 0.155851 0.202680 0.440395
Si Si2 0.666170 0.381551 0.110200
Si Si3 0.356067 0.146842 0.425693
Si Si4 0.000000 0.849953 0.000000
Si Si5 0.838171 0.576316 0.618248
Si Si6 0.897470 0.642314 0.185570
Si Si7 0.950339 0.052100 0.564303
Si Si8 0.160899 0.995046 0.806727
O O1 0.247065 0.266988 0.675538
O O2 0.116295 0.374686 0.314089
O O3 0.218434 0.070061 0.472557
O O4 0.061604 0.121268 0.349084
O O5 0.747276 0.539721 0.203571
O O6 0.571453 0.441027 0.031845
O O7 0.618241 0.254239 0.943057
O O8 0.329059 0.142353 0.494096
O O9 0.477930 0.054167 0.607905
O O10 0.392018 0.352093 0.465723
O O11 0.915088 0.714646 0.803367
O O12 0.878482 0.786599 0.241100
O O13 0.794993 0.505405 0.028638
O O14 0.879687 0.115707 0.352921
O O15 0.080800 0.073553 0.755499
#
# Coordination Sequence:
#
# PCOD9122918 Si02
#       8
#     4   4   4   2   4   4   4   4
#     4  10  20  37  66  90 129 172 220 277 343 416
#     4  10  21  39  68  97 130 179 217 279 346 410
#     4  10  22  39  67  94 130 176 225 272 351 411
#     4  10  20  40  68  96 144 172 218 288 340 414
#     4  10  20  36  63  96 125 175 218 273 348 412
#     4  11  22  43  63  96 132 173 227 285 335 411
#     4  10  21  43  63  88 131 175 220 288 338 401
#     4  10  24  40  62  91 127 172 225 283 339 393
#
# _framework density 24.767755000000001
#
# number of rings (size 3 to 8) (size 9 to 14) (size 15 to 20)
#    0.000    1.867    2.667    0.800    1.867    2.133 
#    0.000    0.000   11.733    0.800    0.000    0.000 
#    0.000    0.000    0.000    0.000    0.000    0.000 
#
# Total GULP energy -83627.536325 kJ/mol
# GULP energy per Si atom -5575.169088 kJ/mol
# Density = 2.471138 g / cm^3
# Si number density = 24.767755 Si / 1000 Ang^3
#
#
#
# Elastic Constant Matrix: (Units=GPa)
#
#
# Indices 1 2 3 4 5 6 
#
# 1 166.7489 41.7640 57.4417 0.0000 40.6671 0.0000
# 2 41.7640 52.8084 23.7829 0.0000 9.4887 0.0000
# 3 57.4417 23.7829 100.5465 0.0000 18.9972 0.0000
# 4 0.0000 0.0000 0.0000 13.4594 0.0000 29.4666
# 5 40.6671 9.4887 18.9972 0.0000 56.2808 0.0000
# 6 0.0000 0.0000 0.0000 29.4666 0.0000 13.2544
#
#
#
# Elastic Compliance Matrix: (Units=1/GPa)
#
#
# Indices 1 2 3 4 5 6 
#
# 1 0.009680 -0.005254 -0.003347 0.000000 -0.004979 0.000000
# 2 -0.005254 0.024260 -0.002864 0.000000 0.000673 0.000000
# 3 -0.003347 -0.002864 0.012804 0.000000 -0.001421 0.000000
# 4 0.000000 0.000000 0.000000 -0.019212 0.000000 0.042712
# 5 -0.004979 0.000673 -0.001421 0.000000 0.021732 0.000000
# 6 0.000000 0.000000 0.000000 0.042712 0.000000 -0.019510
#
#
# Mechanical properties :
#
#
# Convention : Reuss Voigt Hill
#
# Bulk Modulus (GPa) = 41.99072 62.89788 52.44430
# Shear Modulus (GPa) = 82.47932 29.73993 56.10963
#
# Velocity S-wave (km/s) = 5.77697 3.46895 4.76482
# Velocity P-wave (km/s) = 7.84146 6.44166 7.17577
#
# Compressibility (1/GPa) = 0.02381478
#
# Stress axis : x y z
#
# Youngs Moduli (GPa) = 103.30462 41.21954 78.10363
#
# Poissons Ratio (x) = 0.21655 0.26139
# Poissons Ratio (y) = 0.54273 0.22370
# Poissons Ratio (z) = 0.34573 0.11806
#
# Static dielectric constant tensor:
#      x y z
#    x 1.999580 0.000000 -0.027710 
#    y 0.000000 2.100500 0.000000 
#    z -0.027710 0.000000 2.057580 
# 
# From -- ./inp_files/57628.got.cif
#   From: 2010.05.17/outbox.cif.g08.bks.cpg/sg5_29_cif.got.tgz:57628.got - 2010.06.03 18:56:24.
