data_PCOD9122384
_publ_section_title
;
Structure prediction by ZEFSAII (Michael W. Deem and Ramdas Pophale) SiO2 
 PCOD9122384
Probable space group: C 2
;
_chemical_formula_sum "Si O2"
_cell_formula_units_Z 26
_cell_length_a 9.738337
_cell_length_b 13.145728
_cell_length_c 15.105924
_cell_angle_alpha 90.000000
_cell_angle_beta 145.863191
_cell_angle_gamma 90.000000
_cell_volume 1085.205148
_symmetry_space_group_name_H-M "C 2"
_symmetry_group_IT_number 5
_symmetry_cell_setting 'monoclinic'
loop_
_space_group_symop_operation_xyz
x,y,z
-x,y,-z
1/2+x,1/2+y,z
1/2-x,1/2+y,-z
loop_
_atom_site_type_symbol
_atom_site_label
_atom_site_fract_x
_atom_site_fract_y
_atom_site_fract_z
Si Si1 0.964423 0.308380 0.657373
Si Si2 0.470740 0.018690 0.742244
Si Si3 0.500000 0.206857 0.500000
Si Si4 0.000000 0.567024 0.000000
Si Si5 0.816680 0.940363 0.074295
Si Si6 0.169459 0.104583 0.187867
Si Si7 0.768305 0.734581 0.983220
Si Si8 0.500000 0.668389 0.500000
O O1 0.947728 0.431131 0.653826
O O2 0.714052 0.272136 0.570387
O O3 0.184191 0.276904 0.841895
O O4 0.993496 0.243973 0.582357
O O5 0.706824 0.085124 0.839681
O O6 0.234509 0.090952 0.623563
O O7 0.572246 0.956586 0.882388
O O8 0.392178 0.134805 0.368180
O O9 0.945950 0.642251 0.052906
O O10 0.236559 0.493767 0.122666
O O11 0.877597 0.822642 0.101861
O O12 0.036827 0.003431 0.151063
O O13 0.978002 0.194906 0.102198
#
# Coordination Sequence:
#
# PCOD9122384 Si02
#       8
#     4   4   2   2   4   4   4   2
#     4  10  22  39  65  94 132 180 227 276 341 397
#     4  11  23  41  67  96 139 176 229 283 339 402
#     4  10  19  43  66  94 140 178 223 281 342 398
#     4  10  20  40  60  92 130 166 214 274 332 396
#     4  10  22  41  66  98 128 178 224 275 346 399
#     4  10  21  40  68  97 133 178 220 278 341 408
#     4   9  21  39  65  91 131 177 216 276 338 400
#     4  12  23  43  66 102 136 184 231 287 334 412
#
# _framework density 23.958604000000001
#
# number of rings (size 3 to 8) (size 9 to 14) (size 15 to 20)
#    0.000    1.846    1.538    1.846    4.308    0.615 
#    5.538    1.538    0.000    0.000    0.000    0.000 
#    0.000    0.000    0.000    0.000    0.000    0.000 
#
# Total GULP energy -72599.002086 kJ/mol
# GULP energy per Si atom -5584.538622 kJ/mol
# Density = 2.390407 g / cm^3
# Si number density = 23.958604 Si / 1000 Ang^3
#
#
#
# Elastic Constant Matrix: (Units=GPa)
#
#
# Indices 1 2 3 4 5 6 
#
# 1 129.6266 22.5003 4.9382 0.0001 13.2203 -0.0001
# 2 22.5003 121.1941 9.4850 0.0005 -3.9049 0.0003
# 3 4.9382 9.4850 34.4356 0.0031 -4.0442 0.0005
# 4 0.0001 0.0005 0.0031 27.7899 0.0009 -6.7325
# 5 13.2203 -3.9049 -4.0442 0.0009 31.1317 0.0000
# 6 -0.0001 0.0003 0.0005 -6.7325 0.0000 26.6641
#
#
#
# Elastic Compliance Matrix: (Units=1/GPa)
#
#
# Indices 1 2 3 4 5 6 
#
# 1 0.008441 -0.001598 -0.001234 0.000000 -0.003945 0.000000
# 2 -0.001598 0.008754 -0.002004 0.000000 0.001516 0.000000
# 3 -0.001234 -0.002004 0.030262 -0.000004 0.004204 -0.000002
# 4 0.000000 0.000000 -0.000004 0.038329 -0.000002 0.009678
# 5 -0.003945 0.001516 0.004204 -0.000002 0.034533 -0.000001
# 6 0.000000 0.000000 -0.000002 0.009678 -0.000001 0.039947
#
#
# Mechanical properties :
#
#
# Convention : Reuss Voigt Hill
#
# Bulk Modulus (GPa) = 26.46465 39.90035 33.18250
# Shear Modulus (GPa) = 27.39240 33.67267 30.53254
#
# Velocity S-wave (km/s) = 3.38497 3.75300 3.57373
# Velocity P-wave (km/s) = 5.13297 5.95568 5.55956
#
# Compressibility (1/GPa) = 0.03778625
#
# Stress axis : x y z
#
# Youngs Moduli (GPa) = 118.46716 114.23964 33.04441
#
# Poissons Ratio (x) = 0.18252 0.04077
# Poissons Ratio (y) = 0.18928 0.06622
# Poissons Ratio (z) = 0.14616 0.22893
#
# Static dielectric constant tensor:
#      x y z
#    x 1.986110 0.000000 -0.051220 
#    y 0.000000 1.964030 0.000000 
#    z -0.051220 0.000000 1.914010 
# 
# From -- ./inp_files/46319.got.cif
#   From: 2010.05.17/outbox.cif.g08.bks.cpg/sg5_24_cif.got.tgz:46319.got - 2010.06.03 18:56:24.
