data_PCOD9122306
_publ_section_title
;
Structure prediction by ZEFSAII (Michael W. Deem and Ramdas Pophale) SiO2 
 PCOD9122306
Probable space group: C 2
;
_chemical_formula_sum "Si O2"
_cell_formula_units_Z 28
_cell_length_a 12.391022
_cell_length_b 14.627751
_cell_length_c 9.082485
_cell_angle_alpha 90.000000
_cell_angle_beta 129.014843
_cell_angle_gamma 90.000000
_cell_volume 1279.089222
_symmetry_space_group_name_H-M "C 2"
_symmetry_group_IT_number 5
_symmetry_cell_setting 'monoclinic'
loop_
_space_group_symop_operation_xyz
x,y,z
-x,y,-z
1/2+x,1/2+y,z
1/2-x,1/2+y,-z
loop_
_atom_site_type_symbol
_atom_site_label
_atom_site_fract_x
_atom_site_fract_y
_atom_site_fract_z
Si Si1 0.338071 0.208680 0.493282
Si Si2 0.291442 0.992717 0.942835
Si Si3 0.344313 0.173510 0.174402
Si Si4 0.152039 0.918078 0.553919
Si Si5 0.581929 0.804369 0.920255
Si Si6 0.001059 0.998498 0.829034
Si Si7 0.063995 0.175422 0.398981
O O1 0.320762 0.149247 0.328289
O O2 0.496121 0.207394 0.685525
O O3 0.305157 0.312447 0.412975
O O4 0.228884 0.178758 0.522470
O O5 0.252619 0.982273 0.736397
O O6 0.399762 0.912802 0.066108
O O7 0.148370 0.962679 0.898637
O O8 0.329618 0.089589 0.047747
O O9 0.229450 0.250781 0.041148
O O10 0.000000 0.922761 0.500000
O O11 0.124384 0.950544 0.364886
O O12 0.495937 0.771323 0.706047
O O13 0.500000 0.778972 0.000000
O O14 0.992411 0.102946 0.767965
O O15 0.000000 0.990006 0.000000
O O16 0.000000 0.149431 0.500000
#
# Coordination Sequence:
#
# PCOD9122306 Si02
#       7
#     4   4   4   4   4   4   4
#     4  11  22  45  72 102 143 202 242 299 376 443
#     4  11  22  40  69 110 139 182 248 311 361 436
#     4  11  21  42  74 105 143 190 249 304 368 443
#     4  10  19  40  71 101 138 183 244 298 365 445
#     4  12  23  46  75 102 144 196 246 298 375 447
#     4  11  23  41  70 100 138 194 246 298 370 447
#     4  12  25  44  67 101 143 192 242 300 367 449
#
# _framework density 21.890575999999999
#
# number of rings (size 3 to 8) (size 9 to 14) (size 15 to 20)
#    0.000    0.857    5.714    3.429    0.000    1.143 
#   10.286    0.714    0.000    0.000    0.000    0.000 
#    0.000    0.000    0.000    0.000    0.000    0.000 
#
# Total GULP energy -78231.817408 kJ/mol
# GULP energy per Si atom -5587.986958 kJ/mol
# Density = 2.184075 g / cm^3
# Si number density = 21.890576 Si / 1000 Ang^3
#
#
#
# Elastic Constant Matrix: (Units=GPa)
#
#
# Indices 1 2 3 4 5 6 
#
# 1 113.1831 20.1284 39.9928 0.0000 3.9818 0.0000
# 2 20.1284 105.1679 44.1087 0.0000 -7.0949 0.0000
# 3 39.9928 44.1087 114.2868 0.0000 -18.4396 0.0000
# 4 0.0000 0.0000 0.0000 43.6761 0.0000 1.0484
# 5 3.9818 -7.0949 -18.4396 0.0000 37.0949 0.0000
# 6 0.0000 0.0000 0.0000 1.0484 0.0000 19.3753
#
#
#
# Elastic Compliance Matrix: (Units=1/GPa)
#
#
# Indices 1 2 3 4 5 6 
#
# 1 0.010444 -0.000555 -0.003956 0.000000 -0.003194 0.000000
# 2 -0.000555 0.011375 -0.004169 0.000000 0.000163 0.000000
# 3 -0.003956 -0.004169 0.012702 0.000000 0.005941 0.000000
# 4 0.000000 0.000000 0.000000 0.022926 0.000000 -0.001241
# 5 -0.003194 0.000163 0.005941 0.000000 0.030285 0.000000
# 6 0.000000 0.000000 0.000000 -0.001241 0.000000 0.051679
#
#
# Mechanical properties :
#
#
# Convention : Reuss Voigt Hill
#
# Bulk Modulus (GPa) = 58.27616 60.12196 59.19906
# Shear Modulus (GPa) = 30.77088 35.25645 33.01366
#
# Velocity S-wave (km/s) = 3.75329 4.01755 3.88767
# Velocity P-wave (km/s) = 6.74257 7.00324 6.87414
#
# Compressibility (1/GPa) = 0.01715967
#
# Stress axis : x y z
#
# Youngs Moduli (GPa) = 95.74806 87.91541 78.72832
#
# Poissons Ratio (x) = 0.04882 0.31142
# Poissons Ratio (y) = 0.05317 0.32825
# Poissons Ratio (z) = 0.37875 0.36656
#
# Static dielectric constant tensor:
#      x y z
#    x 1.819930 0.000000 0.008070 
#    y 0.000000 1.833210 0.000000 
#    z 0.008070 0.000000 1.829970 
# 
# From -- ./inp_files/20725.got.cif
#   From: 2010.05.17/outbox.cif.g08.bks.cpg/sg5_11_cif.got.tgz:20725.got - 2010.06.03 18:56:24.
