data_PCOD9122257
_publ_section_title
;
Structure prediction by ZEFSAII (Michael W. Deem and Ramdas Pophale) SiO2 
 PCOD9122257
Probable space group: C 2
;
_chemical_formula_sum "Si O2"
_cell_formula_units_Z 26
_cell_length_a 15.988376
_cell_length_b 17.177424
_cell_length_c 7.632664
_cell_angle_alpha 90.000000
_cell_angle_beta 144.303287
_cell_angle_gamma 90.000000
_cell_volume 1223.137809
_symmetry_space_group_name_H-M "C 2"
_symmetry_group_IT_number 5
_symmetry_cell_setting 'monoclinic'
loop_
_space_group_symop_operation_xyz
x,y,z
-x,y,-z
1/2+x,1/2+y,z
1/2-x,1/2+y,-z
loop_
_atom_site_type_symbol
_atom_site_label
_atom_site_fract_x
_atom_site_fract_y
_atom_site_fract_z
Si Si1 0.000000 0.037640 0.000000
Si Si2 0.219240 0.173788 0.789949
Si Si3 0.373419 0.500568 0.432575
Si Si4 0.669385 0.677942 0.110257
Si Si5 0.025475 0.640470 0.252713
Si Si6 0.966430 0.300288 0.649756
Si Si7 0.041589 0.468681 0.867760
O O1 0.064824 0.985890 0.267579
O O2 0.108852 0.099745 0.096459
O O3 0.171387 0.091754 0.628387
O O4 0.168041 0.242334 0.575440
O O5 0.159475 0.167070 0.884345
O O6 0.387732 0.180992 0.098745
O O7 0.500000 0.489503 0.500000
O O8 0.215069 0.462338 0.131506
O O9 0.830054 0.682269 0.449707
O O10 0.582408 0.758872 0.973956
O O11 0.017020 0.550750 0.305250
O O12 0.000000 0.639967 0.000000
O O13 0.000000 0.294674 0.500000
O O14 0.960891 0.391481 0.670087
O O15 0.000000 0.473592 0.000000
#
# Coordination Sequence:
#
# PCOD9122257 Si02
#       7
#     2   4   4   4   4   4   4
#     4  12  20  34  70  96 122 170 214 264 320 378
#     4  10  19  40  62  93 126 163 214 264 312 384
#     4  11  21  41  63  97 130 166 217 268 312 386
#     4  11  21  35  65  95 121 163 215 261 316 376
#     4  10  22  38  60  94 127 158 213 268 314 373
#     4  10  22  40  63  90 124 169 213 256 321 389
#     4  10  23  40  61  91 133 162 213 262 321 381
#
# _framework density 21.256802
#
# number of rings (size 3 to 8) (size 9 to 14) (size 15 to 20)
#    0.000    1.538    3.077    3.692    1.077    2.462 
#    2.769    3.077    1.692    0.000    0.000    0.000 
#    0.000    0.000    0.000    0.000    0.000    0.000 
#
# Total GULP energy -72446.178198 kJ/mol
# GULP energy per Si atom -5572.782938 kJ/mol
# Density = 2.120842 g / cm^3
# Si number density = 21.256802 Si / 1000 Ang^3
#
#
#
# Elastic Constant Matrix: (Units=GPa)
#
#
# Indices 1 2 3 4 5 6 
#
# 1 72.9916 0.2129 17.8812 0.0000 2.1692 0.0000
# 2 0.2129 73.5903 35.1548 0.0000 -0.3267 0.0000
# 3 17.8812 35.1548 90.7278 0.0000 -0.0422 0.0000
# 4 0.0000 0.0000 0.0000 9.9230 0.0000 6.0276
# 5 2.1692 -0.3267 -0.0422 0.0000 38.4982 0.0000
# 6 0.0000 0.0000 0.0000 6.0276 0.0000 6.1134
#
#
#
# Elastic Compliance Matrix: (Units=1/GPa)
#
#
# Indices 1 2 3 4 5 6 
#
# 1 0.014578 0.001628 -0.003504 0.000000 -0.000811 0.000000
# 2 0.001628 0.016858 -0.006853 0.000000 0.000044 0.000000
# 3 -0.003504 -0.006853 0.014368 0.000000 0.000155 0.000000
# 4 0.000000 0.000000 0.000000 0.251262 0.000000 -0.247738
# 5 -0.000811 0.000044 0.000155 0.000000 0.026021 0.000000
# 6 0.000000 0.000000 0.000000 -0.247738 0.000000 0.407838
#
#
# Mechanical properties :
#
#
# Convention : Reuss Voigt Hill
#
# Bulk Modulus (GPa) = 35.27836 38.20083 36.73960
# Shear Modulus (GPa) = 6.59776 23.17764 14.88770
#
# Velocity S-wave (km/s) = 1.76368 3.30565 2.64933
# Velocity P-wave (km/s) = 4.55848 5.70788 5.16525
#
# Compressibility (1/GPa) = 0.02834599
#
# Stress axis : x y z
#
# Youngs Moduli (GPa) = 68.59611 59.31916 69.59866
#
# Poissons Ratio (x) = -0.09659 0.24391
# Poissons Ratio (y) = -0.11170 0.47696
# Poissons Ratio (z) = 0.24039 0.40651
#
# Static dielectric constant tensor:
#      x y z
#    x 1.927860 0.000000 0.008040 
#    y 0.000000 1.824190 0.000000 
#    z 0.008040 0.000000 1.813760 
# 
# From -- ./inp_files/27927.got.cif
#   From: 2010.05.17/outbox.cif.g08.bks.cpg/sg5_14_cif.got.tgz:27927.got - 2010.06.03 18:56:24.
