data_PCOD9122519
_publ_section_title
;
Structure prediction by ZEFSAII (Michael W. Deem and Ramdas Pophale) SiO2 
 PCOD9122519
Probable space group: C 2
;
_chemical_formula_sum "Si O2"
_cell_formula_units_Z 32
_cell_length_a 19.277048
_cell_length_b 7.710873
_cell_length_c 11.558626
_cell_angle_alpha 90.000000
_cell_angle_beta 116.365899
_cell_angle_gamma 90.000000
_cell_volume 1539.383340
_symmetry_space_group_name_H-M "C 2"
_symmetry_group_IT_number 5
_symmetry_cell_setting 'monoclinic'
loop_
_space_group_symop_operation_xyz
x,y,z
-x,y,-z
1/2+x,1/2+y,z
1/2-x,1/2+y,-z
loop_
_atom_site_type_symbol
_atom_site_label
_atom_site_fract_x
_atom_site_fract_y
_atom_site_fract_z
Si Si1 0.522975 0.255820 0.392830
Si Si2 0.207067 0.343916 0.139736
Si Si3 0.630732 0.349168 0.845139
Si Si4 0.522975 0.852047 0.392830
Si Si5 0.172856 0.762856 0.372002
Si Si6 0.207067 0.763951 0.139736
Si Si7 0.327144 0.845011 0.627998
Si Si8 0.869267 0.258698 0.154861
O O1 0.500000 0.334341 0.500000
O O2 0.448159 0.265038 0.255863
O O3 0.597820 0.331835 0.384293
O O4 0.542420 0.053933 0.429483
O O5 0.293896 0.284508 0.170092
O O6 0.208819 0.553933 0.141210
O O7 0.181513 0.281300 0.246721
O O8 0.151037 0.288890 0.994216
O O9 0.623438 0.553933 0.819123
O O10 0.651037 0.318977 0.994216
O O11 0.500000 0.773525 0.500000
O O12 0.597820 0.776032 0.384293
O O13 0.448158 0.842828 0.255863
O O14 0.181513 0.826567 0.246721
O O15 0.250000 0.803933 0.500000
O O16 0.165632 0.553933 0.358561
O O17 0.293896 0.823359 0.170091
#
# Coordination Sequence:
#
# PCOD9122519 Si02
#       8
#     4   4   4   4   4   4   4   4
#     4  10  21  36  54  77 106 139 172 209 258 312
#     4   9  19  36  55  76 105 139 173 210 256 308
#     4  10  20  34  55  80 104 135 174 215 257 301
#     4  10  21  36  54  77 106 139 172 209 258 312
#     4  10  21  36  55  78 104 137 174 213 258 306
#     4   9  19  36  55  76 105 139 173 210 256 308
#     4  10  21  36  55  78 104 137 174 213 258 306
#     4  10  20  34  55  80 104 135 174 215 257 301
#
# _framework density 20.787545000000001
#
# number of rings (size 3 to 8) (size 9 to 14) (size 15 to 20)
#    0.000    2.250    0.000    2.250    0.000    4.500 
#    0.000    5.000    0.000    0.000    0.000    0.000 
#    0.000    0.000    0.000    0.000    0.000    0.000 
#
# Total GULP energy -89367.787651 kJ/mol
# GULP energy per Si atom -5585.486728 kJ/mol
# Density = 2.074023 g / cm^3
# Si number density = 20.787545 Si / 1000 Ang^3
#
#
#
# Elastic Constant Matrix: (Units=GPa)
#
#
# Indices 1 2 3 4 5 6 
#
# 1 180.5145 0.9358 117.9619 0.0000 -18.6568 0.0000
# 2 0.9358 32.8932 -11.7347 0.0000 -10.3237 0.0000
# 3 117.9619 -11.7347 124.1851 0.0000 -17.7457 0.0000
# 4 0.0000 0.0000 0.0000 18.9799 0.0000 3.4420
# 5 -18.6568 -10.3237 -17.7457 0.0000 42.9454 0.0000
# 6 0.0000 0.0000 0.0000 3.4420 0.0000 7.8890
#
#
#
# Elastic Compliance Matrix: (Units=1/GPa)
#
#
# Indices 1 2 3 4 5 6 
#
# 1 0.015709 -0.006428 -0.015702 0.000000 -0.001209 0.000000
# 2 -0.006428 0.038066 0.011277 0.000000 0.011018 0.000000
# 3 -0.015702 0.011277 0.024917 0.000000 0.006186 0.000000
# 4 0.000000 0.000000 0.000000 0.057214 0.000000 -0.024962
# 5 -0.001209 0.011018 0.006186 0.000000 0.027965 0.000000
# 6 0.000000 0.000000 0.000000 -0.024962 0.000000 0.137649
#
#
# Mechanical properties :
#
#
# Convention : Reuss Voigt Hill
#
# Bulk Modulus (GPa) = 17.54810 61.32433 39.43621
# Shear Modulus (GPa) = 14.61048 29.32485 21.96766
#
# Velocity S-wave (km/s) = 2.65400 3.75999 3.25433
# Velocity P-wave (km/s) = 4.22512 6.95806 5.75614
#
# Compressibility (1/GPa) = 0.05698624
#
# Stress axis : x y z
#
# Youngs Moduli (GPa) = 63.65842 26.27050 40.13325
#
# Poissons Ratio (x) = 0.16887 0.63016
# Poissons Ratio (y) = 0.40920 -0.45259
# Poissons Ratio (z) = 0.99955 -0.29626
#
# Static dielectric constant tensor:
#      x y z
#    x 1.750200 0.000000 -0.033920 
#    y 0.000000 1.764950 0.000000 
#    z -0.033920 0.000000 1.693550 
# 
# From -- ./inp_files/46035.got.cif
#   From: 2010.05.17/outbox.cif.g08.bks.cpg/sg5_24_cif.got.tgz:46035.got - 2010.06.03 18:56:24.
