data_PCOD9122803
_publ_section_title
;
Structure prediction by ZEFSAII (Michael W. Deem and Ramdas Pophale) SiO2 
 PCOD9122803
Probable space group: C 2
;
_chemical_formula_sum "Si O2"
_cell_formula_units_Z 24
_cell_length_a 9.117139
_cell_length_b 11.034098
_cell_length_c 10.695448
_cell_angle_alpha 90.000000
_cell_angle_beta 78.600371
_cell_angle_gamma 90.000000
_cell_volume 1054.729742
_symmetry_space_group_name_H-M "C 2"
_symmetry_group_IT_number 5
_symmetry_cell_setting 'monoclinic'
loop_
_space_group_symop_operation_xyz
x,y,z
-x,y,-z
1/2+x,1/2+y,z
1/2-x,1/2+y,-z
loop_
_atom_site_type_symbol
_atom_site_label
_atom_site_fract_x
_atom_site_fract_y
_atom_site_fract_z
Si Si1 0.595321 0.614700 0.743827
Si Si2 0.403411 0.099576 0.369377
Si Si3 0.670006 0.953594 0.371438
Si Si4 0.788378 0.043593 0.829245
Si Si5 0.000000 0.231536 0.500000
Si Si6 0.118830 0.768602 0.223954
Si Si7 0.500000 0.135169 0.000000
O O1 0.675441 0.482766 0.721195
O O2 0.439557 0.612159 0.843843
O O3 0.551988 0.657084 0.611157
O O4 0.725001 0.700289 0.774245
O O5 0.497312 0.223784 0.347544
O O6 0.529109 0.997034 0.310814
O O7 0.343087 0.048809 0.510337
O O8 0.274036 0.097474 0.290077
O O9 0.632131 0.823480 0.433164
O O10 0.840607 0.907992 0.792487
O O11 0.647500 0.057153 0.943877
O O12 0.045809 0.718699 0.108936
#
# Coordination Sequence:
#
# PCOD9122803 Si02
#       7
#     4   4   4   4   2   4   2
#     4  11  23  35  60  93 116 150 201 229 273 353
#     4   8  17  36  57  84 120 153 187 223 278 345
#     4   9  18  35  57  85 125 162 187 223 275 340
#     4  11  23  40  61  86 113 148 196 246 293 343
#     4  10  20  36  58  88 128 158 178 230 284 330
#     4  10  22  42  62  83 114 153 189 245 295 332
#     4  10  26  44  60  82 112 148 198 248 300 348
#
# _framework density 22.754643999999999
#
# number of rings (size 3 to 8) (size 9 to 14) (size 15 to 20)
#    0.000    2.333    0.000    3.000    0.000    7.333 
#    0.000    5.000    0.000    0.000    0.000    0.000 
#    0.000    0.000    0.000    0.000    0.000    0.000 
#
# Total GULP energy -66996.859233 kJ/mol
# GULP energy per Si atom -5583.071603 kJ/mol
# Density = 2.270285 g / cm^3
# Si number density = 22.754644 Si / 1000 Ang^3
#
#
#
# Elastic Constant Matrix: (Units=GPa)
#
#
# Indices 1 2 3 4 5 6 
#
# 1 180.5522 38.1550 27.5589 0.0000 -18.7606 0.0000
# 2 38.1550 84.7119 5.4793 0.0000 -11.6480 0.0000
# 3 27.5589 5.4793 44.9178 0.0000 7.4505 0.0000
# 4 0.0000 0.0000 0.0000 12.2734 0.0000 1.8203
# 5 -18.7606 -11.6480 7.4505 0.0000 31.3209 0.0000
# 6 0.0000 0.0000 0.0000 1.8203 0.0000 27.9322
#
#
#
# Elastic Compliance Matrix: (Units=1/GPa)
#
#
# Indices 1 2 3 4 5 6 
#
# 1 0.007268 -0.002311 -0.004953 0.000000 0.004672 0.000000
# 2 -0.002311 0.013425 -0.000852 0.000000 0.003811 0.000000
# 3 -0.004953 -0.000852 0.027016 0.000000 -0.009710 0.000000
# 4 0.000000 0.000000 0.000000 0.082272 0.000000 -0.005362
# 5 0.004672 0.003811 -0.009710 0.000000 0.038453 0.000000
# 6 0.000000 0.000000 0.000000 -0.005362 0.000000 0.036150
#
#
# Mechanical properties :
#
#
# Convention : Reuss Voigt Hill
#
# Bulk Modulus (GPa) = 31.76793 50.28539 41.02666
# Shear Modulus (GPa) = 21.61616 30.23787 25.92702
#
# Velocity S-wave (km/s) = 3.08550 3.64932 3.37919
# Velocity P-wave (km/s) = 5.16576 6.31693 5.77013
#
# Compressibility (1/GPa) = 0.03147829
#
# Stress axis : x y z
#
# Youngs Moduli (GPa) = 137.58301 74.48953 37.01518
#
# Poissons Ratio (x) = 0.17214 0.18332
# Poissons Ratio (y) = 0.31795 0.03153
# Poissons Ratio (z) = 0.68138 0.06346
#
# Static dielectric constant tensor:
#      x y z
#    x 1.903800 0.000000 -0.030830 
#    y 0.000000 1.846750 0.000000 
#    z -0.030830 0.000000 1.893560 
# 
# From -- ./inp_files/35438.got.cif
#   From: 2010.05.17/outbox.cif.g08.bks.cpg/sg5_18_cif.got.tgz:35438.got - 2010.06.03 18:56:24.
