data_PCOD9122323
_publ_section_title
;
Structure prediction by ZEFSAII (Michael W. Deem and Ramdas Pophale) SiO2 
 PCOD9122323
Probable space group: C 2
;
_chemical_formula_sum "Si O2"
_cell_formula_units_Z 32
_cell_length_a 26.263778
_cell_length_b 10.855892
_cell_length_c 9.361490
_cell_angle_alpha 90.000000
_cell_angle_beta 145.539446
_cell_angle_gamma 90.000000
_cell_volume 1510.290029
_symmetry_space_group_name_H-M "C 2"
_symmetry_group_IT_number 5
_symmetry_cell_setting 'monoclinic'
loop_
_space_group_symop_operation_xyz
x,y,z
-x,y,-z
1/2+x,1/2+y,z
1/2-x,1/2+y,-z
loop_
_atom_site_type_symbol
_atom_site_label
_atom_site_fract_x
_atom_site_fract_y
_atom_site_fract_z
Si Si1 0.902227 0.513440 0.227865
Si Si2 0.908173 0.228664 0.207539
Si Si3 0.214153 0.597667 0.792470
Si Si4 0.402078 0.221707 0.713648
Si Si5 0.085979 0.263264 0.120769
Si Si6 0.249265 0.378817 0.668961
Si Si7 0.313765 0.122582 0.788668
Si Si8 0.858193 0.992297 0.678502
O O1 0.894422 0.367687 0.231036
O O2 0.824282 0.576929 0.139178
O O3 0.000000 0.554609 0.500000
O O4 0.895640 0.553111 0.048476
O O5 0.000000 0.181770 0.500000
O O6 0.815231 0.153878 0.018917
O O7 0.921278 0.246052 0.066277
O O8 0.140665 0.676920 0.533140
O O9 0.214967 0.465970 0.713634
O O10 0.332777 0.166552 0.671578
O O11 0.402224 0.370985 0.715213
O O12 0.500000 0.183240 0.000000
O O13 0.172025 0.340025 0.375956
O O14 0.095062 0.124029 0.203482
O O15 0.000000 0.320547 0.000000
O O16 0.289457 0.249242 0.811493
O O17 0.326789 0.451747 0.763740
O O18 0.233113 0.026607 0.613890
#
# Coordination Sequence:
#
# PCOD9122323 Si02
#       8
#     4   4   4   4   4   4   4   4
#     4  11  26  42  65  93 135 173 229 274 337 406
#     4  11  26  47  67  99 140 181 232 279 335 413
#     4  12  24  44  67  94 136 182 222 279 343 397
#     4  11  22  37  67  96 129 164 221 278 340 394
#     4  11  23  39  70  98 130 167 224 286 337 398
#     4  10  21  37  65  92 124 167 221 262 336 396
#     4  10  20  39  63  86 125 166 212 270 325 395
#     4  10  19  41  63  94 124 166 215 276 330 397
#
# _framework density 21.187985000000001
#
# number of rings (size 3 to 8) (size 9 to 14) (size 15 to 20)
#    0.000    1.250    2.500    4.125    5.250    1.500 
#    0.000    1.875    0.000    0.000    0.000    0.000 
#    0.000    0.000    0.000    0.000    0.000    0.000 
#
# Total GULP energy -89275.594720 kJ/mol
# GULP energy per Si atom -5579.724670 kJ/mol
# Density = 2.113976 g / cm^3
# Si number density = 21.187985 Si / 1000 Ang^3
#
#
#
# Elastic Constant Matrix: (Units=GPa)
#
#
# Indices 1 2 3 4 5 6 
#
# 1 56.8693 7.5091 7.3189 0.0000 8.4241 0.0000
# 2 7.5091 63.5323 12.9908 0.0000 5.1836 0.0000
# 3 7.3189 12.9908 103.2130 0.0000 17.7585 0.0000
# 4 0.0000 0.0000 0.0000 11.2903 0.0000 -0.4299
# 5 8.4241 5.1836 17.7585 0.0000 30.2925 0.0000
# 6 0.0000 0.0000 0.0000 -0.4299 0.0000 22.0268
#
#
#
# Elastic Compliance Matrix: (Units=1/GPa)
#
#
# Indices 1 2 3 4 5 6 
#
# 1 0.018547 -0.001751 -0.000288 0.000000 -0.004689 0.000000
# 2 -0.001751 0.016405 -0.001714 0.000000 -0.001315 0.000000
# 3 -0.000288 -0.001714 0.010967 0.000000 -0.006056 0.000000
# 4 0.000000 0.000000 0.000000 0.088637 0.000000 0.001730
# 5 -0.004689 -0.001315 -0.006056 0.000000 0.038091 0.000000
# 6 0.000000 0.000000 0.000000 0.001730 0.000000 0.045433
#
#
# Mechanical properties :
#
#
# Convention : Reuss Voigt Hill
#
# Bulk Modulus (GPa) = 26.03303 31.02802 28.53052
# Shear Modulus (GPa) = 20.97405 25.77498 23.37452
#
# Velocity S-wave (km/s) = 3.14969 3.49161 3.32504
# Velocity P-wave (km/s) = 5.05378 5.56157 5.31374
#
# Compressibility (1/GPa) = 0.03841275
#
# Stress axis : x y z
#
# Youngs Moduli (GPa) = 53.91692 60.95781 91.18415
#
# Poissons Ratio (x) = 0.10672 0.02626
# Poissons Ratio (y) = 0.09439 0.15632
# Poissons Ratio (z) = 0.01553 0.10450
#
# Static dielectric constant tensor:
#      x y z
#    x 1.917030 0.000000 0.115320 
#    y 0.000000 1.772070 0.000000 
#    z 0.115320 0.000000 1.872690 
# 
# From -- ./inp_files/32641.got.cif
#   From: 2010.05.17/outbox.cif.g08.bks.cpg/sg5_17_cif.got.tgz:32641.got - 2010.06.03 18:56:24.
