data_PCOD9122651
_publ_section_title
;
Structure prediction by ZEFSAII (Michael W. Deem and Ramdas Pophale) SiO2 
 PCOD9122651
Probable space group: C 2
;
_chemical_formula_sum "Si O2"
_cell_formula_units_Z 30
_cell_length_a 7.986896
_cell_length_b 20.886670
_cell_length_c 10.000553
_cell_angle_alpha 90.000000
_cell_angle_beta 88.063904
_cell_angle_gamma 90.000000
_cell_volume 1667.336486
_symmetry_space_group_name_H-M "C 2"
_symmetry_group_IT_number 5
_symmetry_cell_setting 'monoclinic'
loop_
_space_group_symop_operation_xyz
x,y,z
-x,y,-z
1/2+x,1/2+y,z
1/2-x,1/2+y,-z
loop_
_atom_site_type_symbol
_atom_site_label
_atom_site_fract_x
_atom_site_fract_y
_atom_site_fract_z
Si Si1 0.647561 0.251120 0.725970
Si Si2 0.133797 0.360117 0.392062
Si Si3 0.878038 0.964086 0.377397
Si Si4 0.000000 0.664163 0.500000
Si Si5 0.143637 0.111486 0.610709
Si Si6 0.964913 0.870352 0.848215
Si Si7 0.011208 0.199551 0.153374
Si Si8 0.579488 0.846354 0.856244
O O1 0.735019 0.303134 0.626743
O O2 0.543941 0.205272 0.631660
O O3 0.537731 0.298500 0.821552
O O4 0.796940 0.214725 0.802387
O O5 0.213832 0.426803 0.430926
O O6 0.000000 0.336807 0.500000
O O7 0.044835 0.370302 0.253582
O O8 0.000000 0.962373 0.500000
O O9 0.948527 0.920255 0.255174
O O10 0.852150 0.037712 0.342111
O O11 0.826271 0.628211 0.543810
O O12 0.000000 0.118221 0.500000
O O13 0.083332 0.155905 0.735491
O O14 0.766638 0.869961 0.831167
O O15 0.000000 0.887921 0.000000
O O16 0.923780 0.269236 0.152765
O O17 0.000000 0.175096 0.000000
O O18 0.500000 0.864237 0.000000
#
# Coordination Sequence:
#
# PCOD9122651 Si02
#       8
#     4   4   4   2   4   4   4   4
#     4  10  23  34  60  97 120 156 200 246 320 368
#     4  10  21  33  57  84 117 149 189 244 300 357
#     4  10  23  40  58  84 116 159 207 249 297 353
#     4  12  24  38  66  92 130 162 212 258 304 378
#     4  11  24  43  62  87 124 167 216 257 303 362
#     4  11  21  38  62  89 124 155 199 250 311 378
#     4  10  20  39  62  89 128 161 201 258 315 370
#     4  10  20  35  57  88 121 153 187 245 312 364
#
# _framework density 17.992768000000002
#
# number of rings (size 3 to 8) (size 9 to 14) (size 15 to 20)
#    0.000    1.600    1.333    4.800   10.267    0.533 
#    0.000    0.000    0.000    1.600    0.000    0.000 
#    0.000    0.000    0.000    0.000    0.000    0.000 
#
# Total GULP energy -83667.447460 kJ/mol
# GULP energy per Si atom -5577.829831 kJ/mol
# Density = 1.795182 g / cm^3
# Si number density = 17.992768 Si / 1000 Ang^3
#
#
#
# Elastic Constant Matrix: (Units=GPa)
#
#
# Indices 1 2 3 4 5 6 
#
# 1 91.9219 41.4550 9.0983 0.0000 -9.0265 0.0000
# 2 41.4550 66.9816 33.3224 0.0000 2.4501 0.0000
# 3 9.0983 33.3224 70.1941 0.0000 -3.4336 0.0000
# 4 0.0000 0.0000 0.0000 22.0073 0.0000 -0.6925
# 5 -9.0265 2.4501 -3.4336 0.0000 24.0278 0.0000
# 6 0.0000 0.0000 0.0000 -0.6925 0.0000 3.1320
#
#
#
# Elastic Compliance Matrix: (Units=1/GPa)
#
#
# Indices 1 2 3 4 5 6 
#
# 1 0.017204 -0.013160 0.004430 0.000000 0.008438 0.000000
# 2 -0.013160 0.029882 -0.012961 0.000000 -0.009843 0.000000
# 3 0.004430 -0.012961 0.020112 0.000000 0.005860 0.000000
# 4 0.000000 0.000000 0.000000 0.045758 0.000000 0.010118
# 5 0.008438 -0.009843 0.005860 0.000000 0.046629 0.000000
# 6 0.000000 0.000000 0.000000 0.010118 0.000000 0.321523
#
#
# Mechanical properties :
#
#
# Convention : Reuss Voigt Hill
#
# Bulk Modulus (GPa) = 41.98993 44.09433 43.04213
# Shear Modulus (GPa) = 9.39091 19.51487 14.45289
#
# Velocity S-wave (km/s) = 2.28705 3.29689 2.83726
# Velocity P-wave (km/s) = 5.51016 6.24920 5.89128
#
# Compressibility (1/GPa) = 0.02381523
#
# Stress axis : x y z
#
# Youngs Moduli (GPa) = 58.12662 33.46451 49.72242
#
# Poissons Ratio (x) = 0.44039 -0.22028
# Poissons Ratio (y) = 0.76495 0.64447
# Poissons Ratio (z) = -0.25751 0.43375
#
# Static dielectric constant tensor:
#      x y z
#    x 1.633700 0.000000 -0.000880 
#    y 0.000000 1.608850 0.000000 
#    z -0.000880 0.000000 1.627640 
# 
# From -- ./inp_files/16805.got.cif
#   From: 2010.05.17/outbox.cif.g08.bks.cpg/sg5_9_cif.got.tgz:16805.got - 2010.06.03 18:56:24.
