data_PCOD9122073
_publ_section_title
;
Structure prediction by ZEFSAII (Michael W. Deem and Ramdas Pophale) SiO2 
 PCOD9122073
Probable space group: C 2
;
_chemical_formula_sum "Si O2"
_cell_formula_units_Z 30
_cell_length_a 17.696512
_cell_length_b 13.166668
_cell_length_c 10.842656
_cell_angle_alpha 90.000000
_cell_angle_beta 139.625819
_cell_angle_gamma 90.000000
_cell_volume 1636.532140
_symmetry_space_group_name_H-M "C 2"
_symmetry_group_IT_number 5
_symmetry_cell_setting 'monoclinic'
loop_
_space_group_symop_operation_xyz
x,y,z
-x,y,-z
1/2+x,1/2+y,z
1/2-x,1/2+y,-z
loop_
_atom_site_type_symbol
_atom_site_label
_atom_site_fract_x
_atom_site_fract_y
_atom_site_fract_z
Si Si1 0.152391 0.051580 0.408979
Si Si2 0.195992 0.633577 0.622399
Si Si3 0.500000 0.993021 0.500000
Si Si4 0.124561 0.322354 0.802365
Si Si5 0.136869 0.123675 0.665660
Si Si6 0.439957 0.683817 0.051829
Si Si7 0.604874 0.355084 0.469578
Si Si8 0.341024 0.423459 0.193409
O O1 0.247163 0.084031 0.427663
O O2 0.174391 0.100852 0.572076
O O3 0.026079 0.093287 0.204729
O O4 0.153351 0.930206 0.426126
O O5 0.131548 0.736566 0.497609
O O6 0.103080 0.562963 0.575446
O O7 0.307719 0.654591 0.850373
O O8 0.547622 0.916155 0.662487
O O9 0.145327 0.238713 0.721315
O O10 0.066436 0.263427 0.844781
O O11 0.247390 0.366946 0.996250
O O12 0.000000 0.096911 0.500000
O O13 0.185176 0.043821 0.826618
O O14 0.500000 0.723360 0.000000
O O15 0.469696 0.388524 0.311913
O O16 0.664993 0.387531 0.672569
#
# Coordination Sequence:
#
# PCOD9122073 Si02
#       8
#     4   4   2   4   4   4   4   4
#     4  10  21  40  65  90 122 166 218 254 296 385
#     4  11  25  40  63  92 130 160 205 266 318 370
#     4  12  28  40  58  98 128 160 202 268 336 350
#     4  12  23  38  63  93 126 165 202 266 305 371
#     4  11  19  38  63  85 116 162 213 248 300 365
#     4  10  21  39  64  93 122 170 214 254 301 370
#     4  10  19  38  62  90 116 166 203 248 311 362
#     4  10  20  34  63  90 116 159 215 245 296 371
#
# _framework density 18.331446
#
# number of rings (size 3 to 8) (size 9 to 14) (size 15 to 20)
#    0.000    1.333    6.000    0.800    3.733    3.200 
#    0.000    0.000    0.000    3.200    0.000    0.000 
#    0.000    0.000    0.000    0.000    0.000    0.000 
#
# Total GULP energy -83653.423952 kJ/mol
# GULP energy per Si atom -5576.894930 kJ/mol
# Density = 1.828972 g / cm^3
# Si number density = 18.331446 Si / 1000 Ang^3
#
#
#
# Elastic Constant Matrix: (Units=GPa)
#
#
# Indices 1 2 3 4 5 6 
#
# 1 111.3040 63.7000 44.6682 0.0000 -5.6416 0.0000
# 2 63.7000 136.8252 45.0041 0.0000 5.3311 0.0000
# 3 44.6682 45.0041 79.1650 0.0000 9.5128 0.0000
# 4 0.0000 0.0000 0.0000 28.1531 0.0000 -0.8533
# 5 -5.6416 5.3311 9.5128 0.0000 20.6572 0.0000
# 6 0.0000 0.0000 0.0000 -0.8533 0.0000 20.1287
#
#
#
# Elastic Compliance Matrix: (Units=1/GPa)
#
#
# Indices 1 2 3 4 5 6 
#
# 1 0.014986 -0.005155 -0.006539 0.000000 0.008434 0.000000
# 2 -0.005155 0.010763 -0.002865 0.000000 -0.002866 0.000000
# 3 -0.006539 -0.002865 0.019135 0.000000 -0.009858 0.000000
# 4 0.000000 0.000000 0.000000 0.035566 0.000000 0.001508
# 5 0.008434 -0.002866 -0.009858 0.000000 0.055992 0.000000
# 6 0.000000 0.000000 0.000000 0.001508 0.000000 0.049744
#
#
# Mechanical properties :
#
#
# Convention : Reuss Voigt Hill
#
# Bulk Modulus (GPa) = 63.43012 70.44877 66.93944
# Shear Modulus (GPa) = 22.66962 25.38259 24.02611
#
# Velocity S-wave (km/s) = 3.52042 3.72512 3.62422
# Velocity P-wave (km/s) = 7.15552 7.55090 7.35586
#
# Compressibility (1/GPa) = 0.01576538
#
# Stress axis : x y z
#
# Youngs Moduli (GPa) = 66.72796 92.91420 52.26045
#
# Poissons Ratio (x) = 0.47896 0.34173
# Poissons Ratio (y) = 0.34397 0.14975
# Poissons Ratio (z) = 0.43633 0.26624
#
# Static dielectric constant tensor:
#      x y z
#    x 1.624150 0.000000 -0.009550 
#    y 0.000000 1.679700 0.000000 
#    z -0.009550 0.000000 1.636720 
# 
# From -- ./inp_files/44683.got.cif
#   From: 2010.05.17/outbox.cif.g08.bks.cpg/sg5_23_cif.got.tgz:44683.got - 2010.06.03 18:56:24.
