data_PCOD9122862
_publ_section_title
;
Structure prediction by ZEFSAII (Michael W. Deem and Ramdas Pophale) SiO2 
 PCOD9122862
Probable space group: C 2
;
_chemical_formula_sum "Si O2"
_cell_formula_units_Z 32
_cell_length_a 8.968253
_cell_length_b 20.027995
_cell_length_c 14.524688
_cell_angle_alpha 90.000000
_cell_angle_beta 138.045926
_cell_angle_gamma 90.000000
_cell_volume 1744.118958
_symmetry_space_group_name_H-M "C 2"
_symmetry_group_IT_number 5
_symmetry_cell_setting 'monoclinic'
loop_
_space_group_symop_operation_xyz
x,y,z
-x,y,-z
1/2+x,1/2+y,z
1/2-x,1/2+y,-z
loop_
_atom_site_type_symbol
_atom_site_label
_atom_site_fract_x
_atom_site_fract_y
_atom_site_fract_z
Si Si1 0.264202 0.802710 0.604247
Si Si2 0.221381 0.564118 0.546300
Si Si3 0.221380 0.198585 0.546299
Si Si4 0.952598 0.070627 0.836292
Si Si5 0.264202 0.959993 0.604246
Si Si6 0.372427 0.048328 0.140580
Si Si7 0.372427 0.714374 0.140579
Si Si8 0.047403 0.692076 0.163710
O O1 0.306565 0.762273 0.530509
O O2 0.306233 0.881351 0.617563
O O3 0.434729 0.768525 0.754596
O O4 0.000000 0.792311 0.500000
O O5 0.250001 0.631352 0.500001
O O6 0.399782 0.549230 0.708089
O O7 0.193438 0.500429 0.469493
O O8 0.000000 0.577977 0.500000
O O9 0.399782 0.213473 0.708088
O O10 0.000000 0.184725 0.500000
O O11 0.750403 0.063547 0.817207
O O12 0.014140 0.148527 0.850614
O O13 0.165272 0.033226 0.977892
O O14 0.000000 0.970392 0.500000
O O15 0.434729 0.994178 0.754595
O O16 0.485860 0.114176 0.149387
O O17 0.249600 0.699155 0.182795
O O18 0.165270 0.729477 0.977891
#
# Coordination Sequence:
#
# PCOD9122862 Si02
#       8
#     4   4   4   4   4   4   4   4
#     4  11  25  42  59  84 123 165 204 248 303 359
#     4  12  21  36  63  93 119 153 201 253 300 354
#     4  12  21  36  63  93 119 153 201 253 300 354
#     4  10  20  36  60  94 117 150 197 247 304 350
#     4  11  25  42  59  84 123 165 204 248 303 359
#     4  10  21  38  59  89 122 152 196 249 301 357
#     4  10  21  38  59  89 122 152 196 249 301 357
#     4  10  20  36  60  94 117 150 197 247 304 350
#
# _framework density 18.347373000000001
#
# number of rings (size 3 to 8) (size 9 to 14) (size 15 to 20)
#    0.000    1.250    5.000    0.750    3.500    0.500 
#    0.000    3.750    0.000    3.000    0.000    0.000 
#    0.000    0.000    0.000    0.000    0.000    0.000 
#
# Total GULP energy -89193.093022 kJ/mol
# GULP energy per Si atom -5574.568314 kJ/mol
# Density = 1.830561 g / cm^3
# Si number density = 18.347373 Si / 1000 Ang^3
#
#
#
# Elastic Constant Matrix: (Units=GPa)
#
#
# Indices 1 2 3 4 5 6 
#
# 1 84.2628 51.8989 42.8855 0.0000 7.9953 0.0000
# 2 51.8989 92.5317 69.0728 0.0001 14.1001 0.0001
# 3 42.8855 69.0728 169.7948 0.0002 -9.3344 0.0002
# 4 0.0000 0.0001 0.0002 25.2484 0.0001 2.6217
# 5 7.9953 14.1001 -9.3344 0.0001 31.9712 0.0001
# 6 0.0000 0.0001 0.0002 2.6217 0.0001 21.2126
#
#
#
# Elastic Compliance Matrix: (Units=1/GPa)
#
#
# Indices 1 2 3 4 5 6 
#
# 1 0.018187 -0.009575 -0.000728 0.000000 -0.000538 0.000000
# 2 -0.009575 0.023474 -0.007692 0.000000 -0.010204 0.000000
# 3 -0.000728 -0.007692 0.009552 0.000000 0.006363 0.000000
# 4 0.000000 0.000000 0.000000 0.040121 0.000000 -0.004959
# 5 -0.000538 -0.010204 0.006363 0.000000 0.037771 0.000000
# 6 0.000000 0.000000 0.000000 -0.004959 0.000000 0.047755
#
#
# Mechanical properties :
#
#
# Convention : Reuss Voigt Hill
#
# Bulk Modulus (GPa) = 65.68895 74.92265 70.30580
# Shear Modulus (GPa) = 22.94376 27.86858 25.40617
#
# Velocity S-wave (km/s) = 3.54011 3.90159 3.72523
# Velocity P-wave (km/s) = 7.25193 7.82437 7.54358
#
# Compressibility (1/GPa) = 0.01522326
#
# Stress axis : x y z
#
# Youngs Moduli (GPa) = 54.98552 42.59955 104.68800
#
# Poissons Ratio (x) = 0.40790 0.07619
# Poissons Ratio (y) = 0.52650 0.80525
# Poissons Ratio (z) = 0.04002 0.32767
#
# Static dielectric constant tensor:
#      x y z
#    x 1.598700 0.000000 0.089690 
#    y 0.000000 1.579120 0.000000 
#    z 0.089690 0.000000 1.570510 
# 
# From -- ./inp_files/51579.got.cif
#   From: 2010.05.17/outbox.cif.g08.bks.cpg/sg5_26_cif.got.tgz:51579.got - 2010.06.03 18:56:24.
