data_PCOD9122981
_publ_section_title
;
Structure prediction by ZEFSAII (Michael W. Deem and Ramdas Pophale) SiO2 
 PCOD9122981
Probable space group: C 2
;
_chemical_formula_sum "Si O2"
_cell_formula_units_Z 24
_cell_length_a 6.929639
_cell_length_b 12.989267
_cell_length_c 11.690137
_cell_angle_alpha 90.000000
_cell_angle_beta 88.024210
_cell_angle_gamma 90.000000
_cell_volume 1051.614544
_symmetry_space_group_name_H-M "C 2"
_symmetry_group_IT_number 5
_symmetry_cell_setting 'monoclinic'
loop_
_space_group_symop_operation_xyz
x,y,z
-x,y,-z
1/2+x,1/2+y,z
1/2-x,1/2+y,-z
loop_
_atom_site_type_symbol
_atom_site_label
_atom_site_fract_x
_atom_site_fract_y
_atom_site_fract_z
Si Si1 0.000000 0.013230 0.000000
Si Si2 0.217165 0.247288 0.219767
Si Si3 0.727083 0.203917 0.021027
Si Si4 0.368528 0.459842 0.245790
Si Si5 0.643451 0.175179 0.263678
Si Si6 0.628720 0.578431 0.387902
Si Si7 0.000000 0.645095 0.500000
O O1 0.816551 0.090115 0.998144
O O2 0.962367 0.952049 0.117044
O O3 0.250319 0.357734 0.274093
O O4 0.422480 0.187537 0.225926
O O5 0.090296 0.170497 0.297558
O O6 0.174160 0.263348 0.086575
O O7 0.752467 0.231147 0.154707
O O8 0.500000 0.207499 0.000000
O O9 0.228961 0.559274 0.257989
O O10 0.546835 0.478108 0.327378
O O11 0.620952 0.204971 0.398458
O O12 0.500000 0.597689 0.500000
O O13 0.845459 0.579245 0.431262
#
# Coordination Sequence:
#
# PCOD9122981 Si02
#       7
#     2   4   4   4   4   4   2
#     4  10  20  36  70  92 128 172 208 268 338 382
#     4  10  22  41  67  95 127 172 219 269 331 387
#     4   9  18  36  64  87 130 168 205 268 328 368
#     4  11  22  41  68  97 126 173 223 262 332 394
#     4   9  20  38  62  91 130 164 210 270 308 383
#     4  11  22  44  67  92 134 176 215 278 323 380
#     4  10  20  40  68  90 130 178 214 256 328 378
#
# _framework density 22.822050000000001
#
# number of rings (size 3 to 8) (size 9 to 14) (size 15 to 20)
#    0.000    2.000    3.333    0.000    3.500    0.000 
#    7.500    3.333   14.667    0.000    0.000    0.000 
#    0.000    0.000    0.000    0.000    0.000    0.000 
#
# Total GULP energy -66802.760399 kJ/mol
# GULP energy per Si atom -5566.896700 kJ/mol
# Density = 2.277011 g / cm^3
# Si number density = 22.822050 Si / 1000 Ang^3
#
#
#
# Elastic Constant Matrix: (Units=GPa)
#
#
# Indices 1 2 3 4 5 6 
#
# 1 70.5889 16.6129 13.6138 0.0000 0.1369 0.0000
# 2 16.6129 69.5815 23.5356 0.0000 3.0151 0.0000
# 3 13.6138 23.5356 158.7242 0.0000 -18.1869 0.0000
# 4 0.0000 0.0000 0.0000 -31.1129 0.0000 -45.2318
# 5 0.1369 3.0151 -18.1869 0.0000 46.9171 0.0000
# 6 0.0000 0.0000 0.0000 -45.2318 0.0000 -67.4102
#
#
#
# Elastic Compliance Matrix: (Units=1/GPa)
#
#
# Indices 1 2 3 4 5 6 
#
# 1 0.015107 -0.003323 -0.000820 0.000000 -0.000148 0.000000
# 2 -0.003323 0.016030 -0.002311 0.000000 -0.001916 0.000000
# 3 -0.000820 -0.002311 0.007043 0.000000 0.002881 0.000000
# 4 0.000000 0.000000 0.000000 -1.311202 0.000000 0.879808
# 5 -0.000148 -0.001916 0.002881 0.000000 0.022555 0.000000
# 6 0.000000 0.000000 0.000000 0.879808 0.000000 -0.605181
#
#
# Mechanical properties :
#
#
# Convention : Reuss Voigt Hill
#
# Bulk Modulus (GPa) = 39.57056 45.15768 42.36412
# Shear Modulus (GPa) = -2.72581 6.02096 1.64757
#
# Velocity S-wave (km/s) = -1.09406 1.62602 0.85058
# Velocity P-wave (km/s) = 3.97246 4.83271 4.42355
#
# Compressibility (1/GPa) = 0.02527131
#
# Stress axis : x y z
#
# Youngs Moduli (GPa) = 66.19429 62.38332 141.97575
#
# Poissons Ratio (x) = 0.20730 0.11642
# Poissons Ratio (y) = 0.21997 0.32818
# Poissons Ratio (z) = 0.05428 0.14420
#
# Static dielectric constant tensor:
#      x y z
#    x 2.046810 0.000000 0.084190 
#    y 0.000000 1.832910 0.000000 
#    z 0.084190 0.000000 2.039540 
# 
# From -- ./inp_files/35439.got.cif
#   From: 2010.05.17/outbox.cif.g08.bks.cpg/sg5_18_cif.got.tgz:35439.got - 2010.06.03 18:56:24.
