data_PCOD9122961
_publ_section_title
;
Structure prediction by ZEFSAII (Michael W. Deem and Ramdas Pophale) SiO2 
 PCOD9122961
Probable space group: C 2
;
_chemical_formula_sum "Si O2"
_cell_formula_units_Z 26
_cell_length_a 23.077127
_cell_length_b 7.373707
_cell_length_c 16.947956
_cell_angle_alpha 90.000000
_cell_angle_beta 151.952077
_cell_angle_gamma 90.000000
_cell_volume 1356.053178
_symmetry_space_group_name_H-M "C 2"
_symmetry_group_IT_number 5
_symmetry_cell_setting 'monoclinic'
loop_
_space_group_symop_operation_xyz
x,y,z
-x,y,-z
1/2+x,1/2+y,z
1/2-x,1/2+y,-z
loop_
_atom_site_type_symbol
_atom_site_label
_atom_site_fract_x
_atom_site_fract_y
_atom_site_fract_z
Si Si1 0.833692 0.382620 0.680744
Si Si2 0.593772 0.247703 0.310432
Si Si3 0.570575 0.114282 0.749476
Si Si4 0.551678 0.592381 0.919419
Si Si5 0.500000 0.114880 0.500000
Si Si6 0.716064 0.856752 0.038501
Si Si7 0.256411 0.792662 0.761469
O O1 0.723571 0.341612 0.487122
O O2 0.888114 0.578303 0.725429
O O3 0.782371 0.373409 0.707918
O O4 0.937881 0.228635 0.797041
O O5 0.543506 0.168008 0.332977
O O6 0.499986 0.395565 0.162233
O O7 0.542553 0.018919 0.631888
O O8 0.656686 0.992754 0.907307
O O9 0.647988 0.293468 0.820540
O O10 0.630288 0.676545 0.941294
O O11 0.649434 0.623555 0.108305
O O12 0.616962 0.228360 0.608356
O O13 0.714132 0.920893 0.127640
#
# Coordination Sequence:
#
# PCOD9122961 Si02
#       7
#     4   4   4   4   2   4   4
#     4  12  22  40  65  95 132 172 222 270 323 398
#     4  12  23  38  69  95 127 176 223 268 333 388
#     4  11  20  39  64  93 125 170 220 265 330 388
#     4  10  22  40  61  96 127 173 211 268 331 380
#     4  10  20  36  66  96 122 176 204 272 328 374
#     4   9  21  38  67  88 127 168 212 271 325 390
#     4   9  21  41  63  91 131 167 213 264 331 383
#
# _framework density 19.173290000000001
#
# number of rings (size 3 to 8) (size 9 to 14) (size 15 to 20)
#    0.923    0.615    4.615    1.385    0.000    0.000 
#    0.000    6.154    6.769    0.000    0.000    0.000 
#    0.000    0.000    0.000    0.000    0.000    0.000 
#
# Total GULP energy -72390.422519 kJ/mol
# GULP energy per Si atom -5568.494040 kJ/mol
# Density = 1.912965 g / cm^3
# Si number density = 19.173290 Si / 1000 Ang^3
#
#
#
# Elastic Constant Matrix: (Units=GPa)
#
#
# Indices 1 2 3 4 5 6 
#
# 1 112.4561 31.1458 27.1264 0.0000 -5.9065 0.0000
# 2 31.1458 47.7235 4.1436 0.0000 -7.4134 0.0000
# 3 27.1264 4.1436 67.6641 0.0000 -1.0581 0.0000
# 4 0.0000 0.0000 0.0000 22.7075 0.0000 -1.5796
# 5 -5.9065 -7.4134 -1.0581 0.0000 41.2363 0.0000
# 6 0.0000 0.0000 0.0000 -1.5796 0.0000 20.8622
#
#
#
# Elastic Compliance Matrix: (Units=1/GPa)
#
#
# Indices 1 2 3 4 5 6 
#
# 1 0.012013 -0.007419 -0.004357 0.000000 0.000275 0.000000
# 2 -0.007419 0.026246 0.001425 0.000000 0.003692 0.000000
# 3 -0.004357 0.001425 0.016439 0.000000 0.000054 0.000000
# 4 0.000000 0.000000 0.000000 0.044271 0.000000 0.003352
# 5 0.000275 0.003692 0.000054 0.000000 0.024955 0.000000
# 6 0.000000 0.000000 0.000000 0.003352 0.000000 0.048187
#
#
# Mechanical properties :
#
#
# Convention : Reuss Voigt Hill
#
# Bulk Modulus (GPa) = 29.41619 39.18617 34.30118
# Shear Modulus (GPa) = 24.49237 27.98973 26.24105
#
# Velocity S-wave (km/s) = 3.57798 3.82492 3.70351
# Velocity P-wave (km/s) = 5.69604 6.32368 6.01805
#
# Compressibility (1/GPa) = 0.03399488
#
# Stress axis : x y z
#
# Youngs Moduli (GPa) = 83.24650 38.10170 60.82996
#
# Poissons Ratio (x) = 0.28266 0.26505
# Poissons Ratio (y) = 0.61758 -0.08666
# Poissons Ratio (z) = 0.36272 -0.05428
#
# Static dielectric constant tensor:
#      x y z
#    x 1.682120 0.000000 -0.004240 
#    y 0.000000 1.645830 0.000000 
#    z -0.004240 0.000000 1.722870 
# 
# From -- ./inp_files/63188.got.cif
#   From: 2010.05.17/outbox.cif.g08.bks.cpg/sg5_32_cif.got.tgz:63188.got - 2010.06.03 18:56:24.
