data_PCOD9122639
_publ_section_title
;
Structure prediction by ZEFSAII (Michael W. Deem and Ramdas Pophale) SiO2 
 PCOD9122639
Probable space group: C 2
;
_chemical_formula_sum "Si O2"
_cell_formula_units_Z 32
_cell_length_a 13.598628
_cell_length_b 24.290746
_cell_length_c 5.211225
_cell_angle_alpha 90.000000
_cell_angle_beta 101.808063
_cell_angle_gamma 90.000000
_cell_volume 1684.949382
_symmetry_space_group_name_H-M "C 2"
_symmetry_group_IT_number 5
_symmetry_cell_setting 'monoclinic'
loop_
_space_group_symop_operation_xyz
x,y,z
-x,y,-z
1/2+x,1/2+y,z
1/2-x,1/2+y,-z
loop_
_atom_site_type_symbol
_atom_site_label
_atom_site_fract_x
_atom_site_fract_y
_atom_site_fract_z
Si Si1 0.387868 0.253130 0.885648
Si Si2 0.935382 0.331957 0.711799
Si Si3 0.257343 0.256654 0.335112
Si Si4 0.067443 0.083514 0.788122
Si Si5 0.221249 0.134631 0.212205
Si Si6 0.244488 0.041617 0.606091
Si Si7 0.432577 0.963061 0.706490
Si Si8 0.608669 0.126677 0.052445
O O1 0.334740 0.272939 0.600319
O O2 0.500000 0.274886 0.000000
O O3 0.315048 0.259357 0.092681
O O4 0.399944 0.187596 0.841949
O O5 0.834333 0.298132 0.691603
O O6 0.916478 0.397418 0.676716
O O7 0.000000 0.314216 0.500000
O O8 0.000000 0.323420 0.000000
O O9 0.214229 0.193829 0.344734
O O10 0.858900 0.132340 0.066109
O O11 0.000000 0.098211 0.500000
O O12 0.145966 0.036760 0.732026
O O13 0.000000 0.069251 0.000000
O O14 0.205761 0.075261 0.337405
O O15 0.338173 0.133105 0.191895
O O16 0.322494 0.991511 0.632521
O O17 0.315460 0.088606 0.760389
O O18 0.500000 0.981689 0.500000
O O19 0.500000 0.972551 0.000000
O O20 0.500000 0.100824 0.000000
#
# Coordination Sequence:
#
# PCOD9122639 Si02
#       8
#     4   4   4   4   4   4   4   4
#     4  10  20  35  56  86 119 158 191 234 301 356
#     4  10  22  44  62  89 118 155 206 249 300 349
#     4  11  21  38  59  84 120 158 198 252 291 352
#     4  11  23  40  56  77 120 161 193 243 287 345
#     4  10  22  35  54  89 118 152 208 232 297 364
#     4  11  21  36  58  86 117 151 200 236 295 359
#     4  10  24  40  64  92 121 152 193 247 303 360
#     4   9  19  31  49  82 125 154 181 234 289 365
#
# _framework density 18.991668000000001
#
# number of rings (size 3 to 8) (size 9 to 14) (size 15 to 20)
#    0.000    1.750    2.500    1.500    5.250    0.500 
#    2.250    0.000    0.000    2.250    0.000    0.000 
#    0.000    0.000    0.000    0.000    0.000    0.000 
#
# Total GULP energy -89085.709516 kJ/mol
# GULP energy per Si atom -5567.856845 kJ/mol
# Density = 1.894844 g / cm^3
# Si number density = 18.991668 Si / 1000 Ang^3
#
#
#
# Elastic Constant Matrix: (Units=GPa)
#
#
# Indices 1 2 3 4 5 6 
#
# 1 142.1500 42.4445 49.1379 0.0000 6.6129 0.0000
# 2 42.4445 51.0474 24.5407 0.0000 5.1717 0.0000
# 3 49.1379 24.5407 108.5522 0.0000 4.6728 0.0000
# 4 0.0000 0.0000 0.0000 1.3946 0.0000 4.2372
# 5 6.6129 5.1717 4.6728 0.0000 25.6328 0.0000
# 6 0.0000 0.0000 0.0000 4.2372 0.0000 34.1092
#
#
#
# Elastic Compliance Matrix: (Units=1/GPa)
#
#
# Indices 1 2 3 4 5 6 
#
# 1 0.010182 -0.006951 -0.003008 0.000000 -0.000676 0.000000
# 2 -0.006951 0.027050 -0.002833 0.000000 -0.003148 0.000000
# 3 -0.003008 -0.002833 0.011245 0.000000 -0.000702 0.000000
# 4 0.000000 0.000000 0.000000 1.151818 0.000000 -0.143085
# 5 -0.000676 -0.003148 -0.000702 0.000000 0.039950 0.000000
# 6 0.000000 0.000000 0.000000 -0.143085 0.000000 0.047092
#
#
# Mechanical properties :
#
#
# Convention : Reuss Voigt Hill
#
# Bulk Modulus (GPa) = 43.68495 59.33287 51.50891
# Shear Modulus (GPa) = 3.78629 24.60242 14.19436
#
# Velocity S-wave (km/s) = 1.41350 3.60312 2.73683
# Velocity P-wave (km/s) = 5.07110 6.97275 6.09653
#
# Compressibility (1/GPa) = 0.02289118
#
# Stress axis : x y z
#
# Youngs Moduli (GPa) = 98.21531 36.96818 88.93079
#
# Poissons Ratio (x) = 0.25697 0.26754
# Poissons Ratio (y) = 0.68270 0.25197
# Poissons Ratio (z) = 0.29547 0.10474
#
# Static dielectric constant tensor:
#      x y z
#    x 1.804510 0.000000 0.194370 
#    y 0.000000 1.660290 0.000000 
#    z 0.194370 0.000000 2.223320 
# 
# From -- ./inp_files/5964.got.cif
#   From: 2010.05.17/outbox.cif.g08.bks.cpg/sg5_3_cif.got.tgz:5964.got - 2010.06.03 18:56:24.
