data_PCOD9122659
_publ_section_title
;
Structure prediction by ZEFSAII (Michael W. Deem and Ramdas Pophale) SiO2 
 PCOD9122659
Probable space group: C 2
;
_chemical_formula_sum "Si O2"
_cell_formula_units_Z 26
_cell_length_a 5.430539
_cell_length_b 31.227548
_cell_length_c 7.230232
_cell_angle_alpha 90.000000
_cell_angle_beta 106.405118
_cell_angle_gamma 90.000000
_cell_volume 1176.203334
_symmetry_space_group_name_H-M "C 2"
_symmetry_group_IT_number 5
_symmetry_cell_setting 'monoclinic'
loop_
_space_group_symop_operation_xyz
x,y,z
-x,y,-z
1/2+x,1/2+y,z
1/2-x,1/2+y,-z
loop_
_atom_site_type_symbol
_atom_site_label
_atom_site_fract_x
_atom_site_fract_y
_atom_site_fract_z
Si Si1 0.473101 0.975180 0.717490
Si Si2 0.775800 0.057413 0.799238
Si Si3 0.419400 0.337021 0.273814
Si Si4 0.416703 0.882116 0.262671
Si Si5 0.799370 0.650216 0.127700
Si Si6 0.201492 0.743243 0.873359
Si Si7 0.500000 0.510894 0.500000
O O1 0.500000 0.976283 0.500000
O O2 0.602304 0.931391 0.805520
O O3 0.587662 0.019024 0.817343
O O4 0.167488 0.979566 0.666439
O O5 0.661031 0.105024 0.763201
O O6 0.866562 0.042455 0.616869
O O7 0.000000 0.058481 0.000000
O O8 0.500000 0.346073 0.500000
O O9 0.655486 0.354905 0.202748
O O10 0.370966 0.286516 0.245883
O O11 0.149200 0.360904 0.200012
O O12 0.500000 0.883184 0.500000
O O13 0.831015 0.696702 0.230003
O O14 0.500000 0.650331 0.000000
O O15 0.000000 0.649276 0.000000
O O16 0.500000 0.746578 0.000000
O O17 0.000000 0.742249 0.000000
#
# Coordination Sequence:
#
# PCOD9122659 Si02
#       7
#     4   4   4   4   4   4   2
#     4   9  20  35  57  86 116 160 206 247 301 364
#     4  10  22  38  63  88 125 159 209 255 305 363
#     4  10  20  35  58  86 113 151 196 242 296 350
#     4   9  19  33  58  82 115 156 195 237 294 359
#     4   9  20  37  62  87 114 162 202 239 306 373
#     4  10  20  38  62  83 115 156 195 241 302 361
#     4  10  22  38  62  88 122 168 208 252 306 364
#
# _framework density 22.105022999999999
#
# number of rings (size 3 to 8) (size 9 to 14) (size 15 to 20)
#    0.000    2.462    0.000    0.923   11.846    0.000 
#    0.000    4.615    8.462    0.000    0.000    0.000 
#    0.000    0.000    0.000    0.000    0.000    0.000 
#
# Total GULP energy -72475.619503 kJ/mol
# GULP energy per Si atom -5575.047654 kJ/mol
# Density = 2.205471 g / cm^3
# Si number density = 22.105023 Si / 1000 Ang^3
#
#
#
# Elastic Constant Matrix: (Units=GPa)
#
#
# Indices 1 2 3 4 5 6 
#
# 1 138.7859 58.1649 18.9950 0.0000 12.8075 0.0000
# 2 58.1649 203.9180 17.6781 0.0000 22.7012 0.0000
# 3 18.9950 17.6781 53.5874 0.0000 10.6113 0.0000
# 4 0.0000 0.0000 0.0000 23.6975 0.0000 -4.4503
# 5 12.8075 22.7012 10.6113 0.0000 23.8308 0.0000
# 6 0.0000 0.0000 0.0000 -4.4503 0.0000 30.6278
#
#
#
# Elastic Compliance Matrix: (Units=1/GPa)
#
#
# Indices 1 2 3 4 5 6 
#
# 1 0.008500 -0.002061 -0.001993 0.000000 -0.001718 0.000000
# 2 -0.002061 0.006021 -0.000372 0.000000 -0.004462 0.000000
# 3 -0.001993 -0.000372 0.021065 0.000000 -0.007954 0.000000
# 4 0.000000 0.000000 0.000000 0.043382 0.000000 0.006304
# 5 -0.001718 -0.004462 -0.007954 0.000000 0.050678 0.000000
# 6 0.000000 0.000000 0.000000 0.006304 0.000000 0.033566
#
#
# Mechanical properties :
#
#
# Convention : Reuss Voigt Hill
#
# Bulk Modulus (GPa) = 37.40457 65.10746 51.25601
# Shear Modulus (GPa) = 27.62794 35.72810 31.67802
#
# Velocity S-wave (km/s) = 3.53916 4.02467 3.78970
# Velocity P-wave (km/s) = 5.80163 7.14947 6.51052
#
# Compressibility (1/GPa) = 0.02673470
#
# Stress axis : x y z
#
# Youngs Moduli (GPa) = 117.64374 166.09388 47.47104
#
# Poissons Ratio (x) = 0.34224 0.09461
# Poissons Ratio (y) = 0.24241 0.01767
# Poissons Ratio (z) = 0.23448 0.06182
#
# Static dielectric constant tensor:
#      x y z
#    x 1.982780 0.000000 0.081660 
#    y 0.000000 1.833740 0.000000 
#    z 0.081660 0.000000 1.871670 
# 
# From -- ./inp_files/13017.got.cif
#   From: 2010.05.17/outbox.cif.g08.bks.cpg/sg5_7_cif.got.tgz:13017.got - 2010.06.03 18:56:24.
