data_PCOD9122964
_publ_section_title
;
Structure prediction by ZEFSAII (Michael W. Deem and Ramdas Pophale) SiO2 
 PCOD9122964
Probable space group: C 2
;
_chemical_formula_sum "Si O2"
_cell_formula_units_Z 26
_cell_length_a 15.841861
_cell_length_b 8.627572
_cell_length_c 14.845779
_cell_angle_alpha 90.000000
_cell_angle_beta 141.208846
_cell_angle_gamma 90.000000
_cell_volume 1271.181037
_symmetry_space_group_name_H-M "C 2"
_symmetry_group_IT_number 5
_symmetry_cell_setting 'monoclinic'
loop_
_space_group_symop_operation_xyz
x,y,z
-x,y,-z
1/2+x,1/2+y,z
1/2-x,1/2+y,-z
loop_
_atom_site_type_symbol
_atom_site_label
_atom_site_fract_x
_atom_site_fract_y
_atom_site_fract_z
Si Si1 0.891343 0.907730 0.783487
Si Si2 0.116911 0.518601 0.536492
Si Si3 0.343001 0.145220 0.620319
Si Si4 0.450721 0.660244 0.559022
Si Si5 0.104924 0.480178 0.921119
Si Si6 0.392574 0.621082 0.123512
Si Si7 0.500000 0.142407 0.000000
O O1 0.756024 0.988795 0.704401
O O2 0.862174 0.823969 0.663875
O O3 0.919486 0.762051 0.870474
O O4 0.014135 0.021068 0.866329
O O5 0.157634 0.621806 0.486157
O O6 0.063429 0.349220 0.458722
O O7 0.000000 0.587837 0.500000
O O8 0.199946 0.099836 0.544924
O O9 0.471081 0.048901 0.762493
O O10 0.500000 0.611896 0.500000
O O11 0.545496 0.618808 0.722972
O O12 0.108126 0.297807 0.909326
O O13 0.242049 0.554188 0.998071
O O14 0.091048 0.535760 0.012707
#
# Coordination Sequence:
#
# PCOD9122964 Si02
#       7
#     4   4   4   4   4   4   2
#     4  10  23  41  67  92 137 184 217 281 330 409
#     4  10  20  36  67 100 127 171 224 274 335 401
#     4  10  20  42  64 100 132 169 225 276 340 397
#     4  10  22  39  71  98 129 176 225 273 339 405
#     4  11  25  40  69  96 134 178 226 285 333 407
#     4  12  24  45  65  99 136 182 226 278 347 396
#     4  10  24  44  66  96 134 178 238 268 346 394
#
# _framework density 20.453420000000001
#
# number of rings (size 3 to 8) (size 9 to 14) (size 15 to 20)
#    0.000    1.538    3.077    1.846    8.615    1.846 
#    0.000    2.308    0.000    0.000    0.000    0.000 
#    0.000    0.000    0.000    0.000    0.000    0.000 
#
# Total GULP energy -72574.995542 kJ/mol
# GULP energy per Si atom -5582.691965 kJ/mol
# Density = 2.040687 g / cm^3
# Si number density = 20.453420 Si / 1000 Ang^3
#
#
#
# Elastic Constant Matrix: (Units=GPa)
#
#
# Indices 1 2 3 4 5 6 
#
# 1 156.9722 49.1456 56.4351 0.0000 30.7316 0.0000
# 2 49.1456 79.4995 38.1889 0.0000 14.4457 0.0000
# 3 56.4351 38.1889 84.2121 0.0000 17.5748 0.0000
# 4 0.0000 0.0000 0.0000 25.1783 0.0000 -3.1995
# 5 30.7316 14.4457 17.5748 0.0000 36.0795 0.0000
# 6 0.0000 0.0000 0.0000 -3.1995 0.0000 29.4385
#
#
#
# Elastic Compliance Matrix: (Units=1/GPa)
#
#
# Indices 1 2 3 4 5 6 
#
# 1 0.009838 -0.003194 -0.004077 0.000000 -0.005115 0.000000
# 2 -0.003194 0.017460 -0.005440 0.000000 -0.001621 0.000000
# 3 -0.004077 -0.005440 0.017693 0.000000 -0.002968 0.000000
# 4 0.000000 0.000000 0.000000 0.040273 0.000000 0.004377
# 5 -0.005115 -0.001621 -0.002968 0.000000 0.034168 0.000000
# 6 0.000000 0.000000 0.000000 0.004377 0.000000 0.034445
#
#
# Mechanical properties :
#
#
# Convention : Reuss Voigt Hill
#
# Bulk Modulus (GPa) = 51.09637 67.58034 59.33835
# Shear Modulus (GPa) = 26.90763 29.93353 28.42058
#
# Velocity S-wave (km/s) = 3.63099 3.82972 3.73168
# Velocity P-wave (km/s) = 6.52801 7.25731 6.90230
#
# Compressibility (1/GPa) = 0.01957086
#
# Stress axis : x y z
#
# Youngs Moduli (GPa) = 101.65129 57.27221 56.51899
#
# Poissons Ratio (x) = 0.18290 0.23043
# Poissons Ratio (y) = 0.32463 0.30744
# Poissons Ratio (z) = 0.41443 0.31154
#
# Static dielectric constant tensor:
#      x y z
#    x 1.741950 0.000000 -0.049500 
#    y 0.000000 1.706400 0.000000 
#    z -0.049500 0.000000 1.874270 
# 
# From -- ./inp_files/54327.got.cif
#   From: 2010.05.17/outbox.cif.g08.bks.cpg/sg5_28_cif.got.tgz:54327.got - 2010.06.03 18:56:24.
