data_PCOD9122269
_publ_section_title
;
Structure prediction by ZEFSAII (Michael W. Deem and Ramdas Pophale) SiO2 
 PCOD9122269
Probable space group: C 2
;
_chemical_formula_sum "Si O2"
_cell_formula_units_Z 26
_cell_length_a 16.161793
_cell_length_b 9.650268
_cell_length_c 24.747451
_cell_angle_alpha 90.000000
_cell_angle_beta 20.533468
_cell_angle_gamma 90.000000
_cell_volume 1353.825174
_symmetry_space_group_name_H-M "C 2"
_symmetry_group_IT_number 5
_symmetry_cell_setting 'monoclinic'
loop_
_space_group_symop_operation_xyz
x,y,z
-x,y,-z
1/2+x,1/2+y,z
1/2-x,1/2+y,-z
loop_
_atom_site_type_symbol
_atom_site_label
_atom_site_fract_x
_atom_site_fract_y
_atom_site_fract_z
Si Si1 0.774312 0.871720 0.319409
Si Si2 0.958234 0.696343 0.589673
Si Si3 0.500000 0.609497 0.000000
Si Si4 0.593496 0.154021 0.174076
Si Si5 0.026485 0.166440 0.150828
Si Si6 0.431544 0.852225 0.309905
Si Si7 0.180565 0.425334 0.265374
O O1 0.500000 0.885306 0.500000
O O2 0.895115 0.767607 0.286368
O O3 0.768057 0.828486 0.260138
O O4 0.921456 0.014747 0.228801
O O5 0.681875 0.737871 0.758301
O O6 0.972914 0.552599 0.614411
O O7 0.000000 0.676581 0.500000
O O8 0.159638 0.804328 0.482796
O O9 0.278667 0.687006 0.109116
O O10 0.403382 0.507187 0.105086
O O11 0.475634 0.007189 0.260737
O O12 0.743895 0.152532 0.026474
O O13 0.044855 0.251600 0.195156
O O14 0.552507 0.850702 0.294554
#
# Coordination Sequence:
#
# PCOD9122269 Si02
#       7
#     4   4   2   4   4   4   4
#     4  11  23  40  63  91 128 166 203 256 317 372
#     4   9  18  37  61  86 123 165 203 244 309 374
#     4  10  20  38  62  92 116 166 208 252 304 368
#     4  11  22  38  65  91 124 159 217 255 303 366
#     4  10  19  40  65  86 121 173 207 244 313 382
#     4  10  22  36  64  95 121 164 209 261 305 363
#     4  10  20  37  61  91 124 163 209 249 310 377
#
# _framework density 19.204841999999999
#
# number of rings (size 3 to 8) (size 9 to 14) (size 15 to 20)
#    0.000    1.846    3.077    4.615    2.154    4.308 
#    0.000    0.000    6.769    0.000    0.000    0.000 
#    0.000    0.000    0.000    0.000    0.000    0.000 
#
# Total GULP energy -72405.572882 kJ/mol
# GULP energy per Si atom -5569.659452 kJ/mol
# Density = 1.916113 g / cm^3
# Si number density = 19.204842 Si / 1000 Ang^3
#
#
#
# Elastic Constant Matrix: (Units=GPa)
#
#
# Indices 1 2 3 4 5 6 
#
# 1 120.0583 38.6372 -2.2133 0.0059 -15.4507 -0.0083
# 2 38.6372 61.3908 11.6033 0.0182 -19.1065 -0.0062
# 3 -2.2133 11.6033 55.2997 0.0652 -9.9235 -0.0355
# 4 0.0059 0.0182 0.0652 20.9990 0.0011 5.9054
# 5 -15.4507 -19.1065 -9.9235 0.0011 29.4307 0.0041
# 6 -0.0083 -0.0062 -0.0355 5.9054 0.0041 26.7156
#
#
#
# Elastic Compliance Matrix: (Units=1/GPa)
#
#
# Indices 1 2 3 4 5 6 
#
# 1 0.010739 -0.006501 0.002180 -0.000006 0.002152 0.000006
# 2 -0.006501 0.024565 -0.003369 -0.000010 0.011399 0.000000
# 3 0.002180 -0.003369 0.019894 -0.000071 0.005665 0.000041
# 4 -0.000006 -0.000010 -0.000071 0.050778 -0.000034 -0.011224
# 5 0.002152 0.011399 0.005665 -0.000034 0.044418 0.000011
# 6 0.000006 0.000000 0.000041 -0.011224 0.000011 0.039912
#
#
# Mechanical properties :
#
#
# Convention : Reuss Voigt Hill
#
# Bulk Modulus (GPa) = 25.11404 36.97813 31.04608
# Shear Modulus (GPa) = 22.83542 28.01051 25.42296
#
# Velocity S-wave (km/s) = 3.45199 3.82319 3.64232
# Velocity P-wave (km/s) = 5.38458 6.22780 5.82147
#
# Compressibility (1/GPa) = 0.03981837
#
# Stress axis : x y z
#
# Youngs Moduli (GPa) = 93.12284 40.70885 50.26595
#
# Poissons Ratio (x) = 0.26463 -0.10958
# Poissons Ratio (y) = 0.60535 0.16934
# Poissons Ratio (z) = -0.20301 0.13715
#
# Static dielectric constant tensor:
#      x y z
#    x 1.714530 0.000000 0.010200 
#    y 0.000000 1.660080 0.000000 
#    z 0.010200 0.000000 1.766590 
# 
# From -- ./inp_files/70860.got.cif
#   From: 2010.05.17/outbox.cif.g08.bks.cpg/sg5_36_cif.got.tgz:70860.got - 2010.06.03 18:56:24.
