data_PCOD9122450
_publ_section_title
;
Structure prediction by ZEFSAII (Michael W. Deem and Ramdas Pophale) SiO2 
 PCOD9122450
Probable space group: C 2
;
_chemical_formula_sum "Si O2"
_cell_formula_units_Z 26
_cell_length_a 26.632098
_cell_length_b 5.331641
_cell_length_c 6.475625
_cell_angle_alpha 90.000000
_cell_angle_beta 93.316782
_cell_angle_gamma 90.000000
_cell_volume 917.951803
_symmetry_space_group_name_H-M "C 2"
_symmetry_group_IT_number 5
_symmetry_cell_setting 'monoclinic'
loop_
_space_group_symop_operation_xyz
x,y,z
-x,y,-z
1/2+x,1/2+y,z
1/2-x,1/2+y,-z
loop_
_atom_site_type_symbol
_atom_site_label
_atom_site_fract_x
_atom_site_fract_y
_atom_site_fract_z
Si Si1 0.500000 0.638021 0.000000
Si Si2 0.729743 0.941207 0.237255
Si Si3 0.352608 0.843669 0.051939
Si Si4 0.311190 0.438974 0.557027
Si Si5 0.075834 0.852810 0.520169
Si Si6 0.095147 0.838592 0.016064
Si Si7 0.559113 0.862573 0.633551
O O1 0.456513 0.448553 0.903618
O O2 0.528156 0.813003 0.837854
O O3 0.706137 0.903023 0.003148
O O4 0.713291 0.212004 0.319286
O O5 0.787923 0.919941 0.317868
O O6 0.703640 0.711989 0.358709
O O7 0.381394 0.066989 0.934125
O O8 0.365671 0.568422 0.971192
O O9 0.381019 0.853068 0.280102
O O10 0.369733 0.381123 0.563073
O O11 0.051210 0.588660 0.473229
O O12 0.050793 0.116980 0.498262
O O13 0.080627 0.817644 0.770298
#
# Coordination Sequence:
#
# PCOD9122450 Si02
#       7
#     2   4   4   4   4   4   4
#     4   8  16  30  48  78 102 122 160 190 240 300
#     4  10  20  33  50  69  93 130 171 204 233 278
#     4   9  17  31  45  71  99 120 158 197 239 286
#     4  10  20  33  50  69  93 130 171 204 233 278
#     4   9  17  31  45  71  99 120 158 197 239 286
#     4   9  18  29  50  73  97 124 151 195 244 289
#     4   9  18  29  50  73  97 124 151 195 244 289
#
# _framework density 28.323924000000002
#
# number of rings (size 3 to 8) (size 9 to 14) (size 15 to 20)
#    0.000    3.077    0.000    1.846    0.000    9.846 
#    0.000    6.154    0.000    0.000    0.000  112.000 
#    0.000    0.000    0.000    0.000    0.000    0.000 
#
# Total GULP energy -72671.329127 kJ/mol
# GULP energy per Si atom -5590.102241 kJ/mol
# Density = 2.825946 g / cm^3
# Si number density = 28.323924 Si / 1000 Ang^3
#
#
#
# Elastic Constant Matrix: (Units=GPa)
#
#
# Indices 1 2 3 4 5 6 
#
# 1 120.4452 34.4651 -5.8848 0.0000 12.3259 0.0000
# 2 34.4651 235.2010 -0.6450 0.0000 -29.8192 0.0000
# 3 -5.8848 -0.6450 74.2688 0.0000 3.9351 0.0000
# 4 0.0000 0.0000 0.0000 -40.9453 0.0000 -6.3484
# 5 12.3259 -29.8192 3.9351 0.0000 52.6974 0.0000
# 6 0.0000 0.0000 0.0000 -6.3484 0.0000 23.6392
#
#
#
# Elastic Compliance Matrix: (Units=1/GPa)
#
#
# Indices 1 2 3 4 5 6 
#
# 1 0.009173 -0.001747 0.000881 0.000000 -0.003200 0.000000
# 2 -0.001747 0.004914 -0.000266 0.000000 0.003209 0.000000
# 3 0.000881 -0.000266 0.013605 0.000000 -0.001372 0.000000
# 4 0.000000 0.000000 0.000000 -0.023447 0.000000 -0.006297
# 5 -0.003200 0.003209 -0.001372 0.000000 0.021643 0.000000
# 6 0.000000 0.000000 0.000000 -0.006297 0.000000 0.040612
#
#
# Mechanical properties :
#
#
# Convention : Reuss Voigt Hill
#
# Bulk Modulus (GPa) = 39.32721 53.97616 46.65169
# Shear Modulus (GPa) = 64.73323 33.87692 49.30507
#
# Velocity S-wave (km/s) = 4.78584 3.46215 4.17676
# Velocity P-wave (km/s) = 6.66738 5.92285 6.30611
#
# Compressibility (1/GPa) = 0.02542769
#
# Stress axis : x y z
#
# Youngs Moduli (GPa) = 109.01408 203.50510 73.50327
#
# Poissons Ratio (x) = 0.35562 -0.06477
# Poissons Ratio (y) = 0.19050 0.01954
# Poissons Ratio (z) = -0.09607 0.05410
#
# Static dielectric constant tensor:
#      x y z
#    x 2.162450 0.000000 0.021710 
#    y 0.000000 2.350320 0.000000 
#    z 0.021710 0.000000 2.411680 
# 
# From -- ./inp_files/31431.got.cif
#   From: 2010.05.17/outbox.cif.g08.bks.cpg/sg5_16_cif.got.tgz:31431.got - 2010.06.03 18:56:24.
