data_PCOD9122735
_publ_section_title
;
Structure prediction by ZEFSAII (Michael W. Deem and Ramdas Pophale) SiO2 
 PCOD9122735
Probable space group: C 2
;
_chemical_formula_sum "Si O2"
_cell_formula_units_Z 24
_cell_length_a 9.330639
_cell_length_b 16.927223
_cell_length_c 9.375215
_cell_angle_alpha 90.000000
_cell_angle_beta 47.640437
_cell_angle_gamma 90.000000
_cell_volume 1094.163582
_symmetry_space_group_name_H-M "C 2"
_symmetry_group_IT_number 5
_symmetry_cell_setting 'monoclinic'
loop_
_space_group_symop_operation_xyz
x,y,z
-x,y,-z
1/2+x,1/2+y,z
1/2-x,1/2+y,-z
loop_
_atom_site_type_symbol
_atom_site_label
_atom_site_fract_x
_atom_site_fract_y
_atom_site_fract_z
Si Si1 0.275832 0.981650 0.684102
Si Si2 0.500000 0.214853 0.000000
Si Si3 0.265517 0.852551 0.938892
Si Si4 0.711860 0.718808 0.426221
Si Si5 0.270069 0.156705 0.684443
Si Si6 0.000000 0.279664 0.000000
Si Si7 0.437555 0.377320 0.378547
O O1 0.500000 0.986659 0.500000
O O2 0.253046 0.915513 0.821128
O O3 0.176864 0.952774 0.604623
O O4 0.219398 0.069152 0.771061
O O5 0.334494 0.272692 0.049021
O O6 0.373468 0.177343 0.213521
O O7 0.466918 0.830934 0.879623
O O8 0.133707 0.880692 0.156498
O O9 0.500000 0.734357 0.500000
O O10 0.677063 0.668405 0.591248
O O11 0.814216 0.800504 0.409801
O O12 0.500000 0.166318 0.500000
O O13 0.183038 0.222832 0.846816
O O14 0.500000 0.374184 0.500000
#
# Coordination Sequence:
#
# PCOD9122735 Si02
#       7
#     4   2   4   4   4   2   4
#     4  11  25  44  69  95 143 188 225 278 358 407
#     4  10  20  35  66  97 130 168 218 288 336 389
#     4  11  22  41  66 104 130 179 233 275 341 409
#     4  11  21  39  68 100 132 174 229 284 338 406
#     4  11  26  45  66 101 143 182 223 288 353 405
#     4  12  26  39  76 107 132 176 240 288 334 409
#     4  11  23  39  69  99 137 175 234 287 331 411
#
# _framework density 21.934563000000001
#
# number of rings (size 3 to 8) (size 9 to 14) (size 15 to 20)
#    0.000    1.000    3.333    5.000    7.000    0.667 
#    0.000    0.000    7.333    1.000    0.000    0.000 
#    0.000    0.000    0.000    0.000    0.000    0.000 
#
# Total GULP energy -67039.723428 kJ/mol
# GULP energy per Si atom -5586.643619 kJ/mol
# Density = 2.188464 g / cm^3
# Si number density = 21.934563 Si / 1000 Ang^3
#
#
#
# Elastic Constant Matrix: (Units=GPa)
#
#
# Indices 1 2 3 4 5 6 
#
# 1 142.1138 38.3878 18.9718 0.0000 13.4073 0.0000
# 2 38.3878 66.0058 17.0734 0.0000 1.7853 0.0000
# 3 18.9718 17.0734 103.3254 0.0000 9.6441 0.0000
# 4 0.0000 0.0000 0.0000 6.4228 0.0000 26.4699
# 5 13.4073 1.7853 9.6441 0.0000 41.0904 0.0000
# 6 0.0000 0.0000 0.0000 26.4699 0.0000 -105.5644
#
#
#
# Elastic Compliance Matrix: (Units=1/GPa)
#
#
# Indices 1 2 3 4 5 6 
#
# 1 0.008646 -0.004817 -0.000560 0.000000 -0.002480 0.000000
# 2 -0.004817 0.018510 -0.002296 0.000000 0.001306 0.000000
# 3 -0.000560 -0.002296 0.010361 0.000000 -0.002149 0.000000
# 4 0.000000 0.000000 0.000000 0.076570 0.000000 0.019200
# 5 -0.002480 0.001306 -0.002149 0.000000 0.025594 0.000000
# 6 0.000000 0.000000 0.000000 0.019200 0.000000 -0.004659
#
#
# Mechanical properties :
#
#
# Convention : Reuss Voigt Hill
#
# Bulk Modulus (GPa) = 45.10259 51.14567 48.12413
# Shear Modulus (GPa) = 31.69401 4.19056 17.94228
#
# Velocity S-wave (km/s) = 3.80535 1.38370 2.86316
# Velocity P-wave (km/s) = 6.31780 5.09125 5.73740
#
# Compressibility (1/GPa) = 0.02217168
#
# Stress axis : x y z
#
# Youngs Moduli (GPa) = 115.65387 54.02469 96.51551
#
# Poissons Ratio (x) = 0.26022 0.05407
# Poissons Ratio (y) = 0.55707 0.22161
# Poissons Ratio (z) = 0.06479 0.12405
#
# Static dielectric constant tensor:
#      x y z
#    x 2.284730 0.000000 -0.016540 
#    y 0.000000 1.839950 0.000000 
#    z -0.016540 0.000000 1.864160 
# 
# From -- ./inp_files/16752.got.cif
#   From: 2010.05.17/outbox.cif.g08.bks.cpg/sg5_9_cif.got.tgz:16752.got - 2010.06.03 18:56:24.
