data_PCOD9122263
_publ_section_title
;
Structure prediction by ZEFSAII (Michael W. Deem and Ramdas Pophale) SiO2 
 PCOD9122263
Probable space group: C 2
;
_chemical_formula_sum "Si O2"
_cell_formula_units_Z 22
_cell_length_a 14.618923
_cell_length_b 11.169502
_cell_length_c 16.386676
_cell_angle_alpha 90.000000
_cell_angle_beta 153.141913
_cell_angle_gamma 90.000000
_cell_volume 1208.841028
_symmetry_space_group_name_H-M "C 2"
_symmetry_group_IT_number 5
_symmetry_cell_setting 'monoclinic'
loop_
_space_group_symop_operation_xyz
x,y,z
-x,y,-z
1/2+x,1/2+y,z
1/2-x,1/2+y,-z
loop_
_atom_site_type_symbol
_atom_site_label
_atom_site_fract_x
_atom_site_fract_y
_atom_site_fract_z
Si Si1 0.603035 0.280290 0.999997
Si Si2 0.184587 0.035764 0.000007
Si Si3 0.704935 0.929594 0.204933
Si Si4 0.957634 0.093373 0.292852
Si Si5 0.871912 0.593381 0.707137
Si Si6 0.000000 0.192864 0.000000
O O1 0.666762 0.394940 0.000011
O O2 0.797250 0.200352 0.177599
O O3 0.500000 0.324527 0.000000
O O4 0.442029 0.200367 0.822381
O O5 0.421953 0.063873 0.176531
O O6 0.091398 0.112990 0.000010
O O7 0.068880 0.063870 0.823469
O O8 0.669538 0.787004 0.169541
O O9 0.881181 0.983737 0.289332
O O10 0.697508 0.983750 0.289344
O O11 0.500000 0.980181 0.000000
O O12 0.183545 0.124560 0.499995
#
# Coordination Sequence:
#
# PCOD9122263 Si02
#       6
#     4   4   4   4   4   2
#     4  11  21  41  63  89 121 160 198 254 303 353
#     4  11  24  41  63  88 126 160 201 243 308 358
#     4  10  19  40  63  89 119 159 203 243 299 350
#     4  11  23  40  65  92 118 158 206 250 296 357
#     4  11  23  40  65  92 118 158 206 250 296 357
#     4  10  22  42  64  82 124 170 190 252 300 352
#
# _framework density 18.199251
#
# number of rings (size 3 to 8) (size 9 to 14) (size 15 to 20)
#    0.545    0.727    6.364    0.545   10.182    1.455 
#    0.000    2.727    0.000    0.000    0.000    0.000 
#    0.000    0.000    0.000    0.000    0.000    0.000 
#
# Total GULP energy -61323.316387 kJ/mol
# GULP energy per Si atom -5574.846944 kJ/mol
# Density = 1.815783 g / cm^3
# Si number density = 18.199251 Si / 1000 Ang^3
#
#
#
# Elastic Constant Matrix: (Units=GPa)
#
#
# Indices 1 2 3 4 5 6 
#
# 1 112.3074 23.9923 39.4629 0.0004 -8.8444 0.0001
# 2 23.9923 71.6505 18.8453 0.0016 -0.6994 0.0004
# 3 39.4629 18.8453 152.6870 0.0020 14.2978 0.0003
# 4 0.0004 0.0016 0.0020 4.0576 0.0009 -1.1591
# 5 -8.8444 -0.6994 14.2978 0.0009 6.9543 -0.0001
# 6 0.0001 0.0004 0.0003 -1.1591 -0.0001 12.6296
#
#
#
# Elastic Compliance Matrix: (Units=1/GPa)
#
#
# Indices 1 2 3 4 5 6 
#
# 1 0.014008 -0.002796 -0.006090 -0.000004 0.030055 0.000000
# 2 -0.002796 0.015211 -0.001195 -0.000005 0.000432 -0.000001
# 3 -0.006090 -0.001195 0.011155 0.000002 -0.030800 0.000000
# 4 -0.000004 -0.000005 0.000002 0.253089 -0.000044 0.023229
# 5 0.030055 0.000432 -0.030800 -0.000044 0.245388 -0.000002
# 6 0.000000 -0.000001 0.000000 0.023229 -0.000002 0.081311
#
#
# Mechanical properties :
#
#
# Convention : Reuss Voigt Hill
#
# Bulk Modulus (GPa) = 49.47335 55.69396 52.58366
# Shear Modulus (GPa) = 7.72723 21.68458 14.70591
#
# Velocity S-wave (km/s) = 2.06280 3.45557 2.84571
# Velocity P-wave (km/s) = 5.73732 6.82569 6.30503
#
# Compressibility (1/GPa) = 0.02021290
#
# Stress axis : x y z
#
# Youngs Moduli (GPa) = 71.38727 65.74037 89.64609
#
# Poissons Ratio (x) = 0.18378 0.54593
# Poissons Ratio (y) = 0.19956 0.10716
# Poissons Ratio (z) = 0.43474 0.07859
#
# Static dielectric constant tensor:
#      x y z
#    x 1.632600 0.000000 -0.003560 
#    y 0.000000 1.606920 0.000000 
#    z -0.003560 0.000000 1.606340 
# 
# From -- ./inp_files/54505.got.cif
#   From: 2010.05.17/outbox.cif.g08.bks.cpg/sg5_28_cif.got.tgz:54505.got - 2010.06.03 18:56:24.
