data_PCOD9122737
_publ_section_title
;
Structure prediction by ZEFSAII (Michael W. Deem and Ramdas Pophale) SiO2 
 PCOD9122737
Probable space group: C 2
;
_chemical_formula_sum "Si O2"
_cell_formula_units_Z 32
_cell_length_a 17.443659
_cell_length_b 5.984672
_cell_length_c 28.826974
_cell_angle_alpha 90.000000
_cell_angle_beta 145.547470
_cell_angle_gamma 90.000000
_cell_volume 1702.476099
_symmetry_space_group_name_H-M "C 2"
_symmetry_group_IT_number 5
_symmetry_cell_setting 'monoclinic'
loop_
_space_group_symop_operation_xyz
x,y,z
-x,y,-z
1/2+x,1/2+y,z
1/2-x,1/2+y,-z
loop_
_atom_site_type_symbol
_atom_site_label
_atom_site_fract_x
_atom_site_fract_y
_atom_site_fract_z
Si Si1 0.324936 0.421790 0.702898
Si Si2 0.083987 0.219328 0.819979
Si Si3 0.058724 0.415880 0.710924
Si Si4 0.940905 0.538992 0.823466
Si Si5 0.929008 0.028888 0.585639
Si Si6 0.287916 0.077617 0.997097
Si Si7 0.793977 0.712169 0.592367
Si Si8 0.313982 0.229493 0.296774
O O1 0.457600 0.551814 0.750968
O O2 0.379575 0.260692 0.770496
O O3 0.263514 0.291744 0.628910
O O4 0.220594 0.588786 0.674761
O O5 0.120539 0.308016 0.787696
O O6 0.207656 0.105857 0.908973
O O7 0.024274 0.413588 0.823788
O O8 0.162284 0.573138 0.735655
O O9 0.925676 0.553656 0.660117
O O10 0.004148 0.236524 0.646852
O O11 0.814979 0.387295 0.775131
O O12 0.049563 0.576561 0.918156
O O13 0.838411 0.913622 0.580480
O O14 0.046671 0.862736 0.628306
O O15 0.831170 0.094808 0.495085
O O16 0.252347 0.322222 0.004777
#
# Coordination Sequence:
#
# PCOD9122737 Si02
#       8
#     4   4   4   4   4   4   4   4
#     4  11  20  40  64  93 123 164 210 261 321 383
#     4  10  20  35  67 100 120 161 217 270 313 382
#     4  11  21  40  63  94 121 165 213 263 320 382
#     4  10  20  39  62  96 130 164 209 262 325 385
#     4  11  22  41  62  90 124 163 210 264 323 377
#     4  10  20  36  65 106 133 164 220 282 328 382
#     4  11  22  37  70  90 118 162 216 269 309 378
#     4  10  25  40  63  88 130 174 201 259 331 388
#
# _framework density 18.796150999999998
#
# number of rings (size 3 to 8) (size 9 to 14) (size 15 to 20)
#    0.000    1.500    5.000    0.750    0.000    0.000 
#    0.000    3.750    0.000    4.500    0.000    0.000 
#    0.000    0.000    0.000    0.000    0.000    0.000 
#
# Total GULP energy -89255.781923 kJ/mol
# GULP energy per Si atom -5578.486370 kJ/mol
# Density = 1.875337 g / cm^3
# Si number density = 18.796151 Si / 1000 Ang^3
#
#
#
# Elastic Constant Matrix: (Units=GPa)
#
#
# Indices 1 2 3 4 5 6 
#
# 1 67.7070 15.0350 33.7249 0.0004 8.8135 0.0008
# 2 15.0350 52.3076 -8.4052 -0.0007 8.5187 -0.0001
# 3 33.7249 -8.4052 53.5457 0.0010 -5.7550 0.0004
# 4 0.0004 -0.0007 0.0010 -1.5709 -0.0002 -38.2046
# 5 8.8135 8.5187 -5.7550 -0.0002 21.7993 -0.0001
# 6 0.0008 -0.0001 0.0004 -38.2046 -0.0001 -19.2121
#
#
#
# Elastic Compliance Matrix: (Units=1/GPa)
#
#
# Indices 1 2 3 4 5 6 
#
# 1 0.029455 -0.009680 -0.021556 0.000000 -0.013817 0.000000
# 2 -0.009680 0.023906 0.009537 0.000000 -0.002911 0.000000
# 3 -0.021556 0.009537 0.035287 0.000000 0.014304 0.000000
# 4 0.000000 0.000000 0.000000 0.013441 0.000000 -0.026727
# 5 -0.013817 -0.002911 0.014304 0.000000 0.056373 0.000000
# 6 0.000000 0.000000 0.000000 -0.026727 0.000000 0.001099
#
#
# Mechanical properties :
#
#
# Convention : Reuss Voigt Hill
#
# Bulk Modulus (GPa) = 22.09989 28.25219 25.17604
# Shear Modulus (GPa) = 22.93137 9.08364 16.00751
#
# Velocity S-wave (km/s) = 3.49664 2.20073 2.92145
# Velocity P-wave (km/s) = 5.29955 4.63908 4.98028
#
# Compressibility (1/GPa) = 0.04524909
#
# Stress axis : x y z
#
# Youngs Moduli (GPa) = 33.95051 41.82963 28.33927
#
# Poissons Ratio (x) = 0.40491 0.61088
# Poissons Ratio (y) = 0.32864 -0.27026
# Poissons Ratio (z) = 0.73184 -0.39891
#
# Static dielectric constant tensor:
#      x y z
#    x 1.657620 0.000000 -0.027060 
#    y 0.000000 1.715010 0.000000 
#    z -0.027060 0.000000 1.631300 
# 
# From -- ./inp_files/63745.got.cif
#   From: 2010.05.17/outbox.cif.g08.bks.cpg/sg5_32_cif.got.tgz:63745.got - 2010.06.03 18:56:24.
