data_PCOD9122721
_publ_section_title
;
Structure prediction by ZEFSAII (Michael W. Deem and Ramdas Pophale) SiO2 
 PCOD9122721
Probable space group: C 2
;
_chemical_formula_sum "Si O2"
_cell_formula_units_Z 32
_cell_length_a 21.860157
_cell_length_b 14.832346
_cell_length_c 7.869733
_cell_angle_alpha 90.000000
_cell_angle_beta 34.069989
_cell_angle_gamma 90.000000
_cell_volume 1429.454212
_symmetry_space_group_name_H-M "C 2"
_symmetry_group_IT_number 5
_symmetry_cell_setting 'monoclinic'
loop_
_space_group_symop_operation_xyz
x,y,z
-x,y,-z
1/2+x,1/2+y,z
1/2-x,1/2+y,-z
loop_
_atom_site_type_symbol
_atom_site_label
_atom_site_fract_x
_atom_site_fract_y
_atom_site_fract_z
Si Si1 0.900106 0.028340 0.127825
Si Si2 0.903097 0.159951 0.847927
Si Si3 0.835896 0.851506 0.075060
Si Si4 0.271030 0.816320 0.343690
Si Si5 0.461818 0.078615 0.392284
Si Si6 0.750796 0.995741 0.057930
Si Si7 0.810871 0.516694 0.193938
Si Si8 0.551975 0.269091 0.695927
O O1 0.854295 0.947245 0.123220
O O2 0.793444 0.059772 0.473587
O O3 0.952095 0.106208 0.895531
O O4 0.000000 0.987825 0.000000
O O5 0.000000 0.189226 0.500000
O O6 0.835660 0.240746 0.089637
O O7 0.829601 0.080180 0.929304
O O8 0.760257 0.797606 0.384933
O O9 0.791386 0.892972 0.001522
O O10 0.955025 0.807181 0.801674
O O11 0.328456 0.913043 0.208427
O O12 0.156276 0.828127 0.506263
O O13 0.500000 0.071165 0.500000
O O14 0.411750 0.176041 0.471501
O O15 0.365243 0.008547 0.578381
O O16 0.576043 0.067450 0.032422
O O17 0.722220 0.011187 0.927344
O O18 0.500000 0.249669 0.000000
#
# Coordination Sequence:
#
# PCOD9122721 Si02
#       8
#     4   4   4   4   4   4   4   4
#     4  10  20  39  60  89 123 164 214 263 317 382
#     4  11  23  38  63  89 125 174 219 260 327 391
#     4   9  20  36  63  92 121 158 210 260 321 383
#     4  10  21  40  58  91 127 163 206 264 325 380
#     4  10  22  38  60  91 124 163 209 258 322 384
#     4  10  21  42  60  92 127 167 212 266 319 390
#     4  10  22  38  65  88 128 168 211 264 328 381
#     4  10  20  35  64  92 122 156 208 267 317 371
#
# _framework density 22.386168999999999
#
# number of rings (size 3 to 8) (size 9 to 14) (size 15 to 20)
#    0.000    2.000    1.250    2.625    3.500    4.500 
#    0.000    3.125    0.000    0.000    0.000    0.000 
#    0.000    0.000    0.000    0.000    0.000    0.000 
#
# Total GULP energy -89196.434233 kJ/mol
# GULP energy per Si atom -5574.777140 kJ/mol
# Density = 2.233522 g / cm^3
# Si number density = 22.386169 Si / 1000 Ang^3
#
#
#
# Elastic Constant Matrix: (Units=GPa)
#
#
# Indices 1 2 3 4 5 6 
#
# 1 36.9119 1.2805 1.9144 0.0000 0.8610 0.0000
# 2 1.2805 56.6322 12.8335 0.0000 3.6224 0.0000
# 3 1.9144 12.8335 86.0553 0.0000 3.9497 0.0000
# 4 0.0000 0.0000 0.0000 29.3160 0.0000 0.9162
# 5 0.8610 3.6224 3.9497 0.0000 22.1330 0.0000
# 6 0.0000 0.0000 0.0000 0.9162 0.0000 22.8777
#
#
#
# Elastic Compliance Matrix: (Units=1/GPa)
#
#
# Indices 1 2 3 4 5 6 
#
# 1 0.027154 -0.000444 -0.000497 0.000000 -0.000895 0.000000
# 2 -0.000444 0.018424 -0.002622 0.000000 -0.002530 0.000000
# 3 -0.000497 -0.002622 0.012101 0.000000 -0.001711 0.000000
# 4 0.000000 0.000000 0.000000 0.034154 0.000000 -0.001368
# 5 -0.000895 -0.002530 -0.001711 0.000000 0.045936 0.000000
# 6 0.000000 0.000000 0.000000 -0.001368 0.000000 0.043765
#
#
# Mechanical properties :
#
#
# Convention : Reuss Voigt Hill
#
# Bulk Modulus (GPa) = 19.78105 23.51736 21.64921
# Shear Modulus (GPa) = 24.32979 25.77007 25.04993
#
# Velocity S-wave (km/s) = 3.30028 3.39656 3.34876
# Velocity P-wave (km/s) = 4.83507 5.09021 4.96428
#
# Compressibility (1/GPa) = 0.05055343
#
# Stress axis : x y z
#
# Youngs Moduli (GPa) = 36.82753 54.27776 82.63801
#
# Poissons Ratio (x) = 0.02411 0.04105
# Poissons Ratio (y) = 0.01636 0.21664
# Poissons Ratio (z) = 0.01829 0.14229
#
# Static dielectric constant tensor:
#      x y z
#    x 1.949570 0.000000 0.008210 
#    y 0.000000 1.805530 0.000000 
#    z 0.008210 0.000000 1.907940 
# 
# From -- ./inp_files/31041.got.cif
#   From: 2010.05.17/outbox.cif.g08.bks.cpg/sg5_16_cif.got.tgz:31041.got - 2010.06.03 18:56:24.
