data_PCOD9122378
_publ_section_title
;
Structure prediction by ZEFSAII (Michael W. Deem and Ramdas Pophale) SiO2 
 PCOD9122378
Probable space group: C 2
;
_chemical_formula_sum "Si O2"
_cell_formula_units_Z 32
_cell_length_a 13.200889
_cell_length_b 10.948854
_cell_length_c 11.759892
_cell_angle_alpha 90.000000
_cell_angle_beta 109.210699
_cell_angle_gamma 90.000000
_cell_volume 1605.062838
_symmetry_space_group_name_H-M "C 2"
_symmetry_group_IT_number 5
_symmetry_cell_setting 'monoclinic'
loop_
_space_group_symop_operation_xyz
x,y,z
-x,y,-z
1/2+x,1/2+y,z
1/2-x,1/2+y,-z
loop_
_atom_site_type_symbol
_atom_site_label
_atom_site_fract_x
_atom_site_fract_y
_atom_site_fract_z
Si Si1 0.284092 0.916120 0.991442
Si Si2 0.878658 0.709364 0.477495
Si Si3 0.504557 0.907719 0.808353
Si Si4 0.201088 0.256237 0.223740
Si Si5 0.678303 0.308026 0.295718
Si Si6 0.395513 0.123950 0.911640
Si Si7 0.596134 0.938266 0.600302
Si Si8 0.388331 0.498734 0.894980
O O1 0.262804 0.841520 0.868597
O O2 0.320143 0.055011 0.973529
O O3 0.391137 0.858242 0.087036
O O4 0.188249 0.925669 0.045023
O O5 0.792572 0.754641 0.353257
O O6 0.851516 0.753056 0.593701
O O7 0.880369 0.562495 0.459846
O O8 0.000000 0.751656 0.500000
O O9 0.409404 0.810195 0.764348
O O10 0.549442 0.962670 0.708249
O O11 0.452550 0.015105 0.862991
O O12 0.172482 0.122284 0.165297
O O13 0.671755 0.202387 0.200001
O O14 0.796384 0.363191 0.348279
O O15 0.603352 0.414948 0.215170
O O16 0.500000 0.193708 0.000000
O O17 0.500000 0.870463 0.500000
O O18 0.500000 0.524074 0.000000
#
# Coordination Sequence:
#
# PCOD9122378 Si02
#       8
#     4   4   4   4   4   4   4   4
#     4  10  22  40  67  98 130 175 223 264 336 397
#     4  11  25  43  67  90 130 181 225 272 320 397
#     4  10  19  42  69  97 123 170 229 267 324 391
#     4  11  23  44  69  96 133 176 222 282 324 396
#     4  12  24  41  65  99 131 169 221 276 337 390
#     4   9  20  37  64  98 128 165 218 275 319 398
#     4  11  22  42  66  93 122 173 224 268 319 398
#     4  12  26  41  65 100 141 172 211 282 349 397
#
# _framework density 19.936914000000002
#
# number of rings (size 3 to 8) (size 9 to 14) (size 15 to 20)
#    0.000    1.250    2.500    4.500    3.500    3.000 
#    0.000    0.000    2.750    0.000    0.000    0.000 
#    0.000    0.000    0.000    0.000    0.000    0.000 
#
# Total GULP energy -89357.990931 kJ/mol
# GULP energy per Si atom -5584.874433 kJ/mol
# Density = 1.989154 g / cm^3
# Si number density = 19.936914 Si / 1000 Ang^3
#
#
#
# Elastic Constant Matrix: (Units=GPa)
#
#
# Indices 1 2 3 4 5 6 
#
# 1 110.4744 30.8642 66.1339 0.0000 2.7804 0.0000
# 2 30.8642 57.9095 45.5403 0.0000 -1.4526 0.0000
# 3 66.1339 45.5403 155.3628 0.0000 17.8447 0.0000
# 4 0.0000 0.0000 0.0000 41.3071 0.0000 5.2491
# 5 2.7804 -1.4526 17.8447 0.0000 45.9165 0.0000
# 6 0.0000 0.0000 0.0000 5.2491 0.0000 18.8393
#
#
#
# Elastic Compliance Matrix: (Units=1/GPa)
#
#
# Indices 1 2 3 4 5 6 
#
# 1 0.012635 -0.003118 -0.004569 0.000000 0.000912 0.000000
# 2 -0.003118 0.023736 -0.006006 0.000000 0.003274 0.000000
# 3 -0.004569 -0.006006 0.010606 0.000000 -0.004035 0.000000
# 4 0.000000 0.000000 0.000000 0.025098 0.000000 -0.006993
# 5 0.000912 0.003274 -0.004035 0.000000 0.023395 0.000000
# 6 0.000000 0.000000 0.000000 -0.006993 0.000000 0.055029
#
#
# Mechanical properties :
#
#
# Convention : Reuss Voigt Hill
#
# Bulk Modulus (GPa) = 51.04812 67.64708 59.34760
# Shear Modulus (GPa) = 27.11275 33.29314 30.20294
#
# Velocity S-wave (km/s) = 3.69172 4.09090 3.89643
# Velocity P-wave (km/s) = 6.62058 7.50455 7.07638
#
# Compressibility (1/GPa) = 0.01958936
#
# Stress axis : x y z
#
# Youngs Moduli (GPa) = 79.14259 42.13084 94.28990
#
# Poissons Ratio (x) = 0.13137 0.43084
# Poissons Ratio (y) = 0.24678 0.56632
# Poissons Ratio (z) = 0.36163 0.25304
#
# Static dielectric constant tensor:
#      x y z
#    x 1.703630 0.000000 0.010190 
#    y 0.000000 1.726840 0.000000 
#    z 0.010190 0.000000 1.736920 
# 
# From -- ./inp_files/39420.got.cif
#   From: 2010.05.17/outbox.cif.g08.bks.cpg/sg5_20_cif.got.tgz:39420.got - 2010.06.03 18:56:24.
