data_PCOD9122554
_publ_section_title
;
Structure prediction by ZEFSAII (Michael W. Deem and Ramdas Pophale) SiO2 
 PCOD9122554
Probable space group: C 2
;
_chemical_formula_sum "Si O2"
_cell_formula_units_Z 32
_cell_length_a 18.823317
_cell_length_b 10.947229
_cell_length_c 19.696026
_cell_angle_alpha 90.000000
_cell_angle_beta 21.794596
_cell_angle_gamma 90.000000
_cell_volume 1506.887496
_symmetry_space_group_name_H-M "C 2"
_symmetry_group_IT_number 5
_symmetry_cell_setting 'monoclinic'
loop_
_space_group_symop_operation_xyz
x,y,z
-x,y,-z
1/2+x,1/2+y,z
1/2-x,1/2+y,-z
loop_
_atom_site_type_symbol
_atom_site_label
_atom_site_fract_x
_atom_site_fract_y
_atom_site_fract_z
Si Si1 0.471526 0.035010 0.380688
Si Si2 0.649452 0.791255 0.549849
Si Si3 0.554266 0.592882 0.745643
Si Si4 0.947048 0.747169 0.880186
Si Si5 0.388239 0.668938 0.665636
Si Si6 0.179192 0.894496 0.875113
Si Si7 0.752702 0.231999 0.077778
Si Si8 0.241978 0.506716 0.911458
O O1 0.254059 0.044596 0.599107
O O2 0.566624 0.160204 0.270313
O O3 0.430374 0.926609 0.362107
O O4 0.634207 0.978091 0.284260
O O5 0.629377 0.703855 0.631729
O O6 0.518443 0.738377 0.605693
O O7 0.859232 0.783759 0.330037
O O8 0.413530 0.519749 0.816961
O O9 0.423788 0.635730 0.923568
O O10 0.782680 0.757213 0.970199
O O11 0.888452 0.836859 0.992957
O O12 0.926108 0.603405 0.919300
O O13 0.500000 0.631556 0.500000
O O14 0.233703 0.772620 0.783602
O O15 0.309172 0.558426 0.779457
O O16 0.000000 0.958106 0.000000
O O17 0.801291 0.365057 0.061529
#
# Coordination Sequence:
#
# PCOD9122554 Si02
#       8
#     4   4   4   4   4   4   4   4
#     4  11  23  37  59  91 129 171 207 254 323 383
#     4  10  20  34  57  93 123 161 212 255 317 376
#     4  10  22  34  56  89 127 169 206 253 320 380
#     4  10  20  35  63  89 124 170 204 265 317 372
#     4   9  18  37  61  90 121 159 213 267 312 372
#     4  10  22  39  63  92 126 164 218 266 317 374
#     4  11  22  37  58  90 137 168 206 261 320 397
#     4   9  21  37  58  93 131 168 209 258 326 383
#
# _framework density 21.235825999999999
#
# number of rings (size 3 to 8) (size 9 to 14) (size 15 to 20)
#    0.000    2.000    1.250    3.750    8.750    0.000 
#    2.250    0.000    0.000    9.000    0.000    0.000 
#    0.000    0.000    0.000    0.000    0.000    0.000 
#
# Total GULP energy -89136.939180 kJ/mol
# GULP energy per Si atom -5571.058699 kJ/mol
# Density = 2.118749 g / cm^3
# Si number density = 21.235826 Si / 1000 Ang^3
#
#
#
# Elastic Constant Matrix: (Units=GPa)
#
#
# Indices 1 2 3 4 5 6 
#
# 1 34.3235 6.8445 6.8627 -0.0005 -10.4860 -0.0002
# 2 6.8445 98.5664 19.8157 -0.0022 1.0184 0.0012
# 3 6.8627 19.8157 96.3191 -0.0018 -17.4082 0.0011
# 4 -0.0005 -0.0022 -0.0018 23.6247 0.0011 -5.8243
# 5 -10.4860 1.0184 -17.4082 0.0011 38.8272 0.0004
# 6 -0.0002 0.0012 0.0011 -5.8243 0.0004 8.8496
#
#
#
# Elastic Compliance Matrix: (Units=1/GPa)
#
#
# Indices 1 2 3 4 5 6 
#
# 1 0.032288 -0.002278 -0.000267 0.000000 0.008660 0.000001
# 2 -0.002278 0.010811 -0.002420 0.000001 -0.001984 -0.000001
# 3 -0.000267 -0.002420 0.011858 0.000000 0.005308 -0.000001
# 4 0.000000 0.000001 0.000000 0.050527 -0.000002 0.033253
# 5 0.008660 -0.001984 0.005308 -0.000002 0.030526 -0.000003
# 6 0.000001 -0.000001 -0.000001 0.033253 -0.000003 0.134885
#
#
# Mechanical properties :
#
#
# Convention : Reuss Voigt Hill
#
# Bulk Modulus (GPa) = 22.20885 32.91719 27.56302
# Shear Modulus (GPa) = 16.90143 27.30605 22.10374
#
# Velocity S-wave (km/s) = 2.82422 3.58976 3.22975
# Velocity P-wave (km/s) = 4.59520 5.71982 5.18807
#
# Compressibility (1/GPa) = 0.04502709
#
# Stress axis : x y z
#
# Youngs Moduli (GPa) = 30.97141 92.50090 84.32788
#
# Poissons Ratio (x) = 0.21071 0.02249
# Poissons Ratio (y) = 0.07055 0.20410
# Poissons Ratio (z) = 0.00826 0.22388
#
# Static dielectric constant tensor:
#      x y z
#    x 1.771380 0.000000 -0.049570 
#    y 0.000000 1.875760 0.000000 
#    z -0.049570 0.000000 1.852480 
# 
# From -- ./inp_files/67123.got.cif
#   From: 2010.05.17/outbox.cif.g08.bks.cpg/sg5_34_cif.got.tgz:67123.got - 2010.06.03 18:56:24.
