data_PCOD9122077
_publ_section_title
;
Structure prediction by ZEFSAII (Michael W. Deem and Ramdas Pophale) SiO2 
 PCOD9122077
Probable space group: C 2
;
_chemical_formula_sum "Si O2"
_cell_formula_units_Z 20
_cell_length_a 21.618882
_cell_length_b 5.940558
_cell_length_c 14.947412
_cell_angle_alpha 90.000000
_cell_angle_beta 156.649025
_cell_angle_gamma 90.000000
_cell_volume 760.884967
_symmetry_space_group_name_H-M "C 2"
_symmetry_group_IT_number 5
_symmetry_cell_setting 'monoclinic'
loop_
_space_group_symop_operation_xyz
x,y,z
-x,y,-z
1/2+x,1/2+y,z
1/2-x,1/2+y,-z
loop_
_atom_site_type_symbol
_atom_site_label
_atom_site_fract_x
_atom_site_fract_y
_atom_site_fract_z
Si Si1 0.898467 0.090460 0.773302
Si Si2 0.319139 0.580013 0.284075
Si Si3 0.907643 0.889558 0.124937
Si Si4 0.387341 0.154387 0.270916
Si Si5 0.327116 0.091665 0.727648
O O1 0.824017 0.342811 0.677045
O O2 0.813179 0.845429 0.669235
O O3 0.987861 0.053383 0.797037
O O4 0.000000 0.093854 0.000000
O O5 0.500000 0.625514 0.500000
O O6 0.297340 0.339159 0.210264
O O7 0.300079 0.586739 0.363673
O O8 0.177086 0.727261 0.058715
O O9 0.973105 0.753898 0.297381
O O10 0.750569 0.007265 0.953373
O O11 0.500000 0.063687 0.500000
O O12 0.500000 0.092470 0.000000
#
# Coordination Sequence:
#
# PCOD9122077 Si02
#       5
#     4   4   4   4   4
#     4  10  20  35  69 100 137 192 255 293 384 452
#     4  11  23  41  68 105 147 190 246 308 380 449
#     4  12  22  42  71 106 145 201 244 317 385 454
#     4  11  25  42  68 106 148 188 254 315 379 457
#     4  10  19  38  63 103 138 193 244 309 374 449
#
# _framework density 26.285181999999999
#
# number of rings (size 3 to 8) (size 9 to 14) (size 15 to 20)
#    0.000    1.200    6.000    3.000    0.000    0.000 
#    0.000    0.000    0.000   14.400    0.000    0.000 
#    0.000    0.000    0.000    0.000    0.000    0.000 
#
# Total GULP energy -55712.402322 kJ/mol
# GULP energy per Si atom -5571.240232 kJ/mol
# Density = 2.622536 g / cm^3
# Si number density = 26.285182 Si / 1000 Ang^3
#
#
#
# Elastic Constant Matrix: (Units=GPa)
#
#
# Indices 1 2 3 4 5 6 
#
# 1 175.8472 21.2166 58.5267 -0.0003 -12.7659 0.0001
# 2 21.2166 170.7758 27.4919 0.0003 1.3418 0.0000
# 3 58.5267 27.4919 83.7369 0.0001 -21.2310 0.0000
# 4 -0.0003 0.0003 0.0001 2.7999 0.0000 11.1166
# 5 -12.7659 1.3418 -21.2310 0.0000 49.6892 0.0000
# 6 0.0001 0.0000 0.0000 11.1166 0.0000 18.0813
#
#
#
# Elastic Compliance Matrix: (Units=1/GPa)
#
#
# Indices 1 2 3 4 5 6 
#
# 1 0.007417 -0.000075 -0.005244 -0.000001 -0.000333 0.000000
# 2 -0.000075 0.006243 -0.002294 0.000000 -0.001168 0.000000
# 3 -0.005244 -0.002294 0.017983 0.000001 0.006398 0.000000
# 4 -0.000001 0.000000 0.000001 -0.247851 0.000000 0.152382
# 5 -0.000333 -0.001168 0.006398 0.000000 0.022805 0.000000
# 6 0.000000 0.000000 0.000000 0.152382 0.000000 -0.038380
#
#
# Mechanical properties :
#
#
# Convention : Reuss Voigt Hill
#
# Bulk Modulus (GPa) = 60.90731 71.64783 66.27757
# Shear Modulus (GPa) = -23.68694 35.65574 5.98440
#
# Velocity S-wave (km/s) = -3.00518 3.68706 1.51052
# Velocity P-wave (km/s) = 3.34374 6.74114 5.32088
#
# Compressibility (1/GPa) = 0.01641839
#
# Stress axis : x y z
#
# Youngs Moduli (GPa) = 134.82758 160.17115 55.60943
#
# Poissons Ratio (x) = 0.01196 0.29161
# Poissons Ratio (y) = 0.01007 0.12755
# Poissons Ratio (z) = 0.70702 0.36738
#
# Static dielectric constant tensor:
#      x y z
#    x 1.957650 0.000000 -0.017430 
#    y 0.000000 2.184270 0.000000 
#    z -0.017430 0.000000 2.117910 
# 
# From -- ./inp_files/56620.got.cif
#   From: 2010.05.17/outbox.cif.g08.bks.cpg/sg5_29_cif.got.tgz:56620.got - 2010.06.03 18:56:24.
