data_PCOD9122372
_publ_section_title
;
Structure prediction by ZEFSAII (Michael W. Deem and Ramdas Pophale) SiO2 
 PCOD9122372
Probable space group: C 2
;
_chemical_formula_sum "Si O2"
_cell_formula_units_Z 30
_cell_length_a 11.701808
_cell_length_b 15.114026
_cell_length_c 8.717493
_cell_angle_alpha 90.000000
_cell_angle_beta 108.252284
_cell_angle_gamma 90.000000
_cell_volume 1464.215735
_symmetry_space_group_name_H-M "C 2"
_symmetry_group_IT_number 5
_symmetry_cell_setting 'monoclinic'
loop_
_space_group_symop_operation_xyz
x,y,z
-x,y,-z
1/2+x,1/2+y,z
1/2-x,1/2+y,-z
loop_
_atom_site_type_symbol
_atom_site_label
_atom_site_fract_x
_atom_site_fract_y
_atom_site_fract_z
Si Si1 0.293063 0.860280 0.410425
Si Si2 0.000000 0.022424 0.000000
Si Si3 0.763966 0.105383 0.020298
Si Si4 0.517483 0.406147 0.327732
Si Si5 0.659006 0.931967 0.874174
Si Si6 0.428969 0.819699 0.769399
Si Si7 0.699431 0.296341 0.886704
Si Si8 0.413129 0.682872 0.330642
O O1 0.152146 0.867674 0.379623
O O2 0.331705 0.934985 0.305284
O O3 0.370215 0.864428 0.595915
O O4 0.334760 0.765474 0.359361
O O5 0.121784 0.080199 0.038928
O O6 0.006738 0.969322 0.168507
O O7 0.699967 0.197265 0.951246
O O8 0.675607 0.023513 0.965840
O O9 0.824275 0.115476 0.212500
O O10 0.500000 0.438213 0.500000
O O11 0.416895 0.330935 0.251785
O O12 0.535899 0.883943 0.862223
O O13 0.769829 0.867625 0.968094
O O14 0.318226 0.801880 0.832277
O O15 0.497613 0.728846 0.754760
O O16 0.500000 0.648279 0.500000
#
# Coordination Sequence:
#
# PCOD9122372 Si02
#       8
#     4   2   4   4   4   4   4   4
#     4  10  19  42  68  95 132 180 228 281 347 407
#     4  12  26  44  72 102 140 188 232 290 342 420
#     4  12  23  40  68 102 133 180 231 285 347 412
#     4  12  24  45  73 100 145 185 231 284 352 418
#     4  11  22  40  65 101 132 173 230 279 349 405
#     4  10  20  39  70  93 129 175 226 282 338 408
#     4  12  23  42  67  97 135 176 228 281 345 414
#     4   9  20  38  67 102 130 174 235 289 342 408
#
# _framework density 20.488783000000002
#
# number of rings (size 3 to 8) (size 9 to 14) (size 15 to 20)
#    0.000    1.067    6.667    2.400    0.000    0.533 
#    0.000    4.000    2.933    0.000    0.000    0.000 
#    0.000    0.000    0.000    0.000    0.000    0.000 
#
# Total GULP energy -83687.258404 kJ/mol
# GULP energy per Si atom -5579.150560 kJ/mol
# Density = 2.044215 g / cm^3
# Si number density = 20.488783 Si / 1000 Ang^3
#
#
#
# Elastic Constant Matrix: (Units=GPa)
#
#
# Indices 1 2 3 4 5 6 
#
# 1 74.7234 -0.7960 15.3177 0.0000 9.1210 0.0000
# 2 -0.7960 97.6311 49.1247 0.0000 17.0032 0.0000
# 3 15.3177 49.1247 138.8083 0.0000 11.7252 0.0000
# 4 0.0000 0.0000 0.0000 13.8026 0.0000 1.8319
# 5 9.1210 17.0032 11.7252 0.0000 37.8482 0.0000
# 6 0.0000 0.0000 0.0000 1.8319 0.0000 15.1500
#
#
#
# Elastic Compliance Matrix: (Units=1/GPa)
#
#
# Indices 1 2 3 4 5 6 
#
# 1 0.014222 0.001679 -0.001859 0.000000 -0.003606 0.000000
# 2 0.001679 0.013397 -0.004502 0.000000 -0.005029 0.000000
# 3 -0.001859 -0.004502 0.009030 0.000000 -0.000327 0.000000
# 4 0.000000 0.000000 0.000000 0.073632 0.000000 -0.008903
# 5 -0.003606 -0.005029 -0.000327 0.000000 0.029651 0.000000
# 6 0.000000 0.000000 0.000000 -0.008903 0.000000 0.067083
#
#
# Mechanical properties :
#
#
# Convention : Reuss Voigt Hill
#
# Bulk Modulus (GPa) = 36.64878 48.71730 42.68304
# Shear Modulus (GPa) = 22.17551 29.86123 26.01837
#
# Velocity S-wave (km/s) = 3.29344 3.82179 3.56741
# Velocity P-wave (km/s) = 5.69108 6.58057 6.15192
#
# Compressibility (1/GPa) = 0.02728604
#
# Stress axis : x y z
#
# Youngs Moduli (GPa) = 70.31445 74.64169 110.73950
#
# Poissons Ratio (x) = -0.12535 0.20588
# Poissons Ratio (y) = -0.11809 0.49854
# Poissons Ratio (z) = 0.13073 0.33603
#
# Static dielectric constant tensor:
#      x y z
#    x 1.716990 0.000000 -0.028420 
#    y 0.000000 1.735200 0.000000 
#    z -0.028420 0.000000 1.829630 
# 
# From -- ./inp_files/20698.got.cif
#   From: 2010.05.17/outbox.cif.g08.bks.cpg/sg5_11_cif.got.tgz:20698.got - 2010.06.03 18:56:24.
