data_PCOD9122334
_publ_section_title
;
Structure prediction by ZEFSAII (Michael W. Deem and Ramdas Pophale) SiO2 
 PCOD9122334
Probable space group: C 2
;
_chemical_formula_sum "Si O2"
_cell_formula_units_Z 26
_cell_length_a 8.364183
_cell_length_b 27.418780
_cell_length_c 5.286027
_cell_angle_alpha 90.000000
_cell_angle_beta 104.432059
_cell_angle_gamma 90.000000
_cell_volume 1174.019958
_symmetry_space_group_name_H-M "C 2"
_symmetry_group_IT_number 5
_symmetry_cell_setting 'monoclinic'
loop_
_space_group_symop_operation_xyz
x,y,z
-x,y,-z
1/2+x,1/2+y,z
1/2-x,1/2+y,-z
loop_
_atom_site_type_symbol
_atom_site_label
_atom_site_fract_x
_atom_site_fract_y
_atom_site_fract_z
Si Si1 0.307019 0.702890 0.142859
Si Si2 0.106127 0.311595 0.795848
Si Si3 0.500000 0.463009 0.500000
Si Si4 0.315113 0.407252 0.816295
Si Si5 0.248732 0.002431 0.942298
Si Si6 0.316302 0.662767 0.640983
Si Si7 0.181354 0.562278 0.524348
O O1 0.310099 0.760348 0.096090
O O2 0.230001 0.692594 0.383976
O O3 0.497238 0.683510 0.250784
O O4 0.236793 0.672342 0.882446
O O5 0.226134 0.355986 0.778536
O O6 0.000000 0.301832 0.500000
O O7 0.000000 0.325826 0.000000
O O8 0.352455 0.430463 0.555072
O O9 0.565489 0.496022 0.752816
O O10 0.500000 0.401479 0.000000
O O11 0.216571 0.447272 0.945207
O O12 0.332455 0.027663 0.729784
O O13 0.270977 0.033875 0.201435
O O14 0.307536 0.606895 0.551486
O O15 0.000000 0.583617 0.500000
#
# Coordination Sequence:
#
# PCOD9122334 Si02
#       7
#     4   4   2   4   4   4   4
#     4  10  19  41  65  93 129 162 231 286 324 399
#     4  12  24  42  72 104 137 182 232 289 353 411
#     4  10  22  48  66  96 134 174 232 290 344 406
#     4  10  25  46  69 101 142 181 230 291 344 422
#     4  11  24  45  66  94 135 177 235 282 335 416
#     4  10  20  39  62  92 127 166 215 289 324 394
#     4  12  26  42  64  97 140 186 227 277 357 415
#
# _framework density 22.146129999999999
#
# number of rings (size 3 to 8) (size 9 to 14) (size 15 to 20)
#    0.000    1.231    4.615    1.385    4.308    5.538 
#    0.000    1.538    0.000    0.000    0.000    0.000 
#    0.000    0.000    0.000    0.000    0.000    0.000 
#
# Total GULP energy -72509.737940 kJ/mol
# GULP energy per Si atom -5577.672149 kJ/mol
# Density = 2.209572 g / cm^3
# Si number density = 22.146130 Si / 1000 Ang^3
#
#
#
# Elastic Constant Matrix: (Units=GPa)
#
#
# Indices 1 2 3 4 5 6 
#
# 1 37.9614 33.3004 17.6926 0.0000 -13.3090 0.0000
# 2 33.3004 123.9177 19.7758 0.0000 1.4331 0.0000
# 3 17.6926 19.7758 141.8437 0.0000 -28.2627 0.0000
# 4 0.0000 0.0000 0.0000 28.9588 0.0000 -4.0756
# 5 -13.3090 1.4331 -28.2627 0.0000 21.4499 0.0000
# 6 0.0000 0.0000 0.0000 -4.0756 0.0000 31.5381
#
#
#
# Elastic Compliance Matrix: (Units=1/GPa)
#
#
# Indices 1 2 3 4 5 6 
#
# 1 0.050184 -0.014364 0.002900 0.000000 0.035918 0.000000
# 2 -0.014364 0.012491 -0.002565 0.000000 -0.013127 0.000000
# 3 0.002900 -0.002565 0.010087 0.000000 0.015261 0.000000
# 4 0.000000 0.000000 0.000000 0.035171 0.000000 0.004545
# 5 0.035918 -0.013127 0.015261 0.000000 0.089891 0.000000
# 6 0.000000 0.000000 0.000000 0.004545 0.000000 0.032295
#
#
# Mechanical properties :
#
#
# Convention : Reuss Voigt Hill
#
# Bulk Modulus (GPa) = 22.37013 49.47338 35.92176
# Shear Modulus (GPa) = 18.30961 31.91964 25.11463
#
# Velocity S-wave (km/s) = 2.87847 3.80059 3.37121
# Velocity P-wave (km/s) = 4.60114 6.45347 5.60437
#
# Compressibility (1/GPa) = 0.04470247
#
# Stress axis : x y z
#
# Youngs Moduli (GPa) = 19.92661 80.05648 99.13935
#
# Poissons Ratio (x) = 1.14994 -0.28748
# Poissons Ratio (y) = 0.28623 0.25434
# Poissons Ratio (z) = -0.05778 0.20538
#
# Static dielectric constant tensor:
#      x y z
#    x 1.822380 0.000000 0.004400 
#    y 0.000000 1.799360 0.000000 
#    z 0.004400 0.000000 1.848410 
# 
# From -- ./inp_files/3649.got.cif
#   From: 2010.05.17/outbox.cif.g08.bks.cpg/sg5_2_cif.got.tgz:3649.got - 2010.06.03 18:56:24.
