data_PCOD9122252
_publ_section_title
;
Structure prediction by ZEFSAII (Michael W. Deem and Ramdas Pophale) SiO2 
 PCOD9122252
Probable space group: C 2
;
_chemical_formula_sum "Si O2"
_cell_formula_units_Z 30
_cell_length_a 22.455080
_cell_length_b 10.666194
_cell_length_c 6.594368
_cell_angle_alpha 90.000000
_cell_angle_beta 111.693454
_cell_angle_gamma 90.000000
_cell_volume 1467.556031
_symmetry_space_group_name_H-M "C 2"
_symmetry_group_IT_number 5
_symmetry_cell_setting 'monoclinic'
loop_
_space_group_symop_operation_xyz
x,y,z
-x,y,-z
1/2+x,1/2+y,z
1/2-x,1/2+y,-z
loop_
_atom_site_type_symbol
_atom_site_label
_atom_site_fract_x
_atom_site_fract_y
_atom_site_fract_z
Si Si1 0.054062 0.192500 0.744435
Si Si2 0.724347 0.309044 0.048418
Si Si3 0.500000 0.492226 0.000000
Si Si4 0.941539 0.823307 0.581236
Si Si5 0.861158 0.414805 0.079434
Si Si6 0.843343 0.008368 0.247263
Si Si7 0.844204 0.625698 0.363056
Si Si8 0.717083 0.080070 0.317723
O O1 0.033485 0.087870 0.883495
O O2 0.078864 0.322325 0.872643
O O3 0.119246 0.136401 0.733159
O O4 0.000000 0.204767 0.500000
O O5 0.684931 0.439143 0.987263
O O6 0.692563 0.218648 0.837384
O O7 0.796291 0.343217 0.071852
O O8 0.717906 0.224581 0.240404
O O9 0.460488 0.396594 0.808172
O O10 0.898763 0.700034 0.554329
O O11 0.000000 0.797392 0.500000
O O12 0.896232 0.918094 0.404398
O O13 0.875085 0.515072 0.272820
O O14 0.838432 0.497599 0.859101
O O15 0.783641 0.024454 0.321250
O O16 0.793036 0.574546 0.457531
#
# Coordination Sequence:
#
# PCOD9122252 Si02
#       8
#     4   4   2   4   4   4   4   4
#     4  12  24  43  61  93 130 168 213 267 328 384
#     4   9  20  37  64  91 123 164 200 274 320 374
#     4  12  24  38  68  94 114 174 228 270 324 384
#     4  11  23  43  63  95 127 165 223 275 326 378
#     4  10  23  42  61  89 137 170 209 265 325 394
#     4  10  19  40  60  89 131 154 205 277 319 375
#     4  10  24  40  65  96 128 174 214 267 326 388
#     4  10  21  40  63 100 124 170 217 257 334 387
#
# _framework density 20.442150000000002
#
# number of rings (size 3 to 8) (size 9 to 14) (size 15 to 20)
#    0.000    1.600    4.000    0.000    1.867    6.933 
#    0.000    0.000    0.000    0.000    0.000    0.000 
#    0.000    0.000    0.000    0.000    0.000    0.000 
#
# Total GULP energy -83660.752784 kJ/mol
# GULP energy per Si atom -5577.383519 kJ/mol
# Density = 2.039562 g / cm^3
# Si number density = 20.442150 Si / 1000 Ang^3
#
#
#
# Elastic Constant Matrix: (Units=GPa)
#
#
# Indices 1 2 3 4 5 6 
#
# 1 49.4385 19.8546 9.7077 0.0000 10.6112 0.0000
# 2 19.8546 70.5095 7.8068 0.0000 17.1285 0.0000
# 3 9.7077 7.8068 35.6722 0.0000 4.5257 0.0000
# 4 0.0000 0.0000 0.0000 38.4355 0.0000 -11.5485
# 5 10.6112 17.1285 4.5257 0.0000 26.9065 0.0000
# 6 0.0000 0.0000 0.0000 -11.5485 0.0000 47.0297
#
#
#
# Elastic Compliance Matrix: (Units=1/GPa)
#
#
# Indices 1 2 3 4 5 6 
#
# 1 0.024379 -0.004958 -0.004833 0.000000 -0.005645 0.000000
# 2 -0.004958 0.017983 -0.001412 0.000000 -0.009255 0.000000
# 3 -0.004833 -0.001412 0.029940 0.000000 -0.002231 0.000000
# 4 0.000000 0.000000 0.000000 0.028090 0.000000 0.006898
# 5 -0.005645 -0.009255 -0.002231 0.000000 0.045659 0.000000
# 6 0.000000 0.000000 0.000000 0.006898 0.000000 0.022957
#
#
# Mechanical properties :
#
#
# Convention : Reuss Voigt Hill
#
# Bulk Modulus (GPa) = 20.04183 25.59537 22.81860
# Shear Modulus (GPa) = 24.03294 30.35776 27.19535
#
# Velocity S-wave (km/s) = 3.43250 3.85782 3.65136
# Velocity P-wave (km/s) = 5.05321 5.69138 5.38176
#
# Compressibility (1/GPa) = 0.04989564
#
# Stress axis : x y z
#
# Youngs Moduli (GPa) = 41.01879 55.60706 33.39973
#
# Poissons Ratio (x) = 0.27572 0.16142
# Poissons Ratio (y) = 0.20339 0.04716
# Poissons Ratio (z) = 0.19825 0.07852
#
# Static dielectric constant tensor:
#      x y z
#    x 1.716000 0.000000 0.028940 
#    y 0.000000 1.804000 0.000000 
#    z 0.028940 0.000000 1.658540 
# 
# From -- ./inp_files/10354.got.cif
#   From: 2010.05.17/outbox.cif.g08.bks.cpg/sg5_6_cif.got.tgz:10354.got - 2010.06.03 18:56:24.
