data_PCOD9122421
_publ_section_title
;
Structure prediction by ZEFSAII (Michael W. Deem and Ramdas Pophale) SiO2 
 PCOD9122421
Probable space group: C 2
;
_chemical_formula_sum "Si O2"
_cell_formula_units_Z 20
_cell_length_a 8.056405
_cell_length_b 25.350199
_cell_length_c 7.002615
_cell_angle_alpha 90.000000
_cell_angle_beta 138.695878
_cell_angle_gamma 90.000000
_cell_volume 943.981554
_symmetry_space_group_name_H-M "C 2"
_symmetry_group_IT_number 5
_symmetry_cell_setting 'monoclinic'
loop_
_space_group_symop_operation_xyz
x,y,z
-x,y,-z
1/2+x,1/2+y,z
1/2-x,1/2+y,-z
loop_
_atom_site_type_symbol
_atom_site_label
_atom_site_fract_x
_atom_site_fract_y
_atom_site_fract_z
Si Si1 0.000000 0.972620 0.500000
Si Si2 0.000000 0.405700 0.000000
Si Si3 0.441031 0.803170 0.163084
Si Si4 0.557145 0.129942 0.321979
Si Si5 0.445904 0.569102 0.179469
Si Si6 0.939036 0.752011 0.677267
O O1 0.255053 0.938150 0.723283
O O2 0.035377 0.011838 0.709810
O O3 0.070490 0.365666 0.887402
O O4 0.681835 0.783825 0.485546
O O5 0.500000 0.781277 0.000000
O O6 0.174802 0.779063 0.981800
O O7 0.500000 0.130020 0.500000
O O8 0.576442 0.190852 0.281759
O O9 0.825421 0.102231 0.532628
O O10 0.323158 0.098043 0.029656
O O11 0.500000 0.565680 0.000000
O O12 0.000000 0.754391 0.500000
#
# Coordination Sequence:
#
# PCOD9122421 Si02
#       6
#     2   2   4   4   4   4
#     4  12  22  36  56  72 112 148 178 226 268 290
#     4  10  20  32  48  78 110 136 184 230 256 320
#     4   8  15  24  40  66 106 122 160 220 252 303
#     4   9  17  29  49  74 109 135 170 215 259 322
#     4  10  21  36  51  77 108 137 183 221 255 320
#     4   9  13  23  42  69 100 133 153 206 269 301
#
# _framework density 21.186857
#
# number of rings (size 3 to 8) (size 9 to 14) (size 15 to 20)
#    0.600    2.000    0.000    3.600    0.000    4.800 
#    0.000    0.000    0.000    0.000    0.000    0.000 
#   60.000    0.000    0.000    0.000    0.000    0.000 
#
# Total GULP energy -55807.985934 kJ/mol
# GULP energy per Si atom -5580.798593 kJ/mol
# Density = 2.113863 g / cm^3
# Si number density = 21.186857 Si / 1000 Ang^3
#
#
#
# Elastic Constant Matrix: (Units=GPa)
#
#
# Indices 1 2 3 4 5 6 
#
# 1 55.3438 24.4001 46.1869 0.0000 2.4248 0.0000
# 2 24.4001 171.6940 113.0625 0.0000 30.9688 0.0000
# 3 46.1869 113.0625 228.9076 0.0000 31.6516 0.0000
# 4 0.0000 0.0000 0.0000 51.8890 0.0000 39.6934
# 5 2.4248 30.9688 31.6516 0.0000 46.4182 0.0000
# 6 0.0000 0.0000 0.0000 39.6934 0.0000 -165.8572
#
#
#
# Elastic Compliance Matrix: (Units=1/GPa)
#
#
# Indices 1 2 3 4 5 6 
#
# 1 0.021945 -0.000604 -0.004446 0.000000 0.002288 0.000000
# 2 -0.000604 0.009086 -0.003900 0.000000 -0.003371 0.000000
# 3 -0.004446 -0.003900 0.007508 0.000000 -0.002285 0.000000
# 4 0.000000 0.000000 0.000000 0.016290 0.000000 0.003898
# 5 0.002288 -0.003371 -0.002285 0.000000 0.025231 0.000000
# 6 0.000000 0.000000 0.000000 0.003898 0.000000 -0.005096
#
#
# Mechanical properties :
#
#
# Convention : Reuss Voigt Hill
#
# Bulk Modulus (GPa) = 48.44937 91.47161 69.96049
# Shear Modulus (GPa) = 50.12836 4.64305 27.38571
#
# Velocity S-wave (km/s) = 4.86944 1.48197 3.59915
# Velocity P-wave (km/s) = 7.38462 6.79675 7.09677
#
# Compressibility (1/GPa) = 0.02064011
#
# Stress axis : x y z
#
# Youngs Moduli (GPa) = 45.56790 110.05465 133.19137
#
# Poissons Ratio (x) = 0.06642 0.59219
# Poissons Ratio (y) = 0.02750 0.51945
# Poissons Ratio (z) = 0.20260 0.42922
#
# Static dielectric constant tensor:
#      x y z
#    x 1.817080 0.000000 -0.065650 
#    y 0.000000 1.722900 0.000000 
#    z -0.065650 0.000000 1.700820 
# 
# From -- ./inp_files/17499.got.cif
#   From: 2010.05.17/outbox.cif.g08.bks.cpg/sg5_9_cif.got.tgz:17499.got - 2010.06.03 18:56:24.
