data_PCOD9122253
_publ_section_title
;
Structure prediction by ZEFSAII (Michael W. Deem and Ramdas Pophale) SiO2 
 PCOD9122253
Probable space group: C 2
;
_chemical_formula_sum "Si O2"
_cell_formula_units_Z 32
_cell_length_a 12.493625
_cell_length_b 8.282979
_cell_length_c 17.928921
_cell_angle_alpha 90.000000
_cell_angle_beta 136.474197
_cell_angle_gamma 90.000000
_cell_volume 1277.754422
_symmetry_space_group_name_H-M "C 2"
_symmetry_group_IT_number 5
_symmetry_cell_setting 'monoclinic'
loop_
_space_group_symop_operation_xyz
x,y,z
-x,y,-z
1/2+x,1/2+y,z
1/2-x,1/2+y,-z
loop_
_atom_site_type_symbol
_atom_site_label
_atom_site_fract_x
_atom_site_fract_y
_atom_site_fract_z
Si Si1 0.926001 0.850240 0.564438
Si Si2 0.514663 0.390724 0.772982
Si Si3 0.109013 0.237118 0.447671
Si Si4 0.421262 0.708583 0.141982
Si Si5 0.682557 0.785967 0.101539
Si Si6 0.211015 0.274639 0.664690
Si Si7 0.260172 0.900970 0.713276
Si Si8 0.150517 0.962002 0.036598
O O1 0.964743 0.806493 0.670666
O O2 0.752776 0.777811 0.465362
O O3 0.093426 0.819559 0.609032
O O4 0.903575 0.043912 0.549160
O O5 0.543835 0.578971 0.776735
O O6 0.677505 0.321975 0.884858
O O7 0.371497 0.367615 0.756784
O O8 0.154774 0.311081 0.551904
O O9 0.931734 0.300620 0.350599
O O10 0.579570 0.810273 0.220112
O O11 0.281668 0.831346 0.086773
O O12 0.389315 0.590770 0.052512
O O13 0.734980 0.898823 0.194892
O O14 0.700794 0.595989 0.123614
O O15 0.500000 0.821270 0.000000
O O16 0.254495 0.084911 0.685261
O O17 0.000000 0.884679 0.000000
#
# Coordination Sequence:
#
# PCOD9122253 Si02
#       8
#     4   4   4   4   4   4   4   4
#     4   9  20  37  59  90 121 162 204 262 326 393
#     4  10  22  38  57  92 125 160 220 267 327 390
#     4   9  18  36  61  87 122 161 204 254 329 402
#     4  12  24  41  64  90 127 172 221 281 332 387
#     4  10  19  40  61  83 126 168 210 270 321 385
#     4   9  19  38  60  87 121 165 208 261 330 399
#     4  10  20  37  61  89 123 164 210 266 323 380
#     4  11  24  45  63  94 128 173 237 272 332 392
#
# _framework density 25.043937
#
# number of rings (size 3 to 8) (size 9 to 14) (size 15 to 20)
#    0.000    2.000    2.500    1.500    0.000    2.500 
#    9.000    0.000    0.000    0.000    0.000    0.000 
#    0.000    0.000    0.000    0.000    0.000    0.000 
#
# Total GULP energy -89127.194777 kJ/mol
# GULP energy per Si atom -5570.449674 kJ/mol
# Density = 2.498694 g / cm^3
# Si number density = 25.043937 Si / 1000 Ang^3
#
#
#
# Elastic Constant Matrix: (Units=GPa)
#
#
# Indices 1 2 3 4 5 6 
#
# 1 103.4469 41.0702 91.5171 0.0000 62.9911 0.0000
# 2 41.0702 60.5636 60.8065 0.0000 39.4843 0.0000
# 3 91.5171 60.8065 170.0226 0.0000 75.1060 0.0000
# 4 0.0000 0.0000 0.0000 40.8017 0.0000 8.0754
# 5 62.9911 39.4843 75.1060 0.0000 84.4263 0.0000
# 6 0.0000 0.0000 0.0000 8.0754 0.0000 29.4523
#
#
#
# Elastic Compliance Matrix: (Units=1/GPa)
#
#
# Indices 1 2 3 4 5 6 
#
# 1 0.022709 -0.001769 -0.007366 0.000000 -0.009563 0.000000
# 2 -0.001769 0.028143 -0.006395 0.000000 -0.006153 0.000000
# 3 -0.007366 -0.006395 0.013813 0.000000 -0.003801 0.000000
# 4 0.000000 0.000000 0.000000 0.025915 0.000000 -0.007106
# 5 -0.009563 -0.006153 -0.003801 0.000000 0.025239 0.000000
# 6 0.000000 0.000000 0.000000 -0.007106 0.000000 0.035901
#
#
# Mechanical properties :
#
#
# Convention : Reuss Voigt Hill
#
# Bulk Modulus (GPa) = 29.75826 80.09120 54.92473
# Shear Modulus (GPa) = 25.77551 40.31201 33.04376
#
# Velocity S-wave (km/s) = 3.21161 4.01640 3.63634
# Velocity P-wave (km/s) = 5.06565 7.31835 6.29361
#
# Compressibility (1/GPa) = 0.03360412
#
# Stress axis : x y z
#
# Youngs Moduli (GPa) = 44.03498 35.53255 72.39719
#
# Poissons Ratio (x) = 0.06287 0.53331
# Poissons Ratio (y) = 0.07792 0.46295
# Poissons Ratio (z) = 0.32438 0.22721
#
# Static dielectric constant tensor:
#      x y z
#    x 2.218440 0.000000 -0.021340 
#    y 0.000000 1.927400 0.000000 
#    z -0.021340 0.000000 2.107960 
# 
# From -- ./inp_files/70611.got.cif
#   From: 2010.05.17/outbox.cif.g08.bks.cpg/sg5_36_cif.got.tgz:70611.got - 2010.06.03 18:56:24.
