data_PCOD9122315
_publ_section_title
;
Structure prediction by ZEFSAII (Michael W. Deem and Ramdas Pophale) SiO2 
 PCOD9122315
Probable space group: C 2
;
_chemical_formula_sum "Si O2"
_cell_formula_units_Z 32
_cell_length_a 9.485342
_cell_length_b 13.530615
_cell_length_c 11.017637
_cell_angle_alpha 90.000000
_cell_angle_beta 75.781981
_cell_angle_gamma 90.000000
_cell_volume 1370.716811
_symmetry_space_group_name_H-M "C 2"
_symmetry_group_IT_number 5
_symmetry_cell_setting 'monoclinic'
loop_
_space_group_symop_operation_xyz
x,y,z
-x,y,-z
1/2+x,1/2+y,z
1/2-x,1/2+y,-z
loop_
_atom_site_type_symbol
_atom_site_label
_atom_site_fract_x
_atom_site_fract_y
_atom_site_fract_z
Si Si1 0.614292 0.222420 0.866828
Si Si2 0.244307 0.969888 0.593183
Si Si3 0.172071 0.048204 0.108262
Si Si4 0.870815 0.307050 0.709243
Si Si5 0.837015 0.130878 0.536149
Si Si6 0.549864 0.363494 0.277242
Si Si7 0.312298 0.774687 0.311174
Si Si8 0.162708 0.098161 0.834754
O O1 0.695465 0.114596 0.864608
O O2 0.746356 0.303407 0.838385
O O3 0.521912 0.265836 0.770946
O O4 0.500000 0.229796 0.000000
O O5 0.351426 0.882625 0.602974
O O6 0.085368 0.921255 0.637600
O O7 0.265603 0.038216 0.471121
O O8 0.245921 0.038374 0.713358
O O9 0.010887 0.097740 0.157601
O O10 0.137484 0.939209 0.168892
O O11 0.192150 0.052441 0.958982
O O12 0.837172 0.201457 0.651487
O O13 0.030017 0.322468 0.726958
O O14 0.820116 0.201944 0.424087
O O15 0.000000 0.089868 0.500000
O O16 0.669048 0.337945 0.351993
O O17 0.293068 0.711379 0.192045
#
# Coordination Sequence:
#
# PCOD9122315 Si02
#       8
#     4   4   4   4   4   4   4   4
#     4  11  23  41  63  93 134 176 221 278 331 392
#     4   9  20  38  64  94 123 169 217 274 328 404
#     4  10  20  38  60  89 125 176 219 264 326 402
#     4  10  21  40  67  96 127 175 221 270 333 404
#     4   9  20  38  67  90 121 171 216 263 334 401
#     4  10  23  37  64  97 130 173 218 279 333 402
#     4  10  19  41  61  91 131 166 214 270 337 395
#     4   9  18  36  63  86 122 173 217 258 330 399
#
# _framework density 23.345448000000001
#
# number of rings (size 3 to 8) (size 9 to 14) (size 15 to 20)
#    0.000    2.250    1.250    0.750    7.000    1.000 
#    6.750    1.875    0.000    6.000    0.000    0.000 
#    0.000    0.000    0.000    0.000    0.000    0.000 
#
# Total GULP energy -89143.012191 kJ/mol
# GULP energy per Si atom -5571.438262 kJ/mol
# Density = 2.329231 g / cm^3
# Si number density = 23.345448 Si / 1000 Ang^3
#
#
#
# Elastic Constant Matrix: (Units=GPa)
#
#
# Indices 1 2 3 4 5 6 
#
# 1 117.7892 38.8508 11.4846 0.0000 18.9197 0.0000
# 2 38.8508 72.3824 21.6284 0.0000 17.7634 0.0000
# 3 11.4846 21.6284 60.7433 0.0000 6.5551 0.0000
# 4 0.0000 0.0000 0.0000 28.9375 0.0000 5.9795
# 5 18.9197 17.7634 6.5551 0.0000 26.9025 0.0000
# 6 0.0000 0.0000 0.0000 5.9795 0.0000 25.4240
#
#
#
# Elastic Compliance Matrix: (Units=1/GPa)
#
#
# Indices 1 2 3 4 5 6 
#
# 1 0.010750 -0.004708 0.000128 0.000000 -0.004483 0.000000
# 2 -0.004708 0.020050 -0.005317 0.000000 -0.008632 0.000000
# 3 0.000128 -0.005317 0.018448 0.000000 -0.001074 0.000000
# 4 0.000000 0.000000 0.000000 0.036322 0.000000 -0.008543
# 5 -0.004483 -0.008632 -0.001074 0.000000 0.046285 0.000000
# 6 0.000000 0.000000 0.000000 -0.008543 0.000000 0.041342
#
#
# Mechanical properties :
#
#
# Convention : Reuss Voigt Hill
#
# Bulk Modulus (GPa) = 33.95344 43.87138 38.91241
# Shear Modulus (GPa) = 24.65357 28.18288 26.41823
#
# Velocity S-wave (km/s) = 3.25319 3.47826 3.36761
# Velocity P-wave (km/s) = 5.35598 5.91305 5.64139
#
# Compressibility (1/GPa) = 0.02945210
#
# Stress axis : x y z
#
# Youngs Moduli (GPa) = 93.02122 49.87574 54.20713
#
# Poissons Ratio (x) = 0.23482 -0.00692
# Poissons Ratio (y) = 0.43796 0.28824
# Poissons Ratio (z) = -0.01187 0.26521
#
# Static dielectric constant tensor:
#      x y z
#    x 1.889190 0.000000 -0.022440 
#    y 0.000000 1.984620 0.000000 
#    z -0.022440 0.000000 1.935800 
# 
# From -- ./inp_files/36413.got.cif
#   From: 2010.05.17/outbox.cif.g08.bks.cpg/sg5_19_cif.got.tgz:36413.got - 2010.06.03 18:56:24.
