data_PCOD9122584
_publ_section_title
;
Structure prediction by ZEFSAII (Michael W. Deem and Ramdas Pophale) SiO2 
 PCOD9122584
Probable space group: C 2
;
_chemical_formula_sum "Si O2"
_cell_formula_units_Z 32
_cell_length_a 29.800094
_cell_length_b 8.317563
_cell_length_c 22.097452
_cell_angle_alpha 90.000000
_cell_angle_beta 17.120126
_cell_angle_gamma 90.000000
_cell_volume 1612.346564
_symmetry_space_group_name_H-M "C 2"
_symmetry_group_IT_number 5
_symmetry_cell_setting 'monoclinic'
loop_
_space_group_symop_operation_xyz
x,y,z
-x,y,-z
1/2+x,1/2+y,z
1/2-x,1/2+y,-z
loop_
_atom_site_type_symbol
_atom_site_label
_atom_site_fract_x
_atom_site_fract_y
_atom_site_fract_z
Si Si1 0.785273 0.164810 0.380792
Si Si2 0.006078 0.637799 0.562378
Si Si3 0.077839 0.443710 0.166975
Si Si4 0.892695 0.493561 0.293124
Si Si5 0.274271 0.947549 0.641661
Si Si6 0.220039 0.093036 0.998595
Si Si7 0.152764 0.608297 0.774974
Si Si8 0.558600 0.378018 0.603965
O O1 0.882226 0.314385 0.279181
O O2 0.627533 0.250153 0.562468
O O3 0.750141 0.040647 0.479833
O O4 0.830947 0.069880 0.261422
O O5 0.000000 0.680738 0.500000
O O6 0.150309 0.528092 0.396567
O O7 0.014808 0.786953 0.598396
O O8 0.846803 0.550624 0.785027
O O9 0.159902 0.271475 0.064172
O O10 0.035298 0.492872 0.154074
O O11 0.921617 0.421119 0.407197
O O12 0.184366 0.573245 0.062557
O O13 0.883311 0.617445 0.250068
O O14 0.190578 0.779186 0.755881
O O15 0.078003 0.975275 0.189810
O O16 0.300616 0.497002 0.590901
O O17 0.000000 0.535708 0.000000
#
# Coordination Sequence:
#
# PCOD9122584 Si02
#       8
#     4   4   4   4   4   4   4   4
#     4   9  19  34  61  86 113 157 200 264 301 359
#     4  10  22  41  63  95 129 165 209 259 313 383
#     4  10  20  34  60  89 115 155 204 253 297 365
#     4  10  20  35  57  89 119 146 212 252 302 363
#     4   9  19  40  59  84 123 161 203 251 322 364
#     4  11  20  37  63  91 122 165 204 251 313 368
#     4  11  23  41  60  86 124 167 204 259 321 370
#     4  10  21  40  65  86 126 171 205 253 317 374
#
# _framework density 19.846848000000001
#
# number of rings (size 3 to 8) (size 9 to 14) (size 15 to 20)
#    0.000    2.000    2.500    2.250    1.750    1.000 
#    2.250    6.250    0.000    0.000    0.000    0.000 
#    0.000    0.000    0.000    0.000    0.000    0.000 
#
# Total GULP energy -89193.898847 kJ/mol
# GULP energy per Si atom -5574.618678 kJ/mol
# Density = 1.980168 g / cm^3
# Si number density = 19.846848 Si / 1000 Ang^3
#
#
#
# Elastic Constant Matrix: (Units=GPa)
#
#
# Indices 1 2 3 4 5 6 
#
# 1 112.3809 22.4645 16.6178 0.0000 -1.9193 0.0000
# 2 22.4645 83.4116 12.0723 0.0007 -5.4808 0.0002
# 3 16.6178 12.0723 63.6578 0.0004 -2.3832 0.0001
# 4 0.0000 0.0007 0.0004 18.2413 0.0000 -6.8384
# 5 -1.9193 -5.4808 -2.3832 0.0000 13.3210 0.0000
# 6 0.0000 0.0002 0.0001 -6.8384 0.0000 19.3195
#
#
#
# Elastic Compliance Matrix: (Units=1/GPa)
#
#
# Indices 1 2 3 4 5 6 
#
# 1 0.009667 -0.002297 -0.002085 0.000000 0.000075 0.000000
# 2 -0.002297 0.013170 -0.001719 -0.000001 0.004780 0.000000
# 3 -0.002085 -0.001719 0.016653 0.000000 0.001972 0.000000
# 4 0.000000 -0.000001 0.000000 0.063208 -0.000001 0.022373
# 5 0.000075 0.004780 0.001972 -0.000001 0.077400 0.000000
# 6 0.000000 0.000000 0.000000 0.022373 0.000000 0.059680
#
#
# Mechanical properties :
#
#
# Convention : Reuss Voigt Hill
#
# Bulk Modulus (GPa) = 36.64591 40.19551 38.42071
# Shear Modulus (GPa) = 19.15144 24.06274 21.60709
#
# Velocity S-wave (km/s) = 3.10975 3.48576 3.30311
# Velocity P-wave (km/s) = 5.60344 6.04132 5.82649
#
# Compressibility (1/GPa) = 0.02728818
#
# Stress axis : x y z
#
# Youngs Moduli (GPa) = 103.44412 75.92882 60.04869
#
# Poissons Ratio (x) = 0.17440 0.12521
# Poissons Ratio (y) = 0.23759 0.10323
# Poissons Ratio (z) = 0.21570 0.13053
#
# Static dielectric constant tensor:
#      x y z
#    x 1.703300 0.000000 -0.018430 
#    y 0.000000 1.741780 0.000000 
#    z -0.018430 0.000000 1.737650 
# 
# From -- ./inp_files/67572.got.cif
#   From: 2010.05.17/outbox.cif.g08.bks.cpg/sg5_34_cif.got.tgz:67572.got - 2010.06.03 18:56:24.
