data_PCOD9122453
_publ_section_title
;
Structure prediction by ZEFSAII (Michael W. Deem and Ramdas Pophale) SiO2 
 PCOD9122453
Probable space group: C 2
;
_chemical_formula_sum "Si O2"
_cell_formula_units_Z 26
_cell_length_a 26.232206
_cell_length_b 5.223483
_cell_length_c 13.012986
_cell_angle_alpha 90.000000
_cell_angle_beta 58.173096
_cell_angle_gamma 90.000000
_cell_volume 1514.989247
_symmetry_space_group_name_H-M "C 2"
_symmetry_group_IT_number 5
_symmetry_cell_setting 'monoclinic'
loop_
_space_group_symop_operation_xyz
x,y,z
-x,y,-z
1/2+x,1/2+y,z
1/2-x,1/2+y,-z
loop_
_atom_site_type_symbol
_atom_site_label
_atom_site_fract_x
_atom_site_fract_y
_atom_site_fract_z
Si Si1 0.037961 0.752420 0.258993
Si Si2 0.270827 0.787390 0.112160
Si Si3 0.173149 0.196356 0.537850
Si Si4 0.229488 0.697254 0.387307
Si Si5 0.500000 0.011762 0.500000
Si Si6 0.327379 0.287884 0.962421
Si Si7 0.963726 0.270612 0.337987
O O1 0.038921 0.682695 0.380243
O O2 0.998435 0.517534 0.256609
O O3 0.103736 0.760186 0.142340
O O4 0.003287 0.017934 0.282318
O O5 0.249063 0.745278 0.250578
O O6 0.313746 0.555795 0.031933
O O7 0.304423 0.055131 0.057513
O O8 0.213786 0.780708 0.096157
O O9 0.197836 0.425101 0.439828
O O10 0.212580 0.206839 0.599511
O O11 0.103000 0.235075 0.631256
O O12 0.185852 0.924139 0.471402
O O13 0.461563 0.838641 0.462755
#
# Coordination Sequence:
#
# PCOD9122453 Si02
#       7
#     4   4   4   4   2   4   4
#     4  10  20  34  51  77 110 138 175 219 267 321
#     4  10  21  36  55  79 105 145 181 223 264 315
#     4  10  21  36  56  85 109 141 178 222 277 323
#     4  10  21  36  58  81 110 142 180 225 270 317
#     4   8  22  30  50  82 102 144 174 200 288 310
#     4  10  21  36  54  79 108 142 183 217 268 319
#     4  10  20  33  52  78 111 136 175 214 272 326
#
# _framework density 17.161836999999998
#
# number of rings (size 3 to 8) (size 9 to 14) (size 15 to 20)
#    0.923    1.231    0.000    3.231    2.154    1.231 
#    0.000    0.000    0.000    5.538    0.000    0.000 
#    0.000    0.000    0.000    0.000    0.000    0.000 
#
# Total GULP energy -72468.376283 kJ/mol
# GULP energy per Si atom -5574.490483 kJ/mol
# Density = 1.712278 g / cm^3
# Si number density = 17.161837 Si / 1000 Ang^3
#
#
#
# Elastic Constant Matrix: (Units=GPa)
#
#
# Indices 1 2 3 4 5 6 
#
# 1 37.7257 2.1069 11.8652 0.0000 -26.2608 0.0000
# 2 2.1069 62.9884 -13.1144 0.0000 -4.3426 0.0000
# 3 11.8652 -13.1144 43.7155 0.0000 -6.7116 0.0000
# 4 0.0000 0.0000 0.0000 15.7973 0.0000 -6.1228
# 5 -26.2608 -4.3426 -6.7116 0.0000 32.5158 0.0000
# 6 0.0000 0.0000 0.0000 -6.1228 0.0000 14.4337
#
#
#
# Elastic Compliance Matrix: (Units=1/GPa)
#
#
# Indices 1 2 3 4 5 6 
#
# 1 0.064408 -0.000817 -0.010076 0.000000 0.049829 0.000000
# 2 -0.000817 0.017320 0.005857 0.000000 0.002862 0.000000
# 3 -0.010076 0.005857 0.027097 0.000000 -0.001763 0.000000
# 4 0.000000 0.000000 0.000000 0.075757 0.000000 0.032136
# 5 0.049829 0.002862 -0.001763 0.000000 0.071016 0.000000
# 6 0.000000 0.000000 0.000000 0.032136 0.000000 0.082915
#
#
# Mechanical properties :
#
#
# Convention : Reuss Voigt Hill
#
# Bulk Modulus (GPa) = 10.12640 16.23831 13.18235
# Shear Modulus (GPa) = 13.10609 22.12082 17.61346
#
# Velocity S-wave (km/s) = 2.76647 3.59410 3.20709
# Velocity P-wave (km/s) = 4.01470 5.16776 4.62729
#
# Compressibility (1/GPa) = 0.09875178
#
# Stress axis : x y z
#
# Youngs Moduli (GPa) = 15.52613 57.73646 36.90504
#
# Poissons Ratio (x) = 0.04717 0.37187
# Poissons Ratio (y) = 0.01268 -0.21616
# Poissons Ratio (z) = 0.15645 -0.33817
#
# Static dielectric constant tensor:
#      x y z
#    x 1.565270 0.000000 0.009610 
#    y 0.000000 1.589190 0.000000 
#    z 0.009610 0.000000 1.542980 
# 
# From -- ./inp_files/47693.got.cif
#   From: 2010.05.17/outbox.cif.g08.bks.cpg/sg5_24_cif.got.tgz:47693.got - 2010.06.03 18:56:24.
