data_PCOD9122049
_publ_section_title
;
Structure prediction by ZEFSAII (Michael W. Deem and Ramdas Pophale) SiO2 
 PCOD9122049
Probable space group: C 2
;
_chemical_formula_sum "Si O2"
_cell_formula_units_Z 32
_cell_length_a 26.734881
_cell_length_b 8.637464
_cell_length_c 20.292728
_cell_angle_alpha 90.000000
_cell_angle_beta 19.127383
_cell_angle_gamma 90.000000
_cell_volume 1535.468548
_symmetry_space_group_name_H-M "C 2"
_symmetry_group_IT_number 5
_symmetry_cell_setting 'monoclinic'
loop_
_space_group_symop_operation_xyz
x,y,z
-x,y,-z
1/2+x,1/2+y,z
1/2-x,1/2+y,-z
loop_
_atom_site_type_symbol
_atom_site_label
_atom_site_fract_x
_atom_site_fract_y
_atom_site_fract_z
Si Si1 0.050781 0.265210 0.742661
Si Si2 0.218310 0.764520 0.225229
Si Si3 0.191972 0.544006 0.148660
Si Si4 0.175811 0.053847 0.797102
Si Si5 0.102100 0.222540 0.199686
Si Si6 0.783078 0.978865 0.400063
Si Si7 0.604794 0.346806 0.010041
Si Si8 0.860933 0.104298 0.709417
O O1 0.142213 0.423758 0.619039
O O2 0.022054 0.212139 0.702985
O O3 0.149121 0.140304 0.659190
O O4 0.888356 0.278691 0.980963
O O5 0.128749 0.646670 0.287723
O O6 0.239003 0.691612 0.271281
O O7 0.155661 0.935950 0.300334
O O8 0.107857 0.397240 0.221206
O O9 0.336812 0.459374 0.003970
O O10 0.243515 0.666971 0.029521
O O11 0.248625 0.998817 0.638226
O O12 0.161495 0.920325 0.870298
O O13 0.000000 0.099093 0.000000
O O14 0.090129 0.106654 0.275491
O O15 0.922308 0.854962 0.234672
O O16 0.699815 0.191572 0.903126
O O17 0.000000 0.191648 0.500000
#
# Coordination Sequence:
#
# PCOD9122049 Si02
#       8
#     4   4   4   4   4   4   4   4
#     4  11  23  39  63  96 126 162 213 265 318 382
#     4  10  20  43  62  90 129 166 211 264 319 380
#     4   9  17  36  65  85 113 164 200 258 309 381
#     4   9  17  40  67  84 118 175 207 247 318 391
#     4  10  19  38  60  89 121 157 206 253 323 368
#     4  11  22  41  65  96 127 165 211 265 316 392
#     4   9  19  40  65  84 124 165 206 257 320 377
#     4  11  25  40  60  93 127 161 212 268 311 378
#
# _framework density 20.840544000000001
#
# number of rings (size 3 to 8) (size 9 to 14) (size 15 to 20)
#    0.000    2.000    5.000    1.500    3.500    0.000 
#    4.500    3.125    0.000    0.000    0.000    0.000 
#    0.000    0.000    0.000    0.000    0.000    0.000 
#
# Total GULP energy -89222.189170 kJ/mol
# GULP energy per Si atom -5576.386823 kJ/mol
# Density = 2.079311 g / cm^3
# Si number density = 20.840544 Si / 1000 Ang^3
#
#
#
# Elastic Constant Matrix: (Units=GPa)
#
#
# Indices 1 2 3 4 5 6 
#
# 1 101.6970 5.3999 19.5232 0.0001 -0.7735 0.0000
# 2 5.3999 71.3392 16.9912 0.0000 -9.1038 0.0000
# 3 19.5232 16.9912 73.5866 0.0000 6.5139 0.0000
# 4 0.0001 0.0000 0.0000 16.0377 0.0000 -1.8565
# 5 -0.7735 -9.1038 6.5139 0.0000 13.7713 0.0000
# 6 0.0000 0.0000 0.0000 -1.8565 0.0000 13.8822
#
#
#
# Elastic Compliance Matrix: (Units=1/GPa)
#
#
# Indices 1 2 3 4 5 6 
#
# 1 0.010414 0.000198 -0.002998 0.000000 0.002134 0.000000
# 2 0.000198 0.016985 -0.005187 0.000000 0.013693 0.000000
# 3 -0.002998 -0.005187 0.016596 0.000000 -0.011447 0.000000
# 4 0.000000 0.000000 0.000000 0.063333 0.000000 0.008470
# 5 0.002134 0.013693 -0.011447 0.000000 0.087201 0.000000
# 6 0.000000 0.000000 0.000000 0.008470 0.000000 0.073168
#
#
# Mechanical properties :
#
#
# Convention : Reuss Voigt Hill
#
# Bulk Modulus (GPa) = 35.68526 36.71684 36.20105
# Shear Modulus (GPa) = 17.06426 22.38547 19.72486
#
# Velocity S-wave (km/s) = 2.86457 3.28095 3.07981
# Velocity P-wave (km/s) = 5.30106 5.65766 5.48226
#
# Compressibility (1/GPa) = 0.02802278
#
# Stress axis : x y z
#
# Youngs Moduli (GPa) = 96.02175 58.87469 60.25707
#
# Poissons Ratio (x) = -0.01165 0.18063
# Poissons Ratio (y) = -0.01901 0.31252
# Poissons Ratio (z) = 0.28783 0.30535
#
# Static dielectric constant tensor:
#      x y z
#    x 1.741940 0.000000 -0.004500 
#    y 0.000000 1.759580 0.000000 
#    z -0.004500 0.000000 1.781480 
# 
# From -- ./inp_files/67569.got.cif
#   From: 2010.05.17/outbox.cif.g08.bks.cpg/sg5_34_cif.got.tgz:67569.got - 2010.06.03 18:56:24.
