data_PCOD9122189
_publ_section_title
;
Structure prediction by ZEFSAII (Michael W. Deem and Ramdas Pophale) SiO2 
 PCOD9122189
Probable space group: C 2
;
_chemical_formula_sum "Si O2"
_cell_formula_units_Z 32
_cell_length_a 10.311678
_cell_length_b 9.933581
_cell_length_c 22.971294
_cell_angle_alpha 90.000000
_cell_angle_beta 33.491862
_cell_angle_gamma 90.000000
_cell_volume 1298.425175
_symmetry_space_group_name_H-M "C 2"
_symmetry_group_IT_number 5
_symmetry_cell_setting 'monoclinic'
loop_
_space_group_symop_operation_xyz
x,y,z
-x,y,-z
1/2+x,1/2+y,z
1/2-x,1/2+y,-z
loop_
_atom_site_type_symbol
_atom_site_label
_atom_site_fract_x
_atom_site_fract_y
_atom_site_fract_z
Si Si1 0.401475 0.345920 0.374571
Si Si2 0.909526 0.270295 0.409350
Si Si3 0.356485 0.589435 0.995678
Si Si4 0.423903 0.359630 0.891934
Si Si5 0.377358 0.739061 0.203782
Si Si6 0.715665 0.486539 0.687803
Si Si7 0.426218 0.860146 0.766964
Si Si8 0.305319 0.586921 0.616707
O O1 0.325128 0.309261 0.468452
O O2 0.680207 0.348595 0.266258
O O3 0.298771 0.470307 0.376172
O O4 0.296852 0.219031 0.377388
O O5 0.070910 0.395686 0.369838
O O6 0.920808 0.273114 0.336165
O O7 0.042882 0.140508 0.385682
O O8 0.168821 0.707807 0.078651
O O9 0.500000 0.550728 0.000000
O O10 0.269156 0.463348 0.988942
O O11 0.538659 0.665994 0.884998
O O12 0.484155 0.420876 0.805929
O O13 0.670633 0.365465 0.834436
O O14 0.260179 0.627932 0.289752
O O15 0.585901 0.796726 0.164883
O O16 0.581267 0.995137 0.713516
O O17 0.500000 0.525442 0.500000
#
# Coordination Sequence:
#
# PCOD9122189 Si02
#       8
#     4   4   4   4   4   4   4   4
#     4  10  19  39  63  90 131 176 225 267 315 386
#     4   9  20  38  62  91 127 181 224 262 319 382
#     4  11  25  49  74 102 128 178 220 288 345 417
#     4  10  24  46  74  99 135 172 225 280 352 405
#     4  11  25  40  61  98 135 167 223 274 339 391
#     4   9  19  42  62  91 127 171 215 275 322 394
#     4  11  24  41  62  98 142 172 215 279 326 398
#     4   9  19  37  63  90 126 180 230 262 310 384
#
# _framework density 24.645240000000001
#
# number of rings (size 3 to 8) (size 9 to 14) (size 15 to 20)
#    0.000    2.000    0.000    4.125    3.500    3.000 
#   13.500    0.000    0.000    0.000    0.000    0.000 
#    0.000    0.000    0.000    0.000    0.000    0.000 
#
# Total GULP energy -89418.969072 kJ/mol
# GULP energy per Si atom -5588.685567 kJ/mol
# Density = 2.458915 g / cm^3
# Si number density = 24.645240 Si / 1000 Ang^3
#
#
#
# Elastic Constant Matrix: (Units=GPa)
#
#
# Indices 1 2 3 4 5 6 
#
# 1 78.9828 -2.6094 22.8822 0.0001 13.4556 0.0000
# 2 -2.6094 58.6725 8.2828 0.0001 -1.5344 -0.0001
# 3 22.8822 8.2828 61.3621 0.0001 16.1086 -0.0002
# 4 0.0001 0.0001 0.0001 33.6398 -0.0001 4.0265
# 5 13.4556 -1.5344 16.1086 -0.0001 33.9602 0.0001
# 6 0.0000 -0.0001 -0.0002 4.0265 0.0001 25.2251
#
#
#
# Elastic Compliance Matrix: (Units=1/GPa)
#
#
# Indices 1 2 3 4 5 6 
#
# 1 0.014666 0.001225 -0.004710 0.000000 -0.003521 0.000000
# 2 0.001225 0.017618 -0.003331 0.000000 0.001891 0.000000
# 3 -0.004710 -0.003331 0.020620 0.000000 -0.008065 0.000000
# 4 0.000000 0.000000 0.000000 0.030306 0.000000 -0.004837
# 5 -0.003521 0.001891 -0.008065 0.000000 0.034752 0.000000
# 6 0.000000 0.000000 0.000000 -0.004837 0.000000 0.040415
#
#
# Mechanical properties :
#
#
# Convention : Reuss Voigt Hill
#
# Bulk Modulus (GPa) = 25.46376 28.45873 26.96124
# Shear Modulus (GPa) = 27.01243 29.92916 28.47079
#
# Velocity S-wave (km/s) = 3.31426 3.48860 3.40255
# Velocity P-wave (km/s) = 5.00003 5.27253 5.13809
#
# Compressibility (1/GPa) = 0.03927150
#
# Stress axis : x y z
#
# Youngs Moduli (GPa) = 68.18547 56.76027 48.49672
#
# Poissons Ratio (x) = -0.06953 0.22841
# Poissons Ratio (y) = -0.08353 0.16156
# Poissons Ratio (z) = 0.32115 0.18909
#
# Static dielectric constant tensor:
#      x y z
#    x 1.913390 0.000000 0.026700 
#    y 0.000000 2.014840 0.000000 
#    z 0.026700 0.000000 2.026160 
# 
# From -- ./inp_files/68390.got.cif
#   From: 2010.05.17/outbox.cif.g08.bks.cpg/sg5_35_cif.got.tgz:68390.got - 2010.06.03 18:56:24.
