data_PCOD9122736
_publ_section_title
;
Structure prediction by ZEFSAII (Michael W. Deem and Ramdas Pophale) SiO2 
 PCOD9122736
Probable space group: C 2
;
_chemical_formula_sum "Si O2"
_cell_formula_units_Z 32
_cell_length_a 14.132835
_cell_length_b 5.888624
_cell_length_c 17.711123
_cell_angle_alpha 90.000000
_cell_angle_beta 59.720247
_cell_angle_gamma 90.000000
_cell_volume 1272.883517
_symmetry_space_group_name_H-M "C 2"
_symmetry_group_IT_number 5
_symmetry_cell_setting 'monoclinic'
loop_
_space_group_symop_operation_xyz
x,y,z
-x,y,-z
1/2+x,1/2+y,z
1/2-x,1/2+y,-z
loop_
_atom_site_type_symbol
_atom_site_label
_atom_site_fract_x
_atom_site_fract_y
_atom_site_fract_z
Si Si1 0.292890 0.626260 0.733813
Si Si2 0.345817 0.419943 0.103305
Si Si3 0.894319 0.061548 0.310809
Si Si4 0.930862 0.737634 0.757167
Si Si5 0.571204 0.194367 0.069599
Si Si6 0.209636 0.554788 0.481136
Si Si7 0.484784 0.865704 0.615377
Si Si8 0.090166 0.327121 0.842658
O O1 0.248623 0.824289 0.805941
O O2 0.364625 0.450840 0.753121
O O3 0.377367 0.715972 0.635566
O O4 0.179561 0.492441 0.767419
O O5 0.462762 0.341736 0.092170
O O6 0.351672 0.688266 0.113695
O O7 0.341954 0.297572 0.023821
O O8 0.944045 0.191336 0.362503
O O9 0.937706 0.172226 0.217334
O O10 0.765420 0.074365 0.376343
O O11 0.941359 0.810340 0.289777
O O12 0.894601 0.694196 0.857222
O O13 0.933918 0.545544 0.693648
O O14 0.517837 0.946050 0.081988
O O15 0.233688 0.813027 0.507918
O O16 0.080179 0.496975 0.531232
#
# Coordination Sequence:
#
# PCOD9122736 Si02
#       8
#     4   4   4   4   4   4   4   4
#     4  10  24  39  59  92 127 174 201 258 337 389
#     4  10  22  41  58  91 124 164 208 267 325 382
#     4  10  20  35  66  99 119 167 214 272 321 388
#     4  11  19  40  61  91 122 156 214 262 318 388
#     4  10  22  38  65  93 114 164 220 268 319 377
#     4  10  20  36  64 105 135 164 221 286 334 390
#     4  10  20  38  63  95 129 163 214 267 331 388
#     4  11  21  42  65  91 128 170 218 267 326 404
#
# _framework density 25.139769999999999
#
# number of rings (size 3 to 8) (size 9 to 14) (size 15 to 20)
#    0.000    1.750    3.750    0.750    0.000    4.000 
#    4.500    0.000    0.000    4.500    0.000    0.000 
#    0.000    0.000    0.000    0.000    0.000    0.000 
#
# Total GULP energy -89137.707162 kJ/mol
# GULP energy per Si atom -5571.106698 kJ/mol
# Density = 2.508255 g / cm^3
# Si number density = 25.139770 Si / 1000 Ang^3
#
#
#
# Elastic Constant Matrix: (Units=GPa)
#
#
# Indices 1 2 3 4 5 6 
#
# 1 30.8810 18.2072 0.6505 0.0001 -4.5784 0.0004
# 2 18.2072 95.6697 15.1765 0.0004 -5.6847 0.0014
# 3 0.6505 15.1765 55.6154 0.0001 -21.7861 -0.0004
# 4 0.0001 0.0004 0.0001 38.3392 -0.0001 -4.1664
# 5 -4.5784 -5.6847 -21.7861 -0.0001 33.7164 0.0002
# 6 0.0004 0.0014 -0.0004 -4.1664 0.0002 45.5518
#
#
#
# Elastic Compliance Matrix: (Units=1/GPa)
#
#
# Indices 1 2 3 4 5 6 
#
# 1 0.037648 -0.007435 0.004151 0.000000 0.006541 0.000000
# 2 -0.007435 0.012394 -0.003845 0.000000 -0.001405 0.000000
# 3 0.004151 -0.003845 0.025370 0.000000 0.016308 0.000000
# 4 0.000000 0.000000 0.000000 0.026345 0.000000 0.002410
# 5 0.006541 -0.001405 0.016308 0.000000 0.040848 0.000000
# 6 0.000000 0.000000 0.000000 0.002410 0.000000 0.022173
#
#
# Mechanical properties :
#
#
# Convention : Reuss Voigt Hill
#
# Bulk Modulus (GPa) = 16.35238 27.80381 22.07810
# Shear Modulus (GPa) = 25.07249 33.39697 29.23473
#
# Velocity S-wave (km/s) = 3.16147 3.64875 3.41381
# Velocity P-wave (km/s) = 4.45480 5.36981 4.93356
#
# Compressibility (1/GPa) = 0.06115318
#
# Stress axis : x y z
#
# Youngs Moduli (GPa) = 26.56171 80.68355 39.41693
#
# Poissons Ratio (x) = 0.59986 -0.16361
# Poissons Ratio (y) = 0.19748 0.15157
# Poissons Ratio (z) = -0.11025 0.31026
#
# Static dielectric constant tensor:
#      x y z
#    x 2.026350 0.000000 -0.037110 
#    y 0.000000 2.126070 0.000000 
#    z -0.037110 0.000000 2.018520 
# 
# From -- ./inp_files/65682.got.cif
#   From: 2010.05.17/outbox.cif.g08.bks.cpg/sg5_33_cif.got.tgz:65682.got - 2010.06.03 18:56:24.
