data_PCOD9122531
_publ_section_title
;
Structure prediction by ZEFSAII (Michael W. Deem and Ramdas Pophale) SiO2 
 PCOD9122531
Probable space group: C 2
;
_chemical_formula_sum "Si O2"
_cell_formula_units_Z 28
_cell_length_a 9.425929
_cell_length_b 9.620577
_cell_length_c 23.689750
_cell_angle_alpha 90.000000
_cell_angle_beta 143.536913
_cell_angle_gamma 90.000000
_cell_volume 1276.718002
_symmetry_space_group_name_H-M "C 2"
_symmetry_group_IT_number 5
_symmetry_cell_setting 'monoclinic'
loop_
_space_group_symop_operation_xyz
x,y,z
-x,y,-z
1/2+x,1/2+y,z
1/2-x,1/2+y,-z
loop_
_atom_site_type_symbol
_atom_site_label
_atom_site_fract_x
_atom_site_fract_y
_atom_site_fract_z
Si Si1 0.932317 0.321530 0.164523
Si Si2 0.605758 0.079055 0.087782
Si Si3 0.120459 0.827609 0.773500
Si Si4 0.244093 0.826515 0.629516
Si Si5 0.500000 0.577094 0.500000
Si Si6 0.217823 0.826764 0.439919
Si Si7 0.500000 0.076012 0.500000
Si Si8 0.283682 0.133359 0.091257
O O1 0.825532 0.471597 0.118396
O O2 0.152286 0.287010 0.193126
O O3 0.027432 0.324513 0.258836
O O4 0.739769 0.203211 0.099995
O O5 0.420888 0.140607 0.074842
O O6 0.800174 0.980902 0.180575
O O7 0.500000 0.995323 0.000000
O O8 0.103434 0.728202 0.822720
O O9 0.889845 0.826859 0.658682
O O10 0.012071 0.828200 0.595249
O O11 0.206908 0.682398 0.584995
O O12 0.208089 0.971343 0.585583
O O13 0.374193 0.689508 0.500515
O O14 0.375238 0.963616 0.500943
O O15 0.000000 0.161554 0.000000
#
# Coordination Sequence:
#
# PCOD9122531 Si02
#       8
#     4   4   4   4   2   4   2   4
#     4  10  22  39  59  85 117 152 191 236 284 337
#     4  11  23  39  60  86 115 149 190 235 285 342
#     4  10  22  39  59  85 117 152 191 236 284 337
#     4  10  20  36  56  81 114 149 188 233 280 331
#     4  10  20  34  56  84 112 148 190 230 280 332
#     4  10  20  36  56  81 114 149 188 233 280 331
#     4  10  20  34  56  84 112 148 190 230 280 332
#     4  11  23  39  60  86 115 149 190 235 285 342
#
# _framework density 21.931232999999999
#
# number of rings (size 3 to 8) (size 9 to 14) (size 15 to 20)
#    0.000    1.714    0.000    4.286    0.000    4.571 
#    0.000    7.143    0.000    0.000    0.000    0.000 
#    0.000    0.000    0.000    0.000    0.000    0.000 
#
# Total GULP energy -78090.740810 kJ/mol
# GULP energy per Si atom -5577.910058 kJ/mol
# Density = 2.188132 g / cm^3
# Si number density = 21.931233 Si / 1000 Ang^3
#
#
#
# Elastic Constant Matrix: (Units=GPa)
#
#
# Indices 1 2 3 4 5 6 
#
# 1 72.5969 41.8232 16.3861 0.0000 -8.9622 0.0000
# 2 41.8232 127.4046 14.1375 0.0000 -2.8217 0.0000
# 3 16.3861 14.1375 69.7367 0.0000 -9.5444 0.0000
# 4 0.0000 0.0000 0.0000 22.0706 0.0000 -6.8120
# 5 -8.9622 -2.8217 -9.5444 0.0000 32.4212 0.0000
# 6 0.0000 0.0000 0.0000 -6.8120 0.0000 -0.2960
#
#
#
# Elastic Compliance Matrix: (Units=1/GPa)
#
#
# Indices 1 2 3 4 5 6 
#
# 1 0.018015 -0.005543 -0.002599 0.000000 0.003733 0.000000
# 2 -0.005543 0.009737 -0.000797 0.000000 -0.000920 0.000000
# 3 -0.002599 -0.000797 0.015634 0.000000 0.003815 0.000000
# 4 0.000000 0.000000 0.000000 0.005591 0.000000 -0.128685
# 5 0.003733 -0.000920 0.003815 0.000000 0.032919 0.000000
# 6 0.000000 0.000000 0.000000 -0.128685 0.000000 -0.416933
#
#
# Mechanical properties :
#
#
# Convention : Reuss Voigt Hill
#
# Bulk Modulus (GPa) = 39.20264 46.04799 42.62532
# Shear Modulus (GPa) = -16.19923 23.99859 3.89968
#
# Velocity S-wave (km/s) = -2.72074 3.31156 1.33492
# Velocity P-wave (km/s) = 2.83623 5.97193 4.67484
#
# Compressibility (1/GPa) = 0.02550849
#
# Stress axis : x y z
#
# Youngs Moduli (GPa) = 55.50843 102.70436 63.96326
#
# Poissons Ratio (x) = 0.56928 0.16621
# Poissons Ratio (y) = 0.30768 0.05100
# Poissons Ratio (z) = 0.14424 0.08189
#
# Static dielectric constant tensor:
#      x y z
#    x 1.829720 0.000000 -0.063740 
#    y 0.000000 1.759790 0.000000 
#    z -0.063740 0.000000 1.850650 
# 
# From -- ./inp_files/70377.got.cif
#   From: 2010.05.17/outbox.cif.g08.bks.cpg/sg5_36_cif.got.tgz:70377.got - 2010.06.03 18:56:24.
