data_PCOD9122024
_publ_section_title
;
Structure prediction by ZEFSAII (Michael W. Deem and Ramdas Pophale) SiO2 
 PCOD9122024
Probable space group: C 2
;
_chemical_formula_sum "Si O2"
_cell_formula_units_Z 32
_cell_length_a 22.284819
_cell_length_b 12.775947
_cell_length_c 11.132677
_cell_angle_alpha 90.000000
_cell_angle_beta 149.383328
_cell_angle_gamma 90.000000
_cell_volume 1614.241659
_symmetry_space_group_name_H-M "C 2"
_symmetry_group_IT_number 5
_symmetry_cell_setting 'monoclinic'
loop_
_space_group_symop_operation_xyz
x,y,z
-x,y,-z
1/2+x,1/2+y,z
1/2-x,1/2+y,-z
loop_
_atom_site_type_symbol
_atom_site_label
_atom_site_fract_x
_atom_site_fract_y
_atom_site_fract_z
Si Si1 0.187901 0.503080 0.654953
Si Si2 0.129010 0.004166 0.246490
Si Si3 0.498405 0.944297 0.862174
Si Si4 0.144432 0.310986 0.757782
Si Si5 0.525084 0.705125 0.196731
Si Si6 0.101297 0.108894 0.577614
Si Si7 0.268181 0.726032 0.839614
Si Si8 0.724837 0.423099 0.659412
O O1 0.293834 0.494282 0.740294
O O2 0.186119 0.409417 0.749925
O O3 0.206764 0.614413 0.753396
O O4 0.072721 0.497749 0.369266
O O5 0.196242 0.951106 0.473019
O O6 0.096058 0.121276 0.239373
O O7 0.000000 0.956462 0.000000
O O8 0.444363 0.825798 0.776476
O O9 0.500000 0.991474 0.000000
O O10 0.636673 0.934529 0.075435
O O11 0.184621 0.199503 0.772004
O O12 0.000000 0.314532 0.500000
O O13 0.188980 0.292871 0.970280
O O14 0.549889 0.667226 0.373460
O O15 0.383368 0.703418 0.956565
O O16 0.000000 0.086982 0.500000
O O17 0.159352 0.004085 0.632355
O O18 0.188101 0.805280 0.626465
#
# Coordination Sequence:
#
# PCOD9122024 Si02
#       8
#     4   4   4   4   4   4   4   4
#     4  12  25  41  68 103 139 174 230 281 342 401
#     4  11  22  40  68 103 133 173 222 291 335 398
#     4  11  21  40  66  99 132 175 217 273 334 407
#     4  11  22  44  69  95 126 183 237 282 322 392
#     4  10  19  37  67  95 125 166 234 276 313 387
#     4  10  19  38  68  94 123 167 227 278 327 384
#     4  11  23  41  65  97 135 178 221 281 331 408
#     4  10  24  41  67  98 135 171 224 276 340 407
#
# _framework density 19.823550000000001
#
# number of rings (size 3 to 8) (size 9 to 14) (size 15 to 20)
#    0.000    1.250    6.250    1.125    3.500    0.000 
#    0.000    2.500    0.000    0.000    0.000    0.000 
#    0.000    0.000    0.000    0.000    0.000    0.000 
#
# Total GULP energy -89118.512689 kJ/mol
# GULP energy per Si atom -5569.907043 kJ/mol
# Density = 1.977843 g / cm^3
# Si number density = 19.823550 Si / 1000 Ang^3
#
#
#
# Elastic Constant Matrix: (Units=GPa)
#
#
# Indices 1 2 3 4 5 6 
#
# 1 125.5846 48.1099 39.3366 0.0000 -24.6901 0.0000
# 2 48.1099 103.6063 40.9026 0.0000 -11.5176 0.0000
# 3 39.3366 40.9026 96.3579 0.0000 -15.5907 0.0000
# 4 0.0000 0.0000 0.0000 30.0286 0.0000 6.4961
# 5 -24.6901 -11.5176 -15.5907 0.0000 31.4435 0.0000
# 6 0.0000 0.0000 0.0000 6.4961 0.0000 30.0029
#
#
#
# Elastic Compliance Matrix: (Units=1/GPa)
#
#
# Indices 1 2 3 4 5 6 
#
# 1 0.011295 -0.003743 -0.001967 0.000000 0.006523 0.000000
# 2 -0.003743 0.012948 -0.003997 0.000000 -0.000178 0.000000
# 3 -0.001967 -0.003997 0.013472 0.000000 0.003671 0.000000
# 4 0.000000 0.000000 0.000000 0.034938 0.000000 -0.007565
# 5 0.006523 -0.000178 0.003671 0.000000 0.038680 0.000000
# 6 0.000000 0.000000 0.000000 -0.007565 0.000000 0.034968
#
#
# Mechanical properties :
#
#
# Convention : Reuss Voigt Hill
#
# Bulk Modulus (GPa) = 54.64228 64.69411 59.66819
# Shear Modulus (GPa) = 29.10092 31.44164 30.27128
#
# Velocity S-wave (km/s) = 3.83560 3.98688 3.91197
# Velocity P-wave (km/s) = 6.87313 7.34162 7.11124
#
# Compressibility (1/GPa) = 0.01830085
#
# Stress axis : x y z
#
# Youngs Moduli (GPa) = 88.53278 77.22982 74.23054
#
# Poissons Ratio (x) = 0.28910 0.14599
# Poissons Ratio (y) = 0.33142 0.29670
# Poissons Ratio (z) = 0.17411 0.30869
#
# Static dielectric constant tensor:
#      x y z
#    x 1.598290 0.000000 0.085550 
#    y 0.000000 1.734530 0.000000 
#    z 0.085550 0.000000 1.630070 
# 
# From -- ./inp_files/47517.got.cif
#   From: 2010.05.17/outbox.cif.g08.bks.cpg/sg5_24_cif.got.tgz:47517.got - 2010.06.03 18:56:24.
