data_PCOD9122419
_publ_section_title
;
Structure prediction by ZEFSAII (Michael W. Deem and Ramdas Pophale) SiO2 
 PCOD9122419
Probable space group: C 2
;
_chemical_formula_sum "Si O2"
_cell_formula_units_Z 22
_cell_length_a 15.533115
_cell_length_b 10.676789
_cell_length_c 13.453236
_cell_angle_alpha 90.000000
_cell_angle_beta 152.691976
_cell_angle_gamma 90.000000
_cell_volume 1023.587026
_symmetry_space_group_name_H-M "C 2"
_symmetry_group_IT_number 5
_symmetry_cell_setting 'monoclinic'
loop_
_space_group_symop_operation_xyz
x,y,z
-x,y,-z
1/2+x,1/2+y,z
1/2-x,1/2+y,-z
loop_
_atom_site_type_symbol
_atom_site_label
_atom_site_fract_x
_atom_site_fract_y
_atom_site_fract_z
Si Si1 0.267093 0.406220 0.414012
Si Si2 0.343189 0.648270 0.691835
Si Si3 0.392504 0.573763 0.215037
Si Si4 0.182185 0.876330 0.302012
Si Si5 0.026937 0.626067 0.203797
Si Si6 0.500000 0.755616 0.500000
O O1 0.185932 0.280070 0.282728
O O2 0.485593 0.448783 0.634717
O O3 0.236267 0.385176 0.501287
O O4 0.150238 0.529515 0.264857
O O5 0.506764 0.638445 0.776419
O O6 0.372182 0.518278 0.778499
O O7 0.147900 0.640657 0.428812
O O8 0.416235 0.666769 0.330404
O O9 0.171089 0.563913 0.975066
O O10 0.029826 0.764109 0.156433
O O11 0.339609 0.834860 0.387682
#
# Coordination Sequence:
#
# PCOD9122419 Si02
#       6
#     4   4   4   4   4   2
#     4   9  17  37  51  79 109 146 177 234 262 325
#     4   9  19  37  52  80 117 142 174 233 270 326
#     4  10  20  31  58  81 109 143 191 218 274 319
#     4   9  18  34  53  79 114 138 181 220 277 311
#     4   9  17  33  55  83 103 147 187 226 255 330
#     4  12  18  36  54  88 104 150 176 230 270 322
#
# _framework density 21.493041999999999
#
# number of rings (size 3 to 8) (size 9 to 14) (size 15 to 20)
#    0.000    2.909    5.455    0.000    0.000    5.091 
#    0.000    0.909    0.000    0.000    4.727    0.000 
#    0.000    0.000    0.000    0.000    0.000    0.000 
#
# Total GULP energy -61238.997936 kJ/mol
# GULP energy per Si atom -5567.181631 kJ/mol
# Density = 2.144412 g / cm^3
# Si number density = 21.493042 Si / 1000 Ang^3
#
#
#
# Elastic Constant Matrix: (Units=GPa)
#
#
# Indices 1 2 3 4 5 6 
#
# 1 69.1212 11.2124 23.3111 0.0000 16.7973 0.0000
# 2 11.2124 169.7478 20.4837 0.0000 8.5906 0.0000
# 3 23.3111 20.4837 93.7610 0.0000 30.1681 0.0000
# 4 0.0000 0.0000 0.0000 22.9897 0.0000 17.3901
# 5 16.7973 8.5906 30.1681 0.0000 28.5786 0.0000
# 6 0.0000 0.0000 0.0000 17.3901 0.0000 29.2658
#
#
#
# Elastic Compliance Matrix: (Units=1/GPa)
#
#
# Indices 1 2 3 4 5 6 
#
# 1 0.017069 -0.000531 -0.001440 0.000000 -0.008352 0.000000
# 2 -0.000531 0.006075 -0.001072 0.000000 -0.000382 0.000000
# 3 -0.001440 -0.001072 0.016479 0.000000 -0.016226 0.000000
# 4 0.000000 0.000000 0.000000 0.079013 0.000000 -0.046950
# 5 -0.008352 -0.000382 -0.016226 0.000000 0.057144 0.000000
# 6 0.000000 0.000000 0.000000 -0.046950 0.000000 0.062068
#
#
# Mechanical properties :
#
#
# Convention : Reuss Voigt Hill
#
# Bulk Modulus (GPa) = 29.81910 49.18272 39.50091
# Shear Modulus (GPa) = 19.59919 34.67500 27.13709
#
# Velocity S-wave (km/s) = 3.02302 4.02096 3.55716
# Velocity P-wave (km/s) = 5.10772 6.67011 5.94050
#
# Compressibility (1/GPa) = 0.03353555
#
# Stress axis : x y z
#
# Youngs Moduli (GPa) = 58.58594 164.61212 60.68456
#
# Poissons Ratio (x) = 0.08740 0.08741
# Poissons Ratio (y) = 0.03111 0.06507
# Poissons Ratio (z) = 0.08438 0.17649
#
# Static dielectric constant tensor:
#      x y z
#    x 1.705260 0.000000 -0.039890 
#    y 0.000000 1.934600 0.000000 
#    z -0.039890 0.000000 1.829040 
# 
# From -- ./inp_files/54486.got.cif
#   From: 2010.05.17/outbox.cif.g08.bks.cpg/sg5_28_cif.got.tgz:54486.got - 2010.06.03 18:56:24.
