data_PCOD9122282
_publ_section_title
;
Structure prediction by ZEFSAII (Michael W. Deem and Ramdas Pophale) SiO2 
 PCOD9122282
Probable space group: C 2
;
_chemical_formula_sum "Si O2"
_cell_formula_units_Z 30
_cell_length_a 17.478166
_cell_length_b 5.469818
_cell_length_c 14.638921
_cell_angle_alpha 90.000000
_cell_angle_beta 114.522536
_cell_angle_gamma 90.000000
_cell_volume 1273.276794
_symmetry_space_group_name_H-M "C 2"
_symmetry_group_IT_number 5
_symmetry_cell_setting 'monoclinic'
loop_
_space_group_symop_operation_xyz
x,y,z
-x,y,-z
1/2+x,1/2+y,z
1/2-x,1/2+y,-z
loop_
_atom_site_type_symbol
_atom_site_label
_atom_site_fract_x
_atom_site_fract_y
_atom_site_fract_z
Si Si1 0.292250 0.116570 0.988696
Si Si2 0.718124 0.393601 0.200919
Si Si3 0.363664 0.785070 0.527846
Si Si4 0.485857 0.180472 0.102827
Si Si5 0.000000 0.954762 0.500000
Si Si6 0.051799 0.178615 0.120538
Si Si7 0.715540 0.041541 0.362502
Si Si8 0.350448 0.165575 0.356455
O O1 0.289116 0.191719 0.880842
O O2 0.245621 0.348971 0.012217
O O3 0.388547 0.123155 0.068514
O O4 0.647193 0.597890 0.147906
O O5 0.812266 0.502194 0.256106
O O6 0.697390 0.267530 0.287522
O O7 0.440295 0.615670 0.535369
O O8 0.360082 0.905397 0.624918
O O9 0.277538 0.633414 0.473821
O O10 0.359654 0.992433 0.448773
O O11 0.511773 0.446113 0.153101
O O12 0.540027 0.945106 0.157441
O O13 0.500000 0.207863 0.000000
O O14 0.939284 0.801982 0.402154
O O15 0.000000 0.200731 0.000000
O O16 0.775897 0.858650 0.336914
#
# Coordination Sequence:
#
# PCOD9122282 Si02
#       8
#     4   4   4   4   2   4   4   4
#     4  12  27  45  75 108 150 199 245 305 383 452
#     4  11  25  41  71 114 130 191 248 312 360 428
#     4  10  19  40  66 107 132 191 231 284 367 429
#     4  10  20  40  71  98 130 190 237 287 357 441
#     4  10  22  38  72 102 146 192 228 280 386 432
#     4  10  20  37  72  97 139 177 242 294 358 421
#     4  10  21  37  72 103 139 176 248 299 341 445
#     4  10  22  40  72  98 146 181 240 299 347 456
#
# _framework density 23.561256
#
# number of rings (size 3 to 8) (size 9 to 14) (size 15 to 20)
#    0.000    1.600    4.000    1.200    5.600    0.000 
#    0.000    0.000   14.667    0.000    0.000    0.000 
#    0.000    0.000    0.000    0.000    0.000    0.000 
#
# Total GULP energy -83843.083346 kJ/mol
# GULP energy per Si atom -5589.538890 kJ/mol
# Density = 2.350763 g / cm^3
# Si number density = 23.561256 Si / 1000 Ang^3
#
#
#
# Elastic Constant Matrix: (Units=GPa)
#
#
# Indices 1 2 3 4 5 6 
#
# 1 96.6550 24.9077 31.6189 0.0000 14.3566 0.0000
# 2 24.9077 110.5469 14.1128 0.0000 6.6131 0.0000
# 3 31.6189 14.1128 89.0406 0.0000 18.1373 0.0000
# 4 0.0000 0.0000 0.0000 -13.1183 0.0000 13.2913
# 5 14.3566 6.6131 18.1373 0.0000 21.1746 0.0000
# 6 0.0000 0.0000 0.0000 13.2913 0.0000 48.7669
#
#
#
# Elastic Compliance Matrix: (Units=1/GPa)
#
#
# Indices 1 2 3 4 5 6 
#
# 1 0.012697 -0.002150 -0.003090 0.000000 -0.005290 0.000000
# 2 -0.002150 0.009665 -0.000546 0.000000 -0.001094 0.000000
# 3 -0.003090 -0.000546 0.014480 0.000000 -0.010137 0.000000
# 4 0.000000 0.000000 0.000000 -0.059734 0.000000 0.016280
# 5 -0.005290 -0.001094 -0.010137 0.000000 0.059838 0.000000
# 6 0.000000 0.000000 0.000000 0.016280 0.000000 0.016069
#
#
# Mechanical properties :
#
#
# Convention : Reuss Voigt Hill
#
# Bulk Modulus (GPa) = 39.57289 48.61349 44.09319
# Shear Modulus (GPa) = 68.48507 26.40485 47.44496
#
# Velocity S-wave (km/s) = 5.39721 3.35130 4.49228
# Velocity P-wave (km/s) = 7.46137 5.97098 6.75739
#
# Compressibility (1/GPa) = 0.02526983
#
# Stress axis : x y z
#
# Youngs Moduli (GPa) = 78.76008 103.46181 69.06267
#
# Poissons Ratio (x) = 0.22242 0.21343
# Poissons Ratio (y) = 0.16932 0.03769
# Poissons Ratio (z) = 0.24340 0.05647
#
# Static dielectric constant tensor:
#      x y z
#    x 1.943270 0.000000 0.042520 
#    y 0.000000 1.974970 0.000000 
#    z 0.042520 0.000000 1.918590 
# 
# From -- ./inp_files/55488.got.cif
#   From: 2010.05.17/outbox.cif.g08.bks.cpg/sg5_28_cif.got.tgz:55488.got - 2010.06.03 18:56:24.
