data_PCOD9122666
_publ_section_title
;
Structure prediction by ZEFSAII (Michael W. Deem and Ramdas Pophale) SiO2 
 PCOD9122666
Probable space group: C 2
;
_chemical_formula_sum "Si O2"
_cell_formula_units_Z 32
_cell_length_a 25.762664
_cell_length_b 11.447800
_cell_length_c 5.452061
_cell_angle_alpha 90.000000
_cell_angle_beta 109.265015
_cell_angle_gamma 90.000000
_cell_volume 1517.912350
_symmetry_space_group_name_H-M "C 2"
_symmetry_group_IT_number 5
_symmetry_cell_setting 'monoclinic'
loop_
_space_group_symop_operation_xyz
x,y,z
-x,y,-z
1/2+x,1/2+y,z
1/2-x,1/2+y,-z
loop_
_atom_site_type_symbol
_atom_site_label
_atom_site_fract_x
_atom_site_fract_y
_atom_site_fract_z
Si Si1 0.746019 0.936780 0.485366
Si Si2 0.848079 0.662323 0.113656
Si Si3 0.629249 0.030497 0.331082
Si Si4 0.389325 0.637377 0.561714
Si Si5 0.273036 0.735441 0.170739
Si Si6 0.533248 0.847939 0.306555
Si Si7 0.155681 0.920883 0.730186
Si Si8 0.315127 0.618669 0.838572
O O1 0.744190 0.849404 0.712629
O O2 0.793947 0.895466 0.376691
O O3 0.682482 0.956518 0.329735
O O4 0.769083 0.065799 0.589904
O O5 0.857567 0.596064 0.388555
O O6 0.862224 0.798591 0.184329
O O7 0.879482 0.612761 0.922276
O O8 0.782769 0.659658 0.942879
O O9 0.579722 0.943507 0.315269
O O10 0.330993 0.692580 0.377437
O O11 0.437675 0.724672 0.580507
O O12 0.389584 0.503064 0.474236
O O13 0.375686 0.635492 0.827967
O O14 0.292811 0.736909 0.919688
O O15 0.500000 0.883830 0.500000
O O16 0.500000 0.833627 0.000000
O O17 0.178798 0.012274 0.963096
#
# Coordination Sequence:
#
# PCOD9122666 Si02
#       8
#     4   4   4   4   4   4   4   4
#     4  11  21  37  55  98 147 191 231 270 341 435
#     4  12  24  40  66 105 145 192 227 271 349 458
#     4  12  26  44  68 100 140 191 241 291 354 415
#     4  10  24  42  66  98 138 180 232 302 356 411
#     4  11  21  34  60  95 148 187 227 266 344 435
#     4  12  29  53  77 104 132 185 254 320 362 401
#     4  10  23  37  62  99 144 183 222 270 347 442
#     4  10  20  35  58  94 136 186 220 270 343 434
#
# _framework density 21.081585
#
# number of rings (size 3 to 8) (size 9 to 14) (size 15 to 20)
#    0.000    1.000    3.750    3.750    7.000    1.000 
#    0.000    0.000    0.000    3.000    0.000    0.000 
#    0.000    0.000    0.000    0.000    0.000    0.000 
#
# Total GULP energy -89147.143227 kJ/mol
# GULP energy per Si atom -5571.696452 kJ/mol
# Density = 2.103360 g / cm^3
# Si number density = 21.081585 Si / 1000 Ang^3
#
#
#
# Elastic Constant Matrix: (Units=GPa)
#
#
# Indices 1 2 3 4 5 6 
#
# 1 90.7957 54.6032 30.8362 0.0000 -14.0685 0.0000
# 2 54.6032 113.1704 55.0659 0.0000 -11.5845 0.0000
# 3 30.8362 55.0659 85.0018 0.0000 -9.7515 0.0000
# 4 0.0000 0.0000 0.0000 44.9485 0.0000 -7.3615
# 5 -14.0685 -11.5845 -9.7515 0.0000 32.5231 0.0000
# 6 0.0000 0.0000 0.0000 -7.3615 0.0000 33.6679
#
#
#
# Elastic Compliance Matrix: (Units=1/GPa)
#
#
# Indices 1 2 3 4 5 6 
#
# 1 0.016133 -0.006920 -0.000882 0.000000 0.004249 0.000000
# 2 -0.006920 0.016020 -0.007826 0.000000 0.000367 0.000000
# 3 -0.000882 -0.007826 0.017389 0.000000 0.002045 0.000000
# 4 0.000000 0.000000 0.000000 0.023074 0.000000 0.005045
# 5 0.004249 0.000367 0.002045 0.000000 0.033329 0.000000
# 6 0.000000 0.000000 0.000000 0.005045 0.000000 0.030805
#
#
# Mechanical properties :
#
#
# Convention : Reuss Voigt Hill
#
# Bulk Modulus (GPa) = 54.68579 63.33094 59.00836
# Shear Modulus (GPa) = 28.71870 32.12539 30.42204
#
# Velocity S-wave (km/s) = 3.69489 3.90790 3.80289
# Velocity P-wave (km/s) = 6.64826 7.10411 6.87996
#
# Compressibility (1/GPa) = 0.01828629
#
# Stress axis : x y z
#
# Youngs Moduli (GPa) = 61.98362 62.42054 57.50770
#
# Poissons Ratio (x) = 0.43193 0.05075
# Poissons Ratio (y) = 0.42891 0.45005
# Poissons Ratio (z) = 0.05470 0.48850
#
# Static dielectric constant tensor:
#      x y z
#    x 1.762250 0.000000 -0.107530 
#    y 0.000000 1.797950 0.000000 
#    z -0.107530 0.000000 2.054740 
# 
# From -- ./inp_files/10402.got.cif
#   From: 2010.05.17/outbox.cif.g08.bks.cpg/sg5_6_cif.got.tgz:10402.got - 2010.06.03 18:56:24.
