data_PCOD9122130
_publ_section_title
;
Structure prediction by ZEFSAII (Michael W. Deem and Ramdas Pophale) SiO2 
 PCOD9122130
Probable space group: C 2
;
_chemical_formula_sum "Si O2"
_cell_formula_units_Z 24
_cell_length_a 9.168856
_cell_length_b 16.063370
_cell_length_c 14.250959
_cell_angle_alpha 90.000000
_cell_angle_beta 142.174498
_cell_angle_gamma 90.000000
_cell_volume 1287.180980
_symmetry_space_group_name_H-M "C 2"
_symmetry_group_IT_number 5
_symmetry_cell_setting 'monoclinic'
loop_
_space_group_symop_operation_xyz
x,y,z
-x,y,-z
1/2+x,1/2+y,z
1/2-x,1/2+y,-z
loop_
_atom_site_type_symbol
_atom_site_label
_atom_site_fract_x
_atom_site_fract_y
_atom_site_fract_z
Si Si1 0.165271 0.288670 0.172888
Si Si2 0.180724 0.197343 0.877823
Si Si3 0.089328 0.342830 0.695724
Si Si4 0.689278 0.272634 0.364560
Si Si5 0.282987 0.947832 0.666870
Si Si6 0.845207 0.624989 0.785264
O O1 0.424648 0.269681 0.266915
O O2 0.187325 0.368907 0.249966
O O3 0.043448 0.214055 0.169874
O O4 0.000000 0.306505 0.000000
O O5 0.170277 0.133167 0.785890
O O6 0.208828 0.286524 0.837908
O O7 0.406123 0.165984 0.052436
O O8 0.864013 0.292631 0.538601
O O9 0.965025 0.425081 0.674184
O O10 0.264278 0.341654 0.694389
O O11 0.740014 0.185289 0.340404
O O12 0.000000 0.954325 0.500000
O O13 0.362941 0.032061 0.758034
#
# Coordination Sequence:
#
# PCOD9122130 Si02
#       6
#     4   4   4   4   4   4
#     4  11  21  38  63  90 120 163 207 255 298 375
#     4   9  20  36  58  83 118 157 206 242 295 369
#     4   9  20  38  62  88 117 162 205 250 297 375
#     4  10  19  38  66  88 116 160 213 247 304 369
#     4  11  23  38  60  91 127 159 204 257 315 360
#     4  10  21  37  58  88 122 160 199 255 312 357
#
# _framework density 18.645396999999999
#
# number of rings (size 3 to 8) (size 9 to 14) (size 15 to 20)
#    0.000    2.000    3.333    0.000    7.000    0.000 
#    0.000    1.667    3.667    0.000    0.000    0.000 
#    0.000    0.000    0.000    0.000    0.000    0.000 
#
# Total GULP energy -66830.177196 kJ/mol
# GULP energy per Si atom -5569.181433 kJ/mol
# Density = 1.860296 g / cm^3
# Si number density = 18.645397 Si / 1000 Ang^3
#
#
#
# Elastic Constant Matrix: (Units=GPa)
#
#
# Indices 1 2 3 4 5 6 
#
# 1 136.8444 46.1877 49.4041 -0.0008 24.6702 -0.0002
# 2 46.1877 90.5985 41.8359 -0.0008 0.8351 -0.0002
# 3 49.4041 41.8359 99.6203 -0.0056 7.3798 -0.0027
# 4 -0.0008 -0.0008 -0.0056 16.5284 -0.0019 -10.2418
# 5 24.6702 0.8351 7.3798 -0.0019 26.8892 -0.0007
# 6 -0.0002 -0.0002 -0.0027 -10.2418 -0.0007 30.3831
#
#
#
# Elastic Compliance Matrix: (Units=1/GPa)
#
#
# Indices 1 2 3 4 5 6 
#
# 1 0.011710 -0.004381 -0.003248 -0.000003 -0.009717 -0.000001
# 2 -0.004381 0.015368 -0.004638 -0.000001 0.004815 0.000000
# 3 -0.003248 -0.004638 0.013643 0.000006 -0.000620 0.000003
# 4 -0.000003 -0.000001 0.000006 0.076476 0.000007 0.025779
# 5 -0.009717 0.004815 -0.000620 0.000007 0.046125 0.000003
# 6 -0.000001 0.000000 0.000003 0.025779 0.000003 0.041603
#
#
# Mechanical properties :
#
#
# Convention : Reuss Voigt Hill
#
# Bulk Modulus (GPa) = 61.77521 66.87987 64.32754
# Shear Modulus (GPa) = 21.28975 27.40252 24.34614
#
# Velocity S-wave (km/s) = 3.38275 3.83778 3.61743
# Velocity P-wave (km/s) = 6.96139 7.45556 7.21271
#
# Compressibility (1/GPa) = 0.01618772
#
# Stress axis : x y z
#
# Youngs Moduli (GPa) = 85.39400 65.06853 73.29944
#
# Poissons Ratio (x) = 0.28504 0.23808
# Poissons Ratio (y) = 0.37408 0.33998
# Poissons Ratio (z) = 0.27736 0.30180
#
# Static dielectric constant tensor:
#      x y z
#    x 1.717550 0.000000 -0.006070 
#    y 0.000000 1.613120 0.000000 
#    z -0.006070 0.000000 1.670550 
# 
# From -- ./inp_files/27852.got.cif
#   From: 2010.05.17/outbox.cif.g08.bks.cpg/sg5_14_cif.got.tgz:27852.got - 2010.06.03 18:56:24.
