data_PCOD9122179
_publ_section_title
;
Structure prediction by ZEFSAII (Michael W. Deem and Ramdas Pophale) SiO2 
 PCOD9122179
Probable space group: C 2
;
_chemical_formula_sum "Si O2"
_cell_formula_units_Z 30
_cell_length_a 8.516920
_cell_length_b 15.478399
_cell_length_c 11.250433
_cell_angle_alpha 90.000000
_cell_angle_beta 96.843707
_cell_angle_gamma 90.000000
_cell_volume 1472.557879
_symmetry_space_group_name_H-M "C 2"
_symmetry_group_IT_number 5
_symmetry_cell_setting 'monoclinic'
loop_
_space_group_symop_operation_xyz
x,y,z
-x,y,-z
1/2+x,1/2+y,z
1/2-x,1/2+y,-z
loop_
_atom_site_type_symbol
_atom_site_label
_atom_site_fract_x
_atom_site_fract_y
_atom_site_fract_z
Si Si1 0.326426 0.764950 0.510058
Si Si2 0.455529 0.449364 0.871287
Si Si3 0.762120 0.123387 0.929179
Si Si4 0.488913 0.065610 0.271944
Si Si5 0.823707 0.082952 0.202955
Si Si6 0.164772 0.379098 0.716264
Si Si7 0.500000 0.172424 0.500000
Si Si8 0.945416 0.235042 0.769954
O O1 0.500000 0.721423 0.500000
O O2 0.336041 0.845406 0.419582
O O3 0.155242 0.723718 0.469806
O O4 0.335233 0.771410 0.653956
O O5 0.360854 0.537006 0.901200
O O6 0.605664 0.488332 0.817246
O O7 0.341208 0.394943 0.778433
O O8 0.500000 0.405369 0.000000
O O9 0.595850 0.108779 0.849529
O O10 0.848557 0.205235 0.876692
O O11 0.766781 0.122420 0.071124
O O12 0.675739 0.074500 0.274750
O O13 0.438044 0.114787 0.385805
O O14 0.431347 0.967535 0.277924
O O15 0.961058 0.147298 0.258422
O O16 0.079859 0.307487 0.790625
#
# Coordination Sequence:
#
# PCOD9122179 Si02
#       8
#     4   4   4   4   4   4   2   4
#     4  10  22  42  64  86 130 175 211 268 322 383
#     4   8  17  37  62  88 125 165 206 265 322 387
#     4   9  18  38  65  91 125 165 212 262 317 389
#     4  11  22  38  63  97 125 165 218 271 320 385
#     4  10  20  39  67  95 124 166 220 264 322 392
#     4  10  22  39  60  90 134 164 211 268 331 385
#     4  12  24  42  66  88 124 176 230 264 314 390
#     4  10  19  39  62  87 127 171 207 262 325 382
#
# _framework density 20.372713999999998
#
# number of rings (size 3 to 8) (size 9 to 14) (size 15 to 20)
#    0.000    2.133    1.333    3.200    2.800    0.000 
#    4.800   10.667    0.000    0.000    0.000    0.000 
#    0.000    0.000    0.000    0.000    0.000    0.000 
#
# Total GULP energy -83581.475789 kJ/mol
# GULP energy per Si atom -5572.098386 kJ/mol
# Density = 2.032634 g / cm^3
# Si number density = 20.372714 Si / 1000 Ang^3
#
#
#
# Elastic Constant Matrix: (Units=GPa)
#
#
# Indices 1 2 3 4 5 6 
#
# 1 84.3531 27.1107 10.6330 0.0000 0.2396 0.0000
# 2 27.1107 64.9074 36.3488 0.0000 -1.5417 0.0000
# 3 10.6330 36.3488 94.9087 0.0000 13.4814 0.0000
# 4 0.0000 0.0000 0.0000 29.6387 0.0000 7.6155
# 5 0.2396 -1.5417 13.4814 0.0000 34.9099 0.0000
# 6 0.0000 0.0000 0.0000 7.6155 0.0000 25.7180
#
#
#
# Elastic Compliance Matrix: (Units=1/GPa)
#
#
# Indices 1 2 3 4 5 6 
#
# 1 0.013764 -0.006318 0.000985 0.000000 -0.000754 0.000000
# 2 -0.006318 0.023052 -0.008752 0.000000 0.004441 0.000000
# 3 0.000985 -0.008752 0.014637 0.000000 -0.006046 0.000000
# 4 0.000000 0.000000 0.000000 0.036518 0.000000 -0.010814
# 5 -0.000754 0.004441 -0.006046 0.000000 0.031181 0.000000
# 6 0.000000 0.000000 0.000000 -0.010814 0.000000 0.042085
#
#
# Mechanical properties :
#
#
# Convention : Reuss Voigt Hill
#
# Bulk Modulus (GPa) = 42.95109 43.59490 43.27300
# Shear Modulus (GPa) = 25.35913 29.39178 27.37546
#
# Velocity S-wave (km/s) = 3.53194 3.80241 3.66967
# Velocity P-wave (km/s) = 6.14502 6.38145 6.26435
#
# Compressibility (1/GPa) = 0.02328230
#
# Stress axis : x y z
#
# Youngs Moduli (GPa) = 72.65554 43.38000 68.32185
#
# Poissons Ratio (x) = 0.27409 -0.06729
# Poissons Ratio (y) = 0.45906 0.59793
# Poissons Ratio (z) = -0.07156 0.37965
#
# Static dielectric constant tensor:
#      x y z
#    x 1.768940 0.000000 0.017340 
#    y 0.000000 1.718340 0.000000 
#    z 0.017340 0.000000 1.747950 
# 
# From -- ./inp_files/36174.got.cif
#   From: 2010.05.17/outbox.cif.g08.bks.cpg/sg5_19_cif.got.tgz:36174.got - 2010.06.03 18:56:24.
