data_PCOD9122348
_publ_section_title
;
Structure prediction by ZEFSAII (Michael W. Deem and Ramdas Pophale) SiO2 
 PCOD9122348
Probable space group: C 2
;
_chemical_formula_sum "Si O2"
_cell_formula_units_Z 28
_cell_length_a 10.704234
_cell_length_b 14.382716
_cell_length_c 8.450290
_cell_angle_alpha 90.000000
_cell_angle_beta 119.716039
_cell_angle_gamma 90.000000
_cell_volume 1129.885220
_symmetry_space_group_name_H-M "C 2"
_symmetry_group_IT_number 5
_symmetry_cell_setting 'monoclinic'
loop_
_space_group_symop_operation_xyz
x,y,z
-x,y,-z
1/2+x,1/2+y,z
1/2-x,1/2+y,-z
loop_
_atom_site_type_symbol
_atom_site_label
_atom_site_fract_x
_atom_site_fract_y
_atom_site_fract_z
Si Si1 0.263049 0.896730 0.472833
Si Si2 0.057455 0.543380 0.217205
Si Si3 0.811115 0.429837 0.153672
Si Si4 0.856720 0.758168 0.368430
Si Si5 0.940934 0.943977 0.228000
Si Si6 0.344422 0.632357 0.326078
Si Si7 0.362828 0.742789 0.017099
O O1 0.358209 0.954951 0.654535
O O2 0.327018 0.887960 0.338534
O O3 0.229369 0.798994 0.536583
O O4 0.112827 0.950240 0.341696
O O5 0.184877 0.622179 0.307233
O O6 0.903779 0.524065 0.206176
O O7 0.000000 0.543881 0.000000
O O8 0.646003 0.441867 0.991474
O O9 0.866148 0.353031 0.060667
O O10 0.910281 0.849765 0.305479
O O11 0.760002 0.711492 0.179534
O O12 0.000000 0.703524 0.500000
O O13 0.873076 0.028199 0.281251
O O14 0.500000 0.658795 0.500000
O O15 0.334687 0.695000 0.165150
O O16 0.500000 0.718277 0.000000
#
# Coordination Sequence:
#
# PCOD9122348 Si02
#       7
#     4   4   4   4   4   4   4
#     4  11  20  36  71 106 130 172 232 286 334 404
#     4  12  22  41  66  95 132 177 227 288 330 397
#     4  11  23  40  72 108 135 172 236 290 334 402
#     4   9  18  39  71  98 133 179 230 283 336 399
#     4  10  19  41  71 101 134 176 232 280 336 408
#     4  12  24  46  69  96 136 188 222 277 351 418
#     4  11  26  44  65  99 139 184 224 286 350 403
#
# _framework density 24.781279999999999
#
# number of rings (size 3 to 8) (size 9 to 14) (size 15 to 20)
#    0.000    1.143    4.286    3.429    0.000    3.429 
#    0.000    5.714    0.000    0.000    0.000    0.000 
#    0.000    0.000    0.000    0.000    0.000    0.000 
#
# Total GULP energy -78127.082787 kJ/mol
# GULP energy per Si atom -5580.505913 kJ/mol
# Density = 2.472488 g / cm^3
# Si number density = 24.781280 Si / 1000 Ang^3
#
#
#
# Elastic Constant Matrix: (Units=GPa)
#
#
# Indices 1 2 3 4 5 6 
#
# 1 96.6989 32.3914 66.2867 0.0000 15.3566 0.0000
# 2 32.3914 47.3718 29.1051 0.0000 15.5370 0.0000
# 3 66.2867 29.1051 210.7956 0.0000 31.5574 0.0000
# 4 0.0000 0.0000 0.0000 27.1605 0.0000 1.6041
# 5 15.3566 15.5370 31.5574 0.0000 51.9272 0.0000
# 6 0.0000 0.0000 0.0000 1.6041 0.0000 32.8678
#
#
#
# Elastic Compliance Matrix: (Units=1/GPa)
#
#
# Indices 1 2 3 4 5 6 
#
# 1 0.015775 -0.008508 -0.003816 0.000000 0.000199 0.000000
# 2 -0.008508 0.029155 -0.000463 0.000000 -0.005926 0.000000
# 3 -0.003816 -0.000463 0.006400 0.000000 -0.002623 0.000000
# 4 0.000000 0.000000 0.000000 0.036925 0.000000 -0.001802
# 5 0.000199 -0.005926 -0.002623 0.000000 0.022566 0.000000
# 6 0.000000 0.000000 0.000000 -0.001802 0.000000 0.030513
#
#
# Mechanical properties :
#
#
# Convention : Reuss Voigt Hill
#
# Bulk Modulus (GPa) = 38.82332 67.82585 53.32458
# Shear Modulus (GPa) = 28.49123 37.53000 33.01062
#
# Velocity S-wave (km/s) = 3.39441 3.89581 3.65372
# Velocity P-wave (km/s) = 5.57343 6.90404 6.27411
#
# Compressibility (1/GPa) = 0.02575771
#
# Stress axis : x y z
#
# Youngs Moduli (GPa) = 63.39036 34.29949 156.23958
#
# Poissons Ratio (x) = 0.29180 0.59619
# Poissons Ratio (y) = 0.53930 0.07235
# Poissons Ratio (z) = 0.24189 0.01588
#
# Static dielectric constant tensor:
#      x y z
#    x 2.021100 0.000000 0.023620 
#    y 0.000000 1.968830 0.000000 
#    z 0.023620 0.000000 1.964110 
# 
# From -- ./inp_files/20719.got.cif
#   From: 2010.05.17/outbox.cif.g08.bks.cpg/sg5_11_cif.got.tgz:20719.got - 2010.06.03 18:56:24.
