data_PCOD9122738
_publ_section_title
;
Structure prediction by ZEFSAII (Michael W. Deem and Ramdas Pophale) SiO2 
 PCOD9122738
Probable space group: C 2
;
_chemical_formula_sum "Si O2"
_cell_formula_units_Z 22
_cell_length_a 9.273961
_cell_length_b 13.752878
_cell_length_c 7.625640
_cell_angle_alpha 90.000000
_cell_angle_beta 86.597252
_cell_angle_gamma 90.000000
_cell_volume 970.887277
_symmetry_space_group_name_H-M "C 2"
_symmetry_group_IT_number 5
_symmetry_cell_setting 'monoclinic'
loop_
_space_group_symop_operation_xyz
x,y,z
-x,y,-z
1/2+x,1/2+y,z
1/2-x,1/2+y,-z
loop_
_atom_site_type_symbol
_atom_site_label
_atom_site_fract_x
_atom_site_fract_y
_atom_site_fract_z
Si Si1 0.234407 0.337730 0.720639
Si Si2 0.500000 0.281215 0.500000
Si Si3 0.458681 0.923944 0.797168
Si Si4 0.923587 0.639623 0.190681
Si Si5 0.664204 0.660144 0.967371
Si Si6 0.338022 0.436813 0.047214
O O1 0.358608 0.339518 0.568599
O O2 0.069649 0.358543 0.680507
O O3 0.236071 0.235944 0.827837
O O4 0.273366 0.421083 0.858493
O O5 0.454637 0.215152 0.339756
O O6 0.287812 0.898468 0.812807
O O7 0.504554 0.036212 0.757828
O O8 0.500000 0.911478 0.000000
O O9 0.756595 0.648266 0.139521
O O10 0.000000 0.661571 0.000000
O O11 0.653161 0.549580 0.900381
O O12 0.500000 0.694312 0.000000
O O13 0.500000 0.397636 0.000000
#
# Coordination Sequence:
#
# PCOD9122738 Si02
#       6
#     4   2   4   4   4   4
#     4  11  22  40  62  97 136 168 223 273 322 396
#     4  12  26  38  68 100 128 182 228 264 328 394
#     4   9  17  39  67  92 128 171 213 272 328 383
#     4  11  20  44  70  93 131 177 217 271 334 391
#     4  11  21  39  72  98 126 175 219 272 334 391
#     4  10  20  35  67 102 124 170 222 264 333 395
#
# _framework density 22.659683999999999
#
# number of rings (size 3 to 8) (size 9 to 14) (size 15 to 20)
#    0.000    1.455    7.273    1.636    2.545    0.000 
#    0.000    6.364    4.000    0.000    0.000    0.000 
#    0.000    0.000    0.000    0.000    0.000    0.000 
#
# Total GULP energy -61296.718604 kJ/mol
# GULP energy per Si atom -5572.428964 kJ/mol
# Density = 2.260811 g / cm^3
# Si number density = 22.659684 Si / 1000 Ang^3
#
#
#
# Elastic Constant Matrix: (Units=GPa)
#
#
# Indices 1 2 3 4 5 6 
#
# 1 210.3048 23.7146 43.1483 0.0000 -38.1921 0.0000
# 2 23.7146 90.1547 21.8608 0.0000 -22.9908 0.0000
# 3 43.1483 21.8608 61.7369 0.0000 -14.6268 0.0000
# 4 0.0000 0.0000 0.0000 18.0568 0.0000 -4.5654
# 5 -38.1921 -22.9908 -14.6268 0.0000 44.7963 0.0000
# 6 0.0000 0.0000 0.0000 -4.5654 0.0000 29.3913
#
#
#
# Elastic Compliance Matrix: (Units=1/GPa)
#
#
# Indices 1 2 3 4 5 6 
#
# 1 0.006209 0.000301 -0.003420 0.000000 0.004332 0.000000
# 2 0.000301 0.013395 -0.003537 0.000000 0.005976 0.000000
# 3 -0.003420 -0.003537 0.020289 0.000000 0.001894 0.000000
# 4 0.000000 0.000000 0.000000 0.057645 0.000000 0.008954
# 5 0.004332 0.005976 0.001894 0.000000 0.029701 0.000000
# 6 0.000000 0.000000 0.000000 0.008954 0.000000 0.035415
#
#
# Mechanical properties :
#
#
# Convention : Reuss Voigt Hill
#
# Bulk Modulus (GPa) = 37.62255 59.96043 48.79149
# Shear Modulus (GPa) = 27.05232 36.68040 31.86636
#
# Velocity S-wave (km/s) = 3.45897 4.02774 3.75414
# Velocity P-wave (km/s) = 5.70893 6.93894 6.35377
#
# Compressibility (1/GPa) = 0.02657981
#
# Stress axis : x y z
#
# Youngs Moduli (GPa) = 161.04572 74.65691 49.28739
#
# Poissons Ratio (x) = -0.02244 0.16856
# Poissons Ratio (y) = -0.04840 0.17434
# Poissons Ratio (z) = 0.55077 0.26408
#
# Static dielectric constant tensor:
#      x y z
#    x 2.044650 0.000000 0.007160 
#    y 0.000000 1.880030 0.000000 
#    z 0.007160 0.000000 1.808220 
# 
# From -- ./inp_files/15020.got.cif
#   From: 2010.05.17/outbox.cif.g08.bks.cpg/sg5_8_cif.got.tgz:15020.got - 2010.06.03 18:56:24.
