data_PCOD9122231
_publ_section_title
;
Structure prediction by ZEFSAII (Michael W. Deem and Ramdas Pophale) SiO2 
 PCOD9122231
Probable space group: C 2
;
_chemical_formula_sum "Si O2"
_cell_formula_units_Z 30
_cell_length_a 17.457759
_cell_length_b 11.585044
_cell_length_c 13.374139
_cell_angle_alpha 90.000000
_cell_angle_beta 147.770962
_cell_angle_gamma 90.000000
_cell_volume 1442.539530
_symmetry_space_group_name_H-M "C 2"
_symmetry_group_IT_number 5
_symmetry_cell_setting 'monoclinic'
loop_
_space_group_symop_operation_xyz
x,y,z
-x,y,-z
1/2+x,1/2+y,z
1/2-x,1/2+y,-z
loop_
_atom_site_type_symbol
_atom_site_label
_atom_site_fract_x
_atom_site_fract_y
_atom_site_fract_z
Si Si1 0.421991 0.292830 0.309502
Si Si2 0.151512 0.131440 0.021347
Si Si3 0.844594 0.489464 0.382877
Si Si4 0.853242 0.430176 0.686605
Si Si5 0.470128 0.526933 0.643349
Si Si6 0.099716 0.642546 0.358554
Si Si7 0.657850 0.765249 0.502908
Si Si8 0.000000 0.287475 0.000000
O O1 0.500000 0.257973 0.500000
O O2 0.266412 0.234584 0.131033
O O3 0.446178 0.429800 0.326893
O O4 0.498259 0.233968 0.298799
O O5 0.030096 0.199523 0.945214
O O6 0.231942 0.042005 0.181891
O O7 0.077267 0.062737 0.850526
O O8 0.842974 0.568821 0.481812
O O9 0.810262 0.358459 0.376774
O O10 0.000000 0.491887 0.500000
O O11 0.685045 0.469992 0.495301
O O12 0.950051 0.543357 0.773275
O O13 0.906108 0.345482 0.656309
O O14 0.876879 0.369905 0.819352
O O15 0.428658 0.653470 0.554379
O O16 0.210700 0.712669 0.414167
#
# Coordination Sequence:
#
# PCOD9122231 Si02
#       8
#     4   4   4   4   4   4   4   2
#     4  12  23  43  68  94 138 187 234 281 340 416
#     4  12  25  39  66 104 129 183 235 287 338 420
#     4  11  22  41  72 100 139 181 234 283 339 416
#     4  10  21  39  69  95 131 176 222 286 337 411
#     4  11  25  42  65 102 140 175 229 285 351 406
#     4  10  19  39  68  96 130 182 223 279 341 403
#     4  10  21  40  68  98 136 183 217 283 350 404
#     4  12  24  42  68  98 130 174 244 276 348 426
#
# _framework density 20.796655999999999
#
# number of rings (size 3 to 8) (size 9 to 14) (size 15 to 20)
#    0.000    1.067    5.333    1.600    3.733    2.667 
#    0.000    2.667    0.000    0.000    0.000    0.000 
#    0.000    0.000    0.000    0.000    0.000    0.000 
#
# Total GULP energy -83527.229218 kJ/mol
# GULP energy per Si atom -5568.481948 kJ/mol
# Density = 2.074932 g / cm^3
# Si number density = 20.796656 Si / 1000 Ang^3
#
#
#
# Elastic Constant Matrix: (Units=GPa)
#
#
# Indices 1 2 3 4 5 6 
#
# 1 49.7916 26.5895 11.5573 0.0000 -7.3116 0.0000
# 2 26.5895 143.1856 17.7007 0.0000 -4.7860 0.0000
# 3 11.5573 17.7007 53.7560 0.0000 -2.0713 0.0000
# 4 0.0000 0.0000 0.0000 -3.5759 0.0000 -7.8858
# 5 -7.3116 -4.7860 -2.0713 0.0000 7.0340 0.0000
# 6 0.0000 0.0000 0.0000 -7.8858 0.0000 50.8172
#
#
#
# Elastic Compliance Matrix: (Units=1/GPa)
#
#
# Indices 1 2 3 4 5 6 
#
# 1 0.026367 -0.003660 -0.003544 0.000000 0.023873 0.000000
# 2 -0.003660 0.007919 -0.001780 0.000000 0.001059 0.000000
# 3 -0.003544 -0.001780 0.019989 0.000000 0.000992 0.000000
# 4 0.000000 0.000000 0.000000 -0.208350 0.000000 -0.032332
# 5 0.023873 0.001059 0.000992 0.000000 0.167994 0.000000
# 6 0.000000 0.000000 0.000000 -0.032332 0.000000 0.014661
#
#
# Mechanical properties :
#
#
# Convention : Reuss Voigt Hill
#
# Bulk Modulus (GPa) = 27.54292 39.82538 33.68415
# Shear Modulus (GPa) = 85.25217 23.58078 54.41648
#
# Velocity S-wave (km/s) = 6.40954 3.37096 5.12082
# Velocity P-wave (km/s) = 8.24918 5.86026 7.15512
#
# Compressibility (1/GPa) = 0.03630697
#
# Stress axis : x y z
#
# Youngs Moduli (GPa) = 37.92691 126.27727 50.02831
#
# Poissons Ratio (x) = 0.46220 0.17728
# Poissons Ratio (y) = 0.13882 0.08904
# Poissons Ratio (z) = 0.13440 0.22475
#
# Static dielectric constant tensor:
#      x y z
#    x 1.814000 0.000000 -0.000780 
#    y 0.000000 1.828920 0.000000 
#    z -0.000780 0.000000 1.791180 
# 
# From -- ./inp_files/55986.got.cif
#   From: 2010.05.17/outbox.cif.g08.bks.cpg/sg5_28_cif.got.tgz:55986.got - 2010.06.03 18:56:24.
