data_PCOD9122697
_publ_section_title
;
Structure prediction by ZEFSAII (Michael W. Deem and Ramdas Pophale) SiO2 
 PCOD9122697
Probable space group: C 2
;
_chemical_formula_sum "Si O2"
_cell_formula_units_Z 30
_cell_length_a 11.040088
_cell_length_b 17.527705
_cell_length_c 8.946358
_cell_angle_alpha 90.000000
_cell_angle_beta 117.725134
_cell_angle_gamma 90.000000
_cell_volume 1532.428357
_symmetry_space_group_name_H-M "C 2"
_symmetry_group_IT_number 5
_symmetry_cell_setting 'monoclinic'
loop_
_space_group_symop_operation_xyz
x,y,z
-x,y,-z
1/2+x,1/2+y,z
1/2-x,1/2+y,-z
loop_
_atom_site_type_symbol
_atom_site_label
_atom_site_fract_x
_atom_site_fract_y
_atom_site_fract_z
Si Si1 0.820405 0.306810 0.799608
Si Si2 0.871931 0.888206 0.531162
Si Si3 0.761653 0.532765 0.478651
Si Si4 0.141924 0.658462 0.671865
Si Si5 0.500000 0.924751 0.500000
Si Si6 0.374444 0.280230 0.822415
Si Si7 0.599626 0.819059 0.829563
Si Si8 0.456583 0.105921 0.813563
O O1 0.756592 0.365849 0.645987
O O2 0.716069 0.236342 0.758764
O O3 0.961577 0.276427 0.805807
O O4 0.846193 0.345597 0.975741
O O5 0.867763 0.834813 0.674636
O O6 0.000000 0.871634 0.500000
O O7 0.865799 0.977364 0.571175
O O8 0.758296 0.607996 0.374472
O O9 0.872976 0.478068 0.465453
O O10 0.833138 0.558924 0.672508
O O11 0.000000 0.673822 0.500000
O O12 0.087867 0.608975 0.780005
O O13 0.545672 0.876247 0.670786
O O14 0.230313 0.279689 0.827439
O O15 0.409735 0.194062 0.796727
O O16 0.500000 0.306250 0.000000
O O17 0.500000 0.078108 0.000000
#
# Coordination Sequence:
#
# PCOD9122697 Si02
#       8
#     4   4   4   4   2   4   4   4
#     4  11  22  38  64  92 121 154 207 252 292 351
#     4  12  23  40  61  90 121 160 201 251 300 354
#     4  11  22  39  60  84 122 162 195 238 304 366
#     4  10  20  39  63  87 118 165 198 239 299 355
#     4  12  20  42  60  90 122 154 200 244 306 366
#     4  11  22  40  65  91 120 156 204 251 296 351
#     4  11  23  38  64  92 119 156 197 255 302 347
#     4  10  20  35  61  91 115 153 204 249 288 350
#
# _framework density 19.576772999999999
#
# number of rings (size 3 to 8) (size 9 to 14) (size 15 to 20)
#    0.000    1.067    4.667    5.200    0.000    1.067 
#    2.400    0.000    2.933    0.000    0.000    0.000 
#    0.000    0.000    0.000    0.000    0.000    0.000 
#
# Total GULP energy -83663.363129 kJ/mol
# GULP energy per Si atom -5577.557542 kJ/mol
# Density = 1.953222 g / cm^3
# Si number density = 19.576773 Si / 1000 Ang^3
#
#
#
# Elastic Constant Matrix: (Units=GPa)
#
#
# Indices 1 2 3 4 5 6 
#
# 1 93.2441 -0.7649 20.6279 0.0000 -8.1165 0.0000
# 2 -0.7649 50.6912 33.4574 0.0000 -2.9364 0.0000
# 3 20.6279 33.4574 127.2238 0.0000 -20.2905 0.0000
# 4 0.0000 0.0000 0.0000 8.4908 0.0000 2.1688
# 5 -8.1165 -2.9364 -20.2905 0.0000 25.5317 0.0000
# 6 0.0000 0.0000 0.0000 2.1688 0.0000 33.1739
#
#
#
# Elastic Compliance Matrix: (Units=1/GPa)
#
#
# Indices 1 2 3 4 5 6 
#
# 1 0.011353 0.001546 -0.001882 0.000000 0.002291 0.000000
# 2 0.001546 0.024229 -0.006985 0.000000 -0.002273 0.000000
# 3 -0.001882 -0.006985 0.011198 0.000000 0.007498 0.000000
# 4 0.000000 0.000000 0.000000 0.119774 0.000000 -0.007830
# 5 0.002291 -0.002273 0.007498 0.000000 0.045592 0.000000
# 6 0.000000 0.000000 0.000000 -0.007830 0.000000 0.030656
#
#
# Mechanical properties :
#
#
# Convention : Reuss Voigt Hill
#
# Bulk Modulus (GPa) = 31.11516 41.97776 36.54646
# Shear Modulus (GPa) = 18.64575 27.96186 23.30380
#
# Velocity S-wave (km/s) = 3.08951 3.78341 3.45393
# Velocity P-wave (km/s) = 5.35306 6.36983 5.88345
#
# Compressibility (1/GPa) = 0.03213867
#
# Stress axis : x y z
#
# Youngs Moduli (GPa) = 88.08240 41.27242 89.30177
#
# Poissons Ratio (x) = -0.06381 0.16806
# Poissons Ratio (y) = -0.13619 0.62377
# Poissons Ratio (z) = 0.16577 0.28829
#
# Static dielectric constant tensor:
#      x y z
#    x 1.733770 0.000000 -0.004600 
#    y 0.000000 1.669640 0.000000 
#    z -0.004600 0.000000 1.713060 
# 
# From -- ./inp_files/21474.got.cif
#   From: 2010.05.17/outbox.cif.g08.bks.cpg/sg5_11_cif.got.tgz:21474.got - 2010.06.03 18:56:24.
