data_PCOD9122571
_publ_section_title
;
Structure prediction by ZEFSAII (Michael W. Deem and Ramdas Pophale) SiO2 
 PCOD9122571
Probable space group: C 2
;
_chemical_formula_sum "Si O2"
_cell_formula_units_Z 30
_cell_length_a 5.566078
_cell_length_b 15.932676
_cell_length_c 16.397212
_cell_angle_alpha 90.000000
_cell_angle_beta 62.511468
_cell_angle_gamma 90.000000
_cell_volume 1289.977656
_symmetry_space_group_name_H-M "C 2"
_symmetry_group_IT_number 5
_symmetry_cell_setting 'monoclinic'
loop_
_space_group_symop_operation_xyz
x,y,z
-x,y,-z
1/2+x,1/2+y,z
1/2-x,1/2+y,-z
loop_
_atom_site_type_symbol
_atom_site_label
_atom_site_fract_x
_atom_site_fract_y
_atom_site_fract_z
Si Si1 0.112114 0.525170 0.571727
Si Si2 0.952917 0.738255 0.824794
Si Si3 0.997945 0.099184 0.086367
Si Si4 0.549043 0.842431 0.599238
Si Si5 0.395213 0.366119 0.702847
Si Si6 0.000000 0.725352 0.000000
Si Si7 0.584373 0.666658 0.369231
Si Si8 0.929932 0.033817 0.269431
O O1 0.196049 0.427073 0.541526
O O2 0.879967 0.506564 0.675047
O O3 0.000000 0.552743 0.500000
O O4 0.291966 0.597500 0.586990
O O5 0.767522 0.656173 0.861844
O O6 0.824371 0.814929 0.795410
O O7 0.011789 0.767545 0.908446
O O8 0.187435 0.707132 0.726398
O O9 0.023978 0.046524 0.163538
O O10 0.239179 0.165706 0.042853
O O11 0.000000 0.051592 0.000000
O O12 0.685898 0.838875 0.667007
O O13 0.584415 0.744687 0.567581
O O14 0.221624 0.852794 0.637199
O O15 0.381646 0.465396 0.718057
O O16 0.421035 0.615835 0.326514
#
# Coordination Sequence:
#
# PCOD9122571 Si02
#       8
#     4   4   4   4   4   2   4   4
#     4  11  25  46  66 105 142 179 236 304 358 427
#     4  10  20  36  63  92 128 176 233 280 348 422
#     4  10  20  35  62  92 130 173 234 282 347 425
#     4  10  23  43  66  98 132 180 226 284 348 425
#     4  10  22  39  67  95 129 175 230 280 351 418
#     4  10  20  34  58  92 128 178 228 296 340 414
#     4  11  21  40  73  95 131 185 235 279 359 431
#     4  11  21  41  69  94 137 182 228 290 358 424
#
# _framework density 23.256216999999999
#
# number of rings (size 3 to 8) (size 9 to 14) (size 15 to 20)
#    0.000    1.600    4.000    0.800    3.733    0.533 
#    3.600    0.000    4.400    0.000    0.000    0.000 
#    0.000    0.000    0.000    0.000    0.000    0.000 
#
# Total GULP energy -83518.133233 kJ/mol
# GULP energy per Si atom -5567.875549 kJ/mol
# Density = 2.320329 g / cm^3
# Si number density = 23.256217 Si / 1000 Ang^3
#
#
#
# Elastic Constant Matrix: (Units=GPa)
#
#
# Indices 1 2 3 4 5 6 
#
# 1 76.4858 18.0350 50.8617 0.0000 31.6654 0.0000
# 2 18.0350 123.8476 42.6369 0.0000 22.7484 0.0000
# 3 50.8617 42.6369 133.5772 0.0000 37.3519 0.0000
# 4 0.0000 0.0000 0.0000 27.2812 0.0000 10.1658
# 5 31.6654 22.7484 37.3519 0.0000 49.5687 0.0000
# 6 0.0000 0.0000 0.0000 10.1658 0.0000 34.2149
#
#
#
# Elastic Compliance Matrix: (Units=1/GPa)
#
#
# Indices 1 2 3 4 5 6 
#
# 1 0.020302 0.000573 -0.005338 0.000000 -0.009210 0.000000
# 2 0.000573 0.009341 -0.002406 0.000000 -0.002840 0.000000
# 3 -0.005338 -0.002406 0.011434 0.000000 -0.004102 0.000000
# 4 0.000000 0.000000 0.000000 0.041219 0.000000 -0.012247
# 5 -0.009210 -0.002840 -0.004102 0.000000 0.030452 0.000000
# 6 0.000000 0.000000 0.000000 -0.012247 0.000000 0.032866
#
#
# Mechanical properties :
#
#
# Convention : Reuss Voigt Hill
#
# Bulk Modulus (GPa) = 37.40367 61.88643 49.64505
# Shear Modulus (GPa) = 29.60952 37.03809 33.32380
#
# Velocity S-wave (km/s) = 3.57205 3.99508 3.78947
# Velocity P-wave (km/s) = 5.75594 6.92455 6.36711
#
# Compressibility (1/GPa) = 0.02673534
#
# Stress axis : x y z
#
# Youngs Moduli (GPa) = 49.25713 107.05692 87.46203
#
# Poissons Ratio (x) = -0.06133 0.46685
# Poissons Ratio (y) = -0.02822 0.21039
# Poissons Ratio (z) = 0.26292 0.25753
#
# Static dielectric constant tensor:
#      x y z
#    x 1.781120 0.000000 0.135660 
#    y 0.000000 1.951710 0.000000 
#    z 0.135660 0.000000 1.788660 
# 
# From -- ./inp_files/49321.got.cif
#   From: 2010.05.17/outbox.cif.g08.bks.cpg/sg5_25_cif.got.tgz:49321.got - 2010.06.03 18:56:24.
