data_PCOD9122839
_publ_section_title
;
Structure prediction by ZEFSAII (Michael W. Deem and Ramdas Pophale) SiO2 
 PCOD9122839
Probable space group: C 2
;
_chemical_formula_sum "Si O2"
_cell_formula_units_Z 32
_cell_length_a 8.795309
_cell_length_b 24.112194
_cell_length_c 14.169725
_cell_angle_alpha 90.000000
_cell_angle_beta 152.404046
_cell_angle_gamma 90.000000
_cell_volume 1392.031838
_symmetry_space_group_name_H-M "C 2"
_symmetry_group_IT_number 5
_symmetry_cell_setting 'monoclinic'
loop_
_space_group_symop_operation_xyz
x,y,z
-x,y,-z
1/2+x,1/2+y,z
1/2-x,1/2+y,-z
loop_
_atom_site_type_symbol
_atom_site_label
_atom_site_fract_x
_atom_site_fract_y
_atom_site_fract_z
Si Si1 0.986301 0.227830 0.156157
Si Si2 0.333085 0.333981 0.646283
Si Si3 0.743267 0.916954 0.224576
Si Si4 0.976060 0.715276 0.711808
Si Si5 0.652571 0.613485 0.864491
Si Si6 0.054720 0.593144 0.257658
Si Si7 0.280272 0.846086 0.077012
Si Si8 0.079155 0.034639 0.408093
O O1 0.013135 0.173772 0.236140
O O2 0.968340 0.287516 0.195835
O O3 0.261800 0.223021 0.227638
O O4 0.650597 0.220970 0.910646
O O5 0.508884 0.366647 0.659953
O O6 0.261143 0.270182 0.581406
O O7 0.000000 0.360959 0.500000
O O8 0.594951 0.337267 0.875138
O O9 0.523387 0.897439 0.191902
O O10 0.500000 0.924312 0.000000
O O11 0.954227 0.972448 0.347364
O O12 0.849765 0.652657 0.645014
O O13 0.452600 0.562634 0.711021
O O14 0.000000 0.617928 0.000000
O O15 0.728667 0.602107 0.016752
O O16 0.312137 0.569595 0.322607
O O17 0.076643 0.548481 0.353165
O O18 0.000000 0.854820 0.000000
#
# Coordination Sequence:
#
# PCOD9122839 Si02
#       8
#     4   4   4   4   4   4   4   4
#     4   9  16  32  59  90 121 159 203 257 318 384
#     4  10  21  38  62  91 123 165 202 258 325 381
#     4  10  20  40  67  86 121 173 218 252 310 390
#     4   9  17  33  59  87 123 160 203 253 317 384
#     4   9  17  32  57  84 118 154 202 247 311 373
#     4   9  19  34  55  88 113 154 205 252 303 364
#     4  10  20  38  63  93 122 160 214 264 316 381
#     4  10  20  36  60  84 118 166 209 251 307 371
#
# _framework density 22.98798
#
# number of rings (size 3 to 8) (size 9 to 14) (size 15 to 20)
#    0.000    2.500    1.250    1.500    1.750    1.000 
#    4.500    1.875   11.000    0.000    0.000    0.000 
#    0.000    0.000    0.000    0.000    0.000    0.000 
#
# Total GULP energy -89257.701423 kJ/mol
# GULP energy per Si atom -5578.606339 kJ/mol
# Density = 2.293566 g / cm^3
# Si number density = 22.987980 Si / 1000 Ang^3
#
#
#
# Elastic Constant Matrix: (Units=GPa)
#
#
# Indices 1 2 3 4 5 6 
#
# 1 77.0421 54.8304 11.4208 0.0003 -0.7327 0.0003
# 2 54.8304 172.0294 39.2580 -0.0001 -6.1645 0.0000
# 3 11.4208 39.2580 39.4576 -0.0001 -12.1248 0.0005
# 4 0.0003 -0.0001 -0.0001 8.1110 0.0003 4.4913
# 5 -0.7327 -6.1645 -12.1248 0.0003 25.8585 0.0002
# 6 0.0003 0.0000 0.0005 4.4913 0.0002 19.0497
#
#
#
# Elastic Compliance Matrix: (Units=1/GPa)
#
#
# Indices 1 2 3 4 5 6 
#
# 1 0.016808 -0.005466 0.000373 -0.000001 -0.000652 0.000000
# 2 -0.005466 0.009388 -0.008316 0.000000 -0.001816 0.000000
# 3 0.000373 -0.008316 0.038443 0.000001 0.016054 -0.000001
# 4 -0.000001 0.000000 0.000001 0.141801 -0.000001 -0.033432
# 5 -0.000652 -0.001816 0.016054 -0.000001 0.045748 -0.000001
# 6 0.000000 0.000000 -0.000001 -0.033432 -0.000001 0.060376
#
#
# Mechanical properties :
#
#
# Convention : Reuss Voigt Hill
#
# Bulk Modulus (GPa) = 26.44082 55.50529 40.97306
# Shear Modulus (GPa) = 14.20493 22.80516 18.50505
#
# Velocity S-wave (km/s) = 2.48851 3.15310 2.84031
# Velocity P-wave (km/s) = 4.44791 6.11995 5.34966
#
# Compressibility (1/GPa) = 0.03782031
#
# Stress axis : x y z
#
# Youngs Moduli (GPa) = 59.49419 106.52155 26.01236
#
# Poissons Ratio (x) = 0.58221 -0.00969
# Poissons Ratio (y) = 0.32517 0.21633
# Poissons Ratio (z) = -0.02216 0.88588
#
# Static dielectric constant tensor:
#      x y z
#    x 1.919320 0.000000 -0.063410 
#    y 0.000000 1.853490 0.000000 
#    z -0.063410 0.000000 1.985760 
# 
# From -- ./inp_files/51716.got.cif
#   From: 2010.05.17/outbox.cif.g08.bks.cpg/sg5_26_cif.got.tgz:51716.got - 2010.06.03 18:56:24.
