data_PCOD9122984
_publ_section_title
;
Structure prediction by ZEFSAII (Michael W. Deem and Ramdas Pophale) SiO2 
 PCOD9122984
Probable space group: C 2
;
_chemical_formula_sum "Si O2"
_cell_formula_units_Z 26
_cell_length_a 15.302203
_cell_length_b 8.781974
_cell_length_c 8.256841
_cell_angle_alpha 90.000000
_cell_angle_beta 116.631119
_cell_angle_gamma 90.000000
_cell_volume 991.868887
_symmetry_space_group_name_H-M "C 2"
_symmetry_group_IT_number 5
_symmetry_cell_setting 'monoclinic'
loop_
_space_group_symop_operation_xyz
x,y,z
-x,y,-z
1/2+x,1/2+y,z
1/2-x,1/2+y,-z
loop_
_atom_site_type_symbol
_atom_site_label
_atom_site_fract_x
_atom_site_fract_y
_atom_site_fract_z
Si Si1 0.136153 0.920310 0.678412
Si Si2 0.152600 0.785947 0.377538
Si Si3 0.631947 0.089947 0.820764
Si Si4 0.872754 0.409152 0.868046
Si Si5 0.000000 0.838153 0.000000
Si Si6 0.651300 0.957164 0.512632
Si Si7 0.367422 0.597947 0.039162
O O1 0.105583 0.902782 0.467926
O O2 0.107741 0.763197 0.747697
O O3 0.254338 0.920243 0.762987
O O4 0.108658 0.071546 0.751892
O O5 0.181014 0.631983 0.494226
O O6 0.251307 0.855726 0.387530
O O7 0.080660 0.954839 0.998039
O O8 0.602433 0.978862 0.647909
O O9 0.750327 0.085015 0.925908
O O10 0.433240 0.250128 0.816994
O O11 0.900099 0.408866 0.699626
O O12 0.896880 0.250369 0.974187
O O13 0.901043 0.532207 0.030313
#
# Coordination Sequence:
#
# PCOD9122984 Si02
#       7
#     4   4   4   4   2   4   4
#     4   8  18  35  58  84 116 155 210 253 292 363
#     4  10  22  38  62  92 121 167 204 256 311 361
#     4   9  17  34  60  88 114 152 208 261 299 343
#     4   9  19  33  59  92 117 157 202 262 301 344
#     4  12  24  36  60  92 130 164 190 252 328 368
#     4  10  20  37  63  93 123 157 218 253 294 375
#     4  10  20  37  53  87 126 157 201 248 310 373
#
# _framework density 26.213141
#
# number of rings (size 3 to 8) (size 9 to 14) (size 15 to 20)
#    0.000    2.462    1.538    0.923    2.154    4.308 
#    0.000    0.769    0.000    0.000    0.000    0.000 
#    0.000    0.000    0.000    0.000    0.000    0.000 
#
# Total GULP energy -72652.048698 kJ/mol
# GULP energy per Si atom -5588.619131 kJ/mol
# Density = 2.615348 g / cm^3
# Si number density = 26.213141 Si / 1000 Ang^3
#
#
#
# Elastic Constant Matrix: (Units=GPa)
#
#
# Indices 1 2 3 4 5 6 
#
# 1 86.5919 11.4569 50.0337 0.0000 16.1967 0.0000
# 2 11.4569 48.4431 56.2712 0.0000 -10.4446 0.0000
# 3 50.0337 56.2712 203.4838 0.0000 -19.3349 0.0000
# 4 0.0000 0.0000 0.0000 50.9666 0.0000 -5.6801
# 5 16.1967 -10.4446 -19.3349 0.0000 50.4463 0.0000
# 6 0.0000 0.0000 0.0000 -5.6801 0.0000 14.9154
#
#
#
# Elastic Compliance Matrix: (Units=1/GPa)
#
#
# Indices 1 2 3 4 5 6 
#
# 1 0.015324 0.000086 -0.004418 0.000000 -0.006596 0.000000
# 2 0.000086 0.030915 -0.008266 0.000000 0.003205 0.000000
# 3 -0.004418 -0.008266 0.008571 0.000000 0.002992 0.000000
# 4 0.000000 0.000000 0.000000 0.020490 0.000000 0.007803
# 5 -0.006596 0.003205 0.002992 0.000000 0.023751 0.000000
# 6 0.000000 0.000000 0.000000 0.007803 0.000000 0.070017
#
#
# Mechanical properties :
#
#
# Convention : Reuss Voigt Hill
#
# Bulk Modulus (GPa) = 33.76824 63.78249 48.77536
# Shear Modulus (GPa) = 24.49361 37.98279 31.23820
#
# Velocity S-wave (km/s) = 3.06011 3.81070 3.45585
# Velocity P-wave (km/s) = 5.03943 6.61415 5.87975
#
# Compressibility (1/GPa) = 0.02961363
#
# Stress axis : x y z
#
# Youngs Moduli (GPa) = 65.25834 32.34679 116.67264
#
# Poissons Ratio (x) = -0.00279 0.51551
# Poissons Ratio (y) = -0.00563 0.96440
# Poissons Ratio (z) = 0.28834 0.26737
#
# Static dielectric constant tensor:
#      x y z
#    x 2.059070 0.000000 -0.068400 
#    y 0.000000 2.005500 0.000000 
#    z -0.068400 0.000000 2.150720 
# 
# From -- ./inp_files/26689.got.cif
#   From: 2010.05.17/outbox.cif.g08.bks.cpg/sg5_14_cif.got.tgz:26689.got - 2010.06.03 18:56:24.
