data_PCOD9122516
_publ_section_title
;
Structure prediction by ZEFSAII (Michael W. Deem and Ramdas Pophale) SiO2 
 PCOD9122516
Probable space group: C 2
;
_chemical_formula_sum "Si O2"
_cell_formula_units_Z 28
_cell_length_a 17.747439
_cell_length_b 5.922251
_cell_length_c 12.620178
_cell_angle_alpha 90.000000
_cell_angle_beta 70.429565
_cell_angle_gamma 90.000000
_cell_volume 1249.813194
_symmetry_space_group_name_H-M "C 2"
_symmetry_group_IT_number 5
_symmetry_cell_setting 'monoclinic'
loop_
_space_group_symop_operation_xyz
x,y,z
-x,y,-z
1/2+x,1/2+y,z
1/2-x,1/2+y,-z
loop_
_atom_site_type_symbol
_atom_site_label
_atom_site_fract_x
_atom_site_fract_y
_atom_site_fract_z
Si Si1 0.883673 0.285140 0.171056
Si Si2 0.251839 0.981098 0.772022
Si Si3 0.994160 0.909604 0.805526
Si Si4 0.106571 0.172078 0.310219
Si Si5 0.500000 0.118521 0.000000
Si Si6 0.656363 0.284615 0.439486
Si Si7 0.149947 0.671403 0.669967
Si Si8 0.000000 0.481772 0.500000
O O1 0.851006 0.412168 0.292479
O O2 0.812574 0.150611 0.144738
O O3 0.927951 0.468039 0.078386
O O4 0.953228 0.117657 0.176458
O O5 0.327047 0.833011 0.775908
O O6 0.194798 0.800562 0.742598
O O7 0.292610 0.140508 0.666003
O O8 0.966810 0.771675 0.920628
O O9 0.058253 0.753878 0.714993
O O10 0.926639 0.993629 0.758214
O O11 0.033015 0.319959 0.390790
O O12 0.142172 0.030963 0.394178
O O13 0.689011 0.258216 0.542970
O O14 0.573529 0.146583 0.487509
#
# Coordination Sequence:
#
# PCOD9122516 Si02
#       8
#     4   4   4   4   2   4   4   2
#     4  10  21  42  64 100 126 161 222 282 320 395
#     4  10  24  35  58  93 135 180 211 258 327 379
#     4  10  21  39  65  98 121 164 219 281 329 384
#     4  11  22  38  57  95 137 178 216 265 324 392
#     4  10  22  40  72 102 114 162 222 294 338 390
#     4  11  22  35  58  90 134 181 211 256 299 390
#     4  10  21  36  59  90 131 176 220 262 308 374
#     4  10  20  34  54  88 132 176 218 244 310 368
#
# _framework density 22.403348000000001
#
# number of rings (size 3 to 8) (size 9 to 14) (size 15 to 20)
#    0.000    1.714    0.000    4.286    4.000    5.714 
#    0.000    0.000    0.000    0.000  167.143    0.000 
#    0.000    0.000    0.000    0.000    0.000    0.000 
#
# Total GULP energy -78156.086358 kJ/mol
# GULP energy per Si atom -5582.577597 kJ/mol
# Density = 2.235236 g / cm^3
# Si number density = 22.403348 Si / 1000 Ang^3
#
#
#
# Elastic Constant Matrix: (Units=GPa)
#
#
# Indices 1 2 3 4 5 6 
#
# 1 80.1795 34.6424 24.6107 0.0000 -13.7436 0.0000
# 2 34.6424 98.1774 22.4323 0.0000 -7.4376 0.0000
# 3 24.6107 22.4323 54.7167 0.0000 0.0678 0.0000
# 4 0.0000 0.0000 0.0000 33.9647 0.0000 -14.6225
# 5 -13.7436 -7.4376 0.0678 0.0000 14.7497 0.0000
# 6 0.0000 0.0000 0.0000 -14.6225 0.0000 50.1652
#
#
#
# Elastic Compliance Matrix: (Units=1/GPa)
#
#
# Indices 1 2 3 4 5 6 
#
# 1 0.019005 -0.003921 -0.006960 0.000000 0.015763 0.000000
# 2 -0.003921 0.012546 -0.003383 0.000000 0.002688 0.000000
# 3 -0.006960 -0.003383 0.022804 0.000000 -0.008296 0.000000
# 4 0.000000 0.000000 0.000000 0.033667 0.000000 0.009814
# 5 0.015763 0.002688 -0.008296 0.000000 0.083879 0.000000
# 6 0.000000 0.000000 0.000000 0.009814 0.000000 0.022795
#
#
# Mechanical properties :
#
#
# Convention : Reuss Voigt Hill
#
# Bulk Modulus (GPa) = 38.72136 44.04940 41.38538
# Shear Modulus (GPa) = 21.56733 29.86846 25.71790
#
# Velocity S-wave (km/s) = 3.10608 3.65528 3.39182
# Velocity P-wave (km/s) = 5.49408 6.12531 5.81826
#
# Compressibility (1/GPa) = 0.02582554
#
# Stress axis : x y z
#
# Youngs Moduli (GPa) = 52.61911 79.70697 43.85280
#
# Poissons Ratio (x) = 0.31257 0.30520
# Poissons Ratio (y) = 0.20634 0.14835
# Poissons Ratio (z) = 0.36622 0.26965
#
# Static dielectric constant tensor:
#      x y z
#    x 1.891500 0.000000 -0.002080 
#    y 0.000000 1.873980 0.000000 
#    z -0.002080 0.000000 1.860240 
# 
# From -- ./inp_files/45429.got.cif
#   From: 2010.05.17/outbox.cif.g08.bks.cpg/sg5_23_cif.got.tgz:45429.got - 2010.06.03 18:56:24.
