data_PCOD9122586
_publ_section_title
;
Structure prediction by ZEFSAII (Michael W. Deem and Ramdas Pophale) SiO2 
 PCOD9122586
Probable space group: C 2
;
_chemical_formula_sum "Si O2"
_cell_formula_units_Z 22
_cell_length_a 13.035915
_cell_length_b 16.047199
_cell_length_c 8.575607
_cell_angle_alpha 90.000000
_cell_angle_beta 31.924140
_cell_angle_gamma 90.000000
_cell_volume 948.623267
_symmetry_space_group_name_H-M "C 2"
_symmetry_group_IT_number 5
_symmetry_cell_setting 'monoclinic'
loop_
_space_group_symop_operation_xyz
x,y,z
-x,y,-z
1/2+x,1/2+y,z
1/2-x,1/2+y,-z
loop_
_atom_site_type_symbol
_atom_site_label
_atom_site_fract_x
_atom_site_fract_y
_atom_site_fract_z
Si Si1 0.053887 0.888860 0.184223
Si Si2 0.000000 0.493897 0.500000
Si Si3 0.815554 0.373552 0.534309
Si Si4 0.046344 0.701384 0.260908
Si Si5 0.119555 0.199632 0.684169
Si Si6 0.656777 0.567615 0.094337
O O1 0.827283 0.892507 0.425213
O O2 0.099242 0.799016 0.196902
O O3 0.178612 0.880871 0.863270
O O4 0.100217 0.974030 0.215841
O O5 0.981949 0.438601 0.366762
O O6 0.800968 0.544526 0.765003
O O7 0.900671 0.282142 0.395427
O O8 0.847963 0.691426 0.421558
O O9 0.000000 0.684707 0.500000
O O10 0.209387 0.636246 0.990462
O O11 0.000000 0.212099 0.000000
O O12 0.029039 0.118548 0.721206
#
# Coordination Sequence:
#
# PCOD9122586 Si02
#       6
#     4   2   4   4   4   4
#     4   9  22  40  59  87 119 152 194 241 288 341
#     4  10  20  34  60  90 108 158 196 234 284 356
#     4   9  21  37  60  84 119 151 194 236 290 340
#     4  11  22  39  61  88 118 151 196 238 290 344
#     4  11  22  36  60  89 116 151 193 243 286 338
#     4  11  22  35  61  90 113 156 195 240 280 348
#
# _framework density 23.191503999999998
#
# number of rings (size 3 to 8) (size 9 to 14) (size 15 to 20)
#    0.000    1.818    2.727    0.000   12.727    0.000 
#    0.000    1.818    0.000    0.000    0.000    0.000 
#    0.000    0.000    0.000    0.000    0.000    0.000 
#
# Total GULP energy -61292.663926 kJ/mol
# GULP energy per Si atom -5572.060357 kJ/mol
# Density = 2.313872 g / cm^3
# Si number density = 23.191504 Si / 1000 Ang^3
#
#
#
# Elastic Constant Matrix: (Units=GPa)
#
#
# Indices 1 2 3 4 5 6 
#
# 1 27.5430 33.7458 25.5907 0.0007 -14.2961 -0.0023
# 2 33.7458 217.7289 60.8804 0.0005 -21.5963 -0.0025
# 3 25.5907 60.8804 56.7179 0.0001 -19.8663 -0.0052
# 4 0.0007 0.0005 0.0001 38.8419 -0.0003 -16.4357
# 5 -14.2961 -21.5963 -19.8663 -0.0003 33.6844 0.0038
# 6 -0.0023 -0.0025 -0.0052 -16.4357 0.0038 19.2457
#
#
#
# Elastic Compliance Matrix: (Units=1/GPa)
#
#
# Indices 1 2 3 4 5 6 
#
# 1 0.068127 -0.002782 -0.023001 -0.000002 0.013565 -0.000003
# 2 -0.002782 0.006676 -0.006082 -0.000001 -0.000487 -0.000002
# 3 -0.023001 -0.006082 0.037498 0.000004 0.008455 0.000008
# 4 -0.000002 -0.000001 0.000004 0.040313 -0.000003 0.034427
# 5 0.013565 -0.000487 0.008455 -0.000003 0.040118 -0.000006
# 6 -0.000003 -0.000002 0.000008 0.034427 -0.000006 0.081361
#
#
# Mechanical properties :
#
#
# Convention : Reuss Voigt Hill
#
# Bulk Modulus (GPa) = 20.58784 60.26930 40.42857
# Shear Modulus (GPa) = 14.12377 30.47258 22.29817
#
# Velocity S-wave (km/s) = 2.47048 3.62878 3.10414
# Velocity P-wave (km/s) = 4.12726 6.60314 5.50617
#
# Compressibility (1/GPa) = 0.04857237
#
# Stress axis : x y z
#
# Youngs Moduli (GPa) = 14.67850 149.78463 26.66797
#
# Poissons Ratio (x) = 0.41672 0.61338
# Poissons Ratio (y) = 0.04084 0.16218
# Poissons Ratio (z) = 0.33762 0.91093
#
# Static dielectric constant tensor:
#      x y z
#    x 1.885730 0.000000 -0.037640 
#    y 0.000000 1.989620 0.000000 
#    z -0.037640 0.000000 1.981480 
# 
# From -- ./inp_files/27485.got.cif
#   From: 2010.05.17/outbox.cif.g08.bks.cpg/sg5_14_cif.got.tgz:27485.got - 2010.06.03 18:56:24.
