data_PCOD9122068
_publ_section_title
;
Structure prediction by ZEFSAII (Michael W. Deem and Ramdas Pophale) SiO2 
 PCOD9122068
Probable space group: C 2
;
_chemical_formula_sum "Si O2"
_cell_formula_units_Z 24
_cell_length_a 21.277984
_cell_length_b 7.544487
_cell_length_c 9.331314
_cell_angle_alpha 90.000000
_cell_angle_beta 45.296009
_cell_angle_gamma 90.000000
_cell_volume 1064.682598
_symmetry_space_group_name_H-M "C 2"
_symmetry_group_IT_number 5
_symmetry_cell_setting 'monoclinic'
loop_
_space_group_symop_operation_xyz
x,y,z
-x,y,-z
1/2+x,1/2+y,z
1/2-x,1/2+y,-z
loop_
_atom_site_type_symbol
_atom_site_label
_atom_site_fract_x
_atom_site_fract_y
_atom_site_fract_z
Si Si1 0.914547 0.642370 0.337943
Si Si2 0.570113 0.589777 0.008861
Si Si3 0.222149 0.040523 0.152182
Si Si4 0.756697 0.644939 0.782231
Si Si5 0.950742 0.007836 0.438780
Si Si6 0.393752 0.168002 0.040470
O O1 0.838581 0.566105 0.562663
O O2 0.920628 0.850967 0.377886
O O3 0.885603 0.615760 0.220029
O O4 0.017473 0.585490 0.172798
O O5 0.521268 0.623440 0.237857
O O6 0.500000 0.637108 0.000000
O O7 0.666761 0.672309 0.836586
O O8 0.589685 0.378821 0.976842
O O9 0.216184 0.835918 0.203764
O O10 0.132536 0.115118 0.366172
O O11 0.308406 0.123020 0.085819
O O12 0.228930 0.044657 0.970650
O O13 0.000000 0.928531 0.500000
#
# Coordination Sequence:
#
# PCOD9122068 Si02
#       6
#     4   4   4   4   4   4
#     4   9  21  37  63  88 117 161 198 242 302 362
#     4  11  21  41  65  89 119 162 204 245 300 364
#     4  11  24  39  62  89 124 158 202 252 296 355
#     4  11  24  40  60  93 121 158 205 247 301 354
#     4  10  19  38  62  87 120 160 201 242 298 360
#     4  10  20  41  63  89 119 154 206 245 299 361
#
# _framework density 22.541929
#
# number of rings (size 3 to 8) (size 9 to 14) (size 15 to 20)
#    0.000    1.667    5.000    1.000    9.333    0.000 
#    3.000    5.000    0.000    0.000    0.000    0.000 
#    0.000    0.000    0.000    0.000    0.000    0.000 
#
# Total GULP energy -66973.067584 kJ/mol
# GULP energy per Si atom -5581.088965 kJ/mol
# Density = 2.249062 g / cm^3
# Si number density = 22.541929 Si / 1000 Ang^3
#
#
#
# Elastic Constant Matrix: (Units=GPa)
#
#
# Indices 1 2 3 4 5 6 
#
# 1 130.3091 -5.6403 59.0661 0.0000 -6.3470 0.0000
# 2 -5.6403 18.5151 11.8324 0.0000 4.3334 0.0000
# 3 59.0661 11.8324 190.4729 0.0000 -18.8757 0.0000
# 4 0.0000 0.0000 0.0000 15.1923 0.0000 -4.2325
# 5 -6.3470 4.3334 -18.8757 0.0000 30.7970 0.0000
# 6 0.0000 0.0000 0.0000 -4.2325 0.0000 23.5578
#
#
#
# Elastic Compliance Matrix: (Units=1/GPa)
#
#
# Indices 1 2 3 4 5 6 
#
# 1 0.009354 0.005152 -0.003302 0.000000 -0.000821 0.000000
# 2 0.005152 0.062603 -0.006659 0.000000 -0.011828 0.000000
# 3 -0.003302 -0.006659 0.007147 0.000000 0.004637 0.000000
# 4 0.000000 0.000000 0.000000 0.069291 0.000000 0.012449
# 5 -0.000821 -0.011828 0.004637 0.000000 0.036808 0.000000
# 6 0.000000 0.000000 0.000000 0.012449 0.000000 0.044685
#
#
# Mechanical properties :
#
#
# Convention : Reuss Voigt Hill
#
# Bulk Modulus (GPa) = 14.39133 52.20150 33.29641
# Shear Modulus (GPa) = 19.03541 32.17868 25.60705
#
# Velocity S-wave (km/s) = 2.90909 3.78233 3.37408
# Velocity P-wave (km/s) = 4.20497 6.50250 5.47560
#
# Compressibility (1/GPa) = 0.06948628
#
# Stress axis : x y z
#
# Youngs Moduli (GPa) = 106.90843 15.97365 139.91440
#
# Poissons Ratio (x) = -0.08229 0.46200
# Poissons Ratio (y) = -0.55077 0.93165
# Poissons Ratio (z) = 0.35302 0.10636
#
# Static dielectric constant tensor:
#      x y z
#    x 1.830700 0.000000 -0.037650 
#    y 0.000000 1.884720 0.000000 
#    z -0.037650 0.000000 1.911540 
# 
# From -- ./inp_files/28872.got.cif
#   From: 2010.05.17/outbox.cif.g08.bks.cpg/sg5_15_cif.got.tgz:28872.got - 2010.06.03 18:56:24.
