data_PCOD9122894
_publ_section_title
;
Structure prediction by ZEFSAII (Michael W. Deem and Ramdas Pophale) SiO2 
 PCOD9122894
Probable space group: C 2
;
_chemical_formula_sum "Si O2"
_cell_formula_units_Z 28
_cell_length_a 13.583140
_cell_length_b 7.425833
_cell_length_c 13.277975
_cell_angle_alpha 90.000000
_cell_angle_beta 123.136016
_cell_angle_gamma 90.000000
_cell_volume 1121.494980
_symmetry_space_group_name_H-M "C 2"
_symmetry_group_IT_number 5
_symmetry_cell_setting 'monoclinic'
loop_
_space_group_symop_operation_xyz
x,y,z
-x,y,-z
1/2+x,1/2+y,z
1/2-x,1/2+y,-z
loop_
_atom_site_type_symbol
_atom_site_label
_atom_site_fract_x
_atom_site_fract_y
_atom_site_fract_z
Si Si1 0.632116 0.072780 0.332918
Si Si2 0.218767 0.916384 0.751316
Si Si3 0.297125 0.526116 0.767221
Si Si4 0.500000 0.454138 0.000000
Si Si5 0.159571 0.126124 0.921174
Si Si6 0.377801 0.021610 0.174526
Si Si7 0.000000 0.972974 0.500000
Si Si8 0.841304 0.167744 0.577556
O O1 0.706776 0.056808 0.272885
O O2 0.498913 0.128494 0.241670
O O3 0.711582 0.177857 0.456416
O O4 0.623922 0.867166 0.369302
O O5 0.179045 0.005517 0.832903
O O6 0.103586 0.871204 0.618697
O O7 0.300391 0.738326 0.804730
O O8 0.167525 0.486387 0.736791
O O9 0.328063 0.540530 0.668195
O O10 0.381709 0.392298 0.877143
O O11 0.439908 0.552488 0.060648
O O12 0.118304 0.324599 0.870387
O O13 0.281758 0.122257 0.051457
O O14 0.068773 0.089845 0.454171
#
# Coordination Sequence:
#
# PCOD9122894 Si02
#       8
#     4   4   4   2   4   4   2   4
#     4  10  23  41  62  92 125 162 201 249 303 359
#     4  10  21  38  61  87 122 162 202 248 303 359
#     4  10  22  39  60  89 121 160 201 251 304 358
#     4  10  20  38  62  82 114 156 200 244 298 354
#     4  11  22  41  64  90 120 159 204 251 303 361
#     4  11  24  40  62  91 123 161 203 249 304 361
#     4  10  20  36  62  92 120 162 206 250 298 358
#     4  10  22  40  63  90 124 161 204 249 303 358
#
# _framework density 24.966674999999999
#
# number of rings (size 3 to 8) (size 9 to 14) (size 15 to 20)
#    0.000    1.714    0.000    5.143    0.000    8.000 
#    0.000   12.857    0.000    0.857    0.000    0.000 
#    0.000    0.000    0.000    0.000    0.000    0.000 
#
# Total GULP energy -78249.485219 kJ/mol
# GULP energy per Si atom -5589.248944 kJ/mol
# Density = 2.490985 g / cm^3
# Si number density = 24.966675 Si / 1000 Ang^3
#
#
#
# Elastic Constant Matrix: (Units=GPa)
#
#
# Indices 1 2 3 4 5 6 
#
# 1 157.1917 0.7605 65.1584 0.0000 -14.7254 0.0000
# 2 0.7605 45.5467 34.6226 0.0000 -8.6218 0.0000
# 3 65.1584 34.6226 131.7868 0.0000 9.3107 0.0000
# 4 0.0000 0.0000 0.0000 26.4369 0.0000 -4.8308
# 5 -14.7254 -8.6218 9.3107 0.0000 66.0352 0.0000
# 6 0.0000 0.0000 0.0000 -4.8308 0.0000 13.5908
#
#
#
# Elastic Compliance Matrix: (Units=1/GPa)
#
#
# Indices 1 2 3 4 5 6 
#
# 1 0.009249 0.005251 -0.006209 0.000000 0.003623 0.000000
# 2 0.005251 0.031902 -0.011469 0.000000 0.006953 0.000000
# 3 -0.006209 -0.011469 0.014014 0.000000 -0.004858 0.000000
# 4 0.000000 0.000000 0.000000 0.040453 0.000000 0.014379
# 5 0.003623 0.006953 -0.004858 0.000000 0.017544 0.000000
# 6 0.000000 0.000000 0.000000 0.014379 0.000000 0.078690
#
#
# Mechanical properties :
#
#
# Convention : Reuss Voigt Hill
#
# Bulk Modulus (GPa) = 32.98963 59.51202 46.25082
# Shear Modulus (GPa) = 22.04495 36.81150 29.42823
#
# Velocity S-wave (km/s) = 2.97471 3.84399 3.43695
# Velocity P-wave (km/s) = 5.00407 6.60227 5.85793
#
# Compressibility (1/GPa) = 0.03031256
#
# Stress axis : x y z
#
# Youngs Moduli (GPa) = 108.11725 31.34616 71.35817
#
# Poissons Ratio (x) = -0.16460 0.44303
# Poissons Ratio (y) = -0.56771 0.81837
# Poissons Ratio (z) = 0.67125 0.35949
#
# Static dielectric constant tensor:
#      x y z
#    x 1.958400 0.000000 0.014290 
#    y 0.000000 1.989920 0.000000 
#    z 0.014290 0.000000 2.023420 
# 
# From -- ./inp_files/52357.got.cif
#   From: 2010.05.17/outbox.cif.g08.bks.cpg/sg5_27_cif.got.tgz:52357.got - 2010.06.03 18:56:24.
