data_PCOD9122941
_publ_section_title
;
Structure prediction by ZEFSAII (Michael W. Deem and Ramdas Pophale) SiO2 
 PCOD9122941
Probable space group: C 2
;
_chemical_formula_sum "Si O2"
_cell_formula_units_Z 24
_cell_length_a 11.624268
_cell_length_b 20.325330
_cell_length_c 8.000593
_cell_angle_alpha 90.000000
_cell_angle_beta 37.773387
_cell_angle_gamma 90.000000
_cell_volume 1157.870082
_symmetry_space_group_name_H-M "C 2"
_symmetry_group_IT_number 5
_symmetry_cell_setting 'monoclinic'
loop_
_space_group_symop_operation_xyz
x,y,z
-x,y,-z
1/2+x,1/2+y,z
1/2-x,1/2+y,-z
loop_
_atom_site_type_symbol
_atom_site_label
_atom_site_fract_x
_atom_site_fract_y
_atom_site_fract_z
Si Si1 0.888368 0.677100 0.456206
Si Si2 0.289084 0.544874 0.281305
Si Si3 0.000000 0.157986 0.500000
Si Si4 0.500000 0.872851 0.500000
Si Si5 0.202387 0.580774 0.013206
Si Si6 0.286482 0.265948 0.306289
Si Si7 0.505391 0.958897 0.174117
O O1 0.726886 0.621648 0.647964
O O2 0.811514 0.744577 0.470205
O O3 0.000000 0.688485 0.500000
O O4 0.047355 0.637743 0.167863
O O5 0.177538 0.497371 0.536971
O O6 0.500000 0.523267 0.000000
O O7 0.190147 0.551769 0.213914
O O8 0.903359 0.111275 0.746843
O O9 0.834763 0.204813 0.624967
O O10 0.667358 0.828398 0.384094
O O11 0.566155 0.914269 0.262054
O O12 0.150913 0.517784 0.964607
O O13 0.500000 0.270909 0.000000
O O14 0.500000 0.922783 0.000000
#
# Coordination Sequence:
#
# PCOD9122941 Si02
#       7
#     4   4   2   2   4   4   4
#     4   9  19  37  61 100 139 171 216 283 352 405
#     4  10  20  36  65 103 142 176 211 286 358 411
#     4  11  22  34  68 112 136 177 228 268 370 419
#     4  11  26  52  64  92 136 195 244 272 336 403
#     4  10  20  36  65 102 143 169 215 289 353 412
#     4  11  23  43  69  92 140 187 227 288 328 413
#     4  11  24  45  67  94 137 183 234 289 337 406
#
# _framework density 20.727713999999999
#
# number of rings (size 3 to 8) (size 9 to 14) (size 15 to 20)
#    0.000    1.667    3.333    2.000    7.000    0.667 
#    3.000    0.000    0.000    0.000    0.000    0.000 
#    0.000    0.000    0.000    0.000    0.000    0.000 
#
# Total GULP energy -66805.124084 kJ/mol
# GULP energy per Si atom -5567.093674 kJ/mol
# Density = 2.068054 g / cm^3
# Si number density = 20.727714 Si / 1000 Ang^3
#
#
#
# Elastic Constant Matrix: (Units=GPa)
#
#
# Indices 1 2 3 4 5 6 
#
# 1 102.3336 49.6663 28.8864 0.0000 3.8350 0.0000
# 2 49.6663 87.6199 37.8325 0.0000 2.9751 0.0000
# 3 28.8864 37.8325 97.1237 0.0000 -11.7123 0.0000
# 4 0.0000 0.0000 0.0000 11.6122 0.0000 3.4780
# 5 3.8350 2.9751 -11.7123 0.0000 41.4504 0.0000
# 6 0.0000 0.0000 0.0000 3.4780 0.0000 32.7163
#
#
#
# Elastic Compliance Matrix: (Units=1/GPa)
#
#
# Indices 1 2 3 4 5 6 
#
# 1 0.013659 -0.007079 -0.001445 0.000000 -0.001164 0.000000
# 2 -0.007079 0.017662 -0.005019 0.000000 -0.002031 0.000000
# 3 -0.001445 -0.005019 0.013190 0.000000 0.004221 0.000000
# 4 0.000000 0.000000 0.000000 0.088949 0.000000 -0.009456
# 5 -0.001164 -0.002031 0.004221 0.000000 0.025571 0.000000
# 6 0.000000 0.000000 0.000000 -0.009456 0.000000 0.031571
#
#
# Mechanical properties :
#
#
# Convention : Reuss Voigt Hill
#
# Bulk Modulus (GPa) = 57.39244 57.76086 57.57665
# Shear Modulus (GPa) = 22.37159 28.53524 25.45341
#
# Velocity S-wave (km/s) = 3.28885 3.71438 3.50807
# Velocity P-wave (km/s) = 6.49391 6.80606 6.65182
#
# Compressibility (1/GPa) = 0.01742390
#
# Stress axis : x y z
#
# Youngs Moduli (GPa) = 73.21027 56.61956 75.81375
#
# Poissons Ratio (x) = 0.40081 0.10958
# Poissons Ratio (y) = 0.51825 0.38053
# Poissons Ratio (z) = 0.10582 0.28419
#
# Static dielectric constant tensor:
#      x y z
#    x 1.839310 0.000000 0.030760 
#    y 0.000000 1.771710 0.000000 
#    z 0.030760 0.000000 1.783980 
# 
# From -- ./inp_files/21731.got.cif
#   From: 2010.05.17/outbox.cif.g08.bks.cpg/sg5_11_cif.got.tgz:21731.got - 2010.06.03 18:56:24.
