data_PCOD9122078
_publ_section_title
;
Structure prediction by ZEFSAII (Michael W. Deem and Ramdas Pophale) SiO2 
 PCOD9122078
Probable space group: C 2
;
_chemical_formula_sum "Si O2"
_cell_formula_units_Z 28
_cell_length_a 20.983980
_cell_length_b 8.989249
_cell_length_c 23.447507
_cell_angle_alpha 90.000000
_cell_angle_beta 19.921038
_cell_angle_gamma 90.000000
_cell_volume 1506.994523
_symmetry_space_group_name_H-M "C 2"
_symmetry_group_IT_number 5
_symmetry_cell_setting 'monoclinic'
loop_
_space_group_symop_operation_xyz
x,y,z
-x,y,-z
1/2+x,1/2+y,z
1/2-x,1/2+y,-z
loop_
_atom_site_type_symbol
_atom_site_label
_atom_site_fract_x
_atom_site_fract_y
_atom_site_fract_z
Si Si1 0.164236 0.621220 0.655131
Si Si2 0.235544 0.543537 0.175927
Si Si3 0.374343 0.551491 0.366591
Si Si4 0.958965 0.299314 0.206931
Si Si5 0.121928 0.775412 0.175267
Si Si6 0.844050 0.073830 0.209726
Si Si7 0.876867 0.385161 0.516296
O O1 0.259040 0.625740 0.513521
O O2 0.139166 0.452094 0.694368
O O3 0.298012 0.718053 0.582757
O O4 0.964979 0.697588 0.808244
O O5 0.137252 0.656042 0.213977
O O6 0.279583 0.615501 0.200517
O O7 0.090215 0.413074 0.316376
O O8 0.442435 0.507362 0.975794
O O9 0.467941 0.682502 0.251526
O O10 0.502622 0.423656 0.285767
O O11 0.242126 0.466790 0.433163
O O12 0.860679 0.214251 0.237435
O O13 0.169762 0.329202 0.011601
O O14 0.696584 0.963748 0.364162
#
# Coordination Sequence:
#
# PCOD9122078 Si02
#       7
#     4   4   4   4   4   4   4
#     4  11  21  35  55  83 121 145 191 233 289 353
#     4  10  19  38  63  83 112 149 200 235 286 341
#     4  10  20  34  53  83 117 146 185 229 289 347
#     4  10  20  36  56  83 119 147 188 241 284 340
#     4  10  20  34  57  87 111 153 187 232 291 341
#     4   9  21  37  63  84 107 151 199 241 278 341
#     4  10  20  36  57  81 114 151 186 237 285 339
#
# _framework density 18.580027999999999
#
# number of rings (size 3 to 8) (size 9 to 14) (size 15 to 20)
#    0.000    2.000    1.429    3.000    2.000    1.143 
#    2.571    0.000    6.286    1.714    0.000    0.000 
#    0.000    0.000    0.000    0.000    0.000    0.000 
#
# Total GULP energy -77995.793831 kJ/mol
# GULP energy per Si atom -5571.128131 kJ/mol
# Density = 1.853774 g / cm^3
# Si number density = 18.580028 Si / 1000 Ang^3
#
#
#
# Elastic Constant Matrix: (Units=GPa)
#
#
# Indices 1 2 3 4 5 6 
#
# 1 56.6151 14.0858 25.5041 0.0017 0.3178 -0.0002
# 2 14.0858 75.2800 29.0040 0.0022 -6.3736 0.0015
# 3 25.5041 29.0040 67.2012 -0.0029 -0.5517 0.0005
# 4 0.0017 0.0022 -0.0029 26.2836 0.0003 -7.8114
# 5 0.3178 -6.3736 -0.5517 0.0003 25.5663 -0.0007
# 6 -0.0002 0.0015 0.0005 -7.8114 -0.0007 5.7014
#
#
#
# Elastic Compliance Matrix: (Units=1/GPa)
#
#
# Indices 1 2 3 4 5 6 
#
# 1 0.021387 -0.001118 -0.007640 -0.000003 -0.000710 -0.000002
# 2 -0.001118 0.016375 -0.006610 -0.000005 0.003953 -0.000010
# 3 -0.007640 -0.006610 0.020624 0.000005 -0.001108 0.000007
# 4 -0.000003 -0.000005 0.000005 0.064180 0.000001 0.087933
# 5 -0.000710 0.003953 -0.001108 0.000001 0.040085 0.000005
# 6 -0.000002 -0.000010 0.000007 0.087933 0.000005 0.295874
#
#
# Mechanical properties :
#
#
# Convention : Reuss Voigt Hill
#
# Bulk Modulus (GPa) = 36.16839 37.36490 36.76665
# Shear Modulus (GPa) = 10.03053 20.21040 15.12047
#
# Velocity S-wave (km/s) = 2.32600 3.30168 2.85582
# Velocity P-wave (km/s) = 5.16936 5.88971 5.54125
#
# Compressibility (1/GPa) = 0.02764845
#
# Stress axis : x y z
#
# Youngs Moduli (GPa) = 46.75733 61.07036 48.48692
#
# Poissons Ratio (x) = 0.06830 0.37044
# Poissons Ratio (y) = 0.05229 0.32052
# Poissons Ratio (z) = 0.35722 0.40370
#
# Static dielectric constant tensor:
#      x y z
#    x 1.647170 0.000000 -0.019710 
#    y 0.000000 1.633480 0.000000 
#    z -0.019710 0.000000 1.668790 
# 
# From -- ./inp_files/32467.got.cif
#   From: 2010.05.17/outbox.cif.g08.bks.cpg/sg5_17_cif.got.tgz:32467.got - 2010.06.03 18:56:24.
