data_PCOD9122125
_publ_section_title
;
Structure prediction by ZEFSAII (Michael W. Deem and Ramdas Pophale) SiO2 
 PCOD9122125
Probable space group: C 2
;
_chemical_formula_sum "Si O2"
_cell_formula_units_Z 24
_cell_length_a 7.715829
_cell_length_b 19.767883
_cell_length_c 8.798005
_cell_angle_alpha 90.000000
_cell_angle_beta 129.826791
_cell_angle_gamma 90.000000
_cell_volume 1030.574058
_symmetry_space_group_name_H-M "C 2"
_symmetry_group_IT_number 5
_symmetry_cell_setting 'monoclinic'
loop_
_space_group_symop_operation_xyz
x,y,z
-x,y,-z
1/2+x,1/2+y,z
1/2-x,1/2+y,-z
loop_
_atom_site_type_symbol
_atom_site_label
_atom_site_fract_x
_atom_site_fract_y
_atom_site_fract_z
Si Si1 0.795834 0.786200 0.767468
Si Si2 0.035605 0.468928 0.185919
Si Si3 0.500000 0.899734 0.500000
Si Si4 0.313742 0.162393 0.541501
Si Si5 0.500000 0.552379 0.500000
Si Si6 0.344569 0.105076 0.062475
Si Si7 0.985127 0.224096 0.833368
O O1 0.724057 0.852864 0.638118
O O2 0.823695 0.721648 0.674087
O O3 0.584291 0.767619 0.754156
O O4 0.000000 0.794158 0.000000
O O5 0.284127 0.506966 0.328910
O O6 0.014024 0.436265 0.342153
O O7 0.832603 0.524545 0.058808
O O8 0.000000 0.432179 0.000000
O O9 0.108511 0.107688 0.444822
O O10 0.522500 0.117398 0.706343
O O11 0.259416 0.201436 0.357339
O O12 0.500000 0.119534 0.000000
O O13 0.143690 0.158112 0.944521
O O14 0.000000 0.261735 0.000000
#
# Coordination Sequence:
#
# PCOD9122125 Si02
#       7
#     4   4   2   4   2   4   4
#     4  12  23  44  67  86 124 180 223 254 322 398
#     4  10  24  43  67  96 133 176 222 263 324 392
#     4  12  27  46  66  92 135 186 224 266 308 396
#     4  11  17  37  68  92 123 163 208 255 336 389
#     4  10  19  38  74  98 127 172 212 274 334 394
#     4  10  19  38  65  95 130 166 201 263 335 395
#     4  12  22  33  60 102 130 154 206 280 332 374
#
# _framework density 23.287991000000002
#
# number of rings (size 3 to 8) (size 9 to 14) (size 15 to 20)
#    0.000    1.000    6.667    2.000    0.000    5.333 
#    0.000    0.833    0.000    0.000    0.000    0.000 
#    0.000    0.000    0.000    0.000    0.000    0.000 
#
# Total GULP energy -66814.735690 kJ/mol
# GULP energy per Si atom -5567.894641 kJ/mol
# Density = 2.323499 g / cm^3
# Si number density = 23.287991 Si / 1000 Ang^3
#
#
#
# Elastic Constant Matrix: (Units=GPa)
#
#
# Indices 1 2 3 4 5 6 
#
# 1 43.4891 20.9954 19.3174 0.0000 -14.8240 0.0000
# 2 20.9954 85.4523 35.1809 0.0000 -10.4892 0.0000
# 3 19.3174 35.1809 140.9561 0.0000 -14.9687 0.0000
# 4 0.0000 0.0000 0.0000 28.3725 0.0000 -16.1167
# 5 -14.8240 -10.4892 -14.9687 0.0000 45.9326 0.0000
# 6 0.0000 0.0000 0.0000 -16.1167 0.0000 -13.3444
#
#
#
# Elastic Compliance Matrix: (Units=1/GPa)
#
#
# Indices 1 2 3 4 5 6 
#
# 1 0.028997 -0.005455 -0.001814 0.000000 0.007522 0.000000
# 2 -0.005455 0.014246 -0.002745 0.000000 0.000598 0.000000
# 3 -0.001814 -0.002745 0.008182 0.000000 0.001454 0.000000
# 4 0.000000 0.000000 0.000000 0.020904 0.000000 -0.025247
# 5 0.007522 0.000598 0.001454 0.000000 0.024809 0.000000
# 6 0.000000 0.000000 0.000000 -0.025247 0.000000 -0.044446
#
#
# Mechanical properties :
#
#
# Convention : Reuss Voigt Hill
#
# Bulk Modulus (GPa) = 31.84730 46.76501 39.30615
# Shear Modulus (GPa) = 60.10680 25.15239 42.62959
#
# Velocity S-wave (km/s) = 5.08589 3.28999 4.28312
# Velocity P-wave (km/s) = 6.94215 5.87850 6.43235
#
# Compressibility (1/GPa) = 0.03139984
#
# Stress axis : x y z
#
# Youngs Moduli (GPa) = 34.48619 70.19522 122.21304
#
# Poissons Ratio (x) = 0.38288 0.22167
# Poissons Ratio (y) = 0.18810 0.33542
# Poissons Ratio (z) = 0.06255 0.19265
#
# Static dielectric constant tensor:
#      x y z
#    x 2.620540 0.000000 -0.320230 
#    y 0.000000 1.914960 0.000000 
#    z -0.320230 0.000000 2.137330 
# 
# From -- ./inp_files/16882.got.cif
#   From: 2010.05.17/outbox.cif.g08.bks.cpg/sg5_9_cif.got.tgz:16882.got - 2010.06.03 18:56:24.
