data_PCOD9122885
_publ_section_title
;
Structure prediction by ZEFSAII (Michael W. Deem and Ramdas Pophale) SiO2 
 PCOD9122885
Probable space group: C 2
;
_chemical_formula_sum "Si O2"
_cell_formula_units_Z 22
_cell_length_a 5.297457
_cell_length_b 26.654059
_cell_length_c 7.496056
_cell_angle_alpha 90.000000
_cell_angle_beta 79.205914
_cell_angle_gamma 90.000000
_cell_volume 1039.706295
_symmetry_space_group_name_H-M "C 2"
_symmetry_group_IT_number 5
_symmetry_cell_setting 'monoclinic'
loop_
_space_group_symop_operation_xyz
x,y,z
-x,y,-z
1/2+x,1/2+y,z
1/2-x,1/2+y,-z
loop_
_atom_site_type_symbol
_atom_site_label
_atom_site_fract_x
_atom_site_fract_y
_atom_site_fract_z
Si Si1 0.220728 0.767720 0.620801
Si Si2 0.729994 0.462921 0.826067
Si Si3 0.209971 0.354922 0.108776
Si Si4 0.214391 0.658949 0.627493
Si Si5 0.419625 0.052987 0.301319
Si Si6 0.500000 0.485324 0.500000
O O1 0.500000 0.761493 0.500000
O O2 0.247970 0.816528 0.736948
O O3 0.187010 0.713504 0.722207
O O4 0.000000 0.773714 0.500000
O O5 0.885686 0.411540 0.838501
O O6 0.656578 0.455519 0.626602
O O7 0.879672 0.515805 0.817912
O O8 0.500000 0.465094 0.000000
O O9 0.500000 0.360850 0.000000
O O10 0.000000 0.333124 0.000000
O O11 0.500000 0.651803 0.500000
O O12 0.141680 0.609399 0.749946
O O13 0.000000 0.661536 0.500000
O O14 0.500000 0.056806 0.500000
O O15 0.161922 0.021092 0.349225
#
# Coordination Sequence:
#
# PCOD9122885 Si02
#       6
#     4   4   4   4   4   2
#     4  10  21  38  67  97 121 160 218 267 310 384
#     4  10  24  38  61  91 129 173 215 264 323 386
#     4  11  25  43  63  87 130 173 205 265 330 377
#     4   9  17  33  60  93 124 158 204 263 320 371
#     4   9  18  34  58  89 123 162 210 255 320 383
#     4  10  20  36  62  88 120 170 206 262 312 388
#
# _framework density 21.159825000000001
#
# number of rings (size 3 to 8) (size 9 to 14) (size 15 to 20)
#    0.000    2.182    0.909    1.091    6.364    2.182 
#    0.000    0.000    4.000    0.000    0.000    0.000 
#    0.000    0.000    0.000    0.000    0.000    0.000 
#
# Total GULP energy -61236.102734 kJ/mol
# GULP energy per Si atom -5566.918430 kJ/mol
# Density = 2.111166 g / cm^3
# Si number density = 21.159825 Si / 1000 Ang^3
#
#
#
# Elastic Constant Matrix: (Units=GPa)
#
#
# Indices 1 2 3 4 5 6 
#
# 1 113.1036 26.5001 20.1272 0.0000 10.8232 0.0000
# 2 26.5001 181.3396 52.9032 0.0000 3.6127 0.0000
# 3 20.1272 52.9032 50.3518 0.0000 4.7304 0.0000
# 4 0.0000 0.0000 0.0000 -368.7745 0.0000 178.0462
# 5 10.8232 3.6127 4.7304 0.0000 35.2965 0.0000
# 6 0.0000 0.0000 0.0000 178.0462 0.0000 59.5177
#
#
#
# Elastic Compliance Matrix: (Units=1/GPa)
#
#
# Indices 1 2 3 4 5 6 
#
# 1 0.009755 -0.000442 -0.003198 0.000000 -0.002517 0.000000
# 2 -0.000442 0.007975 -0.008242 0.000000 0.000424 0.000000
# 3 -0.003198 -0.008242 0.030005 0.000000 -0.002197 0.000000
# 4 0.000000 0.000000 0.000000 -0.001109 0.000000 0.003319
# 5 -0.002517 0.000424 -0.002197 0.000000 0.029354 0.000000
# 6 0.000000 0.000000 0.000000 0.003319 0.000000 0.006874
#
#
# Mechanical properties :
#
#
# Convention : Reuss Voigt Hill
#
# Bulk Modulus (GPa) = 41.71936 60.42846 51.07391
# Shear Modulus (GPa) = 43.62610 -38.44111 2.59250
#
# Velocity S-wave (km/s) = 4.54557 -4.26690 1.10809
# Velocity P-wave (km/s) = 6.87813 2.08442 5.08200
#
# Compressibility (1/GPa) = 0.02396969
#
# Stress axis : x y z
#
# Youngs Moduli (GPa) = 102.51024 125.38662 33.32759
#
# Poissons Ratio (x) = 0.05547 0.10659
# Poissons Ratio (y) = 0.04535 0.27470
# Poissons Ratio (z) = 0.32784 1.03349
#
# Static dielectric constant tensor:
#      x y z
#    x 6.212930 0.000000 0.501020 
#    y 0.000000 1.851420 0.000000 
#    z 0.501020 0.000000 1.793630 
# 
# From -- ./inp_files/12786.got.cif
#   From: 2010.05.17/outbox.cif.g08.bks.cpg/sg5_7_cif.got.tgz:12786.got - 2010.06.03 18:56:24.
