data_PCOD9122183
_publ_section_title
;
Structure prediction by ZEFSAII (Michael W. Deem and Ramdas Pophale) SiO2 
 PCOD9122183
Probable space group: C 2
;
_chemical_formula_sum "Si O2"
_cell_formula_units_Z 32
_cell_length_a 14.170127
_cell_length_b 11.931572
_cell_length_c 9.282477
_cell_angle_alpha 90.000000
_cell_angle_beta 84.610017
_cell_angle_gamma 90.000000
_cell_volume 1562.466654
_symmetry_space_group_name_H-M "C 2"
_symmetry_group_IT_number 5
_symmetry_cell_setting 'monoclinic'
loop_
_space_group_symop_operation_xyz
x,y,z
-x,y,-z
1/2+x,1/2+y,z
1/2-x,1/2+y,-z
loop_
_atom_site_type_symbol
_atom_site_label
_atom_site_fract_x
_atom_site_fract_y
_atom_site_fract_z
Si Si1 0.904134 0.773640 0.603897
Si Si2 0.275266 0.063647 0.540827
Si Si3 0.788025 0.468802 0.849366
Si Si4 0.957077 0.640440 0.856998
Si Si5 0.361236 0.993867 0.243063
Si Si6 0.181990 0.070537 0.093637
Si Si7 0.613043 0.795781 0.984610
Si Si8 0.097703 0.031568 0.400094
O O1 0.831887 0.677374 0.567022
O O2 0.934277 0.744442 0.760870
O O3 0.000000 0.761778 0.500000
O O4 0.871031 0.900735 0.596954
O O5 0.261840 0.992944 0.689003
O O6 0.334096 0.992687 0.414293
O O7 0.176746 0.095446 0.480415
O O8 0.861318 0.568338 0.882115
O O9 0.700668 0.472516 0.974066
O O10 0.848988 0.359923 0.878412
O O11 0.037794 0.555933 0.784742
O O12 0.000000 0.678013 0.000000
O O13 0.278187 0.066731 0.176863
O O14 0.362795 0.876433 0.155209
O O15 0.101946 0.061879 0.229664
O O16 0.162673 0.176385 0.993830
O O17 0.500000 0.784239 0.000000
O O18 0.000000 0.042821 0.500000
#
# Coordination Sequence:
#
# PCOD9122183 Si02
#       8
#     4   4   4   4   4   4   4   4
#     4  10  21  38  68  95 124 170 208 258 329 378
#     4  10  22  37  66  95 129 161 214 268 320 379
#     4  10  21  37  62  96 121 159 215 265 316 381
#     4  11  17  35  63  94 125 157 209 266 308 373
#     4  10  19  39  62  91 127 161 209 270 306 380
#     4  10  23  40  62  88 126 167 213 262 316 380
#     4  11  21  40  63  88 128 172 208 263 325 372
#     4  10  24  47  62  89 134 172 216 264 316 391
#
# _framework density 20.480437999999999
#
# number of rings (size 3 to 8) (size 9 to 14) (size 15 to 20)
#    0.000    1.750    5.000    0.000    0.000    9.000 
#    0.000    1.875    0.000    0.750    0.000    0.000 
#    0.000    0.000    0.000    0.000    0.000    0.000 
#
# Total GULP energy -89197.004305 kJ/mol
# GULP energy per Si atom -5574.812769 kJ/mol
# Density = 2.043382 g / cm^3
# Si number density = 20.480438 Si / 1000 Ang^3
#
#
#
# Elastic Constant Matrix: (Units=GPa)
#
#
# Indices 1 2 3 4 5 6 
#
# 1 61.9193 24.3636 37.4731 0.0000 -9.7201 0.0000
# 2 24.3636 43.1893 4.5106 0.0000 8.6053 0.0000
# 3 37.4731 4.5106 123.9889 0.0000 -5.9133 0.0000
# 4 0.0000 0.0000 0.0000 10.0119 0.0000 -35.8164
# 5 -9.7201 8.6053 -5.9133 0.0000 25.9400 0.0000
# 6 0.0000 0.0000 0.0000 -35.8164 0.0000 -90.7065
#
#
#
# Elastic Compliance Matrix: (Units=1/GPa)
#
#
# Indices 1 2 3 4 5 6 
#
# 1 0.031655 -0.020363 -0.008026 0.000000 0.016787 0.000000
# 2 -0.020363 0.038104 0.003843 0.000000 -0.019395 0.000000
# 3 -0.008026 0.003843 0.010258 0.000000 -0.001944 0.000000
# 4 0.000000 0.000000 0.000000 0.041400 0.000000 -0.016347
# 5 0.016787 -0.019395 -0.001944 0.000000 0.050832 0.000000
# 6 0.000000 0.000000 0.000000 -0.016347 0.000000 -0.004570
#
#
# Mechanical properties :
#
#
# Convention : Reuss Voigt Hill
#
# Bulk Modulus (GPa) = 32.33565 40.19913 36.26739
# Shear Modulus (GPa) = 22.01871 -0.10089 10.95891
#
# Velocity S-wave (km/s) = 3.28244 -0.22219 2.31571
# Velocity P-wave (km/s) = 5.49443 4.42774 4.98967
#
# Compressibility (1/GPa) = 0.03092562
#
# Stress axis : x y z
#
# Youngs Moduli (GPa) = 31.59080 26.24391 97.48217
#
# Poissons Ratio (x) = 0.53442 0.78235
# Poissons Ratio (y) = 0.64330 -0.37465
# Poissons Ratio (z) = 0.25353 -0.10086
#
# Static dielectric constant tensor:
#      x y z
#    x 2.348110 0.000000 -0.647710 
#    y 0.000000 1.714700 0.000000 
#    z -0.647710 0.000000 2.365030 
# 
# From -- ./inp_files/23882.got.cif
#   From: 2010.05.17/outbox.cif.g08.bks.cpg/sg5_12_cif.got.tgz:23882.got - 2010.06.03 18:56:24.
