data_PCOD9122041
_publ_section_title
;
Structure prediction by ZEFSAII (Michael W. Deem and Ramdas Pophale) SiO2 
 PCOD9122041
Probable space group: C 2
;
_chemical_formula_sum "Si O2"
_cell_formula_units_Z 28
_cell_length_a 8.898047
_cell_length_b 11.356441
_cell_length_c 13.060435
_cell_angle_alpha 90.000000
_cell_angle_beta 118.208448
_cell_angle_gamma 90.000000
_cell_volume 1163.016072
_symmetry_space_group_name_H-M "C 2"
_symmetry_group_IT_number 5
_symmetry_cell_setting 'monoclinic'
loop_
_space_group_symop_operation_xyz
x,y,z
-x,y,-z
1/2+x,1/2+y,z
1/2-x,1/2+y,-z
loop_
_atom_site_type_symbol
_atom_site_label
_atom_site_fract_x
_atom_site_fract_y
_atom_site_fract_z
Si Si1 0.980014 0.498240 0.241204
Si Si2 0.299677 0.642299 0.954216
Si Si3 0.973222 0.129110 0.388440
Si Si4 0.780695 0.363400 0.333494
Si Si5 0.163053 0.584881 0.500931
Si Si6 0.514202 0.310188 0.895350
Si Si7 0.296930 0.066345 0.856392
O O1 0.816542 0.582352 0.170302
O O2 0.896546 0.388525 0.270354
O O3 0.107826 0.555725 0.366341
O O4 0.078702 0.478818 0.166130
O O5 0.206837 0.769022 0.939056
O O6 0.500000 0.650706 0.000000
O O7 0.256711 0.566227 0.043079
O O8 0.166349 0.156136 0.420316
O O9 0.000000 0.051683 0.500000
O O10 0.855165 0.237351 0.387077
O O11 0.873421 0.072122 0.264212
O O12 0.811532 0.461216 0.429325
O O13 0.586488 0.365157 0.231597
O O14 0.000000 0.644767 0.500000
O O15 0.402633 0.189346 0.875968
O O16 0.500000 0.375417 0.000000
#
# Coordination Sequence:
#
# PCOD9122041 Si02
#       7
#     4   4   4   4   4   4   4
#     4  10  19  38  59  93 129 165 215 273 318 394
#     4  10  21  36  66  99 125 169 224 270 329 395
#     4  11  20  39  69  89 127 182 210 263 344 384
#     4  10  22  38  67  98 133 171 223 269 331 397
#     4  10  22  38  63  97 131 165 223 265 320 402
#     4   8  17  38  62  88 127 171 216 267 328 396
#     4   9  19  36  64  91 121 170 223 263 333 397
#
# _framework density 24.075332
#
# number of rings (size 3 to 8) (size 9 to 14) (size 15 to 20)
#    0.000    2.286    1.429    2.571    4.000    0.571 
#    0.000    0.000   18.857    0.000    0.000    0.000 
#    0.000    0.000    0.000    0.000    0.000    0.000 
#
# Total GULP energy -78118.068767 kJ/mol
# GULP energy per Si atom -5579.862055 kJ/mol
# Density = 2.402054 g / cm^3
# Si number density = 24.075332 Si / 1000 Ang^3
#
#
#
# Elastic Constant Matrix: (Units=GPa)
#
#
# Indices 1 2 3 4 5 6 
#
# 1 169.3377 29.4108 68.5806 0.0000 26.9598 0.0000
# 2 29.4108 43.1787 17.3316 0.0000 1.9961 0.0000
# 3 68.5806 17.3316 174.4459 0.0000 34.8753 0.0000
# 4 0.0000 0.0000 0.0000 18.8839 0.0000 -3.9676
# 5 26.9598 1.9961 34.8753 0.0000 47.7867 0.0000
# 6 0.0000 0.0000 0.0000 -3.9676 0.0000 28.8999
#
#
#
# Elastic Compliance Matrix: (Units=1/GPa)
#
#
# Indices 1 2 3 4 5 6 
#
# 1 0.007986 -0.004451 -0.002147 0.000000 -0.002753 0.000000
# 2 -0.004451 0.026633 -0.001377 0.000000 0.002403 0.000000
# 3 -0.002147 -0.001377 0.007563 0.000000 -0.004251 0.000000
# 4 0.000000 0.000000 0.000000 0.054528 0.000000 0.007486
# 5 -0.002753 0.002403 -0.004251 0.000000 0.025481 0.000000
# 6 0.000000 0.000000 0.000000 0.007486 0.000000 0.035630
#
#
# Mechanical properties :
#
#
# Convention : Reuss Voigt Hill
#
# Bulk Modulus (GPa) = 38.12011 68.62315 53.37163
# Shear Modulus (GPa) = 27.39508 37.22337 32.30923
#
# Velocity S-wave (km/s) = 3.37692 3.93634 3.66731
# Velocity P-wave (km/s) = 5.57430 7.01606 6.33632
#
# Compressibility (1/GPa) = 0.02623287
#
# Stress axis : x y z
#
# Youngs Moduli (GPa) = 125.21653 37.54795 132.21979
#
# Poissons Ratio (x) = 0.16711 0.28390
# Poissons Ratio (y) = 0.55729 0.18204
# Poissons Ratio (z) = 0.26886 0.05170
#
# Static dielectric constant tensor:
#      x y z
#    x 2.021460 0.000000 -0.042200 
#    y 0.000000 1.994690 0.000000 
#    z -0.042200 0.000000 1.963370 
# 
# From -- ./inp_files/36489.got.cif
#   From: 2010.05.17/outbox.cif.g08.bks.cpg/sg5_19_cif.got.tgz:36489.got - 2010.06.03 18:56:24.
