data_PCOD9122270
_publ_section_title
;
Structure prediction by ZEFSAII (Michael W. Deem and Ramdas Pophale) SiO2 
 PCOD9122270
Probable space group: C 2
;
_chemical_formula_sum "Si O2"
_cell_formula_units_Z 28
_cell_length_a 16.955740
_cell_length_b 9.796629
_cell_length_c 9.740114
_cell_angle_alpha 90.000000
_cell_angle_beta 47.234310
_cell_angle_gamma 90.000000
_cell_volume 1187.775396
_symmetry_space_group_name_H-M "C 2"
_symmetry_group_IT_number 5
_symmetry_cell_setting 'monoclinic'
loop_
_space_group_symop_operation_xyz
x,y,z
-x,y,-z
1/2+x,1/2+y,z
1/2-x,1/2+y,-z
loop_
_atom_site_type_symbol
_atom_site_label
_atom_site_fract_x
_atom_site_fract_y
_atom_site_fract_z
Si Si1 0.292331 0.467200 0.576165
Si Si2 0.193605 0.655599 0.464287
Si Si3 0.970128 0.550302 0.692368
Si Si4 0.476659 0.770622 0.299952
Si Si5 0.334361 0.700804 0.711740
Si Si6 0.243083 0.985378 0.877672
Si Si7 0.999457 0.009493 0.848280
O O1 0.220951 0.569633 0.568169
O O2 0.260088 0.308120 0.611513
O O3 0.301565 0.546246 0.711275
O O4 0.409283 0.461369 0.363880
O O5 0.241134 0.558887 0.288175
O O6 0.062394 0.661679 0.607117
O O7 0.997432 0.425623 0.759760
O O8 0.840994 0.558991 0.844961
O O9 0.000000 0.502728 0.500000
O O10 0.372333 0.757896 0.517803
O O11 0.568106 0.714261 0.296508
O O12 0.472631 0.670244 0.178566
O O13 0.258200 0.822128 0.852757
O O14 0.120874 0.000607 0.064408
O O15 0.000000 0.947152 0.000000
#
# Coordination Sequence:
#
# PCOD9122270 Si02
#       7
#     4   4   4   4   4   4   4
#     4  11  24  37  65  91 122 160 207 269 303 367
#     4  11  21  38  62  92 117 161 216 256 301 364
#     4   9  17  36  64  87 116 162 205 253 299 361
#     4   9  16  35  63  87 114 160 207 242 289 374
#     4   9  17  38  64  87 113 161 211 247 300 364
#     4  10  19  40  65  86 123 164 201 250 317 371
#     4  11  23  37  59  92 128 162 194 249 321 368
#
# _framework density 23.573481999999998
#
# number of rings (size 3 to 8) (size 9 to 14) (size 15 to 20)
#    0.000    2.000    5.714    0.857    2.000    0.000 
#   20.571    0.000    0.000    0.857    0.000    0.000 
#    0.000    0.000    0.000    0.000    0.000    0.000 
#
# Total GULP energy -77988.737720 kJ/mol
# GULP energy per Si atom -5570.624123 kJ/mol
# Density = 2.351983 g / cm^3
# Si number density = 23.573482 Si / 1000 Ang^3
#
#
#
# Elastic Constant Matrix: (Units=GPa)
#
#
# Indices 1 2 3 4 5 6 
#
# 1 71.2543 32.7184 24.5496 0.0000 -23.4943 0.0000
# 2 32.7184 142.7161 2.6042 0.0000 -0.9780 0.0000
# 3 24.5496 2.6042 75.6397 0.0000 -19.6671 0.0000
# 4 0.0000 0.0000 0.0000 -48.4588 0.0000 35.7418
# 5 -23.4943 -0.9780 -19.6671 0.0000 34.9951 0.0000
# 6 0.0000 0.0000 0.0000 35.7418 0.0000 9.8539
#
#
#
# Elastic Compliance Matrix: (Units=1/GPa)
#
#
# Indices 1 2 3 4 5 6 
#
# 1 0.021532 -0.004786 -0.003630 0.000000 0.012282 0.000000
# 2 -0.004786 0.008075 0.000584 0.000000 -0.002659 0.000000
# 3 -0.003630 0.000584 0.016102 0.000000 0.006628 0.000000
# 4 0.000000 0.000000 0.000000 -0.005615 0.000000 0.020366
# 5 0.012282 -0.002659 0.006628 0.000000 0.040472 0.000000
# 6 0.000000 0.000000 0.000000 0.020366 0.000000 0.027612
#
#
# Mechanical properties :
#
#
# Convention : Reuss Voigt Hill
#
# Bulk Modulus (GPa) = 33.28354 45.48382 39.38368
# Shear Modulus (GPa) = 37.35282 14.59388 25.97335
#
# Velocity S-wave (km/s) = 3.98493 2.49083 3.32294
# Velocity P-wave (km/s) = 5.94328 5.25440 5.60943
#
# Compressibility (1/GPa) = 0.03004488
#
# Stress axis : x y z
#
# Youngs Moduli (GPa) = 46.44190 123.83524 62.10337
#
# Poissons Ratio (x) = 0.59267 0.22545
# Poissons Ratio (y) = 0.22227 -0.03626
# Poissons Ratio (z) = 0.16860 -0.07230
#
# Static dielectric constant tensor:
#      x y z
#    x 2.122430 0.000000 -0.237820 
#    y 0.000000 1.963900 0.000000 
#    z -0.237820 0.000000 2.169740 
# 
# From -- ./inp_files/46096.got.cif
#   From: 2010.05.17/outbox.cif.g08.bks.cpg/sg5_24_cif.got.tgz:46096.got - 2010.06.03 18:56:24.
