data_PCOD9122496
_publ_section_title
;
Structure prediction by ZEFSAII (Michael W. Deem and Ramdas Pophale) SiO2 
 PCOD9122496
Probable space group: C 2
;
_chemical_formula_sum "Si O2"
_cell_formula_units_Z 24
_cell_length_a 35.932055
_cell_length_b 4.704106
_cell_length_c 6.683860
_cell_angle_alpha 90.000000
_cell_angle_beta 46.575600
_cell_angle_gamma 90.000000
_cell_volume 820.524932
_symmetry_space_group_name_H-M "C 2"
_symmetry_group_IT_number 5
_symmetry_cell_setting 'monoclinic'
loop_
_space_group_symop_operation_xyz
x,y,z
-x,y,-z
1/2+x,1/2+y,z
1/2-x,1/2+y,-z
loop_
_atom_site_type_symbol
_atom_site_label
_atom_site_fract_x
_atom_site_fract_y
_atom_site_fract_z
Si Si1 0.811063 0.830080 0.161391
Si Si2 0.957769 0.149224 0.034361
Si Si3 0.854465 0.334991 0.769712
Si Si4 0.727715 0.686137 0.199441
Si Si5 0.399906 0.197128 0.092665
Si Si6 0.044824 0.068680 0.455935
O O1 0.842241 0.652755 0.876537
O O2 0.839857 0.737244 0.257025
O O3 0.823802 0.149878 0.049956
O O4 0.752530 0.749488 0.323092
O O5 0.922537 0.385445 0.047937
O O6 0.005421 0.953084 0.764392
O O7 0.916195 0.898157 0.215750
O O8 0.000000 0.331296 0.000000
O O9 0.829464 0.271239 0.648247
O O10 0.912927 0.254781 0.589012
O O11 0.739634 0.370353 0.083431
O O12 0.427698 0.350883 0.796303
O O13 0.000000 0.237394 0.500000
#
# Coordination Sequence:
#
# PCOD9122496 Si02
#       6
#     4   4   4   4   4   4
#     4   9  15  26  43  66  92 120 155 198 242 286
#     4  11  23  37  51  74 105 136 166 205 253 300
#     4   9  16  25  40  66  95 122 154 196 244 285
#     4   8  14  23  37  60  93 121 145 190 247 286
#     4  10  20  34  52  74  98 131 172 208 245 295
#     4   9  19  31  50  72  96 128 167 203 238 286
#
# _framework density 29.249565
#
# number of rings (size 3 to 8) (size 9 to 14) (size 15 to 20)
#    0.000    2.667    0.000    3.500    0.000   12.667 
#    0.000    0.000    0.000    0.000    0.000    2.333 
#    0.000    0.000    0.000    0.667    0.000    0.000 
#
# Total GULP energy -66898.480644 kJ/mol
# GULP energy per Si atom -5574.873387 kJ/mol
# Density = 2.918299 g / cm^3
# Si number density = 29.249565 Si / 1000 Ang^3
#
#
#
# Elastic Constant Matrix: (Units=GPa)
#
#
# Indices 1 2 3 4 5 6 
#
# 1 319.0038 34.2289 19.1934 0.0000 -15.9221 0.0000
# 2 34.2289 104.6140 14.2854 0.0000 2.8489 0.0000
# 3 19.1934 14.2854 95.1532 0.0000 -14.8567 0.0000
# 4 0.0000 0.0000 0.0000 15.3168 0.0000 1.8084
# 5 -15.9221 2.8489 -14.8567 0.0000 27.0250 0.0000
# 6 0.0000 0.0000 0.0000 1.8084 0.0000 45.8459
#
#
#
# Elastic Compliance Matrix: (Units=1/GPa)
#
#
# Indices 1 2 3 4 5 6 
#
# 1 0.003367 -0.001129 -0.000198 0.000000 0.001994 0.000000
# 2 -0.001129 0.010238 -0.001730 0.000000 -0.002696 0.000000
# 3 -0.000198 -0.001730 0.011835 0.000000 0.006572 0.000000
# 4 0.000000 0.000000 0.000000 0.065593 0.000000 -0.002587
# 5 0.001994 -0.002696 0.006572 0.000000 0.042074 0.000000
# 6 0.000000 0.000000 0.000000 -0.002587 0.000000 0.021914
#
#
# Mechanical properties :
#
#
# Convention : Reuss Voigt Hill
#
# Bulk Modulus (GPa) = 51.74529 72.68737 62.21633
# Shear Modulus (GPa) = 29.83662 47.70844 38.77253
#
# Velocity S-wave (km/s) = 3.19732 4.04305 3.64480
# Velocity P-wave (km/s) = 5.59999 6.83372 6.24738
#
# Compressibility (1/GPa) = 0.01932543
#
# Stress axis : x y z
#
# Youngs Moduli (GPa) = 296.96917 97.67520 84.49349
#
# Poissons Ratio (x) = 0.11027 0.01677
# Poissons Ratio (y) = 0.33527 0.14619
# Poissons Ratio (z) = 0.05893 0.16900
#
# Static dielectric constant tensor:
#      x y z
#    x 3.146170 0.000000 0.970750 
#    y 0.000000 2.178200 0.000000 
#    z 0.970750 0.000000 3.443500 
# 
# From -- ./inp_files/32031.got.cif
#   From: 2010.05.17/outbox.cif.g08.bks.cpg/sg5_17_cif.got.tgz:32031.got - 2010.06.03 18:56:24.
