data_PCOD9122307
_publ_section_title
;
Structure prediction by ZEFSAII (Michael W. Deem and Ramdas Pophale) SiO2 
 PCOD9122307
Probable space group: C 2
;
_chemical_formula_sum "Si O2"
_cell_formula_units_Z 28
_cell_length_a 22.143627
_cell_length_b 9.110654
_cell_length_c 7.183704
_cell_angle_alpha 90.000000
_cell_angle_beta 51.361880
_cell_angle_gamma 90.000000
_cell_volume 1132.025684
_symmetry_space_group_name_H-M "C 2"
_symmetry_group_IT_number 5
_symmetry_cell_setting 'monoclinic'
loop_
_space_group_symop_operation_xyz
x,y,z
-x,y,-z
1/2+x,1/2+y,z
1/2-x,1/2+y,-z
loop_
_atom_site_type_symbol
_atom_site_label
_atom_site_fract_x
_atom_site_fract_y
_atom_site_fract_z
Si Si1 0.470482 0.176780 0.843873
Si Si2 0.412085 0.761469 0.193910
Si Si3 0.688803 0.697897 0.263776
Si Si4 0.170559 0.519904 0.811563
Si Si5 0.876826 0.936708 0.183834
Si Si6 0.136124 0.697760 0.498413
Si Si7 0.238652 0.001896 0.891236
O O1 0.449417 0.177034 0.418000
O O2 0.500000 0.146477 0.000000
O O3 0.571250 0.332814 0.046669
O O4 0.596677 0.065661 0.079174
O O5 0.379159 0.749841 0.467569
O O6 0.346270 0.850362 0.204190
O O7 0.413382 0.594537 0.126641
O O8 0.500000 0.820518 0.000000
O O9 0.754337 0.603193 0.252902
O O10 0.670532 0.576626 0.141985
O O11 0.721946 0.851665 0.117461
O O12 0.152791 0.598762 0.649001
O O13 0.864281 0.858979 0.407927
O O14 0.794810 0.955588 0.243302
O O15 0.199894 0.633459 0.240366
#
# Coordination Sequence:
#
# PCOD9122307 Si02
#       7
#     4   4   4   4   4   4   4
#     4   8  16  36  66  98 129 163 227 289 343 390
#     4  12  25  43  75 109 136 180 244 302 342 409
#     4  12  28  44  68 103 145 189 233 293 367 414
#     4  10  20  41  69 101 128 177 242 288 339 413
#     4  10  22  40  70 100 138 181 238 286 341 414
#     4  10  19  40  71  96 131 179 235 292 333 419
#     4  12  26  44  66 103 146 187 233 295 354 429
#
# _framework density 24.734421999999999
#
# number of rings (size 3 to 8) (size 9 to 14) (size 15 to 20)
#    0.000    1.714    4.286    3.429    4.000    0.000 
#    0.000    1.429    0.000    0.000    0.000    0.000 
#    0.000    0.000    0.000    0.000    0.000    0.000 
#
# Total GULP energy -78127.490651 kJ/mol
# GULP energy per Si atom -5580.535046 kJ/mol
# Density = 2.467813 g / cm^3
# Si number density = 24.734422 Si / 1000 Ang^3
#
#
#
# Elastic Constant Matrix: (Units=GPa)
#
#
# Indices 1 2 3 4 5 6 
#
# 1 70.2993 10.5819 21.8336 0.0000 -12.9010 0.0000
# 2 10.5819 135.6646 44.9963 0.0000 -8.7923 0.0000
# 3 21.8336 44.9963 109.5154 0.0000 -17.1911 0.0000
# 4 0.0000 0.0000 0.0000 20.9381 0.0000 -2.6286
# 5 -12.9010 -8.7923 -17.1911 0.0000 30.6592 0.0000
# 6 0.0000 0.0000 0.0000 -2.6286 0.0000 35.2154
#
#
#
# Elastic Compliance Matrix: (Units=1/GPa)
#
#
# Indices 1 2 3 4 5 6 
#
# 1 0.015942 -0.000140 -0.002274 0.000000 0.005393 0.000000
# 2 -0.000140 0.008543 -0.003407 0.000000 0.000481 0.000000
# 3 -0.002274 -0.003407 0.011712 0.000000 0.004633 0.000000
# 4 0.000000 0.000000 0.000000 0.048212 0.000000 0.003599
# 5 0.005393 0.000481 0.004633 0.000000 0.037622 0.000000
# 6 0.000000 0.000000 0.000000 0.003599 0.000000 0.028665
#
#
# Mechanical properties :
#
#
# Convention : Reuss Voigt Hill
#
# Bulk Modulus (GPa) = 40.72471 52.25588 46.49030
# Shear Modulus (GPa) = 29.32180 33.23370 31.27775
#
# Velocity S-wave (km/s) = 3.44679 3.66952 3.55990
# Velocity P-wave (km/s) = 5.68692 6.25512 5.97777
#
# Compressibility (1/GPa) = 0.02455511
#
# Stress axis : x y z
#
# Youngs Moduli (GPa) = 62.72750 117.05339 85.38599
#
# Poissons Ratio (x) = 0.01634 0.19420
# Poissons Ratio (y) = 0.00876 0.29089
# Poissons Ratio (z) = 0.14267 0.39877
#
# Static dielectric constant tensor:
#      x y z
#    x 2.038670 0.000000 0.034430 
#    y 0.000000 1.990140 0.000000 
#    z 0.034430 0.000000 2.190580 
# 
# From -- ./inp_files/32473.got.cif
#   From: 2010.05.17/outbox.cif.g08.bks.cpg/sg5_17_cif.got.tgz:32473.got - 2010.06.03 18:56:24.
