data_PCOD9122164
_publ_section_title
;
Structure prediction by ZEFSAII (Michael W. Deem and Ramdas Pophale) SiO2 
 PCOD9122164
Probable space group: C 2
;
_chemical_formula_sum "Si O2"
_cell_formula_units_Z 32
_cell_length_a 18.963858
_cell_length_b 11.704960
_cell_length_c 8.394324
_cell_angle_alpha 90.000000
_cell_angle_beta 127.142622
_cell_angle_gamma 90.000000
_cell_volume 1485.300156
_symmetry_space_group_name_H-M "C 2"
_symmetry_group_IT_number 5
_symmetry_cell_setting 'monoclinic'
loop_
_space_group_symop_operation_xyz
x,y,z
-x,y,-z
1/2+x,1/2+y,z
1/2-x,1/2+y,-z
loop_
_atom_site_type_symbol
_atom_site_label
_atom_site_fract_x
_atom_site_fract_y
_atom_site_fract_z
Si Si1 0.706907 0.539560 0.632049
Si Si2 0.860940 0.488054 0.376003
Si Si3 0.467341 0.020225 0.190656
Si Si4 0.736498 0.171785 0.595283
Si Si5 0.794108 0.253825 0.170025
Si Si6 0.908286 0.768727 0.028695
Si Si7 0.153828 0.344082 0.096254
Si Si8 0.088870 0.850875 0.331454
O O1 0.757931 0.613193 0.568273
O O2 0.680217 0.630761 0.727792
O O3 0.773509 0.445068 0.791173
O O4 0.628171 0.471239 0.439185
O O5 0.908091 0.516210 0.272446
O O6 0.778687 0.570980 0.298557
O O7 0.831354 0.356911 0.329360
O O8 0.932389 0.509827 0.612762
O O9 0.443895 0.138494 0.072964
O O10 0.436516 0.912619 0.045071
O O11 0.821754 0.252267 0.736200
O O12 0.651521 0.254387 0.494616
O O13 0.687915 0.265782 0.025542
O O14 0.830538 0.276506 0.045433
O O15 0.985780 0.834221 0.228993
O O16 0.901767 0.825650 0.845120
#
# Coordination Sequence:
#
# PCOD9122164 Si02
#       8
#     4   4   4   4   4   4   4   4
#     4  11  23  42  60  90 130 157 198 258 305 370
#     4  10  22  35  63  92 122 161 204 252 314 359
#     4  10  19  39  59  92 124 154 207 263 290 359
#     4  11  20  37  62  93 121 160 201 253 309 359
#     4  11  22  40  64  88 123 169 200 249 309 365
#     4  11  19  39  63  89 122 159 207 256 297 356
#     4  10  23  38  65  92 120 158 214 250 303 368
#     4  10  22  36  59  95 122 156 203 256 304 356
#
# _framework density 21.544466
#
# number of rings (size 3 to 8) (size 9 to 14) (size 15 to 20)
#    0.000    1.500    3.750    1.500    3.500    0.000 
#    0.000    3.750    5.500    0.000    0.000    0.000 
#    0.000    0.000    0.000    0.000    0.000    0.000 
#
# Total GULP energy -89433.006337 kJ/mol
# GULP energy per Si atom -5589.562896 kJ/mol
# Density = 2.149543 g / cm^3
# Si number density = 21.544466 Si / 1000 Ang^3
#
#
#
# Elastic Constant Matrix: (Units=GPa)
#
#
# Indices 1 2 3 4 5 6 
#
# 1 48.7092 22.7090 23.4761 0.0000 4.3957 0.0000
# 2 22.7090 127.8224 52.1655 0.0000 -5.4733 0.0000
# 3 23.4761 52.1655 89.1415 0.0000 6.7510 0.0000
# 4 0.0000 0.0000 0.0000 56.6591 0.0000 -5.1800
# 5 4.3957 -5.4733 6.7510 0.0000 25.9585 0.0000
# 6 0.0000 0.0000 0.0000 -5.1800 0.0000 18.4362
#
#
#
# Elastic Compliance Matrix: (Units=1/GPa)
#
#
# Indices 1 2 3 4 5 6 
#
# 1 0.024270 -0.002572 -0.004625 0.000000 -0.003449 0.000000
# 2 -0.002572 0.010933 -0.006047 0.000000 0.004313 0.000000
# 3 -0.004625 -0.006047 0.016334 0.000000 -0.004740 0.000000
# 4 0.000000 0.000000 0.000000 0.018115 0.000000 0.005090
# 5 -0.003449 0.004313 -0.004740 0.000000 0.041249 0.000000
# 6 0.000000 0.000000 0.000000 0.005090 0.000000 0.055671
#
#
# Mechanical properties :
#
#
# Convention : Reuss Voigt Hill
#
# Bulk Modulus (GPa) = 39.92392 51.37493 45.64943
# Shear Modulus (GPa) = 24.82504 31.36560 28.09532
#
# Velocity S-wave (km/s) = 3.39819 3.81971 3.61510
# Velocity P-wave (km/s) = 5.82822 6.58417 6.21769
#
# Compressibility (1/GPa) = 0.02504764
#
# Stress axis : x y z
#
# Youngs Moduli (GPa) = 41.20397 91.46695 61.22175
#
# Poissons Ratio (x) = 0.23523 0.28317
# Poissons Ratio (y) = 0.10597 0.37023
# Poissons Ratio (z) = 0.19058 0.55313
#
# Static dielectric constant tensor:
#      x y z
#    x 1.776690 0.000000 -0.006510 
#    y 0.000000 1.767500 0.000000 
#    z -0.006510 0.000000 1.815610 
# 
# From -- ./inp_files/29634.got.cif
#   From: 2010.05.17/outbox.cif.g08.bks.cpg/sg5_15_cif.got.tgz:29634.got - 2010.06.03 18:56:24.
