data_PCOD9122787
_publ_section_title
;
Structure prediction by ZEFSAII (Michael W. Deem and Ramdas Pophale) SiO2 
 PCOD9122787
Probable space group: C 2
;
_chemical_formula_sum "Si O2"
_cell_formula_units_Z 28
_cell_length_a 8.959436
_cell_length_b 16.759175
_cell_length_c 15.555372
_cell_angle_alpha 90.000000
_cell_angle_beta 43.758939
_cell_angle_gamma 90.000000
_cell_volume 1615.417790
_symmetry_space_group_name_H-M "C 2"
_symmetry_group_IT_number 5
_symmetry_cell_setting 'monoclinic'
loop_
_space_group_symop_operation_xyz
x,y,z
-x,y,-z
1/2+x,1/2+y,z
1/2-x,1/2+y,-z
loop_
_atom_site_type_symbol
_atom_site_label
_atom_site_fract_x
_atom_site_fract_y
_atom_site_fract_z
Si Si1 0.081942 0.945530 0.652173
Si Si2 0.899302 0.059318 0.126699
Si Si3 0.231482 0.464848 0.936000
Si Si4 0.740249 0.116301 0.363396
Si Si5 0.242700 0.890574 0.895358
Si Si6 0.000000 0.333404 0.500000
Si Si7 0.429859 0.779424 0.341107
Si Si8 0.000000 0.883417 0.500000
O O1 0.284972 0.888398 0.589471
O O2 0.011705 0.933802 0.582866
O O3 0.878833 0.928050 0.799034
O O4 0.167244 0.034547 0.635000
O O5 0.748647 0.105048 0.256268
O O6 0.782927 0.976857 0.142985
O O7 0.111179 0.032594 0.091610
O O8 0.000000 0.099878 0.000000
O O9 0.189033 0.407623 0.035181
O O10 0.000000 0.493225 0.000000
O O11 0.500000 0.129110 0.500000
O O12 0.890551 0.190253 0.325748
O O13 0.392409 0.829919 0.783633
O O14 0.000000 0.858576 0.000000
O O15 0.013786 0.283255 0.581533
O O16 0.208893 0.827444 0.416236
#
# Coordination Sequence:
#
# PCOD9122787 Si02
#       8
#     4   4   4   4   4   2   4   2
#     4  10  20  36  58  83 106 147 189 225 268 331
#     4   8  18  36  59  80 104 148 193 220 267 338
#     4   9  16  30  53  82 110 130 178 234 270 302
#     4  11  21  36  57  83 115 146 183 230 286 327
#     4   9  18  34  59  80 103 146 191 220 263 335
#     4  10  20  36  60  74 108 148 192 216 272 328
#     4  11  21  36  55  82 116 143 176 233 280 325
#     4  10  22  34  54  84 112 140 188 228 270 318
#
# _framework density 17.332977
#
# number of rings (size 3 to 8) (size 9 to 14) (size 15 to 20)
#    0.000    2.571    1.429    3.429    2.000    0.571 
#    0.000    5.000    3.143    0.000    0.000    0.000 
#    0.000    0.000    0.000    0.000    0.000    0.000 
#
# Total GULP energy -77990.642017 kJ/mol
# GULP energy per Si atom -5570.760144 kJ/mol
# Density = 1.729353 g / cm^3
# Si number density = 17.332977 Si / 1000 Ang^3
#
#
#
# Elastic Constant Matrix: (Units=GPa)
#
#
# Indices 1 2 3 4 5 6 
#
# 1 91.1475 19.9838 46.7047 0.0006 16.5024 0.0002
# 2 19.9838 67.1408 37.8778 0.0001 11.0109 0.0003
# 3 46.7047 37.8778 138.0279 0.0002 15.0523 -0.0003
# 4 0.0006 0.0001 0.0002 5.9054 -0.0003 -1.6194
# 5 16.5024 11.0109 15.0523 -0.0003 30.4789 0.0000
# 6 0.0002 0.0003 -0.0003 -1.6194 0.0000 33.4396
#
#
#
# Elastic Compliance Matrix: (Units=1/GPa)
#
#
# Indices 1 2 3 4 5 6 
#
# 1 0.014190 -0.001145 -0.003905 -0.000002 -0.005341 0.000000
# 2 -0.001145 0.018240 -0.004193 0.000000 -0.003899 0.000000
# 3 -0.003905 -0.004193 0.009852 0.000000 -0.001236 0.000000
# 4 -0.000002 0.000000 0.000000 0.171616 0.000002 0.008311
# 5 -0.005341 -0.003899 -0.001236 0.000002 0.037721 0.000000
# 6 0.000000 0.000000 0.000000 0.008311 0.000000 0.030307
#
#
# Mechanical properties :
#
#
# Convention : Reuss Voigt Hill
#
# Bulk Modulus (GPa) = 42.02295 56.16099 49.09197
# Shear Modulus (GPa) = 16.21574 26.74808 21.48191
#
# Velocity S-wave (km/s) = 3.06198 3.93261 3.52428
# Velocity P-wave (km/s) = 6.06615 7.28643 6.70411
#
# Compressibility (1/GPa) = 0.02379652
#
# Stress axis : x y z
#
# Youngs Moduli (GPa) = 70.47157 54.82577 101.50563
#
# Poissons Ratio (x) = 0.06275 0.39638
# Poissons Ratio (y) = 0.08066 0.42560
# Poissons Ratio (z) = 0.27519 0.22988
#
# Static dielectric constant tensor:
#      x y z
#    x 1.589350 0.000000 0.025320 
#    y 0.000000 1.565020 0.000000 
#    z 0.025320 0.000000 1.618610 
# 
# From -- ./inp_files/51359.got.cif
#   From: 2010.05.17/outbox.cif.g08.bks.cpg/sg5_26_cif.got.tgz:51359.got - 2010.06.03 18:56:24.
