data_PCOD9122720
_publ_section_title
;
Structure prediction by ZEFSAII (Michael W. Deem and Ramdas Pophale) SiO2 
 PCOD9122720
Probable space group: C 2
;
_chemical_formula_sum "Si O2"
_cell_formula_units_Z 28
_cell_length_a 10.144233
_cell_length_b 17.056276
_cell_length_c 8.848554
_cell_angle_alpha 90.000000
_cell_angle_beta 71.881833
_cell_angle_gamma 90.000000
_cell_volume 1455.090526
_symmetry_space_group_name_H-M "C 2"
_symmetry_group_IT_number 5
_symmetry_cell_setting 'monoclinic'
loop_
_space_group_symop_operation_xyz
x,y,z
-x,y,-z
1/2+x,1/2+y,z
1/2-x,1/2+y,-z
loop_
_atom_site_type_symbol
_atom_site_label
_atom_site_fract_x
_atom_site_fract_y
_atom_site_fract_z
Si Si1 0.500000 0.567991 0.000000
Si Si2 0.163614 0.530882 0.775972
Si Si3 0.500000 0.911509 0.000000
Si Si4 0.072762 0.842136 0.742557
Si Si5 0.453290 0.168358 0.346442
Si Si6 0.723865 0.327174 0.983673
Si Si7 0.284264 0.147403 0.965812
Si Si8 0.471843 0.493188 0.670277
O O1 0.641198 0.617747 0.946277
O O2 0.496760 0.525036 0.834799
O O3 0.306574 0.484077 0.721417
O O4 0.143450 0.593450 0.650349
O O5 0.042250 0.468718 0.846734
O O6 0.173489 0.587058 0.919066
O O7 0.636398 0.862762 0.997103
O O8 0.180462 0.861848 0.837282
O O9 0.104379 0.754910 0.672005
O O10 0.062177 0.913840 0.631571
O O11 0.915896 0.838424 0.867209
O O12 0.500000 0.170111 0.500000
O O13 0.588166 0.154203 0.194040
O O14 0.739390 0.233885 0.959878
O O15 0.500000 0.538267 0.500000
#
# Coordination Sequence:
#
# PCOD9122720 Si02
#       8
#     2   4   2   4   4   4   4   4
#     4  10  23  38  61  92 122 160 208 246 319 372
#     4  11  22  40  59  90 122 155 200 260 308 357
#     4  12  21  36  63  96 122 152 200 268 307 366
#     4  10  20  38  59  90 116 166 210 247 294 381
#     4  11  22  36  63  86 119 160 206 250 308 367
#     4  10  20  35  64  88 121 162 208 249 310 362
#     4  10  20  39  60  86 118 161 204 252 296 378
#     4  11  24  40  64  90 127 162 205 261 310 371
#
# _framework density 19.242788999999998
#
# number of rings (size 3 to 8) (size 9 to 14) (size 15 to 20)
#    0.000    1.429    4.286    1.714    4.000    0.000 
#    0.000    0.000    0.000    0.000    0.000    0.000 
#    0.000    0.000    0.000    0.000    0.000    0.000 
#
# Total GULP energy -77994.250511 kJ/mol
# GULP energy per Si atom -5571.017894 kJ/mol
# Density = 1.919899 g / cm^3
# Si number density = 19.242789 Si / 1000 Ang^3
#
#
#
# Elastic Constant Matrix: (Units=GPa)
#
#
# Indices 1 2 3 4 5 6 
#
# 1 90.9689 28.0451 4.3343 0.0000 19.2363 0.0000
# 2 28.0451 70.1112 8.1484 0.0000 7.9508 0.0000
# 3 4.3343 8.1484 71.5048 0.0000 22.0662 0.0000
# 4 0.0000 0.0000 0.0000 10.7672 0.0000 7.5854
# 5 19.2363 7.9508 22.0662 0.0000 27.3652 0.0000
# 6 0.0000 0.0000 0.0000 7.5854 0.0000 27.2847
#
#
#
# Elastic Compliance Matrix: (Units=1/GPa)
#
#
# Indices 1 2 3 4 5 6 
#
# 1 0.014829 -0.004995 0.003247 0.000000 -0.011591 0.000000
# 2 -0.004995 0.016444 -0.001571 0.000000 0.000000 0.000000
# 3 0.003247 -0.001571 0.019345 0.000000 -0.017425 0.000000
# 4 0.000000 0.000000 0.000000 0.115495 0.000000 -0.032109
# 5 -0.011591 0.000000 -0.017425 0.000000 0.058742 0.000000
# 6 0.000000 0.000000 0.000000 -0.032109 0.000000 0.045577
#
#
# Mechanical properties :
#
#
# Convention : Reuss Voigt Hill
#
# Bulk Modulus (GPa) = 22.73750 34.84894 28.79322
# Shear Modulus (GPa) = 17.13924 25.88721 21.51322
#
# Velocity S-wave (km/s) = 2.98767 3.67180 3.34726
# Velocity P-wave (km/s) = 4.87271 6.01046 5.47124
#
# Compressibility (1/GPa) = 0.04398020
#
# Stress axis : x y z
#
# Youngs Moduli (GPa) = 67.43547 60.81422 51.69404
#
# Poissons Ratio (x) = 0.30375 -0.16787
# Poissons Ratio (y) = 0.33682 0.08122
# Poissons Ratio (z) = -0.21899 0.09555
#
# Static dielectric constant tensor:
#      x y z
#    x 1.662330 0.000000 0.010670 
#    y 0.000000 1.716740 0.000000 
#    z 0.010670 0.000000 1.711390 
# 
# From -- ./inp_files/16114.got.cif
#   From: 2010.05.17/outbox.cif.g08.bks.cpg/sg5_9_cif.got.tgz:16114.got - 2010.06.03 18:56:24.
