data_PCOD9122454
_publ_section_title
;
Structure prediction by ZEFSAII (Michael W. Deem and Ramdas Pophale) SiO2 
 PCOD9122454
Probable space group: C 2
;
_chemical_formula_sum "Si O2"
_cell_formula_units_Z 32
_cell_length_a 5.659840
_cell_length_b 20.315564
_cell_length_c 14.286886
_cell_angle_alpha 90.000000
_cell_angle_beta 73.649381
_cell_angle_gamma 90.000000
_cell_volume 1576.309075
_symmetry_space_group_name_H-M "C 2"
_symmetry_group_IT_number 5
_symmetry_cell_setting 'monoclinic'
loop_
_space_group_symop_operation_xyz
x,y,z
-x,y,-z
1/2+x,1/2+y,z
1/2-x,1/2+y,-z
loop_
_atom_site_type_symbol
_atom_site_label
_atom_site_fract_x
_atom_site_fract_y
_atom_site_fract_z
Si Si1 0.032865 0.043070 0.735836
Si Si2 0.224272 0.325255 0.535762
Si Si3 0.612187 0.160633 0.250379
Si Si4 0.222131 0.973754 0.543588
Si Si5 0.139101 0.149837 0.388416
Si Si6 0.536105 0.765871 0.729042
Si Si7 0.668838 0.206042 0.896914
Si Si8 0.793690 0.067554 0.945443
O O1 0.233788 0.094243 0.754814
O O2 0.891852 0.086466 0.674098
O O3 0.860060 0.028382 0.842881
O O4 0.148452 0.985649 0.659798
O O5 0.500000 0.294687 0.500000
O O6 0.256103 0.397339 0.487277
O O7 0.130111 0.325033 0.653944
O O8 0.000000 0.294999 0.500000
O O9 0.428639 0.161551 0.359388
O O10 0.749668 0.230242 0.238408
O O11 0.475973 0.165065 0.166736
O O12 0.500000 0.002821 0.500000
O O13 0.000000 0.997970 0.500000
O O14 0.000000 0.143353 0.500000
O O15 0.031330 0.209459 0.339257
O O16 0.310785 0.764133 0.826717
O O17 0.832175 0.146426 0.921315
O O18 0.500000 0.230102 0.000000
O O19 0.500000 0.059721 0.000000
O O20 0.000000 0.049487 0.000000
#
# Coordination Sequence:
#
# PCOD9122454 Si02
#       8
#     4   4   4   4   4   4   4   4
#     4  11  21  34  55  83 120 158 201 236 294 356
#     4  10  23  42  61  83 113 150 201 249 301 346
#     4  10  20  34  48  84 119 166 195 237 291 352
#     4  10  24  41  61  87 113 153 200 252 300 349
#     4  10  21  31  46  79 121 160 196 230 292 353
#     4  10  21  32  54  81 113 160 198 242 290 357
#     4  10  20  33  52  79 124 164 199 237 288 353
#     4  11  22  35  55  81 122 164 200 238 286 348
#
# _framework density 20.300588000000001
#
# number of rings (size 3 to 8) (size 9 to 14) (size 15 to 20)
#    0.000    1.750    3.750    2.250    8.750    1.000 
#    0.000    0.000    0.000    0.000    0.000   10.500 
#    0.000    0.000    0.000    0.000    0.000    0.000 
#
# Total GULP energy -89068.537702 kJ/mol
# GULP energy per Si atom -5566.783606 kJ/mol
# Density = 2.025438 g / cm^3
# Si number density = 20.300588 Si / 1000 Ang^3
#
#
#
# Elastic Constant Matrix: (Units=GPa)
#
#
# Indices 1 2 3 4 5 6 
#
# 1 115.1305 -0.4949 51.3739 0.0000 -8.6740 0.0000
# 2 -0.4949 41.7771 28.2855 0.0000 3.2483 0.0000
# 3 51.3739 28.2855 198.4080 0.0000 -21.8894 0.0000
# 4 0.0000 0.0000 0.0000 26.1699 0.0000 -19.7279
# 5 -8.6740 3.2483 -21.8894 0.0000 23.4814 0.0000
# 6 0.0000 0.0000 0.0000 -19.7279 0.0000 -112.9966
#
#
#
# Elastic Compliance Matrix: (Units=1/GPa)
#
#
# Indices 1 2 3 4 5 6 
#
# 1 0.009993 0.001928 -0.002769 0.000000 0.000843 0.000000
# 2 0.001928 0.028290 -0.005446 0.000000 -0.008278 0.000000
# 3 -0.002769 -0.005446 0.007249 0.000000 0.006488 0.000000
# 4 0.000000 0.000000 0.000000 0.033768 0.000000 -0.005895
# 5 0.000843 -0.008278 0.006488 0.000000 0.050092 0.000000
# 6 0.000000 0.000000 0.000000 -0.005895 0.000000 -0.007821
#
#
# Mechanical properties :
#
#
# Convention : Reuss Voigt Hill
#
# Bulk Modulus (GPa) = 30.34111 57.07163 43.70637
# Shear Modulus (GPa) = 34.45148 5.74101 20.09624
#
# Velocity S-wave (km/s) = 4.12402 1.68349 3.14974
# Velocity P-wave (km/s) = 6.13637 5.65271 5.89950
#
# Compressibility (1/GPa) = 0.03295859
#
# Stress axis : x y z
#
# Youngs Moduli (GPa) = 100.06623 35.34822 137.94384
#
# Poissons Ratio (x) = -0.06815 0.38202
# Poissons Ratio (y) = -0.19291 0.75117
# Poissons Ratio (z) = 0.27712 0.19249
#
# Static dielectric constant tensor:
#      x y z
#    x 2.303040 0.000000 -0.163560 
#    y 0.000000 1.783010 0.000000 
#    z -0.163560 0.000000 1.805560 
# 
# From -- ./inp_files/49528.got.cif
#   From: 2010.05.17/outbox.cif.g08.bks.cpg/sg5_25_cif.got.tgz:49528.got - 2010.06.03 18:56:24.
