data_PCOD9122367
_publ_section_title
;
Structure prediction by ZEFSAII (Michael W. Deem and Ramdas Pophale) SiO2 
 PCOD9122367
Probable space group: C 2
;
_chemical_formula_sum "Si O2"
_cell_formula_units_Z 28
_cell_length_a 14.631103
_cell_length_b 11.834165
_cell_length_c 7.447084
_cell_angle_alpha 90.000000
_cell_angle_beta 110.073244
_cell_angle_gamma 90.000000
_cell_volume 1211.111940
_symmetry_space_group_name_H-M "C 2"
_symmetry_group_IT_number 5
_symmetry_cell_setting 'monoclinic'
loop_
_space_group_symop_operation_xyz
x,y,z
-x,y,-z
1/2+x,1/2+y,z
1/2-x,1/2+y,-z
loop_
_atom_site_type_symbol
_atom_site_label
_atom_site_fract_x
_atom_site_fract_y
_atom_site_fract_z
Si Si1 0.030291 0.438130 0.812495
Si Si2 0.978456 0.194622 0.771719
Si Si3 0.775679 0.525701 0.938288
Si Si4 0.794045 0.053741 0.734401
Si Si5 0.432191 0.339455 0.820222
Si Si6 0.875996 0.614806 0.647146
Si Si7 0.073156 0.983549 0.704645
O O1 0.146123 0.447935 0.905031
O O2 0.988094 0.321448 0.709788
O O3 0.975836 0.545350 0.695082
O O4 0.000000 0.437623 0.000000
O O5 0.874425 0.133107 0.691975
O O6 0.055365 0.116248 0.720954
O O7 0.000000 0.193276 0.000000
O O8 0.728694 0.591640 0.076101
O O9 0.829245 0.592822 0.815102
O O10 0.686965 0.461183 0.779814
O O11 0.698984 0.065839 0.548787
O O12 0.842803 0.928439 0.782093
O O13 0.395266 0.248159 0.651097
O O14 0.523269 0.421037 0.835581
O O15 0.500000 0.262370 0.000000
O O16 0.000000 0.947437 0.500000
#
# Coordination Sequence:
#
# PCOD9122367 Si02
#       7
#     4   4   4   4   4   4   4
#     4   9  22  42  63  93 141 175 210 281 348 400
#     4  10  19  42  66  92 134 172 211 286 340 390
#     4  11  21  45  69  98 130 181 230 268 340 415
#     4  11  23  42  73  99 132 176 234 274 341 408
#     4  11  22  47  69  96 143 180 219 295 349 396
#     4  11  26  45  65 101 143 176 220 286 344 403
#     4  11  22  42  68 102 131 172 241 285 328 413
#
# _framework density 23.119251999999999
#
# number of rings (size 3 to 8) (size 9 to 14) (size 15 to 20)
#    0.000    1.429    2.857    3.857    2.000    1.714 
#   15.429    0.000    0.000    0.000    0.000    0.000 
#    0.000    0.000    0.000    0.000    0.000    0.000 
#
# Total GULP energy -78026.456521 kJ/mol
# GULP energy per Si atom -5573.318323 kJ/mol
# Density = 2.306663 g / cm^3
# Si number density = 23.119252 Si / 1000 Ang^3
#
#
#
# Elastic Constant Matrix: (Units=GPa)
#
#
# Indices 1 2 3 4 5 6 
#
# 1 91.8152 25.1262 32.4294 0.0000 26.7038 0.0000
# 2 25.1262 94.7367 32.2547 0.0000 13.8772 0.0000
# 3 32.4294 32.2547 117.8694 0.0000 31.8305 0.0000
# 4 0.0000 0.0000 0.0000 14.5012 0.0000 -8.4296
# 5 26.7038 13.8772 31.8305 0.0000 49.3715 0.0000
# 6 0.0000 0.0000 0.0000 -8.4296 0.0000 -157.6331
#
#
#
# Elastic Compliance Matrix: (Units=1/GPa)
#
#
# Indices 1 2 3 4 5 6 
#
# 1 0.013755 -0.002255 -0.001610 0.000000 -0.005768 0.000000
# 2 -0.002255 0.012099 -0.002544 0.000000 -0.000541 0.000000
# 3 -0.001610 -0.002544 0.011133 0.000000 -0.005592 0.000000
# 4 0.000000 0.000000 0.000000 0.066881 0.000000 -0.003577
# 5 -0.005768 -0.000541 -0.005592 0.000000 0.027132 0.000000
# 6 0.000000 0.000000 0.000000 -0.003577 0.000000 -0.006153
#
#
# Mechanical properties :
#
#
# Convention : Reuss Voigt Hill
#
# Bulk Modulus (GPa) = 41.37583 53.78244 47.57913
# Shear Modulus (GPa) = 34.31211 -4.44466 14.93372
#
# Velocity S-wave (km/s) = 3.85663 -1.38804 2.54430
# Velocity P-wave (km/s) = 6.14548 4.55463 5.40887
#
# Compressibility (1/GPa) = 0.02416870
#
# Stress axis : x y z
#
# Youngs Moduli (GPa) = 72.70264 82.65024 89.82146
#
# Poissons Ratio (x) = 0.18639 0.14457
# Poissons Ratio (y) = 0.16395 0.22855
# Poissons Ratio (z) = 0.11702 0.21030
#
# Static dielectric constant tensor:
#      x y z
#    x 2.039600 0.000000 0.333970 
#    y 0.000000 1.833110 0.000000 
#    z 0.333970 0.000000 3.957090 
# 
# From -- ./inp_files/23954.got.cif
#   From: 2010.05.17/outbox.cif.g08.bks.cpg/sg5_12_cif.got.tgz:23954.got - 2010.06.03 18:56:24.
