data_PCOD9122023
_publ_section_title
;
Structure prediction by ZEFSAII (Michael W. Deem and Ramdas Pophale) SiO2 
 PCOD9122023
Probable space group: C 2
;
_chemical_formula_sum "Si O2"
_cell_formula_units_Z 32
_cell_length_a 15.229860
_cell_length_b 10.085127
_cell_length_c 19.507097
_cell_angle_alpha 90.000000
_cell_angle_beta 27.414947
_cell_angle_gamma 90.000000
_cell_volume 1379.541718
_symmetry_space_group_name_H-M "C 2"
_symmetry_group_IT_number 5
_symmetry_cell_setting 'monoclinic'
loop_
_space_group_symop_operation_xyz
x,y,z
-x,y,-z
1/2+x,1/2+y,z
1/2-x,1/2+y,-z
loop_
_atom_site_type_symbol
_atom_site_label
_atom_site_fract_x
_atom_site_fract_y
_atom_site_fract_z
Si Si1 0.211628 0.483750 0.878381
Si Si2 0.136887 0.595757 0.469447
Si Si3 0.334267 0.622923 0.661835
Si Si4 0.612613 0.208343 0.697067
Si Si5 0.518965 0.826050 0.613895
Si Si6 0.822781 0.934240 0.084770
Si Si7 0.652069 0.190964 0.236802
Si Si8 0.040166 0.001131 0.161703
O O1 0.333676 0.551714 0.734208
O O2 0.235591 0.325476 0.853145
O O3 0.297138 0.523525 0.893039
O O4 0.000000 0.519938 0.000000
O O5 0.110816 0.468788 0.536929
O O6 0.359455 0.601748 0.295218
O O7 0.000000 0.569808 0.500000
O O8 0.021419 0.710919 0.589343
O O9 0.500000 0.565178 0.500000
O O10 0.153960 0.627022 0.737072
O O11 0.384301 0.775941 0.644883
O O12 0.804225 0.224904 0.517519
O O13 0.449083 0.150833 0.763874
O O14 0.547777 0.356088 0.761242
O O15 0.368279 0.844049 0.779817
O O16 0.779423 0.062653 0.163583
O O17 0.880323 0.985039 0.969987
O O18 0.000000 0.863298 0.000000
#
# Coordination Sequence:
#
# PCOD9122023 Si02
#       8
#     4   4   4   4   4   4   4   4
#     4  11  26  44  57  90 143 183 208 257 332 414
#     4  10  19  37  67  93 119 155 214 281 326 372
#     4  10  21  38  67  90 125 167 218 272 323 377
#     4   9  19  39  61  89 123 162 213 272 313 377
#     4   9  19  37  62  94 115 149 208 269 321 360
#     4  11  21  38  66  93 123 160 209 269 328 386
#     4  10  23  40  62  85 127 169 214 259 321 387
#     4  10  22  39  64  98 130 165 218 275 330 381
#
# _framework density 23.196107999999999
#
# number of rings (size 3 to 8) (size 9 to 14) (size 15 to 20)
#    0.000    2.000    0.000    4.500    5.250    2.000 
#    2.250    1.250    0.000    0.000    0.000    0.000 
#    0.000    0.000    0.000    0.000    0.000    0.000 
#
# Total GULP energy -89193.710350 kJ/mol
# GULP energy per Si atom -5574.606897 kJ/mol
# Density = 2.314331 g / cm^3
# Si number density = 23.196108 Si / 1000 Ang^3
#
#
#
# Elastic Constant Matrix: (Units=GPa)
#
#
# Indices 1 2 3 4 5 6 
#
# 1 117.8255 4.6836 51.7858 -0.0005 -2.1838 0.0000
# 2 4.6836 26.6119 1.3435 -0.0014 -2.1077 0.0003
# 3 51.7858 1.3435 152.9823 -0.0029 5.0930 0.0009
# 4 -0.0005 -0.0014 -0.0029 26.9655 0.0013 6.2839
# 5 -2.1838 -2.1077 5.0930 0.0013 35.6257 -0.0001
# 6 0.0000 0.0003 0.0009 6.2839 -0.0001 15.2387
#
#
#
# Elastic Compliance Matrix: (Units=1/GPa)
#
#
# Indices 1 2 3 4 5 6 
#
# 1 0.010074 -0.001519 -0.003431 0.000000 0.001018 0.000000
# 2 -0.001519 0.038008 0.000109 0.000002 0.002140 -0.000002
# 3 -0.003431 0.000109 0.007741 0.000001 -0.001310 -0.000001
# 4 0.000000 0.000002 0.000001 0.041027 -0.000002 -0.016918
# 5 0.001018 0.002140 -0.001310 -0.000002 0.028446 0.000001
# 6 0.000000 -0.000002 -0.000001 -0.016918 0.000001 0.072599
#
#
# Mechanical properties :
#
#
# Convention : Reuss Voigt Hill
#
# Bulk Modulus (GPa) = 21.67226 45.89396 33.78311
# Shear Modulus (GPa) = 22.42585 31.53977 26.98281
#
# Velocity S-wave (km/s) = 3.11270 3.69141 3.41434
# Velocity P-wave (km/s) = 4.72037 6.16416 5.48993
#
# Compressibility (1/GPa) = 0.04614193
#
# Stress axis : x y z
#
# Youngs Moduli (GPa) = 99.26288 26.30993 129.18701
#
# Poissons Ratio (x) = 0.03997 0.44321
# Poissons Ratio (y) = 0.15080 -0.01411
# Poissons Ratio (z) = 0.34055 -0.00287
#
# Static dielectric constant tensor:
#      x y z
#    x 1.888220 0.000000 -0.023470 
#    y 0.000000 1.885690 0.000000 
#    z -0.023470 0.000000 1.981430 
# 
# From -- ./inp_files/61695.got.cif
#   From: 2010.05.17/outbox.cif.g08.bks.cpg/sg5_31_cif.got.tgz:61695.got - 2010.06.03 18:56:24.
