data_PCOD9122207
_publ_section_title
;
Structure prediction by ZEFSAII (Michael W. Deem and Ramdas Pophale) SiO2 
 PCOD9122207
Probable space group: C 2
;
_chemical_formula_sum "Si O2"
_cell_formula_units_Z 24
_cell_length_a 16.543711
_cell_length_b 7.869342
_cell_length_c 8.842652
_cell_angle_alpha 90.000000
_cell_angle_beta 109.508935
_cell_angle_gamma 90.000000
_cell_volume 1085.116710
_symmetry_space_group_name_H-M "C 2"
_symmetry_group_IT_number 5
_symmetry_cell_setting 'monoclinic'
loop_
_space_group_symop_operation_xyz
x,y,z
-x,y,-z
1/2+x,1/2+y,z
1/2-x,1/2+y,-z
loop_
_atom_site_type_symbol
_atom_site_label
_atom_site_fract_x
_atom_site_fract_y
_atom_site_fract_z
Si Si1 0.409412 0.774250 0.505398
Si Si2 0.556444 0.127985 0.156119
Si Si3 0.741752 0.173590 0.222989
Si Si4 0.239955 0.791519 0.887566
Si Si5 0.414438 0.745610 0.869325
Si Si6 0.567784 0.135055 0.643834
O O1 0.500000 0.704316 0.500000
O O2 0.322607 0.703595 0.380007
O O3 0.410713 0.741777 0.685479
O O4 0.408985 0.970017 0.442814
O O5 0.650161 0.201518 0.249463
O O6 0.491799 0.089635 0.250792
O O7 0.580266 0.948216 0.094408
O O8 0.500000 0.231575 0.000000
O O9 0.752515 0.982067 0.169009
O O10 0.740503 0.284900 0.069416
O O11 0.324464 0.689977 0.883851
O O12 0.153488 0.715965 0.762011
O O13 0.500000 0.670703 0.000000
O O14 0.500000 0.242462 0.500000
#
# Coordination Sequence:
#
# PCOD9122207 Si02
#       6
#     4   4   4   4   4   4
#     4  11  22  40  68  93 124 168 215 260 315 378
#     4  10  19  39  65  90 120 170 211 253 313 382
#     4  11  24  40  67  91 131 164 215 262 315 375
#     4  11  24  40  64  95 128 168 209 263 318 371
#     4  10  21  38  65  93 121 165 217 255 309 383
#     4  11  22  40  67  92 126 168 215 257 314 378
#
# _framework density 22.117436000000001
#
# number of rings (size 3 to 8) (size 9 to 14) (size 15 to 20)
#    0.000    1.333    5.000    2.000    4.667    0.667 
#    0.000    0.000   18.333    0.000    0.000    0.000 
#    0.000    0.000    0.000    0.000    0.000    0.000 
#
# Total GULP energy -66906.903035 kJ/mol
# GULP energy per Si atom -5575.575253 kJ/mol
# Density = 2.206710 g / cm^3
# Si number density = 22.117436 Si / 1000 Ang^3
#
#
#
# Elastic Constant Matrix: (Units=GPa)
#
#
# Indices 1 2 3 4 5 6 
#
# 1 172.6344 29.9483 78.6095 0.0000 38.0647 0.0000
# 2 29.9483 37.3662 27.5009 0.0000 8.1776 0.0000
# 3 78.6095 27.5009 185.3831 0.0000 36.8106 0.0000
# 4 0.0000 0.0000 0.0000 48.2235 0.0000 1.7553
# 5 38.0647 8.1776 36.8106 0.0000 54.6069 0.0000
# 6 0.0000 0.0000 0.0000 1.7553 0.0000 20.5836
#
#
#
# Elastic Compliance Matrix: (Units=1/GPa)
#
#
# Indices 1 2 3 4 5 6 
#
# 1 0.008339 -0.004278 -0.002164 0.000000 -0.003713 0.000000
# 2 -0.004278 0.032379 -0.003023 0.000000 0.000171 0.000000
# 3 -0.002164 -0.003023 0.007355 0.000000 -0.002997 0.000000
# 4 0.000000 0.000000 0.000000 0.020801 0.000000 -0.001774
# 5 -0.003713 0.000171 -0.002997 0.000000 0.022896 0.000000
# 6 0.000000 0.000000 0.000000 -0.001774 0.000000 0.048734
#
#
# Mechanical properties :
#
#
# Convention : Reuss Voigt Hill
#
# Bulk Modulus (GPa) = 34.31440 74.16678 54.24059
# Shear Modulus (GPa) = 29.55981 41.97113 35.76547
#
# Velocity S-wave (km/s) = 3.65977 4.36093 4.02564
# Velocity P-wave (km/s) = 5.77987 7.67873 6.79595
#
# Compressibility (1/GPa) = 0.02914228
#
# Stress axis : x y z
#
# Youngs Moduli (GPa) = 119.91973 30.88467 135.95331
#
# Poissons Ratio (x) = 0.13213 0.29421
# Poissons Ratio (y) = 0.51303 0.41101
# Poissons Ratio (z) = 0.25951 0.09337
#
# Static dielectric constant tensor:
#      x y z
#    x 1.800710 0.000000 -0.009100 
#    y 0.000000 1.863510 0.000000 
#    z -0.009100 0.000000 1.831220 
# 
# From -- ./inp_files/19434.got.cif
#   From: 2010.05.17/outbox.cif.g08.bks.cpg/sg5_10_cif.got.tgz:19434.got - 2010.06.03 18:56:24.
