data_PCOD9122643
_publ_section_title
;
Structure prediction by ZEFSAII (Michael W. Deem and Ramdas Pophale) SiO2 
 PCOD9122643
Probable space group: C 2
;
_chemical_formula_sum "Si O2"
_cell_formula_units_Z 26
_cell_length_a 14.451000
_cell_length_b 21.713800
_cell_length_c 5.253100
_cell_angle_alpha 90.000000
_cell_angle_beta 134.079221
_cell_angle_gamma 90.000000
_cell_volume 1184.139336
_symmetry_space_group_name_H-M "C 2"
_symmetry_group_IT_number 5
_symmetry_cell_setting 'monoclinic'
loop_
_space_group_symop_operation_xyz
x,y,z
-x,y,-z
1/2+x,1/2+y,z
1/2-x,1/2+y,-z
loop_
_atom_site_type_symbol
_atom_site_label
_atom_site_fract_x
_atom_site_fract_y
_atom_site_fract_z
Si Si1 0.500000 0.222950 0.000000
Si Si2 0.745514 0.399069 0.866107
Si Si3 0.647130 0.274990 0.889801
Si Si4 0.500000 0.468527 0.500000
Si Si5 0.175172 0.648935 0.722007
Si Si6 0.864207 0.060097 0.866309
Si Si7 0.345209 0.964397 0.577559
Si Si8 0.000000 0.541121 0.500000
O O1 0.613234 0.268753 0.122605
O O2 0.435352 0.176413 0.674548
O O3 0.728039 0.328533 0.918271
O O4 0.599609 0.425165 0.537623
O O5 0.832333 0.415571 0.785607
O O6 0.797522 0.430836 0.225293
O O7 0.500000 0.279718 0.500000
O O8 0.705223 0.207812 0.947468
O O9 0.592305 0.514661 0.825645
O O10 0.297421 0.623299 0.811091
O O11 0.119424 0.588264 0.754709
O O12 0.753675 0.018514 0.523933
O O13 0.000000 0.072161 0.000000
O O14 0.468277 0.000228 0.687368
#
# Coordination Sequence:
#
# PCOD9122643 Si02
#       8
#     2   4   4   2   4   4   4   2
#     4  10  20  36  60  96 124 168 222 264 340 370
#     4  11  22  38  61  91 129 163 210 261 325 383
#     4  10  21  36  58  91 123 163 212 270 320 380
#     4  10  20  35  56  91 126 164 200 260 328 386
#     4  10  21  38  60  94 123 167 215 271 323 384
#     4  10  20  37  58  89 129 160 215 258 329 392
#     4  10  24  37  63  93 123 173 204 268 318 386
#     4  10  20  43  60  93 130 164 224 260 326 388
#
# _framework density 21.956876999999999
#
# number of rings (size 3 to 8) (size 9 to 14) (size 15 to 20)
#    0.000    1.846    4.615    0.000    4.308    4.308 
#    0.000    0.000    3.385    0.000    0.000    0.000 
#    0.000    0.000    0.000    0.000    0.000    0.000 
#
# Total GULP energy -72368.518973 kJ/mol
# GULP energy per Si atom -5566.809152 kJ/mol
# Density = 2.190690 g / cm^3
# Si number density = 21.956877 Si / 1000 Ang^3
#
#
#
# Elastic Constant Matrix: (Units=GPa)
#
#
# Indices 1 2 3 4 5 6 
#
# 1 163.2304 87.0843 23.5156 0.0000 -15.8579 0.0000
# 2 87.0843 134.1552 19.2714 0.0000 -10.4640 0.0000
# 3 23.5156 19.2714 37.6519 0.0000 -9.3950 0.0000
# 4 0.0000 0.0000 0.0000 15.5975 0.0000 2.3582
# 5 -15.8579 -10.4640 -9.3950 0.0000 29.8028 0.0000
# 6 0.0000 0.0000 0.0000 2.3582 0.0000 56.8115
#
#
#
# Elastic Compliance Matrix: (Units=1/GPa)
#
#
# Indices 1 2 3 4 5 6 
#
# 1 0.009839 -0.005832 -0.002566 0.000000 0.002378 0.000000
# 2 -0.005832 0.011579 -0.002218 0.000000 0.000263 0.000000
# 3 -0.002566 -0.002218 0.031218 0.000000 0.007697 0.000000
# 4 0.000000 0.000000 0.000000 0.064518 0.000000 -0.002678
# 5 0.002378 0.000263 0.007697 0.000000 0.037338 0.000000
# 6 0.000000 0.000000 0.000000 -0.002678 0.000000 0.017713
#
#
# Mechanical properties :
#
#
# Convention : Reuss Voigt Hill
#
# Bulk Modulus (GPa) = 31.84529 66.08668 48.96599
# Shear Modulus (GPa) = 24.52115 34.12012 29.32064
#
# Velocity S-wave (km/s) = 3.34546 3.94631 3.65824
# Velocity P-wave (km/s) = 5.42751 7.13640 6.33980
#
# Compressibility (1/GPa) = 0.03140181
#
# Stress axis : x y z
#
# Youngs Moduli (GPa) = 101.63938 86.36132 32.03311
#
# Poissons Ratio (x) = 0.50370 0.08220
# Poissons Ratio (y) = 0.59281 0.07106
# Poissons Ratio (z) = 0.26082 0.19158
#
# Static dielectric constant tensor:
#      x y z
#    x 1.947160 0.000000 -0.060380 
#    y 0.000000 1.798420 0.000000 
#    z -0.060380 0.000000 1.935840 
# 
# From -- ./inp_files/5722.got.cif
#   From: 2010.05.17/outbox.cif.g08.bks.cpg/sg5_3_cif.got.tgz:5722.got - 2010.06.03 18:56:24.
