data_PCOD9122304
_publ_section_title
;
Structure prediction by ZEFSAII (Michael W. Deem and Ramdas Pophale) SiO2 
 PCOD9122304
Probable space group: C 2
;
_chemical_formula_sum "Si O2"
_cell_formula_units_Z 18
_cell_length_a 5.908763
_cell_length_b 24.981520
_cell_length_c 5.168510
_cell_angle_alpha 90.000000
_cell_angle_beta 89.309987
_cell_angle_gamma 90.000000
_cell_volume 762.867822
_symmetry_space_group_name_H-M "C 2"
_symmetry_group_IT_number 5
_symmetry_cell_setting 'monoclinic'
loop_
_space_group_symop_operation_xyz
x,y,z
-x,y,-z
1/2+x,1/2+y,z
1/2-x,1/2+y,-z
loop_
_atom_site_type_symbol
_atom_site_label
_atom_site_fract_x
_atom_site_fract_y
_atom_site_fract_z
Si Si1 0.337879 0.640590 0.252797
Si Si2 0.000000 0.723710 0.500000
Si Si3 0.338244 0.523918 0.251543
Si Si4 0.838093 0.908540 0.251624
Si Si5 0.142236 0.293080 0.246315
O O1 0.500000 0.639365 0.500000
O O2 0.220209 0.581642 0.239751
O O3 0.158130 0.685743 0.323406
O O4 0.500000 0.648213 0.000000
O O5 0.872006 0.761819 0.298141
O O6 0.500000 0.523748 0.500000
O O7 0.214808 0.466489 0.257679
O O8 0.500000 0.523020 0.000000
O O9 0.682985 0.856660 0.240674
O O10 0.000000 0.904321 0.500000
O O11 0.000000 0.906822 0.000000
O O12 0.000000 0.279668 0.500000
O O13 0.000000 0.276916 0.000000
#
# Coordination Sequence:
#
# PCOD9122304 Si02
#       5
#     4   2   4   4   4
#     4  10  23  45  70 103 138 183 233 284 351 413
#     4  12  28  48  72 102 146 190 238 290 342 422
#     4   8  16  34  67  98 132 173 218 281 345 407
#     4  10  19  40  70  99 135 179 221 281 353 407
#     4  12  28  46  68 104 140 184 237 288 344 407
#
# _framework density 23.595177
#
# number of rings (size 3 to 8) (size 9 to 14) (size 15 to 20)
#    0.000    1.778    1.111    2.000    0.000    6.222 
#    2.000    0.000    0.000    0.000    0.000    0.000 
#    0.000    0.000    0.000    0.000    0.000    0.000 
#
# Total GULP energy -50342.500660 kJ/mol
# GULP energy per Si atom -5593.611184 kJ/mol
# Density = 2.354147 g / cm^3
# Si number density = 23.595177 Si / 1000 Ang^3
#
#
#
# Elastic Constant Matrix: (Units=GPa)
#
#
# Indices 1 2 3 4 5 6 
#
# 1 52.1442 56.3888 41.7826 0.0000 7.0549 0.0000
# 2 56.3888 218.1970 31.4139 0.0000 14.7271 0.0000
# 3 41.7826 31.4139 209.3987 0.0000 -0.0751 0.0000
# 4 0.0000 0.0000 0.0000 17.2573 0.0000 -32.0918
# 5 7.0549 14.7271 -0.0751 0.0000 37.2031 0.0000
# 6 0.0000 0.0000 0.0000 -32.0918 0.0000 -20.2420
#
#
#
# Elastic Compliance Matrix: (Units=1/GPa)
#
#
# Indices 1 2 3 4 5 6 
#
# 1 0.031566 -0.007193 -0.005220 0.000000 -0.003149 0.000000
# 2 -0.007193 0.006455 0.000467 0.000000 -0.001190 0.000000
# 3 -0.005220 0.000467 0.005748 0.000000 0.000817 0.000000
# 4 0.000000 0.000000 0.000000 0.014677 0.000000 -0.023268
# 5 -0.003149 -0.001190 0.000817 0.000000 0.027949 0.000000
# 6 0.000000 0.000000 0.000000 -0.023268 0.000000 -0.012512
#
#
# Mechanical properties :
#
#
# Convention : Reuss Voigt Hill
#
# Bulk Modulus (GPa) = 50.31775 82.10116 66.20945
# Shear Modulus (GPa) = 47.89211 30.18731 39.03971
#
# Velocity S-wave (km/s) = 4.51015 3.58073 4.07205
# Velocity P-wave (km/s) = 6.96374 7.20880 7.08733
#
# Compressibility (1/GPa) = 0.01987370
#
# Stress axis : x y z
#
# Youngs Moduli (GPa) = 31.67994 154.91409 173.98697
#
# Poissons Ratio (x) = 1.11436 0.90829
# Poissons Ratio (y) = 0.22789 -0.08117
# Poissons Ratio (z) = 0.16538 -0.07227
#
# Static dielectric constant tensor:
#      x y z
#    x 1.825310 0.000000 0.003100 
#    y 0.000000 1.975040 0.000000 
#    z 0.003100 0.000000 1.831770 
# 
# From -- ./inp_files/1169.got.cif
#   From: 2010.05.17/outbox.cif.g08.bks.cpg/sg5_1_cif.got.tgz:1169.got - 2010.06.03 18:56:24.
