data_PCOD9122835
_publ_section_title
;
Structure prediction by ZEFSAII (Michael W. Deem and Ramdas Pophale) SiO2 
 PCOD9122835
Probable space group: C 2
;
_chemical_formula_sum "Si O2"
_cell_formula_units_Z 28
_cell_length_a 16.147724
_cell_length_b 7.127091
_cell_length_c 15.934645
_cell_angle_alpha 90.000000
_cell_angle_beta 137.584127
_cell_angle_gamma 90.000000
_cell_volume 1236.950832
_symmetry_space_group_name_H-M "C 2"
_symmetry_group_IT_number 5
_symmetry_cell_setting 'monoclinic'
loop_
_space_group_symop_operation_xyz
x,y,z
-x,y,-z
1/2+x,1/2+y,z
1/2-x,1/2+y,-z
loop_
_atom_site_type_symbol
_atom_site_label
_atom_site_fract_x
_atom_site_fract_y
_atom_site_fract_z
Si Si1 0.350909 0.689160 0.687994
Si Si2 0.196173 0.069514 0.854010
Si Si3 0.136736 0.126864 0.624455
Si Si4 0.397186 0.861539 0.087091
Si Si5 0.629651 0.172690 0.633866
Si Si6 0.272041 0.096939 0.563341
Si Si7 0.542683 0.202003 0.746633
O O1 0.480627 0.734237 0.828977
O O2 0.251746 0.608448 0.678596
O O3 0.332707 0.583199 0.585875
O O4 0.309680 0.892424 0.622813
O O5 0.089477 0.914997 0.793414
O O6 0.177258 0.166829 0.749714
O O7 0.189316 0.230799 0.919291
O O8 0.319146 0.941933 0.951037
O O9 0.221702 0.190043 0.610913
O O10 0.000000 0.189779 0.500000
O O11 0.132415 0.898842 0.624139
O O12 0.433972 0.053087 0.162565
O O13 0.500000 0.107236 0.500000
O O14 0.620085 0.132585 0.724578
O O15 0.397134 0.185201 0.620336
#
# Coordination Sequence:
#
# PCOD9122835 Si02
#       7
#     4   4   4   4   4   4   4
#     4  10  21  35  60  98 128 164 212 261 325 380
#     4  11  22  42  67  86 128 169 216 261 315 381
#     4   9  19  35  61  93 123 167 207 264 330 372
#     4  11  23  40  64  92 123 173 216 255 318 382
#     4   9  16  34  60  89 126 164 203 259 324 375
#     4  10  20  36  59  94 128 161 212 264 319 382
#     4  10  21  39  62  91 123 166 215 264 313 377
#
# _framework density 22.636310000000002
#
# number of rings (size 3 to 8) (size 9 to 14) (size 15 to 20)
#    0.000    2.000    2.857    0.857    4.000    0.000 
#    2.571   12.143    0.000    1.714    0.000    0.000 
#    0.000    0.000    0.000    0.000    0.000    0.000 
#
# Total GULP energy -78075.792936 kJ/mol
# GULP energy per Si atom -5576.842353 kJ/mol
# Density = 2.258479 g / cm^3
# Si number density = 22.636310 Si / 1000 Ang^3
#
#
#
# Elastic Constant Matrix: (Units=GPa)
#
#
# Indices 1 2 3 4 5 6 
#
# 1 112.5906 18.6444 45.5154 0.0000 4.5122 0.0000
# 2 18.6444 61.7963 0.4329 0.0000 3.0868 0.0000
# 3 45.5154 0.4329 116.9583 0.0000 17.7514 0.0000
# 4 0.0000 0.0000 0.0000 10.4232 0.0000 15.7284
# 5 4.5122 3.0868 17.7514 0.0000 33.2327 0.0000
# 6 0.0000 0.0000 0.0000 15.7284 0.0000 -2.9390
#
#
#
# Elastic Compliance Matrix: (Units=1/GPa)
#
#
# Indices 1 2 3 4 5 6 
#
# 1 0.011237 -0.003419 -0.004545 0.000000 0.001220 0.000000
# 2 -0.003419 0.017302 0.001567 0.000000 -0.001980 0.000000
# 3 -0.004545 0.001567 0.011145 0.000000 -0.005482 0.000000
# 4 0.000000 0.000000 0.000000 0.010571 0.000000 0.056573
# 5 0.001220 -0.001980 -0.005482 0.000000 0.033037 0.000000
# 6 0.000000 0.000000 0.000000 0.056573 0.000000 -0.037491
#
#
# Mechanical properties :
#
#
# Convention : Reuss Voigt Hill
#
# Bulk Modulus (GPa) = 37.19066 46.72561 41.95814
# Shear Modulus (GPa) = 74.01009 23.26020 48.63515
#
# Velocity S-wave (km/s) = 5.72418 3.20904 4.64027
# Velocity P-wave (km/s) = 7.75588 5.86662 6.87644
#
# Compressibility (1/GPa) = 0.02688847
#
# Stress axis : x y z
#
# Youngs Moduli (GPa) = 88.99559 57.79771 89.72573
#
# Poissons Ratio (x) = 0.19762 0.40783
# Poissons Ratio (y) = 0.30430 -0.14061
# Poissons Ratio (z) = 0.40451 -0.09057
#
# Static dielectric constant tensor:
#      x y z
#    x 1.908080 0.000000 -0.027830 
#    y 0.000000 1.904410 0.000000 
#    z -0.027830 0.000000 1.928390 
# 
# From -- ./inp_files/54219.got.cif
#   From: 2010.05.17/outbox.cif.g08.bks.cpg/sg5_28_cif.got.tgz:54219.got - 2010.06.03 18:56:24.
