data_PCOD9122783
_publ_section_title
;
Structure prediction by ZEFSAII (Michael W. Deem and Ramdas Pophale) SiO2 
 PCOD9122783
Probable space group: C 2
;
_chemical_formula_sum "Si O2"
_cell_formula_units_Z 32
_cell_length_a 14.580806
_cell_length_b 4.866899
_cell_length_c 18.175828
_cell_angle_alpha 90.000000
_cell_angle_beta 75.465325
_cell_angle_gamma 90.000000
_cell_volume 1248.537535
_symmetry_space_group_name_H-M "C 2"
_symmetry_group_IT_number 5
_symmetry_cell_setting 'monoclinic'
loop_
_space_group_symop_operation_xyz
x,y,z
-x,y,-z
1/2+x,1/2+y,z
1/2-x,1/2+y,-z
loop_
_atom_site_type_symbol
_atom_site_label
_atom_site_fract_x
_atom_site_fract_y
_atom_site_fract_z
Si Si1 0.147404 0.606100 0.080012
Si Si2 0.497833 0.279445 0.787236
Si Si3 0.276450 0.469773 0.737196
Si Si4 0.591030 0.978199 0.322207
Si Si5 0.128337 0.097057 0.992100
Si Si6 0.221102 0.605857 0.595414
Si Si7 0.652693 0.097880 0.459052
Si Si8 0.907228 0.288110 0.156721
O O1 0.110707 0.757846 0.160992
O O2 0.260553 0.610854 0.052196
O O3 0.119953 0.295374 0.064826
O O4 0.109137 0.789930 0.020947
O O5 0.490003 0.128125 0.709653
O O6 0.554702 0.560099 0.791436
O O7 0.539385 0.065515 0.836674
O O8 0.321657 0.185867 0.703450
O O9 0.206884 0.566262 0.684406
O O10 0.201558 0.390561 0.814271
O O11 0.364190 0.692335 0.719018
O O12 0.577804 0.990184 0.413604
O O13 0.076164 0.177273 0.928159
O O14 0.254325 0.916951 0.578151
O O15 0.143504 0.547848 0.548466
O O16 0.313678 0.412417 0.559412
#
# Coordination Sequence:
#
# PCOD9122783 Si02
#       8
#     4   4   4   4   4   4   4   4
#     4  10  22  40  61  82 106 142 188 234 281 339
#     4  12  25  38  56  84 118 151 185 233 287 343
#     4  10  20  36  58  82 112 151 192 235 283 340
#     4  10  20  36  58  82 112 151 192 235 283 340
#     4  10  22  40  61  82 106 142 188 234 281 339
#     4   8  14  26  48  79 107 134 179 236 282 319
#     4   8  14  26  48  79 107 134 179 236 282 319
#     4  12  25  38  56  84 118 151 185 233 287 343
#
# _framework density 25.629982999999999
#
# number of rings (size 3 to 8) (size 9 to 14) (size 15 to 20)
#    0.000    2.000    0.000    3.750    0.000    6.000 
#    0.000    0.000    0.000    0.750    0.000    1.750 
#    0.000    0.000    0.000    0.000    0.000    0.000 
#
# Total GULP energy -89222.442178 kJ/mol
# GULP energy per Si atom -5576.402636 kJ/mol
# Density = 2.557165 g / cm^3
# Si number density = 25.629983 Si / 1000 Ang^3
#
#
#
# Elastic Constant Matrix: (Units=GPa)
#
#
# Indices 1 2 3 4 5 6 
#
# 1 82.9152 3.0115 0.9098 0.0000 14.4832 0.0000
# 2 3.0115 115.9737 -3.8423 -0.0001 -2.3597 0.0000
# 3 0.9098 -3.8423 102.2092 0.0000 24.9055 0.0000
# 4 0.0000 -0.0001 0.0000 26.1698 0.0000 7.1220
# 5 14.4832 -2.3597 24.9055 0.0000 29.7335 0.0000
# 6 0.0000 0.0000 0.0000 7.1220 0.0000 15.9193
#
#
#
# Elastic Compliance Matrix: (Units=1/GPa)
#
#
# Indices 1 2 3 4 5 6 
#
# 1 0.013481 -0.000455 0.001849 0.000000 -0.008151 0.000000
# 2 -0.000455 0.008655 0.000136 0.000000 0.000795 0.000000
# 3 0.001849 0.000136 0.012551 0.000000 -0.011403 0.000000
# 4 0.000000 0.000000 0.000000 0.043510 0.000000 -0.019465
# 5 -0.008151 0.000795 -0.011403 0.000000 0.047217 0.000000
# 6 0.000000 0.000000 0.000000 -0.019465 0.000000 0.071525
#
#
# Mechanical properties :
#
#
# Convention : Reuss Voigt Hill
#
# Bulk Modulus (GPa) = 26.49184 33.47290 29.98237
# Shear Modulus (GPa) = 24.21767 34.43244 29.32505
#
# Velocity S-wave (km/s) = 3.07725 3.66928 3.38623
# Velocity P-wave (km/s) = 4.79423 5.57134 5.19733
#
# Compressibility (1/GPa) = 0.03774747
#
# Stress axis : x y z
#
# Youngs Moduli (GPa) = 74.18084 115.53859 79.67420
#
# Poissons Ratio (x) = 0.05253 -0.14733
# Poissons Ratio (y) = 0.03373 -0.01082
# Poissons Ratio (z) = -0.13717 -0.01569
#
# Static dielectric constant tensor:
#      x y z
#    x 2.119460 0.000000 -0.018930 
#    y 0.000000 1.906570 0.000000 
#    z -0.018930 0.000000 2.189310 
# 
# From -- ./inp_files/61220.got.cif
#   From: 2010.05.17/outbox.cif.g08.bks.cpg/sg5_31_cif.got.tgz:61220.got - 2010.06.03 18:56:24.
