data_PCOD9122673
_publ_section_title
;
Structure prediction by ZEFSAII (Michael W. Deem and Ramdas Pophale) SiO2 
 PCOD9122673
Probable space group: C 2
;
_chemical_formula_sum "Si O2"
_cell_formula_units_Z 24
_cell_length_a 8.581467
_cell_length_b 27.849518
_cell_length_c 7.257282
_cell_angle_alpha 90.000000
_cell_angle_beta 143.457439
_cell_angle_gamma 90.000000
_cell_volume 1032.705419
_symmetry_space_group_name_H-M "C 2"
_symmetry_group_IT_number 5
_symmetry_cell_setting 'monoclinic'
loop_
_space_group_symop_operation_xyz
x,y,z
-x,y,-z
1/2+x,1/2+y,z
1/2-x,1/2+y,-z
loop_
_atom_site_type_symbol
_atom_site_label
_atom_site_fract_x
_atom_site_fract_y
_atom_site_fract_z
Si Si1 0.387590 0.832120 0.087358
Si Si2 0.761601 0.095484 0.629449
Si Si3 0.588199 0.694449 0.373533
Si Si4 0.090543 0.736435 0.880889
Si Si5 0.103635 0.888245 0.309860
Si Si6 0.762595 0.990390 0.629410
O O1 0.639017 0.854688 0.429010
O O2 0.500000 0.815730 0.000000
O O3 0.231065 0.787746 0.027205
O O4 0.155826 0.870549 0.832082
O O5 0.500000 0.100089 0.500000
O O6 0.799700 0.141210 0.536430
O O7 0.752805 0.042788 0.526925
O O8 0.000000 0.095996 0.000000
O O9 0.500000 0.704505 0.500000
O O10 0.810676 0.731583 0.517122
O O11 0.310615 0.701239 0.009120
O O12 0.000000 0.721873 0.000000
O O13 0.190389 0.942284 0.441527
O O14 0.000000 0.887778 0.000000
O O15 0.500000 0.983805 0.500000
O O16 0.000000 0.992677 0.000000
#
# Coordination Sequence:
#
# PCOD9122673 Si02
#       6
#     4   4   4   4   4   4
#     4  12  25  40  59  90 124 153 196 257 312 350
#     4  10  20  35  59  88 117 149 191 241 292 346
#     4  10  21  38  58  83 113 148 190 238 288 347
#     4  10  22  39  59  80 111 155 199 235 283 357
#     4  11  22  40  65  87 116 163 207 241 290 362
#     4   9  18  34  58  88 115 148 197 244 282 342
#
# _framework density 23.239927999999999
#
# number of rings (size 3 to 8) (size 9 to 14) (size 15 to 20)
#    0.000    1.667    0.000    5.500    0.000    4.667 
#    0.000    1.667    0.000    2.000    0.000    0.000 
#    0.000    0.000    0.000    0.000    0.000    0.000 
#
# Total GULP energy -67009.235544 kJ/mol
# GULP energy per Si atom -5584.102962 kJ/mol
# Density = 2.318703 g / cm^3
# Si number density = 23.239928 Si / 1000 Ang^3
#
#
#
# Elastic Constant Matrix: (Units=GPa)
#
#
# Indices 1 2 3 4 5 6 
#
# 1 46.4295 23.2494 47.9740 0.0000 30.7022 0.0000
# 2 23.2494 164.5491 51.4196 0.0000 31.8013 0.0000
# 3 47.9740 51.4196 160.6850 0.0000 50.3423 0.0000
# 4 0.0000 0.0000 0.0000 35.0745 0.0000 12.8517
# 5 30.7022 31.8013 50.3423 0.0000 48.0333 0.0000
# 6 0.0000 0.0000 0.0000 12.8517 0.0000 34.6512
#
#
#
# Elastic Compliance Matrix: (Units=1/GPa)
#
#
# Indices 1 2 3 4 5 6 
#
# 1 0.040829 -0.000080 -0.005962 0.000000 -0.019795 0.000000
# 2 -0.000080 0.007120 -0.001182 0.000000 -0.003424 0.000000
# 3 -0.005962 -0.001182 0.010337 0.000000 -0.006240 0.000000
# 4 0.000000 0.000000 0.000000 0.032995 0.000000 -0.012237
# 5 -0.019795 -0.003424 -0.006240 0.000000 0.042279 0.000000
# 6 0.000000 0.000000 0.000000 -0.012237 0.000000 0.033398
#
#
# Mechanical properties :
#
#
# Convention : Reuss Voigt Hill
#
# Bulk Modulus (GPa) = 22.81178 68.54995 45.68087
# Shear Modulus (GPa) = 25.50810 40.15318 32.83064
#
# Velocity S-wave (km/s) = 3.31660 4.16115 3.76264
# Velocity P-wave (km/s) = 4.95010 7.25586 6.21092
#
# Compressibility (1/GPa) = 0.04383700
#
# Stress axis : x y z
#
# Youngs Moduli (GPa) = 24.49257 140.45928 96.74332
#
# Poissons Ratio (x) = 0.01122 0.57682
# Poissons Ratio (y) = 0.00196 0.11432
# Poissons Ratio (z) = 0.14603 0.16597
#
# Static dielectric constant tensor:
#      x y z
#    x 1.868840 0.000000 -0.041250 
#    y 0.000000 1.931770 0.000000 
#    z -0.041250 0.000000 1.984720 
# 
# From -- ./inp_files/17663.got.cif
#   From: 2010.05.17/outbox.cif.g08.bks.cpg/sg5_9_cif.got.tgz:17663.got - 2010.06.03 18:56:24.
