data_PCOD9122644
_publ_section_title
;
Structure prediction by ZEFSAII (Michael W. Deem and Ramdas Pophale) SiO2 
 PCOD9122644
Probable space group: C 2
;
_chemical_formula_sum "Si O2"
_cell_formula_units_Z 30
_cell_length_a 19.955566
_cell_length_b 11.088723
_cell_length_c 15.060974
_cell_angle_alpha 90.000000
_cell_angle_beta 147.972037
_cell_angle_gamma 90.000000
_cell_volume 1767.450940
_symmetry_space_group_name_H-M "C 2"
_symmetry_group_IT_number 5
_symmetry_cell_setting 'monoclinic'
loop_
_space_group_symop_operation_xyz
x,y,z
-x,y,-z
1/2+x,1/2+y,z
1/2-x,1/2+y,-z
loop_
_atom_site_type_symbol
_atom_site_label
_atom_site_fract_x
_atom_site_fract_y
_atom_site_fract_z
Si Si1 0.297632 0.222130 0.628797
Si Si2 0.000000 0.047942 0.000000
Si Si3 0.389361 0.666090 0.438063
Si Si4 0.709620 0.123448 0.079958
Si Si5 0.060217 0.074155 0.781353
Si Si6 0.596227 0.722733 0.253438
Si Si7 0.465798 0.997054 0.859049
Si Si8 0.556232 0.368203 0.914566
O O1 0.196274 0.247741 0.593237
O O2 0.225894 0.223023 0.454563
O O3 0.353858 0.088427 0.707813
O O4 0.415974 0.311674 0.765771
O O5 0.912637 0.133737 0.840826
O O6 0.074308 0.960239 0.016342
O O7 0.500000 0.722711 0.500000
O O8 0.293655 0.602652 0.262570
O O9 0.463494 0.579608 0.589752
O O10 0.803384 0.108692 0.103138
O O11 0.590183 0.035308 0.944031
O O12 0.653310 0.257998 0.023970
O O13 0.007132 0.169812 0.793324
O O14 0.063079 0.946262 0.833053
O O15 0.567093 0.858581 0.192563
O O16 0.500000 0.019996 0.000000
#
# Coordination Sequence:
#
# PCOD9122644 Si02
#       8
#     4   2   4   4   4   4   4   4
#     4  10  21  35  55  84 109 144 188 227 273 329
#     4  10  20  36  52  82 106 142 180 222 282 324
#     4   9  17  33  53  78 106 139 176 225 265 324
#     4  10  20  35  57  80 109 140 190 225 271 331
#     4   9  21  36  54  79 110 143 183 219 286 320
#     4  10  22  36  54  80 113 140 182 230 283 324
#     4  11  21  35  57  83 107 145 185 234 278 317
#     4  10  21  35  59  79 107 147 183 228 274 325
#
# _framework density 16.973596000000001
#
# number of rings (size 3 to 8) (size 9 to 14) (size 15 to 20)
#    0.000    2.133    2.000    0.800    9.333    0.000 
#    0.000    0.000    0.000    0.000    0.000    8.400 
#    0.000    0.000    0.000    0.000    0.000    0.000 
#
# Total GULP energy -83599.236717 kJ/mol
# GULP energy per Si atom -5573.282448 kJ/mol
# Density = 1.693496 g / cm^3
# Si number density = 16.973596 Si / 1000 Ang^3
#
#
#
# Elastic Constant Matrix: (Units=GPa)
#
#
# Indices 1 2 3 4 5 6 
#
# 1 94.1559 39.4898 50.5820 0.0000 5.5935 0.0000
# 2 39.4898 107.2456 40.5411 0.0000 -0.5237 0.0000
# 3 50.5820 40.5411 79.6326 0.0000 -0.1098 0.0000
# 4 0.0000 0.0000 0.0000 16.0329 0.0000 -5.9664
# 5 5.5935 -0.5237 -0.1098 0.0000 29.7129 0.0000
# 6 0.0000 0.0000 0.0000 -5.9664 0.0000 14.0934
#
#
#
# Elastic Compliance Matrix: (Units=1/GPa)
#
#
# Indices 1 2 3 4 5 6 
#
# 1 0.017024 -0.002718 -0.009434 0.000000 -0.003288 0.000000
# 2 -0.002718 0.011982 -0.004372 0.000000 0.000707 0.000000
# 3 -0.009434 -0.004372 0.020779 0.000000 0.001776 0.000000
# 4 0.000000 0.000000 0.000000 0.074035 0.000000 0.031343
# 5 -0.003288 0.000707 0.001776 0.000000 0.034293 0.000000
# 6 0.000000 0.000000 0.000000 0.031343 0.000000 0.084224
#
#
# Mechanical properties :
#
#
# Convention : Reuss Voigt Hill
#
# Bulk Modulus (GPa) = 59.75580 60.25110 60.00345
# Shear Modulus (GPa) = 17.79578 21.99592 19.89585
#
# Velocity S-wave (km/s) = 3.24147 3.60375 3.42740
# Velocity P-wave (km/s) = 7.02076 7.27256 7.14777
#
# Compressibility (1/GPa) = 0.01673478
#
# Stress axis : x y z
#
# Youngs Moduli (GPa) = 58.73929 83.46158 48.12639
#
# Poissons Ratio (x) = 0.22688 0.45404
# Poissons Ratio (y) = 0.15967 0.21042
# Poissons Ratio (z) = 0.55417 0.36491
#
# Static dielectric constant tensor:
#      x y z
#    x 1.596840 0.000000 -0.001930 
#    y 0.000000 1.545140 0.000000 
#    z -0.001930 0.000000 1.576230 
# 
# From -- ./inp_files/55857.got.cif
#   From: 2010.05.17/outbox.cif.g08.bks.cpg/sg5_28_cif.got.tgz:55857.got - 2010.06.03 18:56:24.
