data_PCOD9122415
_publ_section_title
;
Structure prediction by ZEFSAII (Michael W. Deem and Ramdas Pophale) SiO2 
 PCOD9122415
Probable space group: C 2
;
_chemical_formula_sum "Si O2"
_cell_formula_units_Z 30
_cell_length_a 19.968114
_cell_length_b 5.310846
_cell_length_c 20.828610
_cell_angle_alpha 90.000000
_cell_angle_beta 39.759437
_cell_angle_gamma 90.000000
_cell_volume 1412.687683
_symmetry_space_group_name_H-M "C 2"
_symmetry_group_IT_number 5
_symmetry_cell_setting 'monoclinic'
loop_
_space_group_symop_operation_xyz
x,y,z
-x,y,-z
1/2+x,1/2+y,z
1/2-x,1/2+y,-z
loop_
_atom_site_type_symbol
_atom_site_label
_atom_site_fract_x
_atom_site_fract_y
_atom_site_fract_z
Si Si1 0.301368 0.925920 0.756337
Si Si2 0.505273 0.429027 0.128685
Si Si3 0.500000 0.740689 0.000000
Si Si4 0.230239 0.910487 0.660304
Si Si5 0.654771 0.108702 0.940652
Si Si6 0.297576 0.585836 0.942217
Si Si7 0.581515 0.421893 0.347367
Si Si8 0.347503 0.409338 0.554362
O O1 0.266652 0.922350 0.707869
O O2 0.198966 0.855395 0.872767
O O3 0.380681 0.691674 0.705560
O O4 0.359571 0.184993 0.726967
O O5 0.394490 0.387166 0.243443
O O6 0.584707 0.557299 0.120533
O O7 0.493058 0.588298 0.071705
O O8 0.565091 0.180851 0.058168
O O9 0.601819 0.920379 0.930158
O O10 0.284923 0.666962 0.589520
O O11 0.274143 0.167903 0.597915
O O12 0.753054 0.998121 0.906538
O O13 0.235981 0.378657 0.030818
O O14 0.456736 0.394956 0.436115
O O15 0.616656 0.412965 0.396772
#
# Coordination Sequence:
#
# PCOD9122415 Si02
#       8
#     4   4   2   4   4   4   4   4
#     4  10  20  31  52  80 111 151 186 237 288 347
#     4  11  24  37  57  86 122 160 204 244 298 355
#     4  12  22  36  60  86 122 166 202 252 294 348
#     4  10  20  31  52  80 111 151 186 237 288 347
#     4  11  24  37  57  86 122 160 204 244 298 355
#     4  10  22  42  58  78 116 166 206 242 290 348
#     4   9  18  32  50  76 112 148 184 232 296 352
#     4   9  18  32  50  76 112 148 184 232 296 352
#
# _framework density 21.236114000000001
#
# number of rings (size 3 to 8) (size 9 to 14) (size 15 to 20)
#    0.000    1.867    1.333    2.800    9.333    3.200 
#    0.000    0.000    0.000    0.000    0.000    3.733 
#    0.000    0.000    0.000    0.000    0.000    0.000 
#
# Total GULP energy -83729.961814 kJ/mol
# GULP energy per Si atom -5581.997454 kJ/mol
# Density = 2.118778 g / cm^3
# Si number density = 21.236114 Si / 1000 Ang^3
#
#
#
# Elastic Constant Matrix: (Units=GPa)
#
#
# Indices 1 2 3 4 5 6 
#
# 1 86.2734 25.2847 21.7297 0.0103 -27.7790 -0.0077
# 2 25.2847 115.4164 41.0233 0.0251 -18.1105 -0.0533
# 3 21.7297 41.0233 99.0612 0.0206 -34.0817 -0.0338
# 4 0.0103 0.0251 0.0206 32.6340 -0.0066 -2.9121
# 5 -27.7790 -18.1105 -34.0817 -0.0066 24.8262 0.0085
# 6 -0.0077 -0.0533 -0.0338 -2.9121 0.0085 16.1414
#
#
#
# Elastic Compliance Matrix: (Units=1/GPa)
#
#
# Indices 1 2 3 4 5 6 
#
# 1 0.020411 -0.002119 0.007061 -0.000003 0.030986 0.000001
# 2 -0.002119 0.010507 -0.003913 -0.000003 -0.000079 0.000025
# 3 0.007061 -0.003913 0.022556 -0.000005 0.036011 0.000018
# 4 -0.000003 -0.000003 -0.000005 0.031144 -0.000005 0.005619
# 5 0.030986 -0.000079 0.036011 -0.000005 0.124330 0.000023
# 6 0.000001 0.000025 0.000018 0.005619 0.000023 0.062966
#
#
# Mechanical properties :
#
#
# Convention : Reuss Voigt Hill
#
# Bulk Modulus (GPa) = 18.00808 52.98072 35.49440
# Shear Modulus (GPa) = 17.33894 28.90120 23.12007
#
# Velocity S-wave (km/s) = 2.86052 3.69310 3.30315
# Velocity P-wave (km/s) = 4.40550 6.57175 5.59448
#
# Compressibility (1/GPa) = 0.05553064
#
# Stress axis : x y z
#
# Youngs Moduli (GPa) = 48.99397 95.17309 44.33390
#
# Poissons Ratio (x) = 0.20168 -0.31304
# Poissons Ratio (y) = 0.10382 0.17350
# Poissons Ratio (z) = -0.34594 0.37246
#
# Static dielectric constant tensor:
#      x y z
#    x 1.795850 -0.000010 0.013090 
#    y -0.000010 1.800870 0.000010 
#    z 0.013090 0.000010 1.777830 
# 
# From -- ./inp_files/49460.got.cif
#   From: 2010.05.17/outbox.cif.g08.bks.cpg/sg5_25_cif.got.tgz:49460.got - 2010.06.03 18:56:24.
