data_PCOD9122861
_publ_section_title
;
Structure prediction by ZEFSAII (Michael W. Deem and Ramdas Pophale) SiO2 
 PCOD9122861
Probable space group: C 2
;
_chemical_formula_sum "Si O2"
_cell_formula_units_Z 28
_cell_length_a 21.729029
_cell_length_b 5.087972
_cell_length_c 13.090266
_cell_angle_alpha 90.000000
_cell_angle_beta 71.894175
_cell_angle_gamma 90.000000
_cell_volume 1375.556328
_symmetry_space_group_name_H-M "C 2"
_symmetry_group_IT_number 5
_symmetry_cell_setting 'monoclinic'
loop_
_space_group_symop_operation_xyz
x,y,z
-x,y,-z
1/2+x,1/2+y,z
1/2-x,1/2+y,-z
loop_
_atom_site_type_symbol
_atom_site_label
_atom_site_fract_x
_atom_site_fract_y
_atom_site_fract_z
Si Si1 0.390200 0.457760 0.821274
Si Si2 0.399579 0.858402 0.633056
Si Si3 0.286432 0.609759 0.024535
Si Si4 0.083591 0.170122 0.602585
Si Si5 0.280315 0.171251 0.744330
Si Si6 0.227336 0.353135 0.567244
Si Si7 0.499116 0.162343 0.313050
O O1 0.407792 0.684813 0.730831
O O2 0.331911 0.307702 0.793092
O O3 0.452264 0.270253 0.799086
O O4 0.357225 0.558538 0.941558
O O5 0.416550 0.717750 0.519495
O O6 0.324812 0.947151 0.670585
O O7 0.448892 0.101771 0.622960
O O8 0.277021 0.584420 0.150846
O O9 0.262698 0.894291 0.998051
O O10 0.156367 0.224782 0.600830
O O11 0.039668 0.393123 0.678263
O O12 0.052910 0.887488 0.638090
O O13 0.254716 0.352697 0.667599
O O14 0.229617 0.643808 0.519122
#
# Coordination Sequence:
#
# PCOD9122861 Si02
#       7
#     4   4   4   4   4   4   4
#     4  10  21  38  62  91 123 150 196 255 301 355
#     4  11  21  37  60  86 125 150 194 245 302 353
#     4  10  20  36  60  93 121 151 193 252 310 353
#     4  12  25  38  57  87 122 160 199 235 289 365
#     4  10  22  38  63  93 121 159 197 245 306 356
#     4  12  25  43  61  86 126 166 199 241 289 361
#     4  11  25  37  57  88 117 160 198 241 298 350
#
# _framework density 20.355401000000001
#
# number of rings (size 3 to 8) (size 9 to 14) (size 15 to 20)
#    0.000    1.143    4.286    2.143    6.000    0.000 
#    0.000    0.000    0.000    0.857    3.714    0.000 
#    0.000    0.000    0.000    0.000    0.000    0.000 
#
# Total GULP energy -78166.430164 kJ/mol
# GULP energy per Si atom -5583.316440 kJ/mol
# Density = 2.030907 g / cm^3
# Si number density = 20.355401 Si / 1000 Ang^3
#
#
#
# Elastic Constant Matrix: (Units=GPa)
#
#
# Indices 1 2 3 4 5 6 
#
# 1 59.1541 6.3021 10.3674 0.0000 -18.7052 0.0000
# 2 6.3021 63.5003 -10.5561 0.0000 -8.4834 0.0000
# 3 10.3674 -10.5561 46.5780 0.0000 -19.8572 0.0000
# 4 0.0000 0.0000 0.0000 19.0886 0.0000 -12.2123
# 5 -18.7052 -8.4834 -19.8572 0.0000 23.3865 0.0000
# 6 0.0000 0.0000 0.0000 -12.2123 0.0000 28.4070
#
#
#
# Elastic Compliance Matrix: (Units=1/GPa)
#
#
# Indices 1 2 3 4 5 6 
#
# 1 0.023319 0.001769 0.005385 0.000000 0.023866 0.000000
# 2 0.001769 0.020211 0.012406 0.000000 0.019280 0.000000
# 3 0.005385 0.012406 0.042064 0.000000 0.044523 0.000000
# 4 0.000000 0.000000 0.000000 0.072262 0.000000 0.031066
# 5 0.023866 0.019280 0.044523 0.000000 0.106646 0.000000
# 6 0.000000 0.000000 0.000000 0.031066 0.000000 0.048558
#
#
# Mechanical properties :
#
#
# Convention : Reuss Voigt Hill
#
# Bulk Modulus (GPa) = 8.01832 20.16213 14.09023
# Shear Modulus (GPa) = 15.84732 25.05100 20.44916
#
# Velocity S-wave (km/s) = 2.79324 3.51191 3.17299
# Velocity P-wave (km/s) = 3.78823 5.13530 4.51231
#
# Compressibility (1/GPa) = 0.12471434
#
# Stress axis : x y z
#
# Youngs Moduli (GPa) = 42.88292 49.47908 23.77344
#
# Poissons Ratio (x) = -0.08754 -0.12802
# Poissons Ratio (y) = -0.07587 -0.29494
# Poissons Ratio (z) = -0.23092 -0.61385
#
# Static dielectric constant tensor:
#      x y z
#    x 1.752960 0.000000 -0.057930 
#    y 0.000000 1.786530 0.000000 
#    z -0.057930 0.000000 1.749700 
# 
# From -- ./inp_files/45637.got.cif
#   From: 2010.05.17/outbox.cif.g08.bks.cpg/sg5_23_cif.got.tgz:45637.got - 2010.06.03 18:56:24.
