data_PCOD9122198
_publ_section_title
;
Structure prediction by ZEFSAII (Michael W. Deem and Ramdas Pophale) SiO2 
 PCOD9122198
Probable space group: C 2
;
_chemical_formula_sum "Si O2"
_cell_formula_units_Z 24
_cell_length_a 12.531431
_cell_length_b 7.713745
_cell_length_c 21.465577
_cell_angle_alpha 90.000000
_cell_angle_beta 29.030097
_cell_angle_gamma 90.000000
_cell_volume 1006.910909
_symmetry_space_group_name_H-M "C 2"
_symmetry_group_IT_number 5
_symmetry_cell_setting 'monoclinic'
loop_
_space_group_symop_operation_xyz
x,y,z
-x,y,-z
1/2+x,1/2+y,z
1/2-x,1/2+y,-z
loop_
_atom_site_type_symbol
_atom_site_label
_atom_site_fract_x
_atom_site_fract_y
_atom_site_fract_z
Si Si1 0.996856 0.239940 0.431603
Si Si2 0.891388 0.271029 0.994245
Si Si3 0.396924 0.097447 0.442568
Si Si4 0.448391 0.056849 0.769049
Si Si5 0.800786 0.265214 0.281566
Si Si6 0.564821 0.383660 0.770872
O O1 0.842288 0.144563 0.461269
O O2 0.898845 0.433716 0.486445
O O3 0.000000 0.162396 0.500000
O O4 0.251634 0.276316 0.284461
O O5 0.680666 0.375911 0.076314
O O6 0.781283 0.091635 0.077371
O O7 0.000000 0.354966 0.000000
O O8 0.072801 0.262676 0.848964
O O9 0.539603 0.252101 0.400621
O O10 0.536950 0.025141 0.311501
O O11 0.599034 0.919111 0.728382
O O12 0.535387 0.255949 0.727344
O O13 0.865828 0.078509 0.276487
#
# Coordination Sequence:
#
# PCOD9122198 Si02
#       6
#     4   4   4   4   4   4
#     4  11  23  42  63  90 130 161 214 266 311 377
#     4  10  19  39  64  89 132 164 206 263 312 375
#     4  11  25  41  65  96 123 171 213 262 318 383
#     4  10  22  41  65  90 130 170 200 269 316 364
#     4  11  21  41  64  97 125 167 217 252 320 382
#     4   9  22  38  62  90 127 161 206 264 307 371
#
# _framework density 23.835277000000001
#
# number of rings (size 3 to 8) (size 9 to 14) (size 15 to 20)
#    1.000    0.667    3.333    1.000    2.333    2.667 
#    0.000    4.167    0.000    0.000    0.000    0.000 
#    0.000    0.000    0.000    0.000    0.000    0.000 
#
# Total GULP energy -66861.297653 kJ/mol
# GULP energy per Si atom -5571.774804 kJ/mol
# Density = 2.378103 g / cm^3
# Si number density = 23.835277 Si / 1000 Ang^3
#
#
#
# Elastic Constant Matrix: (Units=GPa)
#
#
# Indices 1 2 3 4 5 6 
#
# 1 99.6811 26.4691 29.0947 -0.0002 -13.2218 0.0000
# 2 26.4691 80.1230 16.9912 -0.0001 -8.9149 -0.0001
# 3 29.0947 16.9912 85.4292 -0.0017 -27.8949 0.0001
# 4 -0.0002 -0.0001 -0.0017 14.3785 0.0000 5.6284
# 5 -13.2218 -8.9149 -27.8949 0.0000 58.7945 0.0000
# 6 0.0000 -0.0001 0.0001 5.6284 0.0000 20.1258
#
#
#
# Elastic Compliance Matrix: (Units=1/GPa)
#
#
# Indices 1 2 3 4 5 6 
#
# 1 0.011899 -0.003177 -0.003200 0.000000 0.000676 0.000000
# 2 -0.003177 0.013918 -0.001456 0.000000 0.000705 0.000000
# 3 -0.003200 -0.001456 0.015120 0.000002 0.006233 -0.000001
# 4 0.000000 0.000000 0.000002 0.078098 0.000001 -0.021841
# 5 0.000676 0.000705 0.006233 0.000001 0.020225 0.000000
# 6 0.000000 0.000000 -0.000001 -0.021841 0.000000 0.055795
#
#
# Mechanical properties :
#
#
# Convention : Reuss Voigt Hill
#
# Bulk Modulus (GPa) = 39.57041 45.59369 42.58205
# Shear Modulus (GPa) = 22.81599 31.50498 27.16049
#
# Velocity S-wave (km/s) = 3.09728 3.63957 3.37932
# Velocity P-wave (km/s) = 5.42481 6.06895 5.75590
#
# Compressibility (1/GPa) = 0.02527141
#
# Stress axis : x y z
#
# Youngs Moduli (GPa) = 84.03854 71.85153 66.13612
#
# Poissons Ratio (x) = 0.22829 0.21163
# Poissons Ratio (y) = 0.26701 0.09628
# Poissons Ratio (z) = 0.26892 0.10460
#
# Static dielectric constant tensor:
#      x y z
#    x 1.929790 0.000000 0.041940 
#    y 0.000000 1.889970 0.000000 
#    z 0.041940 0.000000 2.201300 
# 
# From -- ./inp_files/68239.got.cif
#   From: 2010.05.17/outbox.cif.g08.bks.cpg/sg5_35_cif.got.tgz:68239.got - 2010.06.03 18:56:24.
