data_PCOD9122952
_publ_section_title
;
Structure prediction by ZEFSAII (Michael W. Deem and Ramdas Pophale) SiO2 
 PCOD9122952
Probable space group: C 2
;
_chemical_formula_sum "Si O2"
_cell_formula_units_Z 18
_cell_length_a 24.449273
_cell_length_b 7.621452
_cell_length_c 7.384129
_cell_angle_alpha 90.000000
_cell_angle_beta 138.879987
_cell_angle_gamma 90.000000
_cell_volume 904.878191
_symmetry_space_group_name_H-M "C 2"
_symmetry_group_IT_number 5
_symmetry_cell_setting 'monoclinic'
loop_
_space_group_symop_operation_xyz
x,y,z
-x,y,-z
1/2+x,1/2+y,z
1/2-x,1/2+y,-z
loop_
_atom_site_type_symbol
_atom_site_label
_atom_site_fract_x
_atom_site_fract_y
_atom_site_fract_z
Si Si1 0.154613 0.381920 0.923522
Si Si2 0.415181 0.020651 0.876977
Si Si3 0.000000 0.159067 0.500000
Si Si4 0.676008 0.170449 0.677259
Si Si5 0.503036 0.323224 0.306730
O O1 0.173425 0.554627 0.852724
O O2 0.077898 0.277190 0.643288
O O3 0.123000 0.422605 0.047019
O O4 0.236733 0.264237 0.128825
O O5 0.348208 0.047857 0.552625
O O6 0.500000 0.943569 0.000000
O O7 0.446139 0.209259 0.034134
O O8 0.022821 0.022712 0.718285
O O9 0.599305 0.307804 0.492739
O O10 0.500000 0.236627 0.500000
#
# Coordination Sequence:
#
# PCOD9122952 Si02
#       5
#     4   4   2   4   4
#     4  12  23  41  62  91 127 160 210 251 306 361
#     4  10  22  41  65  88 123 165 204 251 305 368
#     4  10  20  36  66  84 120 166 196 248 302 364
#     4  11  24  39  64  92 123 166 199 260 304 358
#     4   9  18  40  64  88 121 157 200 243 309 362
#
# _framework density 19.892181000000001
#
# number of rings (size 3 to 8) (size 9 to 14) (size 15 to 20)
#    0.667    0.889    2.222    4.000    0.000    3.556 
#    0.000   12.222    0.000    0.000    0.000    0.000 
#    0.000    0.000    0.000    0.000    0.000    0.000 
#
# Total GULP energy -50197.964813 kJ/mol
# GULP energy per Si atom -5577.551646 kJ/mol
# Density = 1.984691 g / cm^3
# Si number density = 19.892181 Si / 1000 Ang^3
#
#
#
# Elastic Constant Matrix: (Units=GPa)
#
#
# Indices 1 2 3 4 5 6 
#
# 1 138.4289 44.5035 40.2114 0.0000 4.4555 0.0000
# 2 44.5035 52.9359 10.6024 0.0000 23.4102 0.0000
# 3 40.2114 10.6024 74.6683 0.0000 20.6842 0.0000
# 4 0.0000 0.0000 0.0000 21.1620 0.0000 6.8565
# 5 4.4555 23.4102 20.6842 0.0000 41.4439 0.0000
# 6 0.0000 0.0000 0.0000 6.8565 0.0000 31.5249
#
#
#
# Elastic Compliance Matrix: (Units=1/GPa)
#
#
# Indices 1 2 3 4 5 6 
#
# 1 0.014337 -0.015395 -0.008723 0.000000 0.011509 0.000000
# 2 -0.015395 0.041725 0.009790 0.000000 -0.026800 0.000000
# 3 -0.008723 0.009790 0.020856 0.000000 -0.015001 0.000000
# 4 0.000000 0.000000 0.000000 0.050837 0.000000 -0.011057
# 5 0.011509 -0.026800 -0.015001 0.000000 0.045517 0.000000
# 6 0.000000 0.000000 0.000000 -0.011057 0.000000 0.034126
#
#
# Mechanical properties :
#
#
# Convention : Reuss Voigt Hill
#
# Bulk Modulus (GPa) = 20.72055 50.74086 35.73071
# Shear Modulus (GPa) = 19.83023 30.20722 25.01872
#
# Velocity S-wave (km/s) = 3.16078 3.90108 3.55028
# Velocity P-wave (km/s) = 4.87439 6.77160 5.89976
#
# Compressibility (1/GPa) = 0.04826126
#
# Stress axis : x y z
#
# Youngs Moduli (GPa) = 69.75030 23.96648 47.94898
#
# Poissons Ratio (x) = 0.36898 0.41825
# Poissons Ratio (y) = 1.07384 -0.46944
# Poissons Ratio (z) = 0.60842 -0.23464
#
# Static dielectric constant tensor:
#      x y z
#    x 1.725700 0.000000 -0.031600 
#    y 0.000000 1.703270 0.000000 
#    z -0.031600 0.000000 1.681750 
# 
# From -- ./inp_files/31591.got.cif
#   From: 2010.05.17/outbox.cif.g08.bks.cpg/sg5_16_cif.got.tgz:31591.got - 2010.06.03 18:56:24.
