data_PCOD9122209
_publ_section_title
;
Structure prediction by ZEFSAII (Michael W. Deem and Ramdas Pophale) SiO2 
 PCOD9122209
Probable space group: C 2
;
_chemical_formula_sum "Si O2"
_cell_formula_units_Z 20
_cell_length_a 12.595264
_cell_length_b 7.028034
_cell_length_c 10.098194
_cell_angle_alpha 90.000000
_cell_angle_beta 100.748599
_cell_angle_gamma 90.000000
_cell_volume 878.208199
_symmetry_space_group_name_H-M "C 2"
_symmetry_group_IT_number 5
_symmetry_cell_setting 'monoclinic'
loop_
_space_group_symop_operation_xyz
x,y,z
-x,y,-z
1/2+x,1/2+y,z
1/2-x,1/2+y,-z
loop_
_atom_site_type_symbol
_atom_site_label
_atom_site_fract_x
_atom_site_fract_y
_atom_site_fract_z
Si Si1 0.056289 0.649820 0.649893
Si Si2 0.339881 0.505865 0.367004
Si Si3 0.783986 0.692776 0.868325
Si Si4 0.744039 0.904809 0.626429
Si Si5 0.082304 0.445749 0.914059
O O1 0.059414 0.878991 0.654295
O O2 0.181965 0.590173 0.660152
O O3 0.023074 0.530592 0.770432
O O4 0.000000 0.594408 0.500000
O O5 0.256550 0.509174 0.224382
O O6 0.345345 0.733299 0.394684
O O7 0.294881 0.428779 0.495552
O O8 0.824734 0.831571 0.759771
O O9 0.678222 0.801158 0.899550
O O10 0.863601 0.626639 0.999623
O O11 0.000000 0.358652 0.000000
#
# Coordination Sequence:
#
# PCOD9122209 Si02
#       5
#     4   4   4   4   4
#     4  11  23  39  63  98 133 166 222 277 323 405
#     4  10  19  39  65  95 124 174 218 261 347 380
#     4   9  22  42  65  98 132 174 226 277 322 405
#     4   9  20  36  67  92 124 174 212 270 340 377
#     4  11  24  44  69  96 136 182 220 277 342 391
#
# _framework density 22.773643
#
# number of rings (size 3 to 8) (size 9 to 14) (size 15 to 20)
#    1.200    0.800    2.000    1.200    5.600    0.800 
#    0.000    4.000    0.000    0.000    0.000    0.000 
#    0.000    0.000    0.000    0.000    0.000    0.000 
#
# Total GULP energy -55678.005483 kJ/mol
# GULP energy per Si atom -5567.800548 kJ/mol
# Density = 2.272181 g / cm^3
# Si number density = 22.773643 Si / 1000 Ang^3
#
#
#
# Elastic Constant Matrix: (Units=GPa)
#
#
# Indices 1 2 3 4 5 6 
#
# 1 41.2153 9.4470 23.1042 0.0000 -6.9007 0.0000
# 2 9.4470 57.2426 17.9100 0.0000 -6.1326 0.0000
# 3 23.1042 17.9100 147.1240 0.0000 1.8845 0.0000
# 4 0.0000 0.0000 0.0000 39.2156 0.0000 -1.2625
# 5 -6.9007 -6.1326 1.8845 0.0000 40.4664 0.0000
# 6 0.0000 0.0000 0.0000 -1.2625 0.0000 23.9716
#
#
#
# Elastic Compliance Matrix: (Units=1/GPa)
#
#
# Indices 1 2 3 4 5 6 
#
# 1 0.027975 -0.002847 -0.004105 0.000000 0.004530 0.000000
# 2 -0.002847 0.018787 -0.001871 0.000000 0.002449 0.000000
# 3 -0.004105 -0.001871 0.007687 0.000000 -0.001341 0.000000
# 4 0.000000 0.000000 0.000000 0.025543 0.000000 0.001345
# 5 0.004530 0.002449 -0.001341 0.000000 0.025918 0.000000
# 6 0.000000 0.000000 0.000000 0.001345 0.000000 0.041787
#
#
# Mechanical properties :
#
#
# Convention : Reuss Voigt Hill
#
# Bulk Modulus (GPa) = 27.17208 38.50047 32.83628
# Shear Modulus (GPa) = 28.15149 33.73876 30.94513
#
# Velocity S-wave (km/s) = 3.51970 3.85318 3.69021
# Velocity P-wave (km/s) = 5.33619 6.06122 5.71023
#
# Compressibility (1/GPa) = 0.03680248
#
# Stress axis : x y z
#
# Youngs Moduli (GPa) = 35.74638 53.22764 130.09747
#
# Poissons Ratio (x) = 0.15155 0.53399
# Poissons Ratio (y) = 0.10178 0.24345
# Poissons Ratio (z) = 0.14672 0.09960
#
# Static dielectric constant tensor:
#      x y z
#    x 1.869060 0.000000 0.005730 
#    y 0.000000 1.863010 0.000000 
#    z 0.005730 0.000000 1.915050 
# 
# From -- ./inp_files/22696.got.cif
#   From: 2010.05.17/outbox.cif.g08.bks.cpg/sg5_12_cif.got.tgz:22696.got - 2010.06.03 18:56:24.
