data_PCOD9122214
_publ_section_title
;
Structure prediction by ZEFSAII (Michael W. Deem and Ramdas Pophale) SiO2 
 PCOD9122214
Probable space group: C 2
;
_chemical_formula_sum "Si O2"
_cell_formula_units_Z 22
_cell_length_a 13.112431
_cell_length_b 17.474788
_cell_length_c 8.279277
_cell_angle_alpha 90.000000
_cell_angle_beta 151.537756
_cell_angle_gamma 90.000000
_cell_volume 904.113478
_symmetry_space_group_name_H-M "C 2"
_symmetry_group_IT_number 5
_symmetry_cell_setting 'monoclinic'
loop_
_space_group_symop_operation_xyz
x,y,z
-x,y,-z
1/2+x,1/2+y,z
1/2-x,1/2+y,-z
loop_
_atom_site_type_symbol
_atom_site_label
_atom_site_fract_x
_atom_site_fract_y
_atom_site_fract_z
Si Si1 0.338051 0.441320 0.418536
Si Si2 0.500000 0.002162 0.500000
Si Si3 0.121782 0.241839 0.841355
Si Si4 0.162384 0.107336 0.466225
Si Si5 0.925406 0.398516 0.674902
Si Si6 0.431682 0.131248 0.169403
O O1 0.500000 0.420096 0.500000
O O2 0.404937 0.519986 0.599241
O O3 0.271647 0.387273 0.476915
O O4 0.108137 0.451553 0.010706
O O5 0.377631 0.062873 0.216848
O O6 0.368771 0.943537 0.432039
O O7 0.057405 0.320853 0.832968
O O8 0.000000 0.247056 0.500000
O O9 0.018537 0.170895 0.792560
O O10 0.363537 0.213799 0.145657
O O11 0.324984 0.118689 0.545299
O O12 0.292478 0.124415 0.813109
#
# Coordination Sequence:
#
# PCOD9122214 Si02
#       6
#     4   2   4   4   4   4
#     4  11  22  42  67  88 123 171 215 245 308 380
#     4  12  20  40  66  92 130 156 202 268 312 352
#     4  10  22  39  65  90 123 163 206 252 315 363
#     4  10  19  39  66  86 117 171 214 239 298 387
#     4  11  23  42  63  94 128 161 202 269 310 362
#     4  10  20  38  62  90 123 161 205 253 303 369
#
# _framework density 24.333227999999998
#
# number of rings (size 3 to 8) (size 9 to 14) (size 15 to 20)
#    0.000    1.455    4.545    2.727    0.000    1.455 
#    8.182    2.727    0.000    0.000    0.000    0.000 
#    0.000    0.000    0.000    0.000    0.000    0.000 
#
# Total GULP energy -61375.617461 kJ/mol
# GULP energy per Si atom -5579.601587 kJ/mol
# Density = 2.427784 g / cm^3
# Si number density = 24.333228 Si / 1000 Ang^3
#
#
#
# Elastic Constant Matrix: (Units=GPa)
#
#
# Indices 1 2 3 4 5 6 
#
# 1 202.4938 74.4690 36.8295 0.0000 25.1374 0.0000
# 2 74.4690 147.9754 8.6942 0.0000 7.4838 0.0000
# 3 36.8295 8.6942 28.1853 0.0000 5.4366 0.0000
# 4 0.0000 0.0000 0.0000 19.7706 0.0000 11.2805
# 5 25.1374 7.4838 5.4366 0.0000 29.3238 0.0000
# 6 0.0000 0.0000 0.0000 11.2805 0.0000 26.0560
#
#
#
# Elastic Compliance Matrix: (Units=1/GPa)
#
#
# Indices 1 2 3 4 5 6 
#
# 1 0.008447 -0.003482 -0.009063 0.000000 -0.004673 0.000000
# 2 -0.003482 0.008375 0.001870 0.000000 0.000501 0.000000
# 3 -0.009063 0.001870 0.047020 0.000000 -0.001426 0.000000
# 4 0.000000 0.000000 0.000000 0.067173 0.000000 -0.029081
# 5 -0.004673 0.000501 -0.001426 0.000000 0.038244 0.000000
# 6 0.000000 0.000000 0.000000 -0.029081 0.000000 0.050969
#
#
# Mechanical properties :
#
#
# Convention : Reuss Voigt Hill
#
# Bulk Modulus (GPa) = 23.53345 68.73778 46.13561
# Shear Modulus (GPa) = 19.55094 32.27422 25.91258
#
# Velocity S-wave (km/s) = 2.83762 3.64585 3.26683
# Velocity P-wave (km/s) = 4.51979 6.78475 5.76460
#
# Compressibility (1/GPa) = 0.04249271
#
# Stress axis : x y z
#
# Youngs Moduli (GPa) = 118.37833 119.40031 21.26766
#
# Poissons Ratio (x) = 0.41580 0.19274
# Poissons Ratio (y) = 0.41224 -0.03978
# Poissons Ratio (z) = 1.07284 -0.22332
#
# Static dielectric constant tensor:
#      x y z
#    x 2.044170 0.000000 -0.013710 
#    y 0.000000 1.952440 0.000000 
#    z -0.013710 0.000000 1.963730 
# 
# From -- ./inp_files/21414.got.cif
#   From: 2010.05.17/outbox.cif.g08.bks.cpg/sg5_11_cif.got.tgz:21414.got - 2010.06.03 18:56:24.
