data_PCOD9122014
_publ_section_title
;
Structure prediction by ZEFSAII (Michael W. Deem and Ramdas Pophale) SiO2 
 PCOD9122014
Probable space group: C 2
;
_chemical_formula_sum "Si O2"
_cell_formula_units_Z 20
_cell_length_a 13.971885
_cell_length_b 11.313983
_cell_length_c 8.268849
_cell_angle_alpha 90.000000
_cell_angle_beta 141.310174
_cell_angle_gamma 90.000000
_cell_volume 817.086263
_symmetry_space_group_name_H-M "C 2"
_symmetry_group_IT_number 5
_symmetry_cell_setting 'monoclinic'
loop_
_space_group_symop_operation_xyz
x,y,z
-x,y,-z
1/2+x,1/2+y,z
1/2-x,1/2+y,-z
loop_
_atom_site_type_symbol
_atom_site_label
_atom_site_fract_x
_atom_site_fract_y
_atom_site_fract_z
Si Si1 0.325662 0.846840 0.267905
Si Si2 0.553908 0.617249 0.906537
Si Si3 0.162713 0.949877 0.760890
Si Si4 0.267224 0.144796 0.654884
Si Si5 0.638290 0.109731 0.561236
O O1 0.500000 0.802753 0.500000
O O2 0.211732 0.750890 0.192412
O O3 0.325563 0.969607 0.367430
O O4 0.278925 0.876833 0.023513
O O5 0.604970 0.546031 0.816849
O O6 0.397086 0.677599 0.645012
O O7 0.500000 0.548939 0.000000
O O8 0.710442 0.676501 0.174311
O O9 0.000000 0.890722 0.500000
O O10 0.240282 0.021991 0.716152
O O11 0.381744 0.133712 0.655185
O O12 0.500000 0.131089 0.500000
#
# Coordination Sequence:
#
# PCOD9122014 Si02
#       5
#     4   4   4   4   4
#     4  10  20  38  65  95 125 165 216 263 310 378
#     4   8  15  31  59  87 119 161 205 249 307 374
#     4   9  18  35  62  94 127 162 209 263 313 372
#     4  10  19  37  66  92 125 174 210 250 318 388
#     4   9  19  37  63  98 132 158 204 275 324 366
#
# _framework density 24.477218000000001
#
# number of rings (size 3 to 8) (size 9 to 14) (size 15 to 20)
#    0.000    2.800    0.000    1.800    0.000    0.000 
#    0.000   22.000    0.000  121.200    0.000    0.000 
#    0.000    0.000    0.000    0.000    0.000    0.000 
#
# Total GULP energy -55759.728709 kJ/mol
# GULP energy per Si atom -5575.972871 kJ/mol
# Density = 2.442151 g / cm^3
# Si number density = 24.477218 Si / 1000 Ang^3
#
#
#
# Elastic Constant Matrix: (Units=GPa)
#
#
# Indices 1 2 3 4 5 6 
#
# 1 203.0860 44.6399 53.1196 0.0000 -17.9033 0.0000
# 2 44.6399 85.2412 17.3826 0.0000 -18.9075 0.0000
# 3 53.1196 17.3826 111.8419 0.0000 -2.3722 0.0000
# 4 0.0000 0.0000 0.0000 -2.3775 0.0000 0.0844
# 5 -17.9033 -18.9075 -2.3722 0.0000 33.2328 0.0000
# 6 0.0000 0.0000 0.0000 0.0844 0.0000 16.0569
#
#
#
# Elastic Compliance Matrix: (Units=1/GPa)
#
#
# Indices 1 2 3 4 5 6 
#
# 1 0.006279 -0.002350 -0.002577 0.000000 0.001862 0.000000
# 2 -0.002350 0.014733 -0.001025 0.000000 0.007043 0.000000
# 3 -0.002577 -0.001025 0.010298 0.000000 -0.001236 0.000000
# 4 0.000000 0.000000 0.000000 -0.420538 0.000000 0.002209
# 5 0.001862 0.007043 -0.001236 0.000000 0.035013 0.000000
# 6 0.000000 0.000000 0.000000 0.002209 0.000000 0.062267
#
#
# Mechanical properties :
#
#
# Convention : Reuss Voigt Hill
#
# Bulk Modulus (GPa) = 51.52734 70.05036 60.78885
# Shear Modulus (GPa) = -18.27642 28.38426 5.05392
#
# Velocity S-wave (km/s) = -2.73549 3.40901 1.43848
# Velocity P-wave (km/s) = 3.33461 6.64649 5.25811
#
# Compressibility (1/GPa) = 0.01940717
#
# Stress axis : x y z
#
# Youngs Moduli (GPa) = 159.26700 67.87447 97.10271
#
# Poissons Ratio (x) = 0.15947 0.25028
# Poissons Ratio (y) = 0.37421 0.09948
# Poissons Ratio (z) = 0.41050 0.06954
#
# Static dielectric constant tensor:
#      x y z
#    x 1.957300 0.000000 0.012640 
#    y 0.000000 1.979860 0.000000 
#    z 0.012640 0.000000 2.032560 
# 
# From -- ./inp_files/24280.got.cif
#   From: 2010.05.17/outbox.cif.g08.bks.cpg/sg5_13_cif.got.tgz:24280.got - 2010.06.03 18:56:24.
