data_PCOD9122509
_publ_section_title
;
Structure prediction by ZEFSAII (Michael W. Deem and Ramdas Pophale) SiO2 
 PCOD9122509
Probable space group: C 2
;
_chemical_formula_sum "Si O2"
_cell_formula_units_Z 24
_cell_length_a 16.636807
_cell_length_b 9.559336
_cell_length_c 22.037343
_cell_angle_alpha 90.000000
_cell_angle_beta 18.421576
_cell_angle_gamma 90.000000
_cell_volume 1107.522927
_symmetry_space_group_name_H-M "C 2"
_symmetry_group_IT_number 5
_symmetry_cell_setting 'monoclinic'
loop_
_space_group_symop_operation_xyz
x,y,z
-x,y,-z
1/2+x,1/2+y,z
1/2-x,1/2+y,-z
loop_
_atom_site_type_symbol
_atom_site_label
_atom_site_fract_x
_atom_site_fract_y
_atom_site_fract_z
Si Si1 0.495877 0.729760 0.794357
Si Si2 0.408541 0.293149 0.212927
Si Si3 0.534936 0.455532 0.238125
Si Si4 0.367599 0.976230 0.234248
Si Si5 0.751448 0.073043 0.280168
Si Si6 0.786426 0.824353 0.771689
O O1 0.570434 0.613610 0.691661
O O2 0.645511 0.872786 0.698733
O O3 0.527050 0.647304 0.837261
O O4 0.208468 0.773070 0.987122
O O5 0.387073 0.364142 0.294330
O O6 0.303815 0.407940 0.240847
O O7 0.301713 0.137417 0.289747
O O8 0.538421 0.382315 0.300438
O O9 0.831278 0.466947 0.002277
O O10 0.203307 0.910363 0.298064
O O11 0.500000 0.093502 0.500000
O O12 0.707009 0.161079 0.251379
O O13 0.500000 0.848807 0.000000
#
# Coordination Sequence:
#
# PCOD9122509 Si02
#       6
#     4   4   4   4   4   4
#     4   8  15  29  52  76 100 140 184 215 259 330
#     4   9  16  30  52  76 103 142 183 215 258 333
#     4   8  14  26  48  73  99 131 176 223 258 303
#     4   8  14  26  46  73 100 131 175 221 261 312
#     4  10  20  34  54  81 113 146 180 226 282 329
#     4   9  17  31  51  77 107 140 179 226 273 321
#
# _framework density 21.669979999999999
#
# number of rings (size 3 to 8) (size 9 to 14) (size 15 to 20)
#    0.000    3.333    0.000    2.000    0.000    0.000 
#    0.000    9.167    0.000   20.000    0.000    0.000 
#    0.000    0.000    0.000    0.000    0.000    0.000 
#
# Total GULP energy -66889.474632 kJ/mol
# GULP energy per Si atom -5574.122886 kJ/mol
# Density = 2.162066 g / cm^3
# Si number density = 21.669980 Si / 1000 Ang^3
#
#
#
# Elastic Constant Matrix: (Units=GPa)
#
#
# Indices 1 2 3 4 5 6 
#
# 1 107.4102 84.8800 9.9678 -0.0025 -1.2401 0.0015
# 2 84.8800 227.4275 8.4178 -0.0112 -2.7727 0.0061
# 3 9.9678 8.4178 50.3206 -0.0513 -10.7307 0.0123
# 4 -0.0025 -0.0112 -0.0513 -5.7315 0.0024 5.2882
# 5 -1.2401 -2.7727 -10.7307 0.0024 13.5740 -0.0037
# 6 0.0015 0.0061 0.0123 5.2882 -0.0037 38.3709
#
#
#
# Elastic Compliance Matrix: (Units=1/GPa)
#
#
# Indices 1 2 3 4 5 6 
#
# 1 0.013394 -0.004937 -0.002142 0.000021 -0.001479 -0.000002
# 2 -0.004937 0.006246 0.000131 -0.000010 0.000928 0.000001
# 3 -0.002142 0.000131 0.024342 -0.000190 0.019075 0.000020
# 4 0.000021 -0.000010 -0.000190 -0.154789 -0.000118 0.021333
# 5 -0.001479 0.000928 0.019075 -0.000118 0.088804 0.000019
# 6 -0.000002 0.000001 0.000020 0.021333 0.000019 0.023121
#
#
# Mechanical properties :
#
#
# Convention : Reuss Voigt Hill
#
# Bulk Modulus (GPa) = 33.23934 65.74327 49.49130
# Shear Modulus (GPa) = 199.64186 28.03552 113.83869
#
# Velocity S-wave (km/s) = 9.60876 3.60077 7.25582
# Velocity P-wave (km/s) = 11.76761 6.90592 9.64801
#
# Compressibility (1/GPa) = 0.03008483
#
# Stress axis : x y z
#
# Youngs Moduli (GPa) = 74.66229 160.09672 41.08049
#
# Poissons Ratio (x) = 0.79047 0.08801
# Poissons Ratio (y) = 0.36864 -0.00539
# Poissons Ratio (z) = 0.15996 -0.02099
#
# Static dielectric constant tensor:
#      x y z
#    x 1.781780 0.000000 -0.008250 
#    y 0.000000 1.829380 0.000010 
#    z -0.008250 0.000010 1.824940 
# 
# From -- ./inp_files/26455.got.cif
#   From: 2010.05.17/outbox.cif.g08.bks.cpg/sg5_14_cif.got.tgz:26455.got - 2010.06.03 18:56:24.
