data_PCOD9122816
_publ_section_title
;
Structure prediction by ZEFSAII (Michael W. Deem and Ramdas Pophale) SiO2 
 PCOD9122816
Probable space group: C 2
;
_chemical_formula_sum "Si O2"
_cell_formula_units_Z 16
_cell_length_a 5.050514
_cell_length_b 19.664585
_cell_length_c 9.553405
_cell_angle_alpha 90.000000
_cell_angle_beta 57.906663
_cell_angle_gamma 90.000000
_cell_volume 803.815084
_symmetry_space_group_name_H-M "C 2"
_symmetry_group_IT_number 5
_symmetry_cell_setting 'monoclinic'
loop_
_space_group_symop_operation_xyz
x,y,z
-x,y,-z
1/2+x,1/2+y,z
1/2-x,1/2+y,-z
loop_
_atom_site_type_symbol
_atom_site_label
_atom_site_fract_x
_atom_site_fract_y
_atom_site_fract_z
Si Si1 0.296516 0.017930 0.311362
Si Si2 0.373073 0.312098 0.380680
Si Si3 0.427378 0.443190 0.183738
Si Si4 0.372059 0.160680 0.381136
O O1 0.428738 0.094904 0.270365
O O2 0.000000 0.016456 0.500000
O O3 0.572101 0.970575 0.292980
O O4 0.161128 0.992433 0.202387
O O5 0.500000 0.327387 0.500000
O O6 0.462504 0.370168 0.247066
O O7 0.485899 0.235967 0.307770
O O8 0.000000 0.311690 0.500000
O O9 0.500000 0.440318 0.000000
O O10 0.500000 0.145214 0.500000
O O11 0.000000 0.166535 0.500000
#
# Coordination Sequence:
#
# PCOD9122816 Si02
#       4
#     4   4   4   4
#     4  11  21  38  62  83 108 148 191 231 274 328
#     4  10  20  36  59  82 107 144 188 229 273 327
#     4  12  24  37  54  85 120 149 182 228 278 330
#     4   9  18  33  57  86 107 133 185 240 273 315
#
# _framework density 19.905078
#
# number of rings (size 3 to 8) (size 9 to 14) (size 15 to 20)
#    0.000    1.500    0.000    8.250    0.000    0.000 
#    0.000    2.500    0.000    0.000    0.000    0.000 
#    0.000    0.000    0.000    0.000    0.000    0.000 
#
# Total GULP energy -44684.005595 kJ/mol
# GULP energy per Si atom -5585.500699 kJ/mol
# Density = 1.985977 g / cm^3
# Si number density = 19.905078 Si / 1000 Ang^3
#
#
#
# Elastic Constant Matrix: (Units=GPa)
#
#
# Indices 1 2 3 4 5 6 
#
# 1 155.2751 56.7620 31.4947 0.0000 33.1443 0.0000
# 2 56.7620 191.7735 67.5505 0.0000 40.1664 0.0000
# 3 31.4947 67.5505 64.6171 0.0000 28.1688 0.0000
# 4 0.0000 0.0000 0.0000 -4.1414 0.0000 9.0568
# 5 33.1443 40.1664 28.1688 0.0000 36.8946 0.0000
# 6 0.0000 0.0000 0.0000 9.0568 0.0000 35.6715
#
#
#
# Elastic Compliance Matrix: (Units=1/GPa)
#
#
# Indices 1 2 3 4 5 6 
#
# 1 0.008158 -0.001077 -0.000249 0.000000 -0.005965 0.000000
# 2 -0.001077 0.008727 -0.007312 0.000000 -0.002950 0.000000
# 3 -0.000249 -0.007312 0.029488 0.000000 -0.014330 0.000000
# 4 0.000000 0.000000 0.000000 -0.155260 0.000000 0.039419
# 5 -0.005965 -0.002950 -0.014330 0.000000 0.046616 0.000000
# 6 0.000000 0.000000 0.000000 0.039419 0.000000 0.018025
#
#
# Mechanical properties :
#
#
# Convention : Reuss Voigt Hill
#
# Bulk Modulus (GPa) = 34.36954 80.36444 57.36699
# Shear Modulus (GPa) = -289.50634 30.74218 -129.38208
#
# Velocity S-wave (km/s) = -12.07308 3.93420 -8.07098
# Velocity P-wave (km/s) = 13.30569 7.81657 7.61389
#
# Compressibility (1/GPa) = 0.02909553
#
# Stress axis : x y z
#
# Youngs Moduli (GPa) = 122.57992 114.58981 33.91242
#
# Poissons Ratio (x) = 0.12345 0.00846
# Poissons Ratio (y) = 0.13206 0.24796
# Poissons Ratio (z) = 0.03058 0.83784
#
# Static dielectric constant tensor:
#      x y z
#    x 1.668860 0.000000 -0.019240 
#    y 0.000000 1.784050 0.000000 
#    z -0.019240 0.000000 1.666060 
# 
# From -- ./inp_files/11371.got.cif
#   From: 2010.05.17/outbox.cif.g08.bks.cpg/sg5_6_cif.got.tgz:11371.got - 2010.06.03 18:56:24.
