data_PCOD9122535
_publ_section_title
;
Structure prediction by ZEFSAII (Michael W. Deem and Ramdas Pophale) SiO2 
 PCOD9122535
Probable space group: C 2
;
_chemical_formula_sum "Si O2"
_cell_formula_units_Z 30
_cell_length_a 21.194027
_cell_length_b 12.911332
_cell_length_c 5.279887
_cell_angle_alpha 90.000000
_cell_angle_beta 88.338487
_cell_angle_gamma 90.000000
_cell_volume 1444.197296
_symmetry_space_group_name_H-M "C 2"
_symmetry_group_IT_number 5
_symmetry_cell_setting 'monoclinic'
loop_
_space_group_symop_operation_xyz
x,y,z
-x,y,-z
1/2+x,1/2+y,z
1/2-x,1/2+y,-z
loop_
_atom_site_type_symbol
_atom_site_label
_atom_site_fract_x
_atom_site_fract_y
_atom_site_fract_z
Si Si1 0.834072 0.683920 0.096465
Si Si2 0.177899 0.494878 0.241203
Si Si3 0.039496 0.583430 0.733713
Si Si4 0.282737 0.379661 0.897154
Si Si5 0.103787 0.302963 0.189069
Si Si6 0.000000 0.379786 0.500000
Si Si7 0.234200 0.063204 0.398913
Si Si8 0.824262 0.233099 0.309006
O O1 0.894990 0.644419 0.241898
O O2 0.766269 0.654310 0.230751
O O3 0.834493 0.610323 0.850388
O O4 0.831829 0.804394 0.028531
O O5 0.119401 0.425338 0.172525
O O6 0.202535 0.502060 0.522218
O O7 0.235355 0.437212 0.094013
O O8 0.044917 0.461817 0.646584
O O9 0.000000 0.627963 0.500000
O O10 0.000000 0.588791 0.000000
O O11 0.307419 0.476310 0.730799
O O12 0.237749 0.301477 0.743817
O O13 0.032407 0.306066 0.290206
O O14 0.143359 0.265599 0.430530
O O15 0.128669 0.248560 0.933594
O O16 0.199284 0.116625 0.636160
#
# Coordination Sequence:
#
# PCOD9122535 Si02
#       8
#     4   4   4   4   4   2   4   4
#     4  11  22  37  59  88 131 176 216 266 320 389
#     4  10  20  34  56  86 126 168 211 262 313 386
#     4  10  24  38  59  90 129 176 218 267 323 374
#     4  10  22  34  57  89 124 174 215 252 325 394
#     4  11  23  37  59  88 125 171 214 259 316 380
#     4  10  24  38  62  88 128 172 226 256 322 382
#     4  11  21  37  58  88 132 172 215 263 319 395
#     4  11  23  38  56  89 129 167 211 261 314 382
#
# _framework density 20.772786
#
# number of rings (size 3 to 8) (size 9 to 14) (size 15 to 20)
#    0.400    1.067    2.667    3.200    9.333    0.000 
#    0.000    0.000    0.000    0.000    0.000    1.867 
#    0.000    0.267    0.000    0.000    0.000    0.000 
#
# Total GULP energy -83653.092453 kJ/mol
# GULP energy per Si atom -5576.872830 kJ/mol
# Density = 2.072551 g / cm^3
# Si number density = 20.772786 Si / 1000 Ang^3
#
#
#
# Elastic Constant Matrix: (Units=GPa)
#
#
# Indices 1 2 3 4 5 6 
#
# 1 70.2055 39.1774 36.5941 0.0000 -4.9061 0.0000
# 2 39.1774 93.4460 43.4115 0.0000 -9.1728 0.0000
# 3 36.5941 43.4115 115.4392 0.0000 -10.5473 0.0000
# 4 0.0000 0.0000 0.0000 37.6207 0.0000 7.7520
# 5 -4.9061 -9.1728 -10.5473 0.0000 41.2340 0.0000
# 6 0.0000 0.0000 0.0000 7.7520 0.0000 21.7616
#
#
#
# Elastic Compliance Matrix: (Units=1/GPa)
#
#
# Indices 1 2 3 4 5 6 
#
# 1 0.019909 -0.006566 -0.003849 0.000000 -0.000076 0.000000
# 2 -0.006566 0.015247 -0.003495 0.000000 0.001716 0.000000
# 3 -0.003849 -0.003495 0.011349 0.000000 0.001668 0.000000
# 4 0.000000 0.000000 0.000000 0.028687 0.000000 -0.010219
# 5 -0.000076 0.001716 0.001668 0.000000 0.025051 0.000000
# 6 0.000000 0.000000 0.000000 -0.010219 0.000000 0.049593
#
#
# Mechanical properties :
#
#
# Convention : Reuss Voigt Hill
#
# Bulk Modulus (GPa) = 53.52113 57.49519 55.50816
# Shear Modulus (GPa) = 27.19101 30.78377 28.98739
#
# Velocity S-wave (km/s) = 3.62190 3.85376 3.73963
# Velocity P-wave (km/s) = 6.58117 6.89494 6.73988
#
# Compressibility (1/GPa) = 0.01868421
#
# Stress axis : x y z
#
# Youngs Moduli (GPa) = 50.22850 65.58861 88.11056
#
# Poissons Ratio (x) = 0.43068 0.33912
# Poissons Ratio (y) = 0.32982 0.30796
# Poissons Ratio (z) = 0.19332 0.22924
#
# Static dielectric constant tensor:
#      x y z
#    x 1.822110 0.000000 0.007110 
#    y 0.000000 1.790950 0.000000 
#    z 0.007110 0.000000 1.851680 
# 
# From -- ./inp_files/9586.got.cif
#   From: 2010.05.17/outbox.cif.g08.bks.cpg/sg5_5_cif.got.tgz:9586.got - 2010.06.03 18:56:24.
