data_PCOD9122150
_publ_section_title
;
Structure prediction by ZEFSAII (Michael W. Deem and Ramdas Pophale) SiO2 
 PCOD9122150
Probable space group: C 2
;
_chemical_formula_sum "Si O2"
_cell_formula_units_Z 30
_cell_length_a 20.994506
_cell_length_b 10.747293
_cell_length_c 12.197081
_cell_angle_alpha 90.000000
_cell_angle_beta 151.027946
_cell_angle_gamma 90.000000
_cell_volume 1333.059457
_symmetry_space_group_name_H-M "C 2"
_symmetry_group_IT_number 5
_symmetry_cell_setting 'monoclinic'
loop_
_space_group_symop_operation_xyz
x,y,z
-x,y,-z
1/2+x,1/2+y,z
1/2-x,1/2+y,-z
loop_
_atom_site_type_symbol
_atom_site_label
_atom_site_fract_x
_atom_site_fract_y
_atom_site_fract_z
Si Si1 0.843702 0.484400 0.233548
Si Si2 0.846612 0.762363 0.239125
Si Si3 0.615437 0.421624 0.305327
Si Si4 0.588043 0.226260 0.902939
Si Si5 0.033218 0.447193 0.796860
Si Si6 0.271241 0.828085 0.329485
Si Si7 0.808036 0.353375 0.780913
Si Si8 0.500000 0.639685 0.000000
O O1 0.788575 0.622787 0.145243
O O2 0.854605 0.426952 0.127706
O O3 0.774874 0.422180 0.232682
O O4 0.000000 0.486231 0.500000
O O5 0.857409 0.790183 0.125353
O O6 0.784077 0.824659 0.252751
O O7 0.000000 0.757366 0.500000
O O8 0.513912 0.319271 0.195397
O O9 0.679514 0.371802 0.289613
O O10 0.729098 0.425310 0.568267
O O11 0.543570 0.549824 0.165668
O O12 0.514631 0.096960 0.761012
O O13 0.707729 0.209057 0.171515
O O14 0.918554 0.348250 0.597459
O O15 0.074905 0.427099 0.984142
O O16 0.874898 0.227004 0.837487
#
# Coordination Sequence:
#
# PCOD9122150 Si02
#       8
#     4   4   4   4   4   4   4   2
#     4   8  17  35  67  96 128 173 222 281 342 402
#     4  10  19  38  69  99 135 176 231 290 342 414
#     4  12  26  43  69 100 136 190 229 282 348 419
#     4  11  23  42  70 102 130 183 236 283 348 411
#     4  10  24  43  67 105 134 177 234 293 351 410
#     4  11  21  42  66  96 138 181 227 281 343 420
#     4  12  26  46  70 104 142 183 231 293 352 419
#     4  12  28  50  66 108 146 188 238 282 360 418
#
# _framework density 22.504622000000001
#
# number of rings (size 3 to 8) (size 9 to 14) (size 15 to 20)
#    0.000    1.333    2.667    3.200    1.867    2.133 
#    4.800    0.000    0.000    0.800    0.000    0.000 
#    0.000    0.000    0.000    0.000    0.000    0.000 
#
# Total GULP energy -83582.941583 kJ/mol
# GULP energy per Si atom -5572.196106 kJ/mol
# Density = 2.245340 g / cm^3
# Si number density = 22.504622 Si / 1000 Ang^3
#
#
#
# Elastic Constant Matrix: (Units=GPa)
#
#
# Indices 1 2 3 4 5 6 
#
# 1 128.9007 32.5357 24.6068 0.0000 -15.2625 0.0000
# 2 32.5357 29.8784 16.1330 0.0000 -3.3426 0.0000
# 3 24.6068 16.1330 122.0505 0.0000 -39.2028 0.0000
# 4 0.0000 0.0000 0.0000 17.3546 0.0000 -12.9033
# 5 -15.2625 -3.3426 -39.2028 0.0000 41.8163 0.0000
# 6 0.0000 0.0000 0.0000 -12.9033 0.0000 33.9464
#
#
#
# Elastic Compliance Matrix: (Units=1/GPa)
#
#
# Indices 1 2 3 4 5 6 
#
# 1 0.011103 -0.011954 0.000481 0.000000 0.003548 0.000000
# 2 -0.011954 0.049062 -0.006034 0.000000 -0.006098 0.000000
# 3 0.000481 -0.006034 0.012585 0.000000 0.011492 0.000000
# 4 0.000000 0.000000 0.000000 0.080322 0.000000 0.030531
# 5 0.003548 -0.006098 0.011492 0.000000 0.035495 0.000000
# 6 0.000000 0.000000 0.000000 0.030531 0.000000 0.041063
#
#
# Mechanical properties :
#
#
# Convention : Reuss Voigt Hill
#
# Bulk Modulus (GPa) = 26.49883 47.48671 36.99277
# Shear Modulus (GPa) = 18.03606 32.46040 25.24823
#
# Velocity S-wave (km/s) = 2.83404 3.80200 3.35313
# Velocity P-wave (km/s) = 4.74441 6.35769 5.60935
#
# Compressibility (1/GPa) = 0.03773752
#
# Stress axis : x y z
#
# Youngs Moduli (GPa) = 90.06234 20.38250 79.45919
#
# Poissons Ratio (x) = 0.24365 -0.03824
# Poissons Ratio (y) = 1.07659 0.47944
# Poissons Ratio (z) = -0.04334 0.12298
#
# Static dielectric constant tensor:
#      x y z
#    x 1.822450 0.000000 -0.003870 
#    y 0.000000 1.874350 0.000000 
#    z -0.003870 0.000000 1.992590 
# 
# From -- ./inp_files/46497.got.cif
#   From: 2010.05.17/outbox.cif.g08.bks.cpg/sg5_24_cif.got.tgz:46497.got - 2010.06.03 18:56:24.
