data_PCOD9122809
_publ_section_title
;
Structure prediction by ZEFSAII (Michael W. Deem and Ramdas Pophale) SiO2 
 PCOD9122809
Probable space group: C 2
;
_chemical_formula_sum "Si O2"
_cell_formula_units_Z 24
_cell_length_a 19.567763
_cell_length_b 8.707751
_cell_length_c 12.258472
_cell_angle_alpha 90.000000
_cell_angle_beta 146.028418
_cell_angle_gamma 90.000000
_cell_volume 1167.147249
_symmetry_space_group_name_H-M "C 2"
_symmetry_group_IT_number 5
_symmetry_cell_setting 'monoclinic'
loop_
_space_group_symop_operation_xyz
x,y,z
-x,y,-z
1/2+x,1/2+y,z
1/2-x,1/2+y,-z
loop_
_atom_site_type_symbol
_atom_site_label
_atom_site_fract_x
_atom_site_fract_y
_atom_site_fract_z
Si Si1 0.840711 0.937090 0.705385
Si Si2 0.000000 0.188752 0.500000
Si Si3 0.574507 0.291365 0.956397
Si Si4 0.633618 0.785232 0.293359
Si Si5 0.740624 0.588802 0.914596
Si Si6 0.408557 0.788495 0.153086
Si Si7 0.000000 0.517265 0.000000
O O1 0.726929 0.853359 0.502736
O O2 0.957399 0.898212 0.781549
O O3 0.827629 0.118795 0.694953
O O4 0.864982 0.866642 0.856418
O O5 0.873493 0.090498 0.322962
O O6 0.985862 0.287935 0.370118
O O7 0.517112 0.129556 0.921175
O O8 0.674042 0.235908 0.002389
O O9 0.502389 0.774643 0.178849
O O10 0.615625 0.909769 0.174778
O O11 0.674861 0.636486 0.940651
O O12 0.822121 0.437238 0.027631
#
# Coordination Sequence:
#
# PCOD9122809 Si02
#       7
#     4   2   4   4   4   4   2
#     4  10  23  36  61  94 123 171 206 269 324 387
#     4   8  22  38  66  94 126 168 214 264 326 376
#     4  10  20  40  64  86 129 164 211 267 330 379
#     4  12  22  40  61  93 129 167 223 261 327 395
#     4  10  21  43  66  94 129 175 216 271 331 385
#     4  10  23  41  70  90 134 172 219 277 324 390
#     4  10  20  36  58  90 120 168 206 262 320 382
#
# _framework density 20.562957999999998
#
# number of rings (size 3 to 8) (size 9 to 14) (size 15 to 20)
#    1.000    1.000    1.667    4.000    2.333    0.000 
#    0.000    0.833    0.000    0.000    0.000    0.000 
#    0.000    0.000    0.000    0.000    0.000    0.000 
#
# Total GULP energy -66850.436081 kJ/mol
# GULP energy per Si atom -5570.869673 kJ/mol
# Density = 2.051616 g / cm^3
# Si number density = 20.562958 Si / 1000 Ang^3
#
#
#
# Elastic Constant Matrix: (Units=GPa)
#
#
# Indices 1 2 3 4 5 6 
#
# 1 37.8308 -8.5151 3.6901 0.0000 9.1940 0.0000
# 2 -8.5151 119.0330 31.0468 0.0000 4.4192 0.0000
# 3 3.6901 31.0468 75.0954 0.0000 10.1221 0.0000
# 4 0.0000 0.0000 0.0000 35.0770 0.0000 7.2097
# 5 9.1940 4.4192 10.1221 0.0000 23.4171 0.0000
# 6 0.0000 0.0000 0.0000 7.2097 0.0000 -60.9236
#
#
#
# Elastic Compliance Matrix: (Units=1/GPa)
#
#
# Indices 1 2 3 4 5 6 
#
# 1 0.030072 0.002870 -0.001061 0.000000 -0.011890 0.000000
# 2 0.002870 0.009690 -0.003981 0.000000 -0.001235 0.000000
# 3 -0.001061 -0.003981 0.015776 0.000000 -0.005651 0.000000
# 4 0.000000 0.000000 0.000000 0.027832 0.000000 0.003294
# 5 -0.011890 -0.001235 -0.005651 0.000000 0.050048 0.000000
# 6 0.000000 0.000000 0.000000 0.003294 0.000000 -0.016024
#
#
# Mechanical properties :
#
#
# Convention : Reuss Voigt Hill
#
# Bulk Modulus (GPa) = 19.53378 31.60029 25.56703
# Shear Modulus (GPa) = 36.02186 13.22992 24.62589
#
# Velocity S-wave (km/s) = 4.18997 2.53926 3.46437
# Velocity P-wave (km/s) = 5.73829 4.89878 5.33507
#
# Compressibility (1/GPa) = 0.05119338
#
# Stress axis : x y z
#
# Youngs Moduli (GPa) = 33.25299 103.19419 63.38688
#
# Poissons Ratio (x) = -0.29612 0.06728
# Poissons Ratio (y) = -0.09542 0.25234
# Poissons Ratio (z) = 0.03530 0.41081
#
# Static dielectric constant tensor:
#      x y z
#    x 1.814000 0.000000 -0.007590 
#    y 0.000000 1.744410 0.000000 
#    z -0.007590 0.000000 1.815770 
# 
# From -- ./inp_files/58033.got.cif
#   From: 2010.05.17/outbox.cif.g08.bks.cpg/sg5_30_cif.got.tgz:58033.got - 2010.06.03 18:56:24.
