data_PCOD9122318
_publ_section_title
;
Structure prediction by ZEFSAII (Michael W. Deem and Ramdas Pophale) SiO2 
 PCOD9122318
Probable space group: C 2
;
_chemical_formula_sum "Si O2"
_cell_formula_units_Z 28
_cell_length_a 19.357208
_cell_length_b 10.226714
_cell_length_c 11.311754
_cell_angle_alpha 90.000000
_cell_angle_beta 33.352065
_cell_angle_gamma 90.000000
_cell_volume 1231.117119
_symmetry_space_group_name_H-M "C 2"
_symmetry_group_IT_number 5
_symmetry_cell_setting 'monoclinic'
loop_
_space_group_symop_operation_xyz
x,y,z
-x,y,-z
1/2+x,1/2+y,z
1/2-x,1/2+y,-z
loop_
_atom_site_type_symbol
_atom_site_label
_atom_site_fract_x
_atom_site_fract_y
_atom_site_fract_z
Si Si1 0.535661 0.765830 0.759654
Si Si2 0.249841 0.161699 0.329113
Si Si3 0.404503 0.250344 0.322761
Si Si4 0.802142 0.572748 0.845866
Si Si5 0.425526 0.013578 0.436586
Si Si6 0.182896 0.361778 0.780951
Si Si7 0.688189 0.301089 0.993508
O O1 0.618707 0.643943 0.591921
O O2 0.562372 0.865425 0.616293
O O3 0.607484 0.819893 0.771532
O O4 0.391465 0.783429 0.008742
O O5 0.339754 0.251739 0.286206
O O6 0.236190 0.237480 0.224514
O O7 0.310850 0.019245 0.213143
O O8 0.321617 0.316330 0.544572
O O9 0.403975 0.095713 0.349939
O O10 0.546109 0.294665 0.145457
O O11 0.821050 0.558724 0.678468
O O12 0.715286 0.448567 0.995685
O O13 0.940407 0.546854 0.700711
O O14 0.776017 0.708166 0.947648
#
# Coordination Sequence:
#
# PCOD9122318 Si02
#       7
#     4   4   4   4   4   4   4
#     4  10  20  37  64  93 132 173 216 262 336 401
#     4  11  21  39  69 100 130 171 218 272 342 411
#     4  10  22  39  66  99 131 168 214 274 347 404
#     4  10  23  39  65  91 123 178 223 268 333 392
#     4  10  19  41  62  86 125 172 218 260 327 407
#     4  10  21  37  62 102 138 168 210 272 343 413
#     4  11  23  43  65  96 129 174 223 280 330 404
#
# _framework density 22.743572
#
# number of rings (size 3 to 8) (size 9 to 14) (size 15 to 20)
#    0.000    1.714    2.857    2.143    2.000    2.286 
#    5.143    0.000    6.286    0.000    0.000    0.000 
#    0.000    0.000    0.000    0.000    0.000    0.000 
#
# Total GULP energy -77951.403355 kJ/mol
# GULP energy per Si atom -5567.957383 kJ/mol
# Density = 2.269181 g / cm^3
# Si number density = 22.743572 Si / 1000 Ang^3
#
#
#
# Elastic Constant Matrix: (Units=GPa)
#
#
# Indices 1 2 3 4 5 6 
#
# 1 60.0363 8.2438 21.0863 0.0000 14.9887 0.0000
# 2 8.2438 -20.8171 11.4176 0.0000 -56.1608 0.0000
# 3 21.0863 11.4176 138.0621 0.0000 -7.2729 0.0000
# 4 0.0000 0.0000 0.0000 28.3006 0.0000 0.9828
# 5 14.9887 -56.1608 -7.2729 0.0000 -14.6510 0.0000
# 6 0.0000 0.0000 0.0000 0.9828 0.0000 18.6530
#
#
#
# Elastic Compliance Matrix: (Units=1/GPa)
#
#
# Indices 1 2 3 4 5 6 
#
# 1 0.017020 0.004914 -0.003002 0.000000 0.000067 0.000000
# 2 0.004914 0.006866 -0.002378 0.000000 -0.020113 0.000000
# 3 -0.003002 -0.002378 0.008007 0.000000 0.002069 0.000000
# 4 0.000000 0.000000 0.000000 0.035400 0.000000 -0.001865
# 5 0.000067 -0.020113 0.002069 0.000000 0.007886 0.000000
# 6 0.000000 0.000000 0.000000 -0.001865 0.000000 0.053709
#
#
# Mechanical properties :
#
#
# Convention : Reuss Voigt Hill
#
# Bulk Modulus (GPa) = 32.29896 28.75295 30.52596
# Shear Modulus (GPa) = 35.67840 15.56276 25.62058
#
# Velocity S-wave (km/s) = 3.96501 2.61870 3.35998
# Velocity P-wave (km/s) = 5.93245 4.67045 5.33887
#
# Compressibility (1/GPa) = 0.03096075
#
# Stress axis : x y z
#
# Youngs Moduli (GPa) = 58.75531 145.63532 124.88635
#
# Poissons Ratio (x) = -0.71563 0.37495
# Poissons Ratio (y) = -0.28871 0.29697
# Poissons Ratio (z) = 0.17640 0.34630
#
# Static dielectric constant tensor:
#      x y z
#    x 1.864440 0.000000 0.070850 
#    y 0.000000 1.970860 0.000000 
#    z 0.070850 0.000000 2.313130 
# 
# From -- ./inp_files/46395.got.cif
#   From: 2010.05.17/outbox.cif.g08.bks.cpg/sg5_24_cif.got.tgz:46395.got - 2010.06.03 18:56:24.
