data_PCOD9122098
_publ_section_title
;
Structure prediction by ZEFSAII (Michael W. Deem and Ramdas Pophale) SiO2 
 PCOD9122098
Probable space group: C 2
;
_chemical_formula_sum "Si O2"
_cell_formula_units_Z 24
_cell_length_a 19.427746
_cell_length_b 10.194902
_cell_length_c 5.787138
_cell_angle_alpha 90.000000
_cell_angle_beta 112.229281
_cell_angle_gamma 90.000000
_cell_volume 1061.033160
_symmetry_space_group_name_H-M "C 2"
_symmetry_group_IT_number 5
_symmetry_cell_setting 'monoclinic'
loop_
_space_group_symop_operation_xyz
x,y,z
-x,y,-z
1/2+x,1/2+y,z
1/2-x,1/2+y,-z
loop_
_atom_site_type_symbol
_atom_site_label
_atom_site_fract_x
_atom_site_fract_y
_atom_site_fract_z
Si Si1 0.072535 0.750000 0.929932
Si Si2 0.308182 0.396556 0.654653
Si Si3 0.041538 0.452660 0.800536
Si Si4 0.201208 0.372185 0.138200
Si Si5 0.417343 0.497077 0.396896
Si Si6 0.279252 0.605196 0.009233
O O1 0.065051 0.606362 0.811505
O O2 0.075154 0.864018 0.743106
O O3 0.146558 0.777332 0.172576
O O4 0.000000 0.768386 0.000000
O O5 0.232290 0.349981 0.434856
O O6 0.372512 0.455973 0.568610
O O7 0.283172 0.515996 0.785240
O O8 0.000000 0.420748 0.500000
O O9 0.116448 0.372400 0.952312
O O10 0.000000 0.443996 0.000000
O O11 0.242418 0.254279 0.057076
O O12 0.230946 0.516046 0.115741
O O13 0.500000 0.552444 0.500000
O O14 0.362945 0.598554 0.206798
#
# Coordination Sequence:
#
# PCOD9122098 Si02
#       6
#     4   4   4   4   4   4
#     4  10  20  36  69 102 143 183 246 300 362 438
#     4  10  23  39  67 100 141 190 243 303 369 429
#     4  11  28  48  73 109 147 206 245 311 378 447
#     4  11  27  47  71 102 146 190 250 308 369 461
#     4  10  19  38  63  99 135 185 236 298 360 437
#     4  10  26  43  67 103 135 193 240 304 378 434
#
# _framework density 22.619464000000001
#
# number of rings (size 3 to 8) (size 9 to 14) (size 15 to 20)
#    0.000    1.667    1.667    0.500   14.000    2.000 
#    3.000    0.000    0.000    0.000    0.000    0.000 
#    0.000    0.000    0.000    0.000    0.000    0.000 
#
# Total GULP energy -66903.238670 kJ/mol
# GULP energy per Si atom -5575.269889 kJ/mol
# Density = 2.256798 g / cm^3
# Si number density = 22.619464 Si / 1000 Ang^3
#
#
#
# Elastic Constant Matrix: (Units=GPa)
#
#
# Indices 1 2 3 4 5 6 
#
# 1 56.5767 13.2166 40.6259 0.0000 18.8832 0.0000
# 2 13.2166 74.4308 6.4670 0.0000 11.2594 0.0000
# 3 40.6259 6.4670 140.2147 0.0000 38.0241 0.0000
# 4 0.0000 0.0000 0.0000 -6.3221 0.0000 4.5388
# 5 18.8832 11.2594 38.0241 0.0000 39.3154 0.0000
# 6 0.0000 0.0000 0.0000 4.5388 0.0000 25.2645
#
#
#
# Elastic Compliance Matrix: (Units=1/GPa)
#
#
# Indices 1 2 3 4 5 6 
#
# 1 0.024044 -0.002967 -0.005325 0.000000 -0.005548 0.000000
# 2 -0.002967 0.014447 0.001259 0.000000 -0.003930 0.000000
# 3 -0.005325 0.001259 0.010873 0.000000 -0.008318 0.000000
# 4 0.000000 0.000000 0.000000 -0.140106 0.000000 0.025170
# 5 -0.005548 -0.003930 -0.008318 0.000000 0.037271 0.000000
# 6 0.000000 0.000000 0.000000 0.025170 0.000000 0.035059
#
#
# Mechanical properties :
#
#
# Convention : Reuss Voigt Hill
#
# Bulk Modulus (GPa) = 28.33072 43.53791 35.93431
# Shear Modulus (GPa) = 673.82524 25.71241 349.76883
#
# Velocity S-wave (km/s) = 17.27839 3.37521 12.44859
# Velocity P-wave (km/s) = 20.26350 5.87190 14.91792
#
# Compressibility (1/GPa) = 0.03529738
#
# Stress axis : x y z
#
# Youngs Moduli (GPa) = 41.59060 69.21683 91.97479
#
# Poissons Ratio (x) = 0.20540 0.48976
# Poissons Ratio (y) = 0.12342 -0.11582
# Poissons Ratio (z) = 0.22147 -0.08716
#
# Static dielectric constant tensor:
#      x y z
#    x 1.888090 0.000000 0.027340 
#    y 0.000000 1.776810 0.000000 
#    z 0.027340 0.000000 1.981770 
# 
# From -- ./inp_files/9405.got.cif
#   From: 2010.05.17/outbox.cif.g08.bks.cpg/sg5_5_cif.got.tgz:9405.got - 2010.06.03 18:56:24.
