data_PCOD9122940
_publ_section_title
;
Structure prediction by ZEFSAII (Michael W. Deem and Ramdas Pophale) SiO2 
 PCOD9122940
Probable space group: C 2
;
_chemical_formula_sum "Si O2"
_cell_formula_units_Z 28
_cell_length_a 5.358574
_cell_length_b 17.702527
_cell_length_c 14.770375
_cell_angle_alpha 90.000000
_cell_angle_beta 54.242331
_cell_angle_gamma 90.000000
_cell_volume 1137.004757
_symmetry_space_group_name_H-M "C 2"
_symmetry_group_IT_number 5
_symmetry_cell_setting 'monoclinic'
loop_
_space_group_symop_operation_xyz
x,y,z
-x,y,-z
1/2+x,1/2+y,z
1/2-x,1/2+y,-z
loop_
_atom_site_type_symbol
_atom_site_label
_atom_site_fract_x
_atom_site_fract_y
_atom_site_fract_z
Si Si1 0.723449 0.695720 0.209103
Si Si2 0.538752 0.400469 0.095255
Si Si3 0.753368 0.790761 0.803565
Si Si4 0.341801 0.923346 0.286943
Si Si5 0.359434 0.536669 0.825200
Si Si6 0.461811 0.036738 0.406127
Si Si7 0.800095 0.196570 0.470437
O O1 0.541746 0.746915 0.174030
O O2 0.796973 0.617544 0.144407
O O3 0.490492 0.677890 0.340976
O O4 0.005544 0.732295 0.204244
O O5 0.759742 0.349524 0.110120
O O6 0.635768 0.487865 0.084620
O O7 0.198667 0.396915 0.212814
O O8 0.500000 0.377486 0.000000
O O9 0.843733 0.848222 0.702297
O O10 0.280811 0.974929 0.386392
O O11 0.299118 0.982824 0.214790
O O12 0.714093 0.546001 0.715379
O O13 0.500000 0.007572 0.500000
O O14 0.314133 0.119955 0.453466
O O15 0.500000 0.237992 0.500000
O O16 0.000000 0.240688 0.500000
#
# Coordination Sequence:
#
# PCOD9122940 Si02
#       7
#     4   4   4   4   4   4   4
#     4  12  23  42  70 102 141 181 231 287 352 405
#     4  10  23  48  77 101 134 186 236 286 354 428
#     4  11  25  44  69  97 143 185 222 285 358 418
#     4  10  22  44  70 101 136 183 239 282 344 419
#     4  10  22  38  72 105 136 178 234 297 334 409
#     4  10  20  36  65 102 130 184 242 283 328 397
#     4  11  21  36  62  98 129 181 233 276 328 399
#
# _framework density 24.626106
#
# number of rings (size 3 to 8) (size 9 to 14) (size 15 to 20)
#    0.000    1.429    4.286    1.714    4.000    2.286 
#    0.000    2.143   15.714    0.000    0.000    0.000 
#    0.000    0.000    0.000    0.000    0.000    0.000 
#
# Total GULP energy -78179.626608 kJ/mol
# GULP energy per Si atom -5584.259043 kJ/mol
# Density = 2.457006 g / cm^3
# Si number density = 24.626106 Si / 1000 Ang^3
#
#
#
# Elastic Constant Matrix: (Units=GPa)
#
#
# Indices 1 2 3 4 5 6 
#
# 1 159.1557 54.4116 18.0168 0.0000 26.0406 0.0000
# 2 54.4116 145.9550 9.7441 0.0000 16.2424 0.0000
# 3 18.0168 9.7441 72.5741 0.0000 10.6078 0.0000
# 4 0.0000 0.0000 0.0000 120.4348 0.0000 93.9054
# 5 26.0406 16.2424 10.6078 0.0000 45.9058 0.0000
# 6 0.0000 0.0000 0.0000 93.9054 0.0000 103.4865
#
#
#
# Elastic Compliance Matrix: (Units=1/GPa)
#
#
# Indices 1 2 3 4 5 6 
#
# 1 0.007790 -0.002463 -0.001123 0.000000 -0.003288 0.000000
# 2 -0.002463 0.007937 -0.000257 0.000000 -0.001352 0.000000
# 3 -0.001123 -0.000257 0.014475 0.000000 -0.002617 0.000000
# 4 0.000000 0.000000 0.000000 0.028390 0.000000 -0.025762
# 5 -0.003288 -0.001352 -0.002617 0.000000 0.024732 0.000000
# 6 0.000000 0.000000 0.000000 -0.025762 0.000000 0.033040
#
#
# Mechanical properties :
#
#
# Convention : Reuss Voigt Hill
#
# Bulk Modulus (GPa) = 44.41040 60.22555 52.31798
# Shear Modulus (GPa) = 38.00683 73.66625 55.83654
#
# Velocity S-wave (km/s) = 3.93282 5.47529 4.76686
# Velocity P-wave (km/s) = 6.22059 8.03000 7.18250
#
# Compressibility (1/GPa) = 0.02251725
#
# Stress axis : x y z
#
# Youngs Moduli (GPa) = 128.36285 125.98708 69.08605
#
# Poissons Ratio (x) = 0.31035 0.07756
# Poissons Ratio (y) = 0.31621 0.01773
# Poissons Ratio (z) = 0.14411 0.03233
#
# Static dielectric constant tensor:
#      x y z
#    x 1.801430 0.000000 -0.009040 
#    y 0.000000 1.990830 0.000000 
#    z -0.009040 0.000000 1.972900 
# 
# From -- ./inp_files/49279.got.cif
#   From: 2010.05.17/outbox.cif.g08.bks.cpg/sg5_25_cif.got.tgz:49279.got - 2010.06.03 18:56:24.
