data_PCOD9122887
_publ_section_title
;
Structure prediction by ZEFSAII (Michael W. Deem and Ramdas Pophale) SiO2 
 PCOD9122887
Probable space group: C 2
;
_chemical_formula_sum "Si O2"
_cell_formula_units_Z 28
_cell_length_a 14.332312
_cell_length_b 11.336708
_cell_length_c 9.360657
_cell_angle_alpha 90.000000
_cell_angle_beta 125.357004
_cell_angle_gamma 90.000000
_cell_volume 1240.414039
_symmetry_space_group_name_H-M "C 2"
_symmetry_group_IT_number 5
_symmetry_cell_setting 'monoclinic'
loop_
_space_group_symop_operation_xyz
x,y,z
-x,y,-z
1/2+x,1/2+y,z
1/2-x,1/2+y,-z
loop_
_atom_site_type_symbol
_atom_site_label
_atom_site_fract_x
_atom_site_fract_y
_atom_site_fract_z
Si Si1 0.697196 0.959330 0.715187
Si Si2 0.738002 0.657415 0.043172
Si Si3 0.676976 0.022370 0.155093
Si Si4 0.687015 0.130231 0.444018
Si Si5 0.388086 0.744979 0.503403
Si Si6 0.865303 0.825245 0.381135
Si Si7 0.055090 0.359666 0.835651
O O1 0.704197 0.825991 0.663013
O O2 0.595334 0.941082 0.738234
O O3 0.786299 0.037932 0.885572
O O4 0.670429 0.036565 0.554108
O O5 0.825865 0.735631 0.217311
O O6 0.785853 0.614366 0.934190
O O7 0.630142 0.740142 0.916607
O O8 0.785310 0.939195 0.292194
O O9 0.624890 0.087478 0.246241
O O10 0.592595 0.932379 0.003976
O O11 0.818431 0.137147 0.505592
O O12 0.657813 0.253943 0.492406
O O13 0.500000 0.724246 0.500000
O O14 0.431433 0.816419 0.680739
O O15 0.000000 0.852070 0.500000
#
# Coordination Sequence:
#
# PCOD9122887 Si02
#       7
#     4   4   4   4   4   4   4
#     4   9  19  35  56  84 118 152 188 234 287 341
#     4   9  19  37  61  86 116 154 194 241 293 342
#     4  10  20  36  62  89 117 150 196 246 292 340
#     4  11  22  38  60  90 120 154 195 241 290 351
#     4  10  20  37  63  89 116 153 199 242 286 348
#     4  10  23  42  60  84 120 159 196 237 290 353
#     4   9  19  37  61  88 116 152 197 243 289 343
#
# _framework density 22.573107
#
# number of rings (size 3 to 8) (size 9 to 14) (size 15 to 20)
#    0.000    2.286    0.000    2.571    0.000   10.857 
#    0.000   15.000    0.000    3.429    0.000    0.000 
#    0.000    0.000    0.000    0.000    0.000    0.000 
#
# Total GULP energy -78063.099984 kJ/mol
# GULP energy per Si atom -5575.935713 kJ/mol
# Density = 2.252173 g / cm^3
# Si number density = 22.573107 Si / 1000 Ang^3
#
#
#
# Elastic Constant Matrix: (Units=GPa)
#
#
# Indices 1 2 3 4 5 6 
#
# 1 81.9332 44.4233 45.9104 0.0000 -3.5940 0.0000
# 2 44.4233 91.3071 63.2225 0.0000 1.4357 0.0000
# 3 45.9104 63.2225 138.5108 0.0000 -25.3052 0.0000
# 4 0.0000 0.0000 0.0000 46.5295 0.0000 -3.7157
# 5 -3.5940 1.4357 -25.3052 0.0000 32.1892 0.0000
# 6 0.0000 0.0000 0.0000 -3.7157 0.0000 14.2426
#
#
#
# Elastic Compliance Matrix: (Units=1/GPa)
#
#
# Indices 1 2 3 4 5 6 
#
# 1 0.017272 -0.006503 -0.002746 0.000000 0.000060 0.000000
# 2 -0.006503 0.020200 -0.008597 0.000000 -0.008385 0.000000
# 3 -0.002746 -0.008597 0.014092 0.000000 0.011155 0.000000
# 4 0.000000 0.000000 0.000000 0.021949 0.000000 0.005726
# 5 0.000060 -0.008385 0.011155 0.000000 0.040216 0.000000
# 6 0.000000 0.000000 0.000000 0.005726 0.000000 0.071706
#
#
# Mechanical properties :
#
#
# Convention : Reuss Voigt Hill
#
# Bulk Modulus (GPa) = 63.00041 68.76261 65.88151
# Shear Modulus (GPa) = 22.08310 29.13860 25.61085
#
# Velocity S-wave (km/s) = 3.13116 3.59674 3.37200
# Velocity P-wave (km/s) = 6.40643 6.91210 6.66406
#
# Compressibility (1/GPa) = 0.01587291
#
# Stress axis : x y z
#
# Youngs Moduli (GPa) = 57.89666 49.50391 70.96413
#
# Poissons Ratio (x) = 0.32193 0.19484
# Poissons Ratio (y) = 0.37651 0.61007
# Poissons Ratio (z) = 0.15897 0.42558
#
# Static dielectric constant tensor:
#      x y z
#    x 1.856390 0.000000 -0.029390 
#    y 0.000000 1.886580 0.000000 
#    z -0.029390 0.000000 1.877370 
# 
# From -- ./inp_files/23953.got.cif
#   From: 2010.05.17/outbox.cif.g08.bks.cpg/sg5_12_cif.got.tgz:23953.got - 2010.06.03 18:56:24.
