data_PCOD9122115
_publ_section_title
;
Structure prediction by ZEFSAII (Michael W. Deem and Ramdas Pophale) SiO2 
 PCOD9122115
Probable space group: C 2
;
_chemical_formula_sum "Si O2"
_cell_formula_units_Z 20
_cell_length_a 23.779671
_cell_length_b 7.323817
_cell_length_c 7.301399
_cell_angle_alpha 90.000000
_cell_angle_beta 48.947402
_cell_angle_gamma 90.000000
_cell_volume 958.920000
_symmetry_space_group_name_H-M "C 2"
_symmetry_group_IT_number 5
_symmetry_cell_setting 'monoclinic'
loop_
_space_group_symop_operation_xyz
x,y,z
-x,y,-z
1/2+x,1/2+y,z
1/2-x,1/2+y,-z
loop_
_atom_site_type_symbol
_atom_site_label
_atom_site_fract_x
_atom_site_fract_y
_atom_site_fract_z
Si Si1 0.275614 0.651540 0.707400
Si Si2 0.838601 0.377562 0.121162
Si Si3 0.925447 0.494219 0.574120
Si Si4 0.272818 0.079522 0.777058
Si Si5 0.428962 0.708617 0.247743
O O1 0.208155 0.560187 0.743883
O O2 0.357163 0.593553 0.463946
O O3 0.270368 0.870657 0.714664
O O4 0.263382 0.587829 0.942393
O O5 0.776734 0.218739 0.232403
O O6 0.895653 0.335297 0.158582
O O7 0.882008 0.400409 0.836778
O O8 0.861231 0.618402 0.618012
O O9 0.947829 0.337822 0.380347
O O10 0.000000 0.581406 0.500000
O O11 0.500000 0.615723 0.000000
#
# Coordination Sequence:
#
# PCOD9122115 Si02
#       5
#     4   4   4   4   4
#     4  10  21  37  62  93 116 160 210 245 300 358
#     4  11  22  39  64  86 126 160 207 252 291 367
#     4  10  20  38  59  90 122 158 204 242 306 361
#     4  10  19  38  65  89 117 159 207 250 295 356
#     4  11  22  36  61  94 121 163 199 248 312 359
#
# _framework density 20.856797
#
# number of rings (size 3 to 8) (size 9 to 14) (size 15 to 20)
#    0.000    1.600    8.000    0.000    5.600    0.000 
#    0.000    0.000    8.800    8.400    0.000    0.000 
#    0.000    0.000    0.000    0.000    0.000    0.000 
#
# Total GULP energy -55770.814316 kJ/mol
# GULP energy per Si atom -5577.081432 kJ/mol
# Density = 2.080933 g / cm^3
# Si number density = 20.856797 Si / 1000 Ang^3
#
#
#
# Elastic Constant Matrix: (Units=GPa)
#
#
# Indices 1 2 3 4 5 6 
#
# 1 82.6039 22.1163 19.4397 0.0000 -17.0722 0.0000
# 2 22.1163 55.8789 15.6258 0.0000 -11.1436 0.0000
# 3 19.4397 15.6258 125.2393 0.0000 -17.3557 0.0000
# 4 0.0000 0.0000 0.0000 21.2409 0.0000 -0.6135
# 5 -17.0722 -11.1436 -17.3557 0.0000 43.4233 0.0000
# 6 0.0000 0.0000 0.0000 -0.6135 0.0000 25.6206
#
#
#
# Elastic Compliance Matrix: (Units=1/GPa)
#
#
# Indices 1 2 3 4 5 6 
#
# 1 0.014434 -0.004595 -0.001105 0.000000 0.004054 0.000000
# 2 -0.004595 0.020707 -0.001465 0.000000 0.002922 0.000000
# 3 -0.001105 -0.001465 0.008709 0.000000 0.002670 0.000000
# 4 0.000000 0.000000 0.000000 0.047111 0.000000 0.001128
# 5 0.004054 0.002922 0.002670 0.000000 0.026440 0.000000
# 6 0.000000 0.000000 0.000000 0.001128 0.000000 0.039058
#
#
# Mechanical properties :
#
#
# Convention : Reuss Voigt Hill
#
# Bulk Modulus (GPa) = 33.87740 42.00952 37.94346
# Shear Modulus (GPa) = 27.68062 31.82632 29.75347
#
# Velocity S-wave (km/s) = 3.64699 3.91057 3.78108
# Velocity P-wave (km/s) = 5.83200 6.36991 6.10688
#
# Compressibility (1/GPa) = 0.02951821
#
# Stress axis : x y z
#
# Youngs Moduli (GPa) = 69.27944 48.29268 114.82147
#
# Poissons Ratio (x) = 0.22192 0.12692
# Poissons Ratio (y) = 0.31837 0.16826
# Poissons Ratio (z) = 0.07658 0.07077
#
# Static dielectric constant tensor:
#      x y z
#    x 1.782450 0.000000 0.008890 
#    y 0.000000 1.724820 0.000000 
#    z 0.008890 0.000000 1.811000 
# 
# From -- ./inp_files/22554.got.cif
#   From: 2010.05.17/outbox.cif.g08.bks.cpg/sg5_12_cif.got.tgz:22554.got - 2010.06.03 18:56:24.
