data_PCOD9122305
_publ_section_title
;
Structure prediction by ZEFSAII (Michael W. Deem and Ramdas Pophale) SiO2 
 PCOD9122305
Probable space group: C 2
;
_chemical_formula_sum "Si O2"
_cell_formula_units_Z 20
_cell_length_a 10.173081
_cell_length_b 16.636874
_cell_length_c 7.374207
_cell_angle_alpha 90.000000
_cell_angle_beta 133.168637
_cell_angle_gamma 90.000000
_cell_volume 910.272685
_symmetry_space_group_name_H-M "C 2"
_symmetry_group_IT_number 5
_symmetry_cell_setting 'monoclinic'
loop_
_space_group_symop_operation_xyz
x,y,z
-x,y,-z
1/2+x,1/2+y,z
1/2-x,1/2+y,-z
loop_
_atom_site_type_symbol
_atom_site_label
_atom_site_fract_x
_atom_site_fract_y
_atom_site_fract_z
Si Si1 0.000000 0.426450 0.000000
Si Si2 0.787925 0.796877 0.272959
Si Si3 0.850962 0.256591 0.245562
Si Si4 0.000000 0.688327 0.000000
Si Si5 0.604178 0.638222 0.271578
Si Si6 0.460988 0.059287 0.676545
O O1 0.164266 0.370313 0.220233
O O2 0.966956 0.484423 0.140652
O O3 0.715633 0.713931 0.292008
O O4 0.000000 0.805059 0.500000
O O5 0.735091 0.795730 0.011352
O O6 0.680516 0.236632 0.209008
O O7 0.000000 0.304242 0.500000
O O8 0.962159 0.179070 0.274499
O O9 0.957076 0.635062 0.136335
O O10 0.745617 0.576068 0.490160
O O11 0.500000 0.602121 0.000000
O O12 0.500000 0.057799 0.500000
#
# Coordination Sequence:
#
# PCOD9122305 Si02
#       6
#     2   4   4   2   4   4
#     4  11  26  48  64  98 144 187 218 281 348 408
#     4  11  23  45  70  95 138 186 225 280 345 406
#     4  11  21  36  69 105 134 165 232 289 333 392
#     4  11  22  38  66 106 132 177 222 293 338 396
#     4  10  19  40  71 100 128 175 232 284 334 397
#     4  11  23  43  66  97 141 177 225 284 340 402
#
# _framework density 21.971440000000001
#
# number of rings (size 3 to 8) (size 9 to 14) (size 15 to 20)
#    0.000    1.200    5.000    4.200    0.000    0.800 
#   10.800    0.000    0.000    0.000    0.000    0.000 
#    0.000    0.000    0.000    0.000    0.000    0.000 
#
# Total GULP energy -55848.298031 kJ/mol
# GULP energy per Si atom -5584.829803 kJ/mol
# Density = 2.192143 g / cm^3
# Si number density = 21.971440 Si / 1000 Ang^3
#
#
#
# Elastic Constant Matrix: (Units=GPa)
#
#
# Indices 1 2 3 4 5 6 
#
# 1 85.9932 8.3131 30.0507 0.0000 4.5464 0.0000
# 2 8.3131 41.3236 13.3533 0.0000 8.0734 0.0000
# 3 30.0507 13.3533 162.9223 0.0000 11.8255 0.0000
# 4 0.0000 0.0000 0.0000 25.3131 0.0000 -1.6470
# 5 4.5464 8.0734 11.8255 0.0000 62.8133 0.0000
# 6 0.0000 0.0000 0.0000 -1.6470 0.0000 8.2699
#
#
#
# Elastic Compliance Matrix: (Units=1/GPa)
#
#
# Indices 1 2 3 4 5 6 
#
# 1 0.012567 -0.001779 -0.002152 0.000000 -0.000276 0.000000
# 2 -0.001779 0.025623 -0.001564 0.000000 -0.002870 0.000000
# 3 -0.002152 -0.001564 0.006729 0.000000 -0.000910 0.000000
# 4 0.000000 0.000000 0.000000 0.040024 0.000000 0.007971
# 5 -0.000276 -0.002870 -0.000910 0.000000 0.016480 0.000000
# 6 0.000000 0.000000 0.000000 0.007971 0.000000 0.122508
#
#
# Mechanical properties :
#
#
# Convention : Reuss Voigt Hill
#
# Bulk Modulus (GPa) = 29.47227 43.74148 36.60687
# Shear Modulus (GPa) = 20.30611 35.18073 27.74342
#
# Velocity S-wave (km/s) = 3.04337 4.00584 3.55731
# Velocity P-wave (km/s) = 5.07863 6.43018 5.79395
#
# Compressibility (1/GPa) = 0.03393020
#
# Stress axis : x y z
#
# Youngs Moduli (GPa) = 79.57047 39.02725 148.60854
#
# Poissons Ratio (x) = 0.06942 0.31984
# Poissons Ratio (y) = 0.14154 0.23237
# Poissons Ratio (z) = 0.17125 0.06103
#
# Static dielectric constant tensor:
#      x y z
#    x 1.879780 0.000000 -0.024380 
#    y 0.000000 1.800710 0.000000 
#    z -0.024380 0.000000 1.858260 
# 
# From -- ./inp_files/21409.got.cif
#   From: 2010.05.17/outbox.cif.g08.bks.cpg/sg5_11_cif.got.tgz:21409.got - 2010.06.03 18:56:24.
