data_PCOD9122947
_publ_section_title
;
Structure prediction by ZEFSAII (Michael W. Deem and Ramdas Pophale) SiO2 
 PCOD9122947
Probable space group: C 2
;
_chemical_formula_sum "Si O2"
_cell_formula_units_Z 30
_cell_length_a 16.264541
_cell_length_b 17.255361
_cell_length_c 12.613619
_cell_angle_alpha 90.000000
_cell_angle_beta 154.073964
_cell_angle_gamma 90.000000
_cell_volume 1547.733448
_symmetry_space_group_name_H-M "C 2"
_symmetry_group_IT_number 5
_symmetry_cell_setting 'monoclinic'
loop_
_space_group_symop_operation_xyz
x,y,z
-x,y,-z
1/2+x,1/2+y,z
1/2-x,1/2+y,-z
loop_
_atom_site_type_symbol
_atom_site_label
_atom_site_fract_x
_atom_site_fract_y
_atom_site_fract_z
Si Si1 0.335995 0.368520 0.136296
Si Si2 0.000000 0.983567 0.500000
Si Si3 0.320541 0.010143 0.718478
Si Si4 0.112364 0.590997 0.422823
Si Si5 0.437051 0.707770 0.816207
Si Si6 0.535911 0.921775 0.418840
Si Si7 0.346088 0.194467 0.226500
Si Si8 0.228321 0.856010 0.482084
O O1 0.382327 0.429507 0.282870
O O2 0.328448 0.285300 0.182901
O O3 0.507406 0.360044 0.251634
O O4 0.145904 0.393867 0.858331
O O5 0.141515 0.027215 0.585487
O O6 0.344829 0.066822 0.647531
O O7 0.304849 0.924096 0.648888
O O8 0.500000 0.013340 0.000000
O O9 0.292634 0.638651 0.670952
O O10 0.070276 0.513107 0.439388
O O11 0.935204 0.647189 0.233120
O O12 0.325691 0.774089 0.622959
O O13 0.500000 0.745612 0.000000
O O14 0.629448 0.672364 0.993479
O O15 0.500000 0.905884 0.500000
O O16 0.711628 0.879337 0.566633
O O17 0.500000 0.183564 0.500000
#
# Coordination Sequence:
#
# PCOD9122947 Si02
#       8
#     4   2   4   4   4   4   4   4
#     4  11  21  39  70  98 125 158 216 278 317 379
#     4  10  20  36  66 100 118 154 214 268 332 362
#     4  10  22  39  63  91 128 162 206 265 316 383
#     4  11  25  42  59  97 133 170 210 258 329 386
#     4  12  23  38  68  96 132 163 210 277 328 377
#     4  11  25  43  62  91 133 178 213 252 314 395
#     4  12  22  39  68 100 127 161 213 275 335 374
#     4  10  21  40  67  99 120 159 218 270 327 370
#
# _framework density 19.383182000000001
#
# number of rings (size 3 to 8) (size 9 to 14) (size 15 to 20)
#    0.000    1.067    4.667    2.400    1.867    4.800 
#    0.000    1.333    1.467    0.000    0.000    0.000 
#    0.000    0.000    0.000    0.000    0.000    0.000 
#
# Total GULP energy -83728.328103 kJ/mol
# GULP energy per Si atom -5581.888540 kJ/mol
# Density = 1.933907 g / cm^3
# Si number density = 19.383182 Si / 1000 Ang^3
#
#
#
# Elastic Constant Matrix: (Units=GPa)
#
#
# Indices 1 2 3 4 5 6 
#
# 1 136.5931 11.2491 28.7305 0.0000 21.3501 0.0000
# 2 11.2491 54.5240 11.3736 0.0000 12.5375 0.0000
# 3 28.7305 11.3736 41.5640 0.0000 27.7148 0.0000
# 4 0.0000 0.0000 0.0000 5.4133 0.0000 1.5341
# 5 21.3501 12.5375 27.7148 0.0000 36.6736 0.0000
# 6 0.0000 0.0000 0.0000 1.5341 0.0000 18.9906
#
#
#
# Elastic Compliance Matrix: (Units=1/GPa)
#
#
# Indices 1 2 3 4 5 6 
#
# 1 0.008597 -0.000479 -0.005208 0.000000 -0.000906 0.000000
# 2 -0.000479 0.020002 -0.001549 0.000000 -0.005388 0.000000
# 3 -0.005208 -0.001549 0.051822 0.000000 -0.035601 0.000000
# 4 0.000000 0.000000 0.000000 0.189059 0.000000 -0.015272
# 5 -0.000906 -0.005388 -0.035601 0.000000 0.056541 0.000000
# 6 0.000000 0.000000 0.000000 -0.015272 0.000000 0.053891
#
#
# Mechanical properties :
#
#
# Convention : Reuss Voigt Hill
#
# Bulk Modulus (GPa) = 15.16333 37.26528 26.21430
# Shear Modulus (GPa) = 12.00860 24.30401 18.15631
#
# Velocity S-wave (km/s) = 2.49175 3.54485 3.06388
# Velocity P-wave (km/s) = 4.01477 6.00182 5.10589
#
# Compressibility (1/GPa) = 0.06594858
#
# Stress axis : x y z
#
# Youngs Moduli (GPa) = 116.31380 49.99611 19.29681
#
# Poissons Ratio (x) = 0.02396 0.10049
# Poissons Ratio (y) = 0.05573 0.02989
# Poissons Ratio (z) = 0.60574 0.07745
#
# Static dielectric constant tensor:
#      x y z
#    x 1.747150 0.000000 0.048210 
#    y 0.000000 1.667620 0.000000 
#    z 0.048210 0.000000 1.664850 
# 
# From -- ./inp_files/40453.got.cif
#   From: 2010.05.17/outbox.cif.g08.bks.cpg/sg5_21_cif.got.tgz:40453.got - 2010.06.03 18:56:24.
