data_PCOD9122561
_publ_section_title
;
Structure prediction by ZEFSAII (Michael W. Deem and Ramdas Pophale) SiO2 
 PCOD9122561
Probable space group: C 2
;
_chemical_formula_sum "Si O2"
_cell_formula_units_Z 24
_cell_length_a 10.991090
_cell_length_b 23.708055
_cell_length_c 5.285376
_cell_angle_alpha 90.000000
_cell_angle_beta 52.837421
_cell_angle_gamma 90.000000
_cell_volume 1097.563926
_symmetry_space_group_name_H-M "C 2"
_symmetry_group_IT_number 5
_symmetry_cell_setting 'monoclinic'
loop_
_space_group_symop_operation_xyz
x,y,z
-x,y,-z
1/2+x,1/2+y,z
1/2-x,1/2+y,-z
loop_
_atom_site_type_symbol
_atom_site_label
_atom_site_fract_x
_atom_site_fract_y
_atom_site_fract_z
Si Si1 0.813140 0.807020 0.230248
Si Si2 0.000000 0.655925 0.500000
Si Si3 0.603043 0.487243 0.608184
Si Si4 0.500000 0.663539 0.000000
Si Si5 0.178809 0.865494 0.289973
Si Si6 0.724619 0.097944 0.569479
Si Si7 0.716800 0.694167 0.117892
O O1 0.751949 0.828408 0.574782
O O2 0.749447 0.745087 0.262716
O O3 0.765424 0.849289 0.060233
O O4 0.000000 0.805307 0.000000
O O5 0.933608 0.616672 0.359344
O O6 0.860778 0.696026 0.748238
O O7 0.500000 0.508622 0.500000
O O8 0.671532 0.428855 0.412084
O O9 0.738561 0.532210 0.469304
O O10 0.500000 0.480492 0.000000
O O11 0.358420 0.623054 0.226732
O O12 0.559285 0.698010 0.164519
O O13 0.000000 0.850377 0.500000
O O14 0.759772 0.133448 0.778393
#
# Coordination Sequence:
#
# PCOD9122561 Si02
#       7
#     4   2   4   2   4   4   4
#     4  10  20  34  58  85 122 156 202 252 306 361
#     4  10  24  38  56  88 122 158 210 246 314 372
#     4  11  21  37  61  91 124 160 205 260 310 368
#     4  10  22  38  58  88 122 156 206 246 316 374
#     4   9  19  34  54  88 118 156 200 256 304 354
#     4  11  22  39  60  90 123 163 203 254 316 370
#     4  11  23  38  60  89 123 165 204 253 314 371
#
# _framework density 21.866609
#
# number of rings (size 3 to 8) (size 9 to 14) (size 15 to 20)
#    0.000    1.667    0.833    5.500   10.500    0.000 
#    0.000    0.000    0.000    2.000    0.000    0.000 
#    0.000    0.000    0.000    0.000    0.000    0.000 
#
# Total GULP energy -66927.212400 kJ/mol
# GULP energy per Si atom -5577.267700 kJ/mol
# Density = 2.181684 g / cm^3
# Si number density = 21.866609 Si / 1000 Ang^3
#
#
#
# Elastic Constant Matrix: (Units=GPa)
#
#
# Indices 1 2 3 4 5 6 
#
# 1 136.3792 52.8089 31.1364 0.0000 27.5378 0.0000
# 2 52.8089 92.8779 29.7810 0.0000 9.8676 0.0000
# 3 31.1364 29.7810 47.9676 0.0000 22.0836 0.0000
# 4 0.0000 0.0000 0.0000 20.1507 0.0000 8.3102
# 5 27.5378 9.8676 22.0836 0.0000 25.2598 0.0000
# 6 0.0000 0.0000 0.0000 8.3102 0.0000 14.1839
#
#
#
# Elastic Compliance Matrix: (Units=1/GPa)
#
#
# Indices 1 2 3 4 5 6 
#
# 1 0.011610 -0.005826 0.001440 0.000000 -0.011640 0.000000
# 2 -0.005826 0.016546 -0.010777 0.000000 0.009310 0.000000
# 3 0.001440 -0.010777 0.042490 0.000000 -0.034507 0.000000
# 4 0.000000 0.000000 0.000000 0.065437 0.000000 -0.038339
# 5 -0.011640 0.009310 -0.034507 0.000000 0.078810 0.000000
# 6 0.000000 0.000000 0.000000 -0.038339 0.000000 0.092965
#
#
# Mechanical properties :
#
#
# Convention : Reuss Voigt Hill
#
# Bulk Modulus (GPa) = 24.80169 56.07526 40.43848
# Shear Modulus (GPa) = 14.21967 22.81878 18.51923
#
# Velocity S-wave (km/s) = 2.55285 3.23390 2.91334
# Velocity P-wave (km/s) = 4.47842 6.29635 5.46353
#
# Compressibility (1/GPa) = 0.04031984
#
# Stress axis : x y z
#
# Youngs Moduli (GPa) = 86.13077 60.43711 23.53472
#
# Poissons Ratio (x) = 0.35213 -0.03389
# Poissons Ratio (y) = 0.50184 0.25363
# Poissons Ratio (z) = -0.12403 0.65133
#
# Static dielectric constant tensor:
#      x y z
#    x 1.839890 0.000000 0.066170 
#    y 0.000000 1.819190 0.000000 
#    z 0.066170 0.000000 1.928700 
# 
# From -- ./inp_files/5922.got.cif
#   From: 2010.05.17/outbox.cif.g08.bks.cpg/sg5_3_cif.got.tgz:5922.got - 2010.06.03 18:56:24.
