data_PCOD9122314
_publ_section_title
;
Structure prediction by ZEFSAII (Michael W. Deem and Ramdas Pophale) SiO2 
 PCOD9122314
Probable space group: C 2
;
_chemical_formula_sum "Si O2"
_cell_formula_units_Z 28
_cell_length_a 14.349640
_cell_length_b 4.992492
_cell_length_c 17.723605
_cell_angle_alpha 90.000000
_cell_angle_beta 85.996678
_cell_angle_gamma 90.000000
_cell_volume 1266.629137
_symmetry_space_group_name_H-M "C 2"
_symmetry_group_IT_number 5
_symmetry_cell_setting 'monoclinic'
loop_
_space_group_symop_operation_xyz
x,y,z
-x,y,-z
1/2+x,1/2+y,z
1/2-x,1/2+y,-z
loop_
_atom_site_type_symbol
_atom_site_label
_atom_site_fract_x
_atom_site_fract_y
_atom_site_fract_z
Si Si1 0.948321 0.543950 0.337246
Si Si2 0.460732 0.935286 0.170353
Si Si3 0.206088 0.267533 0.468906
Si Si4 0.794630 0.149580 0.024943
Si Si5 0.500000 0.867632 0.500000
Si Si6 0.333915 0.431025 0.175012
Si Si7 0.685089 0.540217 0.666388
Si Si8 0.000000 0.337897 0.000000
O O1 0.001486 0.493854 0.252994
O O2 0.864059 0.326342 0.338907
O O3 0.994427 0.515322 0.418128
O O4 0.901850 0.835017 0.337151
O O5 0.370883 0.130659 0.174428
O O6 0.424747 0.628674 0.171942
O O7 0.503735 0.982282 0.083189
O O8 0.240967 0.487650 0.527602
O O9 0.097338 0.211114 0.487519
O O10 0.235960 0.431155 0.393475
O O11 0.777705 0.005503 0.104864
O O12 0.754966 0.447528 0.028928
O O13 0.905053 0.168294 0.006192
O O14 0.277314 0.504216 0.252030
#
# Coordination Sequence:
#
# PCOD9122314 Si02
#       8
#     4   4   4   4   2   4   4   2
#     4  10  21  37  63  90 123 158 210 251 300 368
#     4   9  19  36  62  92 116 165 205 248 306 365
#     4  12  24  41  63  93 122 161 207 252 306 371
#     4  11  23  39  62  94 123 158 210 252 305 372
#     4  12  24  40  68  90 128 162 204 258 310 364
#     4   9  19  36  63  85 121 162 200 251 308 353
#     4  10  19  41  61  85 122 164 200 252 306 360
#     4  10  22  42  68  86 130 168 200 256 320 352
#
# _framework density 22.105920000000001
#
# number of rings (size 3 to 8) (size 9 to 14) (size 15 to 20)
#    0.000    1.714    2.857    1.714    0.000    7.429 
#    2.571    0.000    0.000    0.000    0.000    0.000 
#    0.000    0.000    0.000    0.000    0.000    0.000 
#
# Total GULP energy -77942.336371 kJ/mol
# GULP energy per Si atom -5567.309741 kJ/mol
# Density = 2.205561 g / cm^3
# Si number density = 22.105920 Si / 1000 Ang^3
#
#
#
# Elastic Constant Matrix: (Units=GPa)
#
#
# Indices 1 2 3 4 5 6 
#
# 1 76.5999 18.7564 14.5298 0.0000 -6.3624 0.0000
# 2 18.7564 85.7040 4.1367 0.0000 2.8426 0.0000
# 3 14.5298 4.1367 188.8122 0.0000 -8.5349 0.0000
# 4 0.0000 0.0000 0.0000 27.0338 0.0000 -5.3587
# 5 -6.3624 2.8426 -8.5349 0.0000 28.7531 0.0000
# 6 0.0000 0.0000 0.0000 -5.3587 0.0000 9.1340
#
#
#
# Elastic Compliance Matrix: (Units=1/GPa)
#
#
# Indices 1 2 3 4 5 6 
#
# 1 0.014269 -0.003187 -0.000883 0.000000 0.003210 0.000000
# 2 -0.003187 0.012436 -0.000116 0.000000 -0.001969 0.000000
# 3 -0.000883 -0.000116 0.005431 0.000000 0.001428 0.000000
# 4 0.000000 0.000000 0.000000 0.041859 0.000000 0.024557
# 5 0.003210 -0.001969 0.001428 0.000000 0.036108 0.000000
# 6 0.000000 0.000000 0.000000 0.024557 0.000000 0.123888
#
#
# Mechanical properties :
#
#
# Convention : Reuss Voigt Hill
#
# Bulk Modulus (GPa) = 42.07893 47.32910 44.70401
# Shear Modulus (GPa) = 19.97717 33.89705 26.93711
#
# Velocity S-wave (km/s) = 3.00943 3.92010 3.49456
# Velocity P-wave (km/s) = 5.58140 6.47659 6.04559
#
# Compressibility (1/GPa) = 0.02376486
#
# Stress axis : x y z
#
# Youngs Moduli (GPa) = 70.08045 80.40906 184.11665
#
# Poissons Ratio (x) = 0.25624 0.16260
# Poissons Ratio (y) = 0.22333 0.02140
# Poissons Ratio (z) = 0.06189 0.00935
#
# Static dielectric constant tensor:
#      x y z
#    x 1.764850 0.000000 0.018280 
#    y 0.000000 1.761250 0.000000 
#    z 0.018280 0.000000 1.987050 
# 
# From -- ./inp_files/60993.got.cif
#   From: 2010.05.17/outbox.cif.g08.bks.cpg/sg5_31_cif.got.tgz:60993.got - 2010.06.03 18:56:24.
