data_PCOD9122239
_publ_section_title
;
Structure prediction by ZEFSAII (Michael W. Deem and Ramdas Pophale) SiO2 
 PCOD9122239
Probable space group: C 2
;
_chemical_formula_sum "Si O2"
_cell_formula_units_Z 22
_cell_length_a 11.559450
_cell_length_b 8.784833
_cell_length_c 8.759191
_cell_angle_alpha 90.000000
_cell_angle_beta 116.809897
_cell_angle_gamma 90.000000
_cell_volume 793.865187
_symmetry_space_group_name_H-M "C 2"
_symmetry_group_IT_number 5
_symmetry_cell_setting 'monoclinic'
loop_
_space_group_symop_operation_xyz
x,y,z
-x,y,-z
1/2+x,1/2+y,z
1/2-x,1/2+y,-z
loop_
_atom_site_type_symbol
_atom_site_label
_atom_site_fract_x
_atom_site_fract_y
_atom_site_fract_z
Si Si1 0.000000 0.038170 0.500000
Si Si2 0.011988 0.039327 0.843981
Si Si3 0.700595 0.068363 0.058956
Si Si4 0.279536 0.783626 0.704682
Si Si5 0.728501 0.218709 0.356863
Si Si6 0.963677 0.579009 0.324792
O O1 0.001095 0.961548 0.331566
O O2 0.867611 0.134677 0.422290
O O3 0.159674 0.092979 0.932146
O O4 0.903272 0.171424 0.779652
O O5 0.000000 0.958930 0.000000
O O6 0.685683 0.221154 0.153280
O O7 0.700959 0.927190 0.175913
O O8 0.600919 0.021328 0.868552
O O9 0.259824 0.833491 0.515223
O O10 0.150418 0.694129 0.684548
O O11 0.600926 0.141160 0.350761
O O12 0.000000 0.485270 0.500000
#
# Coordination Sequence:
#
# PCOD9122239 Si02
#       6
#     2   4   4   4   4   4
#     4   8  18  36  66  96 136 186 226 302 370 412
#     4  10  19  39  70  95 148 186 251 309 356 466
#     4  11  22  42  76 105 145 205 240 306 395 431
#     4  10  22  43  69 102 151 193 241 318 375 444
#     4   9  20  41  66 103 144 185 244 307 359 458
#     4  10  21  42  68 102 153 186 246 313 360 456
#
# _framework density 27.712516000000001
#
# number of rings (size 3 to 8) (size 9 to 14) (size 15 to 20)
#    0.000    2.182    1.818    0.545    0.000    1.455 
#   29.455    5.455   30.000    0.000    0.000    0.000 
#    0.000    0.000    0.000    0.000    0.000    0.000 
#
# Total GULP energy -61321.323934 kJ/mol
# GULP energy per Si atom -5574.665812 kJ/mol
# Density = 2.764944 g / cm^3
# Si number density = 27.712516 Si / 1000 Ang^3
#
#
#
# Elastic Constant Matrix: (Units=GPa)
#
#
# Indices 1 2 3 4 5 6 
#
# 1 230.3201 66.8864 56.7179 0.0000 15.8628 0.0000
# 2 66.8864 84.4213 57.6641 0.0000 9.0561 0.0000
# 3 56.7179 57.6641 284.8520 0.0000 -35.5425 0.0000
# 4 0.0000 0.0000 0.0000 10.0374 0.0000 15.4191
# 5 15.8628 9.0561 -35.5425 0.0000 69.9430 0.0000
# 6 0.0000 0.0000 0.0000 15.4191 0.0000 52.8132
#
#
#
# Elastic Compliance Matrix: (Units=1/GPa)
#
#
# Indices 1 2 3 4 5 6 
#
# 1 0.005713 -0.004133 -0.000423 0.000000 -0.000975 0.000000
# 2 -0.004133 0.017543 -0.003091 0.000000 -0.002905 0.000000
# 3 -0.000423 -0.003091 0.004572 0.000000 0.002819 0.000000
# 4 0.000000 0.000000 0.000000 0.180646 0.000000 -0.052740
# 5 -0.000975 -0.002905 0.002819 0.000000 0.016327 0.000000
# 6 0.000000 0.000000 0.000000 -0.052740 0.000000 0.034333
#
#
# Mechanical properties :
#
#
# Convention : Reuss Voigt Hill
#
# Bulk Modulus (GPa) = 79.77574 106.90337 93.33956
# Shear Modulus (GPa) = 17.94648 54.44703 36.19676
#
# Velocity S-wave (km/s) = 2.54755 4.43731 3.61799
# Velocity P-wave (km/s) = 6.12395 8.05683 7.15595
#
# Compressibility (1/GPa) = 0.01253514
#
# Stress axis : x y z
#
# Youngs Moduli (GPa) = 175.02759 57.00302 218.71322
#
# Poissons Ratio (x) = 0.23562 0.09242
# Poissons Ratio (y) = 0.72346 0.67598
# Poissons Ratio (z) = 0.07396 0.17618
#
# Static dielectric constant tensor:
#      x y z
#    x 2.066870 0.000000 -0.024990 
#    y 0.000000 2.224530 0.000000 
#    z -0.024990 0.000000 2.292340 
# 
# From -- ./inp_files/19087.got.cif
#   From: 2010.05.17/outbox.cif.g08.bks.cpg/sg5_10_cif.got.tgz:19087.got - 2010.06.03 18:56:24.
