data_PCOD9122790
_publ_section_title
;
Structure prediction by ZEFSAII (Michael W. Deem and Ramdas Pophale) SiO2 
 PCOD9122790
Probable space group: C 2
;
_chemical_formula_sum "Si O2"
_cell_formula_units_Z 28
_cell_length_a 13.466640
_cell_length_b 8.893345
_cell_length_c 10.302545
_cell_angle_alpha 90.000000
_cell_angle_beta 113.694617
_cell_angle_gamma 90.000000
_cell_volume 1129.853908
_symmetry_space_group_name_H-M "C 2"
_symmetry_group_IT_number 5
_symmetry_cell_setting 'monoclinic'
loop_
_space_group_symop_operation_xyz
x,y,z
-x,y,-z
1/2+x,1/2+y,z
1/2-x,1/2+y,-z
loop_
_atom_site_type_symbol
_atom_site_label
_atom_site_fract_x
_atom_site_fract_y
_atom_site_fract_z
Si Si1 0.190453 0.989620 0.784571
Si Si2 0.301675 0.272566 0.712532
Si Si3 0.964807 0.630913 0.200957
Si Si4 0.079903 0.342077 0.136127
Si Si5 0.865024 0.247232 0.562640
Si Si6 0.000000 0.509930 0.500000
Si Si7 0.000000 0.988800 0.500000
Si Si8 0.380923 0.396508 0.994100
O O1 0.305118 0.902973 0.854384
O O2 0.148767 0.009962 0.908166
O O3 0.224982 0.143825 0.733474
O O4 0.090702 0.920344 0.646217
O O5 0.424256 0.223524 0.758021
O O6 0.257942 0.275798 0.543572
O O7 0.302979 0.395728 0.827267
O O8 0.999443 0.476128 0.146332
O O9 0.951338 0.595665 0.347881
O O10 0.881195 0.732754 0.072422
O O11 0.115730 0.248711 0.277160
O O12 0.000000 0.255880 0.000000
O O13 0.915930 0.394725 0.521385
O O14 0.925540 0.098685 0.547332
O O15 0.500000 0.415369 0.000000
#
# Coordination Sequence:
#
# PCOD9122790 Si02
#       8
#     4   4   4   4   4   2   2   4
#     4  10  21  36  58  82 110 149 186 226 278 332
#     4   9  19  36  54  76 110 146 181 223 277 326
#     4   9  18  34  54  79 111 142 178 229 273 318
#     4  10  20  36  58  84 111 143 187 230 272 327
#     4   9  19  35  56  79 108 145 179 224 276 325
#     4   9  18  31  54  80 102 135 184 223 260 320
#     4   9  20  39  56  78 114 149 182 225 284 334
#     4  10  21  36  55  80 112 149 186 230 279 327
#
# _framework density 24.781966000000001
#
# number of rings (size 3 to 8) (size 9 to 14) (size 15 to 20)
#    0.000    2.571    0.000    2.143    0.000    9.714 
#    0.000    2.143    0.000    0.000    0.000    0.000 
#    0.000    0.000    0.000    0.000    0.000    0.000 
#
# Total GULP energy -78069.398428 kJ/mol
# GULP energy per Si atom -5576.385602 kJ/mol
# Density = 2.472556 g / cm^3
# Si number density = 24.781966 Si / 1000 Ang^3
#
#
#
# Elastic Constant Matrix: (Units=GPa)
#
#
# Indices 1 2 3 4 5 6 
#
# 1 62.5318 8.9807 50.1013 0.0000 -3.9349 0.0000
# 2 8.9807 42.2921 4.3009 0.0000 1.4780 0.0000
# 3 50.1013 4.3009 191.8558 0.0000 15.6939 0.0000
# 4 0.0000 0.0000 0.0000 23.3660 0.0000 -8.1524
# 5 -3.9349 1.4780 15.6939 0.0000 50.9881 0.0000
# 6 0.0000 0.0000 0.0000 -8.1524 0.0000 3.8688
#
#
#
# Elastic Compliance Matrix: (Units=1/GPa)
#
#
# Indices 1 2 3 4 5 6 
#
# 1 0.021451 -0.004090 -0.005801 0.000000 0.003560 0.000000
# 2 -0.004090 0.024493 0.000618 0.000000 -0.001216 0.000000
# 3 -0.005801 0.000618 0.006926 0.000000 -0.002597 0.000000
# 4 0.000000 0.000000 0.000000 0.161618 0.000000 0.340560
# 5 0.003560 -0.001216 -0.002597 0.000000 0.020722 0.000000
# 6 0.000000 0.000000 0.000000 0.340560 0.000000 0.976099
#
#
# Mechanical properties :
#
#
# Convention : Reuss Voigt Hill
#
# Bulk Modulus (GPa) = 29.13323 47.04953 38.09138
# Shear Modulus (GPa) = 4.02805 31.19771 17.61288
#
# Velocity S-wave (km/s) = 1.27629 3.55193 2.66881
# Velocity P-wave (km/s) = 3.73540 5.98734 4.99006
#
# Compressibility (1/GPa) = 0.03432506
#
# Stress axis : x y z
#
# Youngs Moduli (GPa) = 46.61733 40.82784 144.38768
#
# Poissons Ratio (x) = 0.16697 0.83763
# Poissons Ratio (y) = 0.19065 -0.08928
# Poissons Ratio (z) = 0.27044 -0.02525
#
# Static dielectric constant tensor:
#      x y z
#    x 1.922610 0.000000 0.006850 
#    y 0.000000 2.053410 0.000000 
#    z 0.006850 0.000000 2.036480 
# 
# From -- ./inp_files/23738.got.cif
#   From: 2010.05.17/outbox.cif.g08.bks.cpg/sg5_12_cif.got.tgz:23738.got - 2010.06.03 18:56:24.
