data_PCOD9122099
_publ_section_title
;
Structure prediction by ZEFSAII (Michael W. Deem and Ramdas Pophale) SiO2 
 PCOD9122099
Probable space group: C 2
;
_chemical_formula_sum "Si O2"
_cell_formula_units_Z 24
_cell_length_a 7.227073
_cell_length_b 26.920806
_cell_length_c 5.544993
_cell_angle_alpha 90.000000
_cell_angle_beta 74.479956
_cell_angle_gamma 90.000000
_cell_volume 1039.488899
_symmetry_space_group_name_H-M "C 2"
_symmetry_group_IT_number 5
_symmetry_cell_setting 'monoclinic'
loop_
_space_group_symop_operation_xyz
x,y,z
-x,y,-z
1/2+x,1/2+y,z
1/2-x,1/2+y,-z
loop_
_atom_site_type_symbol
_atom_site_label
_atom_site_fract_x
_atom_site_fract_y
_atom_site_fract_z
Si Si1 0.686182 0.277510 0.766268
Si Si2 0.789220 0.371108 0.468117
Si Si3 0.818137 0.670842 0.238550
Si Si4 0.295807 0.579563 0.426361
Si Si5 0.000000 0.324497 0.000000
Si Si6 0.000000 0.144421 0.000000
Si Si7 0.621047 0.474342 0.703668
O O1 0.671430 0.324067 0.596497
O O2 0.688328 0.224373 0.628733
O O3 0.500000 0.277048 0.000000
O O4 0.877568 0.289422 0.860816
O O5 0.837591 0.361585 0.170610
O O6 0.714361 0.421126 0.617712
O O7 0.000000 0.365820 0.500000
O O8 0.826865 0.618879 0.378301
O O9 0.616595 0.672499 0.163132
O O10 0.000000 0.671771 0.000000
O O11 0.500000 0.577760 0.500000
O O12 0.244260 0.523435 0.368019
O O13 0.341028 0.608652 0.167758
O O14 0.500000 0.478834 0.500000
O O15 0.500000 0.476116 0.000000
#
# Coordination Sequence:
#
# PCOD9122099 Si02
#       7
#     4   4   4   4   2   2   4
#     4  10  22  40  63  90 131 170 221 270 335 401
#     4  10  24  41  61  94 132 168 223 275 340 399
#     4  10  22  39  61  96 127 168 218 277 325 406
#     4   9  20  40  61  91 125 167 218 266 330 398
#     4  10  23  40  60  96 130 172 217 278 332 412
#     4  10  19  38  64  82 128 166 207 266 336 386
#     4  11  24  43  72  98 132 178 229 279 337 406
#
# _framework density 23.088270000000001
#
# number of rings (size 3 to 8) (size 9 to 14) (size 15 to 20)
#    0.000    2.000    0.833    1.000    7.000    8.000 
#    4.500    3.333    0.000    0.000    0.000    0.000 
#    0.000    0.000    0.000    0.000    0.000    0.000 
#
# Total GULP energy -66814.624706 kJ/mol
# GULP energy per Si atom -5567.885392 kJ/mol
# Density = 2.303572 g / cm^3
# Si number density = 23.088270 Si / 1000 Ang^3
#
#
#
# Elastic Constant Matrix: (Units=GPa)
#
#
# Indices 1 2 3 4 5 6 
#
# 1 74.1091 27.2279 12.0217 0.0000 2.0848 0.0000
# 2 27.2279 245.5825 77.2460 0.0000 -34.5663 0.0000
# 3 12.0217 77.2460 109.7610 0.0000 -20.4615 0.0000
# 4 0.0000 0.0000 0.0000 2.7711 0.0000 -11.8981
# 5 2.0848 -34.5663 -20.4615 0.0000 33.2487 0.0000
# 6 0.0000 0.0000 0.0000 -11.8981 0.0000 22.5752
#
#
#
# Elastic Compliance Matrix: (Units=1/GPa)
#
#
# Indices 1 2 3 4 5 6 
#
# 1 0.014390 -0.001763 -0.000955 0.000000 -0.003322 0.000000
# 2 -0.001763 0.005853 -0.003130 0.000000 0.004269 0.000000
# 3 -0.000955 -0.003130 0.012225 0.000000 0.004329 0.000000
# 4 0.000000 0.000000 0.000000 -0.285737 0.000000 -0.150596
# 5 -0.003322 0.004269 0.004329 0.000000 0.037387 0.000000
# 6 0.000000 0.000000 0.000000 -0.150596 0.000000 -0.035074
#
#
# Mechanical properties :
#
#
# Convention : Reuss Voigt Hill
#
# Bulk Modulus (GPa) = 48.14126 73.60488 60.87307
# Shear Modulus (GPa) = -21.52041 32.58280 5.53119
#
# Velocity S-wave (km/s) = -3.05633 3.76071 1.54948
# Velocity P-wave (km/s) = 2.90540 7.12785 5.44277
#
# Compressibility (1/GPa) = 0.02077220
#
# Stress axis : x y z
#
# Youngs Moduli (GPa) = 69.49465 170.85828 81.79820
#
# Poissons Ratio (x) = 0.30117 0.07811
# Poissons Ratio (y) = 0.12250 0.25604
# Poissons Ratio (z) = 0.06636 0.53481
#
# Static dielectric constant tensor:
#      x y z
#    x 1.863890 0.000000 -0.012890 
#    y 0.000000 2.003100 0.000000 
#    z -0.012890 0.000000 2.012430 
# 
# From -- ./inp_files/3352.got.cif
#   From: 2010.05.17/outbox.cif.g08.bks.cpg/sg5_2_cif.got.tgz:3352.got - 2010.06.03 18:56:24.
