data_PCOD9122831
_publ_section_title
;
Structure prediction by ZEFSAII (Michael W. Deem and Ramdas Pophale) SiO2 
 PCOD9122831
Probable space group: C 2
;
_chemical_formula_sum "Si O2"
_cell_formula_units_Z 26
_cell_length_a 7.294760
_cell_length_b 8.670487
_cell_length_c 21.069443
_cell_angle_alpha 90.000000
_cell_angle_beta 129.871213
_cell_angle_gamma 90.000000
_cell_volume 1022.771865
_symmetry_space_group_name_H-M "C 2"
_symmetry_group_IT_number 5
_symmetry_cell_setting 'monoclinic'
loop_
_space_group_symop_operation_xyz
x,y,z
-x,y,-z
1/2+x,1/2+y,z
1/2-x,1/2+y,-z
loop_
_atom_site_type_symbol
_atom_site_label
_atom_site_fract_x
_atom_site_fract_y
_atom_site_fract_z
Si Si1 0.851675 0.989500 0.765605
Si Si2 0.265166 0.347052 0.078312
Si Si3 0.852412 0.987003 0.533073
Si Si4 0.785599 0.160360 0.315491
Si Si5 0.388870 0.034082 0.158212
Si Si6 0.500000 0.350446 0.000000
Si Si7 0.997070 0.655096 0.380481
O O1 0.780238 0.837059 0.711181
O O2 0.110545 0.985511 0.855801
O O3 0.696177 0.966149 0.794538
O O4 0.772589 0.132917 0.704866
O O5 0.274346 0.204452 0.128290
O O6 0.414333 0.286724 0.049471
O O7 0.000000 0.385555 0.000000
O O8 0.917854 0.820336 0.575449
O O9 0.000000 0.000370 0.500000
O O10 0.585841 0.029127 0.451417
O O11 0.949237 0.112622 0.605309
O O12 0.671298 0.062182 0.231687
O O13 0.639528 0.122928 0.347070
O O14 0.243552 0.943406 0.072427
#
# Coordination Sequence:
#
# PCOD9122831 Si02
#       7
#     4   4   4   4   4   2   4
#     4   9  19  37  64  86 124 170 206 266 329 378
#     4  10  20  39  66  89 130 174 218 273 327 380
#     4  10  21  36  59  87 121 162 207 262 318 384
#     4   9  19  37  57  83 118 165 205 258 326 378
#     4   9  18  38  60  83 127 161 209 275 316 377
#     4  10  20  38  62  88 120 174 216 270 328 388
#     4  10  20  36  59  87 123 160 210 262 318 386
#
# _framework density 25.421115
#
# number of rings (size 3 to 8) (size 9 to 14) (size 15 to 20)
#    0.000    2.462    0.769    0.923    0.000    1.231 
#    9.692    0.000   13.538    0.000    0.000    0.000 
#    0.000    0.000    0.000    0.000    0.000    0.000 
#
# Total GULP energy -72471.227116 kJ/mol
# GULP energy per Si atom -5574.709778 kJ/mol
# Density = 2.536325 g / cm^3
# Si number density = 25.421115 Si / 1000 Ang^3
#
#
#
# Elastic Constant Matrix: (Units=GPa)
#
#
# Indices 1 2 3 4 5 6 
#
# 1 53.0926 -9.9167 29.7198 0.0000 -3.1955 0.0000
# 2 -9.9167 40.5886 45.0698 0.0000 7.3103 0.0000
# 3 29.7198 45.0698 187.5366 0.0000 32.4160 0.0000
# 4 0.0000 0.0000 0.0000 39.3753 0.0000 -6.0739
# 5 -3.1955 7.3103 32.4160 0.0000 48.1448 0.0000
# 6 0.0000 0.0000 0.0000 -6.0739 0.0000 18.9611
#
#
#
# Elastic Compliance Matrix: (Units=1/GPa)
#
#
# Indices 1 2 3 4 5 6 
#
# 1 0.027129 0.015641 -0.009007 0.000000 0.005490 0.000000
# 2 0.015641 0.042629 -0.013336 0.000000 0.003545 0.000000
# 3 -0.009007 -0.013336 0.010998 0.000000 -0.005978 0.000000
# 4 0.000000 0.000000 0.000000 0.026717 0.000000 0.008558
# 5 0.005490 0.003545 -0.005978 0.000000 0.024622 0.000000
# 6 0.000000 0.000000 0.000000 0.008558 0.000000 0.055481
#
#
# Mechanical properties :
#
#
# Convention : Reuss Voigt Hill
#
# Bulk Modulus (GPa) = 14.84757 45.66261 30.25509
# Shear Modulus (GPa) = 22.37827 35.71921 29.04874
#
# Velocity S-wave (km/s) = 2.97021 3.75253 3.38405
# Velocity P-wave (km/s) = 4.19716 6.06439 5.21503
#
# Compressibility (1/GPa) = 0.06735107
#
# Stress axis : x y z
#
# Youngs Moduli (GPa) = 36.86111 23.45815 90.92539
#
# Poissons Ratio (x) = -0.36691 0.81898
# Poissons Ratio (y) = -0.57654 1.21260
# Poissons Ratio (z) = 0.33201 0.31284
#
# Static dielectric constant tensor:
#      x y z
#    x 2.106820 0.000000 0.054900 
#    y 0.000000 1.988690 0.000000 
#    z 0.054900 0.000000 2.046680 
# 
# From -- ./inp_files/64315.got.cif
#   From: 2010.05.17/outbox.cif.g08.bks.cpg/sg5_33_cif.got.tgz:64315.got - 2010.06.03 18:56:24.
