data_PCOD9122398
_publ_section_title
;
Structure prediction by ZEFSAII (Michael W. Deem and Ramdas Pophale) SiO2 
 PCOD9122398
Probable space group: C 2
;
_chemical_formula_sum "Si O2"
_cell_formula_units_Z 30
_cell_length_a 10.604031
_cell_length_b 9.444507
_cell_length_c 25.958715
_cell_angle_alpha 90.000000
_cell_angle_beta 33.482042
_cell_angle_gamma 90.000000
_cell_volume 1434.224857
_symmetry_space_group_name_H-M "C 2"
_symmetry_group_IT_number 5
_symmetry_cell_setting 'monoclinic'
loop_
_space_group_symop_operation_xyz
x,y,z
-x,y,-z
1/2+x,1/2+y,z
1/2-x,1/2+y,-z
loop_
_atom_site_type_symbol
_atom_site_label
_atom_site_fract_x
_atom_site_fract_y
_atom_site_fract_z
Si Si1 0.522952 0.587200 0.553781
Si Si2 0.978689 0.633659 0.241829
Si Si3 0.331945 0.284425 0.512379
Si Si4 0.399054 0.878245 0.725178
Si Si5 0.106032 0.892144 0.149996
Si Si6 0.777999 0.684968 0.130770
Si Si7 0.500000 0.430508 0.000000
Si Si8 0.693551 0.141439 0.060045
O O1 0.500000 0.607736 0.500000
O O2 0.542361 0.418566 0.556238
O O3 0.738057 0.668668 0.504845
O O4 0.292152 0.643806 0.658493
O O5 0.060582 0.518032 0.254473
O O6 0.045497 0.591530 0.160511
O O7 0.098281 0.788310 0.202662
O O8 0.500000 0.227932 0.500000
O O9 0.111126 0.353828 0.615405
O O10 0.154642 0.893236 0.781175
O O11 0.376343 0.740655 0.769658
O O12 0.248182 0.802969 0.058690
O O13 0.186247 0.047601 0.134347
O O14 0.809806 0.822886 0.084822
O O15 0.028460 0.647616 0.068121
O O16 0.406854 0.536083 0.987532
#
# Coordination Sequence:
#
# PCOD9122398 Si02
#       8
#     4   4   4   4   4   4   2   4
#     4  11  22  41  61  92 128 169 212 259 316 371
#     4  10  19  45  63  81 127 167 202 250 311 371
#     4  11  23  40  63  93 130 167 206 273 316 367
#     4  11  20  43  64  85 127 162 210 255 309 373
#     4   9  22  39  64  87 120 161 214 248 299 368
#     4  11  23  41  63  96 120 162 213 252 304 376
#     4  12  24  38  64  94 130 158 200 252 322 366
#     4   9  23  42  62  88 126 164 198 257 309 369
#
# _framework density 20.917223
#
# number of rings (size 3 to 8) (size 9 to 14) (size 15 to 20)
#    0.800    0.800    5.333    0.000    0.000    6.400 
#    4.800    0.000    0.000    0.000    0.000    0.000 
#    0.000    0.000    0.000    0.000    0.000    0.000 
#
# Total GULP energy -83681.016976 kJ/mol
# GULP energy per Si atom -5578.734465 kJ/mol
# Density = 2.086961 g / cm^3
# Si number density = 20.917223 Si / 1000 Ang^3
#
#
#
# Elastic Constant Matrix: (Units=GPa)
#
#
# Indices 1 2 3 4 5 6 
#
# 1 93.2331 52.0108 -8.3480 0.0000 -18.0128 0.0000
# 2 52.0108 123.2531 11.2524 0.0002 -19.1742 -0.0001
# 3 -8.3480 11.2524 40.2568 0.0003 -1.3818 -0.0002
# 4 0.0000 0.0002 0.0003 25.1851 0.0000 -11.8837
# 5 -18.0128 -19.1742 -1.3818 0.0000 20.0698 0.0000
# 6 0.0000 -0.0001 -0.0002 -11.8837 0.0000 43.2574
#
#
#
# Elastic Compliance Matrix: (Units=1/GPa)
#
#
# Indices 1 2 3 4 5 6 
#
# 1 0.016315 -0.005918 0.005359 0.000000 0.009358 0.000000
# 2 -0.005918 0.011905 -0.004357 0.000000 0.005762 0.000000
# 3 0.005359 -0.004357 0.027256 0.000000 0.002523 0.000000
# 4 0.000000 0.000000 0.000000 0.045620 0.000000 0.012533
# 5 0.009358 0.005762 0.002523 0.000000 0.063904 0.000000
# 6 0.000000 0.000000 0.000000 0.012533 0.000000 0.026560
#
#
# Mechanical properties :
#
#
# Convention : Reuss Voigt Hill
#
# Bulk Modulus (GPa) = 21.90915 40.73036 31.31975
# Shear Modulus (GPa) = 23.08328 31.15766 27.12047
#
# Velocity S-wave (km/s) = 3.32558 3.86368 3.60469
# Velocity P-wave (km/s) = 5.02424 6.27841 5.68601
#
# Compressibility (1/GPa) = 0.04564304
#
# Stress axis : x y z
#
# Youngs Moduli (GPa) = 61.29330 83.99903 36.68887
#
# Poissons Ratio (x) = 0.49712 -0.19660
# Poissons Ratio (y) = 0.36274 0.15986
# Poissons Ratio (z) = -0.32845 0.36599
#
# Static dielectric constant tensor:
#      x y z
#    x 1.763230 0.000000 0.000980 
#    y 0.000000 1.760620 0.000000 
#    z 0.000980 0.000000 1.799440 
# 
# From -- ./inp_files/71702.got.cif
#   From: 2010.05.17/outbox.cif.g08.bks.cpg/sg5_36_cif.got.tgz:71702.got - 2010.06.03 18:56:24.
