data_PCOD9122705
_publ_section_title
;
Structure prediction by ZEFSAII (Michael W. Deem and Ramdas Pophale) SiO2 
 PCOD9122705
Probable space group: C 2
;
_chemical_formula_sum "Si O2"
_cell_formula_units_Z 30
_cell_length_a 12.103780
_cell_length_b 14.053792
_cell_length_c 18.345265
_cell_angle_alpha 90.000000
_cell_angle_beta 29.595425
_cell_angle_gamma 90.000000
_cell_volume 1541.179846
_symmetry_space_group_name_H-M "C 2"
_symmetry_group_IT_number 5
_symmetry_cell_setting 'monoclinic'
loop_
_space_group_symop_operation_xyz
x,y,z
-x,y,-z
1/2+x,1/2+y,z
1/2-x,1/2+y,-z
loop_
_atom_site_type_symbol
_atom_site_label
_atom_site_fract_x
_atom_site_fract_y
_atom_site_fract_z
Si Si1 0.187852 0.512300 0.727214
Si Si2 0.281358 0.447778 0.937592
Si Si3 0.473490 0.106788 0.324504
Si Si4 0.250413 0.609103 0.836092
Si Si5 0.693042 0.740753 0.944692
Si Si6 0.208456 0.183905 0.613778
Si Si7 0.000000 0.853247 0.500000
Si Si8 0.625496 0.577918 0.806790
O O1 0.158111 0.550035 0.662160
O O2 0.267285 0.589890 0.740380
O O3 0.352494 0.422557 0.634479
O O4 0.942631 0.482708 0.894417
O O5 0.284691 0.507560 0.859230
O O6 0.268146 0.334897 0.942210
O O7 0.496200 0.484622 0.857153
O O8 0.591467 0.197389 0.218773
O O9 0.316347 0.134516 0.481616
O O10 0.693644 0.058818 0.234407
O O11 0.441890 0.679816 0.754074
O O12 0.000000 0.640789 0.000000
O O13 0.500000 0.774822 0.000000
O O14 0.563960 0.655442 0.060596
O O15 0.327045 0.284948 0.557163
O O16 0.243100 0.125651 0.669143
#
# Coordination Sequence:
#
# PCOD9122705 Si02
#       8
#     4   4   4   4   4   4   2   4
#     4  11  22  39  60  93 126 164 212 262 319 377
#     4  10  20  35  64  95 123 170 220 260 311 376
#     4  11  22  38  62  93 130 168 207 266 319 376
#     4   9  21  40  65  92 126 169 211 259 319 378
#     4  10  20  35  62  91 123 166 220 263 306 384
#     4  11  22  39  64  95 126 165 213 258 319 379
#     4  12  24  38  64  94 126 166 216 260 320 382
#     4  10  20  40  62  92 132 171 211 261 322 378
#
# _framework density 19.465606999999999
#
# number of rings (size 3 to 8) (size 9 to 14) (size 15 to 20)
#    0.000    1.600    2.667    2.800    3.733    0.000 
#    0.000    1.333    0.000    0.000    0.000    0.000 
#    0.000    0.000    0.000    0.000    0.000    0.000 
#
# Total GULP energy -83711.150031 kJ/mol
# GULP energy per Si atom -5580.743335 kJ/mol
# Density = 1.942130 g / cm^3
# Si number density = 19.465607 Si / 1000 Ang^3
#
#
#
# Elastic Constant Matrix: (Units=GPa)
#
#
# Indices 1 2 3 4 5 6 
#
# 1 113.9682 42.2756 34.4815 0.0094 -6.4979 0.0064
# 2 42.2756 60.0657 20.5745 0.0117 -13.8413 0.0049
# 3 34.4815 20.5745 75.5550 0.0224 -2.6677 0.0091
# 4 0.0094 0.0117 0.0224 20.6580 0.0006 -8.5421
# 5 -6.4979 -13.8413 -2.6677 0.0006 38.3321 -0.0042
# 6 0.0064 0.0049 0.0091 -8.5421 -0.0042 24.8654
#
#
#
# Elastic Compliance Matrix: (Units=1/GPa)
#
#
# Indices 1 2 3 4 5 6 
#
# 1 0.012792 -0.007956 -0.003705 0.000003 -0.000962 0.000000
# 2 -0.007956 0.024962 -0.002903 -0.000009 0.007463 -0.000004
# 3 -0.003705 -0.002903 0.015696 -0.000018 -0.000584 -0.000010
# 4 0.000003 -0.000009 -0.000018 0.056422 -0.000003 0.019383
# 5 -0.000962 0.007463 -0.000584 -0.000003 0.028579 0.000003
# 6 0.000000 -0.000004 -0.000010 0.019383 0.000003 0.046875
#
#
# Mechanical properties :
#
#
# Convention : Reuss Voigt Hill
#
# Bulk Modulus (GPa) = 41.11558 49.36134 45.23846
# Shear Modulus (GPa) = 22.46570 26.92158 24.69364
#
# Velocity S-wave (km/s) = 3.40092 3.72295 3.56557
# Velocity P-wave (km/s) = 6.04894 6.62524 6.34364
#
# Compressibility (1/GPa) = 0.02432168
#
# Stress axis : x y z
#
# Youngs Moduli (GPa) = 78.17599 40.06112 63.70889
#
# Poissons Ratio (x) = 0.31871 0.23607
# Poissons Ratio (y) = 0.62193 0.18496
# Poissons Ratio (z) = 0.28967 0.11630
#
# Static dielectric constant tensor:
#      x y z
#    x 1.723300 0.000000 0.015470 
#    y 0.000000 1.655080 0.000000 
#    z 0.015470 0.000000 1.708140 
# 
# From -- ./inp_files/60631.got.cif
#   From: 2010.05.17/outbox.cif.g08.bks.cpg/sg5_31_cif.got.tgz:60631.got - 2010.06.03 18:56:24.
