data_PCOD9122091
_publ_section_title
;
Structure prediction by ZEFSAII (Michael W. Deem and Ramdas Pophale) SiO2 
 PCOD9122091
Probable space group: C 2
;
_chemical_formula_sum "Si O2"
_cell_formula_units_Z 32
_cell_length_a 16.323228
_cell_length_b 8.257499
_cell_length_c 25.281140
_cell_angle_alpha 90.000000
_cell_angle_beta 26.150891
_cell_angle_gamma 90.000000
_cell_volume 1501.863231
_symmetry_space_group_name_H-M "C 2"
_symmetry_group_IT_number 5
_symmetry_cell_setting 'monoclinic'
loop_
_space_group_symop_operation_xyz
x,y,z
-x,y,-z
1/2+x,1/2+y,z
1/2-x,1/2+y,-z
loop_
_atom_site_type_symbol
_atom_site_label
_atom_site_fract_x
_atom_site_fract_y
_atom_site_fract_z
Si Si1 0.719187 0.866440 0.475165
Si Si2 0.573162 0.080073 0.398334
Si Si3 0.092306 0.204966 0.997268
Si Si4 0.378786 0.090720 0.912062
Si Si5 0.689600 0.883731 0.764533
Si Si6 0.310369 0.537319 0.868247
Si Si7 0.041459 0.088661 0.326645
Si Si8 0.642242 0.371466 0.720522
O O1 0.597960 0.730322 0.574609
O O2 0.759010 0.811675 0.390957
O O3 0.589978 0.026884 0.545728
O O4 0.911620 0.930298 0.388862
O O5 0.500000 0.073964 0.500000
O O6 0.665939 0.252298 0.338697
O O7 0.724110 0.936586 0.311614
O O8 0.921979 0.292803 0.124801
O O9 0.204842 0.092836 0.972952
O O10 0.228383 0.356521 0.903321
O O11 0.000000 0.122610 0.000000
O O12 0.499402 0.244912 0.826745
O O13 0.522411 0.942070 0.823574
O O14 0.312956 0.099141 0.011258
O O15 0.808369 0.035605 0.716581
O O16 0.341324 0.626054 0.794774
O O17 0.516488 0.519928 0.772899
#
# Coordination Sequence:
#
# PCOD9122091 Si02
#       8
#     4   4   4   4   4   4   4   4
#     4  10  22  38  61  87 126 171 211 264 315 380
#     4  10  21  39  61  86 122 170 211 260 325 372
#     4  10  19  38  63  91 125 166 206 248 330 385
#     4  10  21  36  63  97 119 161 216 260 308 387
#     4  11  22  36  65  94 124 164 215 259 311 380
#     4   9  19  36  61  90 125 170 205 255 320 382
#     4  11  21  39  62  90 130 169 215 259 317 375
#     4   9  19  38  59  85 124 164 207 258 321 376
#
# _framework density 21.306868000000001
#
# number of rings (size 3 to 8) (size 9 to 14) (size 15 to 20)
#    0.000    2.000    1.250    2.250    0.000    1.000 
#    0.000    3.750    2.750    0.000    0.000    0.000 
#    0.000    0.000    0.000    0.000    0.000    0.000 
#
# Total GULP energy -89211.761915 kJ/mol
# GULP energy per Si atom -5575.735120 kJ/mol
# Density = 2.125837 g / cm^3
# Si number density = 21.306868 Si / 1000 Ang^3
#
#
#
# Elastic Constant Matrix: (Units=GPa)
#
#
# Indices 1 2 3 4 5 6 
#
# 1 90.8390 31.3488 23.9261 0.0003 -8.5634 -0.0002
# 2 31.3488 54.0145 29.4209 -0.0019 10.3548 0.0001
# 3 23.9261 29.4209 73.7297 -0.0039 3.0435 -0.0002
# 4 0.0003 -0.0019 -0.0039 15.7858 -0.0011 -4.9694
# 5 -8.5634 10.3548 3.0435 -0.0011 26.2495 0.0004
# 6 -0.0002 0.0001 -0.0002 -4.9694 0.0004 19.0974
#
#
#
# Elastic Compliance Matrix: (Units=1/GPa)
#
#
# Indices 1 2 3 4 5 6 
#
# 1 0.015772 -0.010148 -0.001453 -0.000001 0.009317 0.000000
# 2 -0.010148 0.032121 -0.008907 0.000001 -0.014949 0.000000
# 3 -0.001453 -0.008907 0.017547 0.000004 0.001005 0.000001
# 4 -0.000001 0.000001 0.000004 0.069000 0.000001 0.017955
# 5 0.009317 -0.014949 0.001005 0.000001 0.046916 -0.000001
# 6 0.000000 0.000000 0.000001 0.017955 -0.000001 0.057035
#
#
# Mechanical properties :
#
#
# Convention : Reuss Voigt Hill
#
# Bulk Modulus (GPa) = 40.94515 43.10831 42.02673
# Shear Modulus (GPa) = 17.38838 21.15237 19.27038
#
# Velocity S-wave (km/s) = 2.85983 3.15421 3.01062
# Velocity P-wave (km/s) = 5.49213 5.79150 5.64380
#
# Compressibility (1/GPa) = 0.02442292
#
# Stress axis : x y z
#
# Youngs Moduli (GPa) = 63.40472 31.13274 56.98849
#
# Poissons Ratio (x) = 0.31594 0.08282
# Poissons Ratio (y) = 0.64344 0.50760
# Poissons Ratio (z) = 0.09214 0.27730
#
# Static dielectric constant tensor:
#      x y z
#    x 1.837160 0.000000 -0.015380 
#    y 0.000000 1.826440 0.000000 
#    z -0.015380 0.000000 1.842820 
# 
# From -- ./inp_files/68769.got.cif
#   From: 2010.05.17/outbox.cif.g08.bks.cpg/sg5_35_cif.got.tgz:68769.got - 2010.06.03 18:56:24.
