data_PCOD9122845
_publ_section_title
;
Structure prediction by ZEFSAII (Michael W. Deem and Ramdas Pophale) SiO2 
 PCOD9122845
Probable space group: C 2
;
_chemical_formula_sum "Si O2"
_cell_formula_units_Z 30
_cell_length_a 10.390968
_cell_length_b 22.974400
_cell_length_c 7.937252
_cell_angle_alpha 90.000000
_cell_angle_beta 131.146755
_cell_angle_gamma 90.000000
_cell_volume 1426.857927
_symmetry_space_group_name_H-M "C 2"
_symmetry_group_IT_number 5
_symmetry_cell_setting 'monoclinic'
loop_
_space_group_symop_operation_xyz
x,y,z
-x,y,-z
1/2+x,1/2+y,z
1/2-x,1/2+y,-z
loop_
_atom_site_type_symbol
_atom_site_label
_atom_site_fract_x
_atom_site_fract_y
_atom_site_fract_z
Si Si1 0.415676 0.463750 0.775984
Si Si2 0.306589 0.544840 0.411191
Si Si3 0.157800 0.385080 0.750083
Si Si4 0.500000 0.735418 0.000000
Si Si5 0.684345 0.282910 0.243381
Si Si6 0.249215 0.441703 0.151511
Si Si7 0.199611 0.822261 0.631519
Si Si8 0.633802 0.674023 0.462224
O O1 0.294691 0.503596 0.562689
O O2 0.286500 0.316584 0.556545
O O3 0.563222 0.443541 0.775593
O O4 0.500000 0.500865 0.000000
O O5 0.500000 0.545673 0.500000
O O6 0.209882 0.505875 0.187156
O O7 0.281323 0.610010 0.456330
O O8 0.320679 0.413837 0.797842
O O9 0.191134 0.315714 0.781796
O O10 0.000000 0.397341 0.500000
O O11 0.131257 0.416597 0.903472
O O12 0.666566 0.778996 0.157421
O O13 0.541716 0.695463 0.206121
O O14 0.727241 0.219311 0.348182
O O15 0.500000 0.285724 0.000000
O O16 0.260740 0.389139 0.291907
O O17 0.000000 0.808954 0.500000
O O18 0.500000 0.674816 0.500000
#
# Coordination Sequence:
#
# PCOD9122845 Si02
#       8
#     4   4   4   2   4   4   4   4
#     4   9  18  34  56  85 111 152 197 245 301 378
#     4   9  18  37  62  87 111 159 206 252 303 372
#     4  11  22  34  56  89 123 157 197 255 327 381
#     4  10  26  40  62 106 126 170 222 266 326 388
#     4  11  23  38  59  86 120 168 210 250 324 390
#     4  10  20  36  60  87 120 156 208 256 318 384
#     4  11  22  38  63  92 129 161 206 273 330 384
#     4  10  23  41  64  91 127 165 218 267 313 375
#
# _framework density 21.025219
#
# number of rings (size 3 to 8) (size 9 to 14) (size 15 to 20)
#    0.000    1.867    0.000    5.200    8.400    0.000 
#    0.000    1.333    0.000    3.200    0.000    0.000 
#    0.000    0.000    0.000    0.000    0.000    0.000 
#
# Total GULP energy -83512.677443 kJ/mol
# GULP energy per Si atom -5567.511830 kJ/mol
# Density = 2.097737 g / cm^3
# Si number density = 21.025219 Si / 1000 Ang^3
#
#
#
# Elastic Constant Matrix: (Units=GPa)
#
#
# Indices 1 2 3 4 5 6 
#
# 1 39.1908 20.1982 26.2287 0.0000 -1.4696 0.0000
# 2 20.1982 150.2002 76.8551 0.0000 -17.3098 0.0000
# 3 26.2287 76.8551 170.4928 0.0000 -6.3092 0.0000
# 4 0.0000 0.0000 0.0000 16.2404 0.0000 -2.9525
# 5 -1.4696 -17.3098 -6.3092 0.0000 33.7177 0.0000
# 6 0.0000 0.0000 0.0000 -2.9525 0.0000 15.7709
#
#
#
# Elastic Compliance Matrix: (Units=1/GPa)
#
#
# Indices 1 2 3 4 5 6 
#
# 1 0.028953 -0.002161 -0.003498 0.000000 -0.000502 0.000000
# 2 -0.002161 0.009310 -0.003717 0.000000 0.003990 0.000000
# 3 -0.003498 -0.003717 0.008059 0.000000 -0.000553 0.000000
# 4 0.000000 0.000000 0.000000 0.063744 0.000000 0.011934
# 5 -0.000502 0.003990 -0.000553 0.000000 0.031581 0.000000
# 6 0.000000 0.000000 0.000000 0.011934 0.000000 0.065642
#
#
# Mechanical properties :
#
#
# Convention : Reuss Voigt Hill
#
# Bulk Modulus (GPa) = 36.27331 67.38309 51.82820
# Shear Modulus (GPa) = 21.25576 28.91926 25.08751
#
# Velocity S-wave (km/s) = 3.18302 3.71274 3.45803
# Velocity P-wave (km/s) = 5.54964 7.10616 6.37558
#
# Compressibility (1/GPa) = 0.02756848
#
# Stress axis : x y z
#
# Youngs Moduli (GPa) = 34.53930 107.41185 124.09254
#
# Poissons Ratio (x) = 0.23213 0.43413
# Poissons Ratio (y) = 0.07464 0.46121
# Poissons Ratio (z) = 0.12083 0.39921
#
# Static dielectric constant tensor:
#      x y z
#    x 1.855660 0.000000 0.005250 
#    y 0.000000 1.830580 0.000000 
#    z 0.005250 0.000000 1.832490 
# 
# From -- ./inp_files/25381.got.cif
#   From: 2010.05.17/outbox.cif.g08.bks.cpg/sg5_13_cif.got.tgz:25381.got - 2010.06.03 18:56:24.
