data_PCOD9122606
_publ_section_title
;
Structure prediction by ZEFSAII (Michael W. Deem and Ramdas Pophale) SiO2 
 PCOD9122606
Probable space group: C 2
;
_chemical_formula_sum "Si O2"
_cell_formula_units_Z 30
_cell_length_a 21.515680
_cell_length_b 8.858227
_cell_length_c 11.785817
_cell_angle_alpha 90.000000
_cell_angle_beta 147.291393
_cell_angle_gamma 90.000000
_cell_volume 1213.808500
_symmetry_space_group_name_H-M "C 2"
_symmetry_group_IT_number 5
_symmetry_cell_setting 'monoclinic'
loop_
_space_group_symop_operation_xyz
x,y,z
-x,y,-z
1/2+x,1/2+y,z
1/2-x,1/2+y,-z
loop_
_atom_site_type_symbol
_atom_site_label
_atom_site_fract_x
_atom_site_fract_y
_atom_site_fract_z
Si Si1 0.500000 0.893170 0.000000
Si Si2 0.689709 0.207946 0.435375
Si Si3 0.160533 0.693165 0.998357
Si Si4 0.486078 0.417248 0.101631
Si Si5 0.926944 0.507695 0.568492
Si Si6 0.234422 0.453377 0.264629
Si Si7 0.633887 0.241356 0.705163
Si Si8 0.584456 0.704637 0.345831
O O1 0.462216 0.790685 0.836836
O O2 0.395864 0.984469 0.893735
O O3 0.570577 0.275664 0.211835
O O4 0.665664 0.065380 0.479246
O O5 0.728616 0.351495 0.570100
O O6 0.782544 0.173692 0.482121
O O7 0.126137 0.838783 0.020414
O O8 0.188859 0.740255 0.913804
O O9 0.046144 0.589529 0.790664
O O10 0.252911 0.599292 0.211823
O O11 0.525657 0.540947 0.256185
O O12 0.500000 0.494787 0.000000
O O13 0.886109 0.579646 0.387559
O O14 0.934997 0.328082 0.587460
O O15 0.278245 0.330061 0.239663
O O16 0.500000 0.304046 0.500000
#
# Coordination Sequence:
#
# PCOD9122606 Si02
#       8
#     2   4   4   4   4   4   4   4
#     4  10  20  34  62  98 132 168 216 282 332 406
#     4   9  21  37  61  89 128 175 220 272 333 405
#     4  10  21  39  63  95 127 175 222 278 338 405
#     4  11  24  38  58  96 141 174 218 279 341 411
#     4   9  18  37  64  86 122 174 226 272 334 393
#     4  10  20  39  67  94 128 176 232 272 344 400
#     4   9  20  42  66  93 126 173 235 291 334 399
#     4  11  19  36  58  94 131 172 214 275 338 400
#
# _framework density 24.715596000000001
#
# number of rings (size 3 to 8) (size 9 to 14) (size 15 to 20)
#    0.000    2.133    2.000    1.600    0.933    2.133 
#    2.400    1.333    0.000   15.200    0.000    0.000 
#    0.000    0.000    0.000    0.000    0.000    0.000 
#
# Total GULP energy -83585.385954 kJ/mol
# GULP energy per Si atom -5572.359064 kJ/mol
# Density = 2.465934 g / cm^3
# Si number density = 24.715596 Si / 1000 Ang^3
#
#
#
# Elastic Constant Matrix: (Units=GPa)
#
#
# Indices 1 2 3 4 5 6 
#
# 1 85.3190 7.7161 9.5867 0.0000 -9.8762 0.0000
# 2 7.7161 120.5949 17.2359 0.0000 1.7152 0.0000
# 3 9.5867 17.2359 34.5379 0.0000 -13.1410 0.0000
# 4 0.0000 0.0000 0.0000 37.2711 0.0000 -7.3529
# 5 -9.8762 1.7152 -13.1410 0.0000 31.1002 0.0000
# 6 0.0000 0.0000 0.0000 -7.3529 0.0000 14.9528
#
#
#
# Elastic Compliance Matrix: (Units=1/GPa)
#
#
# Indices 1 2 3 4 5 6 
#
# 1 0.012353 -0.000554 -0.001964 0.000000 0.003124 0.000000
# 2 -0.000554 0.009168 -0.005577 0.000000 -0.003038 0.000000
# 3 -0.001964 -0.005577 0.038323 0.000000 0.015877 0.000000
# 4 0.000000 0.000000 0.000000 0.029713 0.000000 0.014611
# 5 0.003124 -0.003038 0.015877 0.000000 0.040022 0.000000
# 6 0.000000 0.000000 0.000000 0.014611 0.000000 0.074062
#
#
# Mechanical properties :
#
#
# Convention : Reuss Voigt Hill
#
# Bulk Modulus (GPa) = 22.90775 34.39214 28.64995
# Shear Modulus (GPa) = 21.33258 30.39236 25.86247
#
# Velocity S-wave (km/s) = 2.94108 3.51049 3.23832
# Velocity P-wave (km/s) = 4.56311 5.51151 5.05958
#
# Compressibility (1/GPa) = 0.04365335
#
# Stress axis : x y z
#
# Youngs Moduli (GPa) = 80.95152 109.07442 26.09391
#
# Poissons Ratio (x) = 0.06044 0.05124
# Poissons Ratio (y) = 0.04486 0.14554
# Poissons Ratio (z) = 0.15898 0.60836
#
# Static dielectric constant tensor:
#      x y z
#    x 2.031240 0.000000 -0.070490 
#    y 0.000000 2.046080 0.000000 
#    z -0.070490 0.000000 2.160160 
# 
# From -- ./inp_files/57620.got.cif
#   From: 2010.05.17/outbox.cif.g08.bks.cpg/sg5_29_cif.got.tgz:57620.got - 2010.06.03 18:56:24.
