data_PCOD9122579
_publ_section_title
;
Structure prediction by ZEFSAII (Michael W. Deem and Ramdas Pophale) SiO2 
 PCOD9122579
Probable space group: C 2
;
_chemical_formula_sum "Si O2"
_cell_formula_units_Z 32
_cell_length_a 23.052811
_cell_length_b 8.063738
_cell_length_c 25.194178
_cell_angle_alpha 90.000000
_cell_angle_beta 159.394393
_cell_angle_gamma 90.000000
_cell_volume 1648.241299
_symmetry_space_group_name_H-M "C 2"
_symmetry_group_IT_number 5
_symmetry_cell_setting 'monoclinic'
loop_
_space_group_symop_operation_xyz
x,y,z
-x,y,-z
1/2+x,1/2+y,z
1/2-x,1/2+y,-z
loop_
_atom_site_type_symbol
_atom_site_label
_atom_site_fract_x
_atom_site_fract_y
_atom_site_fract_z
Si Si1 0.902002 0.926990 0.252079
Si Si2 0.442942 0.801248 0.282883
Si Si3 0.800090 0.126493 0.666030
Si Si4 0.082888 0.319187 0.513455
Si Si5 0.087546 0.935395 0.518650
Si Si6 0.074473 0.532482 0.824863
Si Si7 0.295387 0.229102 0.534665
Si Si8 0.647301 0.748735 0.965412
O O1 0.953275 0.910436 0.357027
O O2 0.066997 0.867541 0.362052
O O3 0.750129 0.814933 0.103550
O O4 0.868418 0.119108 0.211491
O O5 0.452573 0.840565 0.353380
O O6 0.369997 0.940056 0.182122
O O7 0.632233 0.786297 0.424592
O O8 0.721956 0.291983 0.625565
O O9 0.757891 0.147537 0.567092
O O10 0.995110 0.126808 0.842874
O O11 0.716506 0.961227 0.617084
O O12 0.000000 0.339328 0.500000
O O13 0.145278 0.127761 0.563014
O O14 0.000000 0.917834 0.500000
O O15 0.070127 0.403164 0.868070
O O16 0.897164 0.608007 0.660204
O O17 0.212825 0.669672 0.952309
#
# Coordination Sequence:
#
# PCOD9122579 Si02
#       8
#     4   4   4   4   4   4   4   4
#     4   9  21  36  55  86 123 154 197 249 304 373
#     4  11  19  35  61  86 114 158 200 259 299 357
#     4  11  21  38  61  92 122 156 209 255 306 369
#     4  10  22  38  64  95 115 155 211 266 308 346
#     4   9  20  41  67  90 117 157 212 262 306 356
#     4  11  22  37  54  82 129 157 194 244 308 383
#     4  10  20  34  59  88 115 154 206 252 304 357
#     4  11  24  37  53  89 127 167 196 237 326 378
#
# _framework density 19.414635000000001
#
# number of rings (size 3 to 8) (size 9 to 14) (size 15 to 20)
#    0.000    1.750    2.500    1.875    3.500    1.000 
#    2.250    0.625    0.000    0.000    0.000    0.000 
#    0.000    0.000    0.000    0.000    0.000    0.000 
#
# Total GULP energy -89341.639378 kJ/mol
# GULP energy per Si atom -5583.852461 kJ/mol
# Density = 1.937045 g / cm^3
# Si number density = 19.414635 Si / 1000 Ang^3
#
#
#
# Elastic Constant Matrix: (Units=GPa)
#
#
# Indices 1 2 3 4 5 6 
#
# 1 84.6129 20.3613 28.3265 0.0007 -16.3749 0.0001
# 2 20.3613 69.9805 38.1975 -0.0001 1.3830 0.0002
# 3 28.3265 38.1975 89.0716 0.0004 6.6073 0.0003
# 4 0.0007 -0.0001 0.0004 23.1206 0.0004 -5.6422
# 5 -16.3749 1.3830 6.6073 0.0004 20.7958 0.0002
# 6 0.0001 0.0002 0.0003 -5.6422 0.0002 28.3524
#
#
#
# Elastic Compliance Matrix: (Units=1/GPa)
#
#
# Indices 1 2 3 4 5 6 
#
# 1 0.017270 -0.002226 -0.005692 -0.000001 0.015555 0.000000
# 2 -0.002226 0.018980 -0.007382 0.000000 -0.000669 0.000000
# 3 -0.005692 -0.007382 0.016897 0.000000 -0.009359 0.000000
# 4 -0.000001 0.000000 0.000000 0.045459 -0.000001 0.009047
# 5 0.015555 -0.000669 -0.009359 -0.000001 0.063353 -0.000001
# 6 0.000000 0.000000 0.000000 0.009047 -0.000001 0.037071
#
#
# Mechanical properties :
#
#
# Convention : Reuss Voigt Hill
#
# Bulk Modulus (GPa) = 44.34902 46.38173 45.36537
# Shear Modulus (GPa) = 21.08431 24.90574 22.99503
#
# Velocity S-wave (km/s) = 3.29903 3.58555 3.44527
# Velocity P-wave (km/s) = 6.11589 6.40964 6.26449
#
# Compressibility (1/GPa) = 0.02254841
#
# Stress axis : x y z
#
# Youngs Moduli (GPa) = 57.90455 52.68793 59.18261
#
# Poissons Ratio (x) = 0.11726 0.33684
# Poissons Ratio (y) = 0.12887 0.43688
# Poissons Ratio (z) = 0.32957 0.38893
#
# Static dielectric constant tensor:
#      x y z
#    x 1.660490 0.000000 -0.018660 
#    y 0.000000 1.752540 0.000000 
#    z -0.018660 0.000000 1.658120 
# 
# From -- ./inp_files/30580.got.cif
#   From: 2010.05.17/outbox.cif.g08.bks.cpg/sg5_16_cif.got.tgz:30580.got - 2010.06.03 18:56:24.
