data_PCOD9122833
_publ_section_title
;
Structure prediction by ZEFSAII (Michael W. Deem and Ramdas Pophale) SiO2 
 PCOD9122833
Probable space group: C 2
;
_chemical_formula_sum "Si O2"
_cell_formula_units_Z 26
_cell_length_a 9.621924
_cell_length_b 14.141622
_cell_length_c 15.945064
_cell_angle_alpha 90.000000
_cell_angle_beta 142.950982
_cell_angle_gamma 90.000000
_cell_volume 1307.203083
_symmetry_space_group_name_H-M "C 2"
_symmetry_group_IT_number 5
_symmetry_cell_setting 'monoclinic'
loop_
_space_group_symop_operation_xyz
x,y,z
-x,y,-z
1/2+x,1/2+y,z
1/2-x,1/2+y,-z
loop_
_atom_site_type_symbol
_atom_site_label
_atom_site_fract_x
_atom_site_fract_y
_atom_site_fract_z
Si Si1 0.883924 0.875000 0.537065
Si Si2 0.500000 0.232063 0.000000
Si Si3 0.578259 0.571184 0.633991
Si Si4 0.500000 0.601869 0.000000
Si Si5 0.022374 0.263342 0.712049
Si Si6 0.612902 0.060068 0.936105
Si Si7 0.500000 0.910714 0.000000
Si Si8 0.283987 0.756389 0.777068
O O1 0.619541 0.845674 0.401982
O O2 0.000000 0.879930 0.500000
O O3 0.018028 0.787852 0.644979
O O4 0.941496 0.978252 0.600654
O O5 0.395545 0.162090 0.021437
O O6 0.713972 0.288552 0.139988
O O7 0.500000 0.586785 0.500000
O O8 0.530531 0.665775 0.663886
O O9 0.852772 0.548498 0.774790
O O10 0.307291 0.550011 0.960722
O O11 0.352884 0.667393 0.865604
O O12 0.886832 0.246300 0.733877
O O13 0.667464 0.983604 0.034141
O O14 0.401084 0.844729 0.880504
#
# Coordination Sequence:
#
# PCOD9122833 Si02
#       8
#     4   2   4   2   4   4   2   4
#     4   9  19  36  60  88 116 165 224 255 320 390
#     4   9  18  37  59  92 129 164 218 261 328 372
#     4  10  21  38  65  90 127 175 220 266 324 394
#     4  11  22  33  61  93 128 160 226 269 322 378
#     4  10  20  37  64  94 126 170 225 268 311 389
#     4  10  20  37  62  92 124 170 218 265 319 388
#     4  10  20  38  66  85 127 170 214 266 326 390
#     4  10  20  36  59  91 119 169 216 267 324 382
#
# _framework density 19.889794999999999
#
# number of rings (size 3 to 8) (size 9 to 14) (size 15 to 20)
#    0.000    2.154    3.077    0.000    2.154    0.000 
#    0.000    0.769    0.000    4.615    0.000    0.000 
#    0.000    0.000    0.000    0.000    0.000    0.000 
#
# Total GULP energy -72491.968111 kJ/mol
# GULP energy per Si atom -5576.305239 kJ/mol
# Density = 1.984453 g / cm^3
# Si number density = 19.889795 Si / 1000 Ang^3
#
#
#
# Elastic Constant Matrix: (Units=GPa)
#
#
# Indices 1 2 3 4 5 6 
#
# 1 98.0935 38.5358 27.7414 0.0000 2.7246 -0.0001
# 2 38.5358 66.1931 40.7370 0.0001 12.6320 -0.0001
# 3 27.7414 40.7370 115.0023 0.0005 17.3516 -0.0001
# 4 0.0000 0.0001 0.0005 19.8100 0.0001 -10.1679
# 5 2.7246 12.6320 17.3516 0.0001 35.3667 -0.0001
# 6 -0.0001 -0.0001 -0.0001 -10.1679 -0.0001 -2.8380
#
#
#
# Elastic Compliance Matrix: (Units=1/GPa)
#
#
# Indices 1 2 3 4 5 6 
#
# 1 0.013391 -0.007693 -0.000825 0.000000 0.002121 0.000000
# 2 -0.007693 0.024230 -0.005951 0.000000 -0.005142 0.000000
# 3 -0.000825 -0.005951 0.011526 0.000000 -0.003465 0.000000
# 4 0.000000 0.000000 0.000000 0.017781 0.000000 -0.063706
# 5 0.002121 -0.005142 -0.003465 0.000000 0.031648 0.000000
# 6 0.000000 0.000000 0.000000 -0.063706 0.000000 -0.124117
#
#
# Mechanical properties :
#
#
# Convention : Reuss Voigt Hill
#
# Bulk Modulus (GPa) = 49.48661 54.81303 52.14982
# Shear Modulus (GPa) = 493.43224 21.95272 257.69248
#
# Velocity S-wave (km/s) = 15.76774 3.32583 11.39480
# Velocity P-wave (km/s) = 18.87935 6.50895 14.12084
#
# Compressibility (1/GPa) = 0.02020749
#
# Stress axis : x y z
#
# Youngs Moduli (GPa) = 74.67766 41.27179 86.76385
#
# Poissons Ratio (x) = 0.31749 0.07160
# Poissons Ratio (y) = 0.57447 0.51636
# Poissons Ratio (z) = 0.06163 0.24562
#
# Static dielectric constant tensor:
#      x y z
#    x 1.684300 0.000000 -0.019630 
#    y 0.000000 1.710300 0.000000 
#    z -0.019630 0.000000 1.774080 
# 
# From -- ./inp_files/36275.got.cif
#   From: 2010.05.17/outbox.cif.g08.bks.cpg/sg5_19_cif.got.tgz:36275.got - 2010.06.03 18:56:24.
