data_PCOD9122671
_publ_section_title
;
Structure prediction by ZEFSAII (Michael W. Deem and Ramdas Pophale) SiO2 
 PCOD9122671
Probable space group: C 2
;
_chemical_formula_sum "Si O2"
_cell_formula_units_Z 32
_cell_length_a 18.749519
_cell_length_b 8.189442
_cell_length_c 14.684092
_cell_angle_alpha 90.000000
_cell_angle_beta 135.495833
_cell_angle_gamma 90.000000
_cell_volume 1580.467168
_symmetry_space_group_name_H-M "C 2"
_symmetry_group_IT_number 5
_symmetry_cell_setting 'monoclinic'
loop_
_space_group_symop_operation_xyz
x,y,z
-x,y,-z
1/2+x,1/2+y,z
1/2-x,1/2+y,-z
loop_
_atom_site_type_symbol
_atom_site_label
_atom_site_fract_x
_atom_site_fract_y
_atom_site_fract_z
Si Si1 0.697674 0.334320 0.341087
Si Si2 0.472144 0.355811 0.075625
Si Si3 0.984587 0.633706 0.388197
Si Si4 0.284300 0.197912 0.446667
Si Si5 0.274272 0.193132 0.833652
Si Si6 0.652611 0.928167 0.859101
Si Si7 0.282260 0.327415 0.253860
Si Si8 0.832779 0.143777 0.999940
O O1 0.574849 0.316071 0.222360
O O2 0.738152 0.252583 0.470912
O O3 0.733614 0.522807 0.378913
O O4 0.732067 0.255696 0.276721
O O5 0.500000 0.418301 0.000000
O O6 0.389495 0.215053 0.977686
O O7 0.413990 0.501390 0.072185
O O8 0.940684 0.516534 0.271958
O O9 0.897242 0.768358 0.332677
O O10 0.000000 0.546776 0.500000
O O11 0.093450 0.691809 0.453456
O O12 0.256798 0.317590 0.337808
O O13 0.207049 0.316645 0.832083
O O14 0.237474 0.007673 0.800852
O O15 0.734023 0.067399 0.959951
O O16 0.627844 0.805679 0.916728
O O17 0.209979 0.196864 0.137113
#
# Coordination Sequence:
#
# PCOD9122671 Si02
#       8
#     4   4   4   4   4   4   4   4
#     4  11  23  40  59  82 117 158 196 234 280 339
#     4   9  20  39  58  82 117 153 190 238 289 338
#     4   9  20  39  58  82 117 153 190 238 289 338
#     4  11  23  40  59  82 117 158 196 234 280 339
#     4  10  20  38  62  87 115 148 189 241 296 344
#     4  10  20  35  59  87 115 147 188 241 295 345
#     4  10  20  38  62  87 115 148 189 241 296 344
#     4  10  20  35  59  87 115 147 188 241 295 345
#
# _framework density 20.247177000000001
#
# number of rings (size 3 to 8) (size 9 to 14) (size 15 to 20)
#    0.000    2.000    0.000    5.250    0.000    7.000 
#    0.000   13.750    0.000    0.000    0.000    0.000 
#    0.000    0.000    0.000    0.000    0.000    0.000 
#
# Total GULP energy -89284.333984 kJ/mol
# GULP energy per Si atom -5580.270874 kJ/mol
# Density = 2.020109 g / cm^3
# Si number density = 20.247177 Si / 1000 Ang^3
#
#
#
# Elastic Constant Matrix: (Units=GPa)
#
#
# Indices 1 2 3 4 5 6 
#
# 1 33.0448 -8.3836 21.6529 0.0000 -8.7930 0.0000
# 2 -8.3836 76.8877 37.8248 0.0000 -0.4942 0.0000
# 3 21.6529 37.8248 87.7837 0.0000 -12.1601 0.0000
# 4 0.0000 0.0000 0.0000 33.7103 0.0000 -14.2671
# 5 -8.7930 -0.4942 -12.1601 0.0000 26.0519 0.0000
# 6 0.0000 0.0000 0.0000 -14.2671 0.0000 23.8794
#
#
#
# Elastic Compliance Matrix: (Units=1/GPa)
#
#
# Indices 1 2 3 4 5 6 
#
# 1 0.046049 0.012800 -0.015703 0.000000 0.008456 0.000000
# 2 0.012800 0.020318 -0.012039 0.000000 -0.000913 0.000000
# 3 -0.015703 -0.012039 0.021047 0.000000 0.004296 0.000000
# 4 0.000000 0.000000 0.000000 0.039704 0.000000 0.023722
# 5 0.008456 -0.000913 0.004296 0.000000 0.043227 0.000000
# 6 0.000000 0.000000 0.000000 0.023722 0.000000 0.056050
#
#
# Mechanical properties :
#
#
# Convention : Reuss Voigt Hill
#
# Bulk Modulus (GPa) = 17.38163 33.32273 25.35218
# Shear Modulus (GPa) = 18.15182 26.50314 22.32748
#
# Velocity S-wave (km/s) = 2.99743 3.62191 3.32436
# Velocity P-wave (km/s) = 4.53683 5.82963 5.22338
#
# Compressibility (1/GPa) = 0.05753199
#
# Stress axis : x y z
#
# Youngs Moduli (GPa) = 21.71616 49.21688 47.51214
#
# Poissons Ratio (x) = -0.62999 0.74606
# Poissons Ratio (y) = -0.27797 0.57199
# Poissons Ratio (z) = 0.34100 0.59251
#
# Static dielectric constant tensor:
#      x y z
#    x 1.745080 0.000000 -0.019880 
#    y 0.000000 1.692330 0.000000 
#    z -0.019880 0.000000 1.746480 
# 
# From -- ./inp_files/56838.got.cif
#   From: 2010.05.17/outbox.cif.g08.bks.cpg/sg5_29_cif.got.tgz:56838.got - 2010.06.03 18:56:24.
