data_PCOD9122527
_publ_section_title
;
Structure prediction by ZEFSAII (Michael W. Deem and Ramdas Pophale) SiO2 
 PCOD9122527
Probable space group: C 2
;
_chemical_formula_sum "Si O2"
_cell_formula_units_Z 26
_cell_length_a 14.522858
_cell_length_b 7.163313
_cell_length_c 11.928127
_cell_angle_alpha 90.000000
_cell_angle_beta 115.133674
_cell_angle_gamma 90.000000
_cell_volume 1123.414609
_symmetry_space_group_name_H-M "C 2"
_symmetry_group_IT_number 5
_symmetry_cell_setting 'monoclinic'
loop_
_space_group_symop_operation_xyz
x,y,z
-x,y,-z
1/2+x,1/2+y,z
1/2-x,1/2+y,-z
loop_
_atom_site_type_symbol
_atom_site_label
_atom_site_fract_x
_atom_site_fract_y
_atom_site_fract_z
Si Si1 0.525746 0.182860 0.390291
Si Si2 0.695902 0.115810 0.073565
Si Si3 0.688052 0.262529 0.823931
Si Si4 0.091002 0.255961 0.474245
Si Si5 0.693869 0.197199 0.307429
Si Si6 0.500000 0.858810 0.000000
Si Si7 0.856740 0.252975 0.741302
O O1 0.500000 0.260944 0.500000
O O2 0.425281 0.205380 0.264224
O O3 0.618101 0.264180 0.365448
O O4 0.554594 0.966694 0.427606
O O5 0.674936 0.252293 0.167913
O O6 0.789876 0.984304 0.159384
O O7 0.595191 0.986396 0.012186
O O8 0.716683 0.198447 0.963411
O O9 0.761613 0.181570 0.764798
O O10 0.193150 0.248629 0.598957
O O11 0.119404 0.173030 0.367643
O O12 0.000000 0.171061 0.500000
O O13 0.672523 0.972564 0.292657
O O14 0.544853 0.745884 0.127775
#
# Coordination Sequence:
#
# PCOD9122527 Si02
#       7
#     4   4   4   4   4   2   4
#     4  10  20  35  59  83 111 150 190 228 276 338
#     4  10  20  35  60  84 115 150 188 231 279 335
#     4  10  20  36  60  86 114 149 187 232 281 335
#     4  10  20  34  56  81 110 148 189 230 276 335
#     4   9  19  35  53  82 115 145 183 231 283 331
#     4   8  16  34  58  80 112 154 182 222 284 340
#     4   9  19  35  57  83 114 147 186 230 280 335
#
# _framework density 23.143726999999998
#
# number of rings (size 3 to 8) (size 9 to 14) (size 15 to 20)
#    0.000    2.769    0.000    3.692    0.000    4.923 
#    0.000    9.231    0.000   33.231    0.000    0.000 
#    0.000    0.000    0.000    0.000    0.000    0.000 
#
# Total GULP energy -72571.647665 kJ/mol
# GULP energy per Si atom -5582.434436 kJ/mol
# Density = 2.309105 g / cm^3
# Si number density = 23.143727 Si / 1000 Ang^3
#
#
#
# Elastic Constant Matrix: (Units=GPa)
#
#
# Indices 1 2 3 4 5 6 
#
# 1 179.4133 6.9797 79.5687 0.0000 -23.4223 0.0000
# 2 6.9797 78.1198 5.9931 0.0000 1.6601 0.0000
# 3 79.5687 5.9931 141.9109 0.0000 -11.5358 0.0000
# 4 0.0000 0.0000 0.0000 -9.0368 0.0000 3.5756
# 5 -23.4223 1.6601 -11.5358 0.0000 73.5712 0.0000
# 6 0.0000 0.0000 0.0000 3.5756 0.0000 -7.8090
#
#
#
# Elastic Compliance Matrix: (Units=1/GPa)
#
#
# Indices 1 2 3 4 5 6 
#
# 1 0.007656 -0.000405 -0.004129 0.000000 0.001799 0.000000
# 2 -0.000405 0.012874 -0.000355 0.000000 -0.000475 0.000000
# 3 -0.004129 -0.000355 0.009390 0.000000 0.000166 0.000000
# 4 0.000000 0.000000 0.000000 -0.135142 0.000000 -0.061879
# 5 0.001799 -0.000475 0.000166 0.000000 0.014202 0.000000
# 6 0.000000 0.000000 0.000000 -0.061879 0.000000 -0.156390
#
#
# Mechanical properties :
#
#
# Convention : Reuss Voigt Hill
#
# Bulk Modulus (GPa) = 49.64946 64.94746 57.29846
# Shear Modulus (GPa) = -21.65272 31.80525 5.07626
#
# Velocity S-wave (km/s) = -3.06204 3.71111 1.48261
# Velocity P-wave (km/s) = 2.99963 6.81811 5.26709
#
# Compressibility (1/GPa) = 0.02014120
#
# Stress axis : x y z
#
# Youngs Moduli (GPa) = 130.62382 77.67346 106.49288
#
# Poissons Ratio (x) = 0.03149 0.43972
# Poissons Ratio (y) = 0.05296 0.03781
# Poissons Ratio (z) = 0.53936 0.02757
#
# Static dielectric constant tensor:
#      x y z
#    x 1.895360 0.000000 -0.069290 
#    y 0.000000 1.916420 0.000000 
#    z -0.069290 0.000000 1.864620 
# 
# From -- ./inp_files/41802.got.cif
#   From: 2010.05.17/outbox.cif.g08.bks.cpg/sg5_21_cif.got.tgz:41802.got - 2010.06.03 18:56:24.
