data_PCOD9122107
_publ_section_title
;
Structure prediction by ZEFSAII (Michael W. Deem and Ramdas Pophale) SiO2 
 PCOD9122107
Probable space group: C 2
;
_chemical_formula_sum "Si O2"
_cell_formula_units_Z 28
_cell_length_a 15.925956
_cell_length_b 5.608573
_cell_length_c 14.910659
_cell_angle_alpha 90.000000
_cell_angle_beta 120.384754
_cell_angle_gamma 90.000000
_cell_volume 1148.916569
_symmetry_space_group_name_H-M "C 2"
_symmetry_group_IT_number 5
_symmetry_cell_setting 'monoclinic'
loop_
_space_group_symop_operation_xyz
x,y,z
-x,y,-z
1/2+x,1/2+y,z
1/2-x,1/2+y,-z
loop_
_atom_site_type_symbol
_atom_site_label
_atom_site_fract_x
_atom_site_fract_y
_atom_site_fract_z
Si Si1 0.306880 0.426690 0.131008
Si Si2 0.500000 0.588686 0.000000
Si Si3 0.000000 0.856158 0.500000
Si Si4 0.491264 0.710341 0.190294
Si Si5 0.324958 0.471526 0.644113
Si Si6 0.213110 0.923250 0.095900
Si Si7 0.655628 0.718110 0.521738
Si Si8 0.476661 0.084051 0.657320
O O1 0.422108 0.498131 0.190610
O O2 0.256884 0.664772 0.145354
O O3 0.267344 0.175248 0.148960
O O4 0.283676 0.417358 0.011572
O O5 0.522785 0.737744 0.922881
O O6 0.399942 0.440721 0.933661
O O7 0.093871 0.013074 0.532036
O O8 0.970902 0.720075 0.394025
O O9 0.605204 0.650037 0.265996
O O10 0.467809 0.943466 0.235005
O O11 0.289673 0.598458 0.533319
O O12 0.226806 0.355828 0.626967
O O13 0.397059 0.256467 0.658118
O O14 0.578573 0.885957 0.431636
#
# Coordination Sequence:
#
# PCOD9122107 Si02
#       8
#     4   2   2   4   4   4   4   4
#     4   9  19  38  64  93 126 177 226 286 346 414
#     4  10  22  46  64 100 136 178 236 296 340 404
#     4  10  22  36  66  96 132 176 222 278 348 414
#     4  10  23  40  68  94 135 183 231 280 347 410
#     4  10  20  37  66  94 128 180 222 272 350 416
#     4   9  19  38  65  92 125 174 231 285 352 400
#     4  10  19  38  64  93 127 177 217 274 344 413
#     4  10  21  40  64  96 129 178 219 275 337 428
#
# _framework density 24.370782999999999
#
# number of rings (size 3 to 8) (size 9 to 14) (size 15 to 20)
#    0.000    2.286    1.429    0.429    2.000    0.571 
#    5.143    7.143    0.000    0.000    0.000    0.000 
#    0.000    0.000    0.000    0.000    0.000    0.000 
#
# Total GULP energy -78161.409818 kJ/mol
# GULP energy per Si atom -5582.957844 kJ/mol
# Density = 2.431531 g / cm^3
# Si number density = 24.370783 Si / 1000 Ang^3
#
#
#
# Elastic Constant Matrix: (Units=GPa)
#
#
# Indices 1 2 3 4 5 6 
#
# 1 79.6176 29.8445 37.4546 0.0000 9.1501 0.0000
# 2 29.8445 105.3383 21.6650 0.0000 8.4030 0.0000
# 3 37.4546 21.6650 59.3099 0.0000 6.8482 0.0000
# 4 0.0000 0.0000 0.0000 23.6066 0.0000 4.2135
# 5 9.1501 8.4030 6.8482 0.0000 35.5448 0.0000
# 6 0.0000 0.0000 0.0000 4.2135 0.0000 30.4679
#
#
#
# Elastic Compliance Matrix: (Units=1/GPa)
#
#
# Indices 1 2 3 4 5 6 
#
# 1 0.018920 -0.003011 -0.010604 0.000000 -0.002116 0.000000
# 2 -0.003011 0.010850 -0.001898 0.000000 -0.001424 0.000000
# 3 -0.010604 -0.001898 0.024427 0.000000 -0.001528 0.000000
# 4 0.000000 0.000000 0.000000 0.043433 0.000000 -0.006007
# 5 -0.002116 -0.001424 -0.001528 0.000000 0.029309 0.000000
# 6 0.000000 0.000000 0.000000 -0.006007 0.000000 0.033652
#
#
# Mechanical properties :
#
#
# Convention : Reuss Voigt Hill
#
# Bulk Modulus (GPa) = 43.15542 46.91045 45.03293
# Shear Modulus (GPa) = 25.08264 28.27731 26.67998
#
# Velocity S-wave (km/s) = 3.21161 3.41001 3.31229
# Velocity P-wave (km/s) = 5.61239 5.89870 5.75732
#
# Compressibility (1/GPa) = 0.02317206
#
# Stress axis : x y z
#
# Youngs Moduli (GPa) = 52.85315 92.16470 40.93859
#
# Poissons Ratio (x) = 0.27748 0.43412
# Poissons Ratio (y) = 0.15913 0.07769
# Poissons Ratio (z) = 0.56047 0.17489
#
# Static dielectric constant tensor:
#      x y z
#    x 1.817180 0.000000 0.046520 
#    y 0.000000 2.006380 0.000000 
#    z 0.046520 0.000000 1.952410 
# 
# From -- ./inp_files/61270.got.cif
#   From: 2010.05.17/outbox.cif.g08.bks.cpg/sg5_31_cif.got.tgz:61270.got - 2010.06.03 18:56:24.
