data_PCOD9122242
_publ_section_title
;
Structure prediction by ZEFSAII (Michael W. Deem and Ramdas Pophale) SiO2 
 PCOD9122242
Probable space group: C 2
;
_chemical_formula_sum "Si O2"
_cell_formula_units_Z 24
_cell_length_a 22.737236
_cell_length_b 10.956713
_cell_length_c 9.449651
_cell_angle_alpha 90.000000
_cell_angle_beta 29.054410
_cell_angle_gamma 90.000000
_cell_volume 1143.268264
_symmetry_space_group_name_H-M "C 2"
_symmetry_group_IT_number 5
_symmetry_cell_setting 'monoclinic'
loop_
_space_group_symop_operation_xyz
x,y,z
-x,y,-z
1/2+x,1/2+y,z
1/2-x,1/2+y,-z
loop_
_atom_site_type_symbol
_atom_site_label
_atom_site_fract_x
_atom_site_fract_y
_atom_site_fract_z
Si Si1 0.290185 0.986450 0.119249
Si Si2 0.415558 0.671333 0.851134
Si Si3 0.191683 0.769522 0.838831
Si Si4 0.481081 0.402147 0.382127
Si Si5 0.131930 0.314493 0.791445
Si Si6 0.353551 0.823256 0.745520
O O1 0.155600 0.933648 0.373237
O O2 0.340438 0.920351 0.153759
O O3 0.293099 0.129410 0.145230
O O4 0.362521 0.942139 0.826726
O O5 0.455132 0.534373 0.748724
O O6 0.322928 0.717236 0.925708
O O7 0.530506 0.762604 0.578270
O O8 0.372099 0.695151 0.100096
O O9 0.266817 0.798381 0.540328
O O10 0.255148 0.843848 0.833070
O O11 0.053509 0.813887 0.124282
O O12 0.500000 0.349386 0.500000
O O13 0.000000 0.330831 0.000000
#
# Coordination Sequence:
#
# PCOD9122242 Si02
#       6
#     4   4   4   4   4   4
#     4  11  25  45  65 102 146 176 230 291 343 413
#     4  10  20  41  72  93 125 179 235 280 348 414
#     4  12  25  43  69 104 138 180 233 283 350 415
#     4  12  22  42  71 102 132 178 235 287 347 412
#     4  11  24  45  67  95 134 187 229 281 351 413
#     4  10  19  39  70  98 128 178 226 285 345 408
#
# _framework density 20.992448
#
# number of rings (size 3 to 8) (size 9 to 14) (size 15 to 20)
#    0.000    1.000    6.667    0.000    2.333    0.667 
#    9.000    0.000    0.000    0.000    0.000    0.000 
#    0.000    0.000    0.000    0.000    0.000    0.000 
#
# Total GULP energy -66963.552265 kJ/mol
# GULP energy per Si atom -5580.296022 kJ/mol
# Density = 2.094467 g / cm^3
# Si number density = 20.992448 Si / 1000 Ang^3
#
#
#
# Elastic Constant Matrix: (Units=GPa)
#
#
# Indices 1 2 3 4 5 6 
#
# 1 78.9038 10.8833 33.0193 0.0000 21.5513 0.0000
# 2 10.8833 62.3125 48.0684 0.0000 7.4422 0.0000
# 3 33.0193 48.0684 140.0414 0.0000 15.5354 0.0000
# 4 0.0000 0.0000 0.0000 28.2629 0.0000 -2.2765
# 5 21.5513 7.4422 15.5354 0.0000 36.0921 0.0000
# 6 0.0000 0.0000 0.0000 -2.2765 0.0000 19.2342
#
#
#
# Elastic Compliance Matrix: (Units=1/GPa)
#
#
# Indices 1 2 3 4 5 6 
#
# 1 0.016193 0.000549 -0.003068 0.000000 -0.008462 0.000000
# 2 0.000549 0.021908 -0.007468 0.000000 -0.001631 0.000000
# 3 -0.003068 -0.007468 0.010558 0.000000 -0.001173 0.000000
# 4 0.000000 0.000000 0.000000 0.035723 0.000000 0.004228
# 5 -0.008462 -0.001631 -0.001173 0.000000 0.033601 0.000000
# 6 0.000000 0.000000 0.000000 0.004228 0.000000 0.052491
#
#
# Mechanical properties :
#
#
# Convention : Reuss Voigt Hill
#
# Bulk Modulus (GPa) = 34.86226 51.68884 43.27555
# Shear Modulus (GPa) = 24.99890 29.33696 27.16793
#
# Velocity S-wave (km/s) = 3.45462 3.74237 3.60137
# Velocity P-wave (km/s) = 5.70575 6.58406 6.16058
#
# Compressibility (1/GPa) = 0.02868431
#
# Stress axis : x y z
#
# Youngs Moduli (GPa) = 61.75544 45.64497 94.71827
#
# Poissons Ratio (x) = -0.02505 0.29057
# Poissons Ratio (y) = -0.03390 0.70739
# Poissons Ratio (z) = 0.18945 0.34089
#
# Static dielectric constant tensor:
#      x y z
#    x 1.798990 0.000000 -0.047430 
#    y 0.000000 1.755330 0.000000 
#    z -0.047430 0.000000 1.840180 
# 
# From -- ./inp_files/30908.got.cif
#   From: 2010.05.17/outbox.cif.g08.bks.cpg/sg5_16_cif.got.tgz:30908.got - 2010.06.03 18:56:24.
