data_PCOD9122161
_publ_section_title
;
Structure prediction by ZEFSAII (Michael W. Deem and Ramdas Pophale) SiO2 
 PCOD9122161
Probable space group: C 2
;
_chemical_formula_sum "Si O2"
_cell_formula_units_Z 28
_cell_length_a 13.709480
_cell_length_b 17.433847
_cell_length_c 7.765198
_cell_angle_alpha 90.000000
_cell_angle_beta 130.079180
_cell_angle_gamma 90.000000
_cell_volume 1420.091736
_symmetry_space_group_name_H-M "C 2"
_symmetry_group_IT_number 5
_symmetry_cell_setting 'monoclinic'
loop_
_space_group_symop_operation_xyz
x,y,z
-x,y,-z
1/2+x,1/2+y,z
1/2-x,1/2+y,-z
loop_
_atom_site_type_symbol
_atom_site_label
_atom_site_fract_x
_atom_site_fract_y
_atom_site_fract_z
Si Si1 0.857413 0.042530 0.781185
Si Si2 0.860945 0.433367 0.867718
Si Si3 0.675326 0.920938 0.561831
Si Si4 0.403676 0.768002 0.045052
Si Si5 0.719023 0.143832 0.910338
Si Si6 0.500000 0.794463 0.500000
Si Si7 0.500000 0.058144 0.500000
Si Si8 0.847522 0.059953 0.363439
O O1 0.834111 0.066793 0.555943
O O2 0.813505 0.954439 0.755546
O O3 0.000000 0.050629 0.000000
O O4 0.214935 0.092668 0.161408
O O5 0.829719 0.400345 0.643894
O O6 0.743596 0.486756 0.787484
O O7 0.885335 0.359857 0.014251
O O8 0.000000 0.473345 0.000000
O O9 0.619594 0.850906 0.604314
O O10 0.588078 0.996864 0.496779
O O11 0.477846 0.747346 0.303719
O O12 0.500000 0.746321 0.000000
O O13 0.266548 0.727709 0.905770
O O14 0.574980 0.113446 0.719196
O O15 0.781214 0.123936 0.166424
O O16 0.000000 0.051857 0.500000
#
# Coordination Sequence:
#
# PCOD9122161 Si02
#       8
#     4   4   4   4   4   2   2   4
#     4  10  20  35  57  87 120 152 188 247 299 347
#     4  10  19  39  58  89 116 151 199 247 296 343
#     4   9  18  34  62  86 108 144 199 249 290 343
#     4  11  24  36  58  84 120 160 194 245 295 358
#     4  11  23  39  59  85 123 156 201 239 305 357
#     4  11  20  36  58  86 113 148 200 242 295 346
#     4   9  20  38  64  86 109 158 198 254 293 356
#     4  11  23  36  62  95 118 155 202 250 298 353
#
# _framework density 19.717037000000001
#
# number of rings (size 3 to 8) (size 9 to 14) (size 15 to 20)
#    0.000    1.714    4.286    1.286    5.000    0.000 
#    1.286    0.000    0.000    0.000    0.000    0.000 
#    0.000    0.000    0.000    0.000    0.000    0.000 
#
# Total GULP energy -77938.141034 kJ/mol
# GULP energy per Si atom -5567.010074 kJ/mol
# Density = 1.967216 g / cm^3
# Si number density = 19.717037 Si / 1000 Ang^3
#
#
#
# Elastic Constant Matrix: (Units=GPa)
#
#
# Indices 1 2 3 4 5 6 
#
# 1 40.0437 -5.3187 9.1595 0.0000 -14.5205 0.0000
# 2 -5.3187 26.3941 7.5612 0.0000 7.9627 0.0000
# 3 9.1595 7.5612 77.8168 0.0000 -6.6859 0.0000
# 4 0.0000 0.0000 0.0000 12.9293 0.0000 4.7425
# 5 -14.5205 7.9627 -6.6859 0.0000 36.7845 0.0000
# 6 0.0000 0.0000 0.0000 4.7425 0.0000 25.3873
#
#
#
# Elastic Compliance Matrix: (Units=1/GPa)
#
#
# Indices 1 2 3 4 5 6 
#
# 1 0.029949 0.003732 -0.002988 0.000000 0.010471 0.000000
# 2 0.003732 0.042818 -0.005353 0.000000 -0.008769 0.000000
# 3 -0.002988 -0.005353 0.013938 0.000000 0.002513 0.000000
# 4 0.000000 0.000000 0.000000 0.083033 0.000000 -0.015511
# 5 0.010471 -0.008769 0.002513 0.000000 0.033674 0.000000
# 6 0.000000 0.000000 0.000000 -0.015511 0.000000 0.042287
#
#
# Mechanical properties :
#
#
# Convention : Reuss Voigt Hill
#
# Bulk Modulus (GPa) = 12.90538 18.56208 15.73373
# Shear Modulus (GPa) = 17.80962 23.87707 20.84334
#
# Velocity S-wave (km/s) = 3.00869 3.48370 3.25487
# Velocity P-wave (km/s) = 4.31615 5.06125 4.70347
#
# Compressibility (1/GPa) = 0.07748704
#
# Stress axis : x y z
#
# Youngs Moduli (GPa) = 33.39019 23.35460 71.74399
#
# Poissons Ratio (x) = -0.08716 0.21438
# Poissons Ratio (y) = -0.12462 0.38406
# Poissons Ratio (z) = 0.09977 0.12502
#
# Static dielectric constant tensor:
#      x y z
#    x 1.651580 0.000000 0.009980 
#    y 0.000000 1.740000 0.000000 
#    z 0.009980 0.000000 1.770160 
# 
# From -- ./inp_files/25251.got.cif
#   From: 2010.05.17/outbox.cif.g08.bks.cpg/sg5_13_cif.got.tgz:25251.got - 2010.06.03 18:56:24.
