data_PCOD9122938
_publ_section_title
;
Structure prediction by ZEFSAII (Michael W. Deem and Ramdas Pophale) SiO2 
 PCOD9122938
Probable space group: C 2
;
_chemical_formula_sum "Si O2"
_cell_formula_units_Z 32
_cell_length_a 14.368929
_cell_length_b 12.020723
_cell_length_c 16.157379
_cell_angle_alpha 90.000000
_cell_angle_beta 34.511308
_cell_angle_gamma 90.000000
_cell_volume 1581.170178
_symmetry_space_group_name_H-M "C 2"
_symmetry_group_IT_number 5
_symmetry_cell_setting 'monoclinic'
loop_
_space_group_symop_operation_xyz
x,y,z
-x,y,-z
1/2+x,1/2+y,z
1/2-x,1/2+y,-z
loop_
_atom_site_type_symbol
_atom_site_label
_atom_site_fract_x
_atom_site_fract_y
_atom_site_fract_z
Si Si1 0.097415 0.232620 0.341917
Si Si2 0.134627 0.185958 0.830536
Si Si3 0.239162 0.964666 0.399762
Si Si4 0.590482 0.346815 0.294184
Si Si5 0.388592 0.740876 0.330877
Si Si6 0.583675 0.141916 0.627992
Si Si7 0.812101 0.523413 0.160694
Si Si8 0.628359 0.993131 0.330501
O O1 0.244234 0.146851 0.221160
O O2 0.149572 0.361410 0.305345
O O3 0.000000 0.209152 0.500000
O O4 0.988019 0.213583 0.340044
O O5 0.296245 0.262950 0.732744
O O6 0.048964 0.214921 0.806293
O O7 0.205370 0.061093 0.775791
O O8 0.000000 0.202033 0.000000
O O9 0.349526 0.871038 0.361971
O O10 0.055811 0.919620 0.555201
O O11 0.304497 0.082595 0.385478
O O12 0.274718 0.968358 0.276981
O O13 0.506951 0.260159 0.290841
O O14 0.710526 0.443163 0.173293
O O15 0.215091 0.676013 0.461568
O O16 0.455450 0.053109 0.686779
O O17 0.000000 0.521083 0.000000
O O18 0.500000 0.008464 0.500000
#
# Coordination Sequence:
#
# PCOD9122938 Si02
#       8
#     4   4   4   4   4   4   4   4
#     4  11  24  44  66  95 131 174 218 273 328 391
#     4  11  23  40  66 100 131 174 220 271 327 385
#     4  11  22  40  67  95 128 166 217 275 321 388
#     4  10  22  38  67  94 124 165 217 271 321 378
#     4  11  21  37  68  96 127 166 218 270 324 390
#     4  10  20  36  64  99 120 155 217 269 320 369
#     4  12  25  43  62  91 133 176 214 263 338 397
#     4  10  20  39  66  93 131 166 215 273 326 380
#
# _framework density 20.238174000000001
#
# number of rings (size 3 to 8) (size 9 to 14) (size 15 to 20)
#    0.000    1.250    3.750    3.000    1.750    0.500 
#    4.500    0.000    2.750    0.000    0.000    0.000 
#    0.000    0.000    0.000    0.000    0.000    0.000 
#
# Total GULP energy -89172.732815 kJ/mol
# GULP energy per Si atom -5573.295801 kJ/mol
# Density = 2.019211 g / cm^3
# Si number density = 20.238174 Si / 1000 Ang^3
#
#
#
# Elastic Constant Matrix: (Units=GPa)
#
#
# Indices 1 2 3 4 5 6 
#
# 1 83.2660 34.8685 44.0874 0.0000 -3.2653 0.0000
# 2 34.8685 133.9926 64.1003 0.0000 -17.9407 0.0000
# 3 44.0874 64.1003 113.3730 0.0001 -13.2825 0.0000
# 4 0.0000 0.0000 0.0001 13.1293 0.0000 -12.8715
# 5 -3.2653 -17.9407 -13.2825 0.0000 18.2748 0.0000
# 6 0.0000 0.0000 0.0000 -12.8715 0.0000 39.6062
#
#
#
# Elastic Compliance Matrix: (Units=1/GPa)
#
#
# Indices 1 2 3 4 5 6 
#
# 1 0.015492 -0.001889 -0.005301 0.000000 -0.002939 0.000000
# 2 -0.001889 0.011190 -0.004749 0.000000 0.007196 0.000000
# 3 -0.005301 -0.004749 0.014111 0.000000 0.004647 0.000000
# 4 0.000000 0.000000 0.000000 0.111779 0.000000 0.036327
# 5 -0.002939 0.007196 0.004647 0.000000 0.064637 0.000000
# 6 0.000000 0.000000 0.000000 0.036327 0.000000 0.037054
#
#
# Mechanical properties :
#
#
# Convention : Reuss Voigt Hill
#
# Bulk Modulus (GPa) = 59.11689 68.52712 63.82201
# Shear Modulus (GPa) = 17.61924 26.70707 22.16315
#
# Velocity S-wave (km/s) = 2.95378 3.63662 3.31284
# Velocity P-wave (km/s) = 6.39587 7.18103 6.79979
#
# Compressibility (1/GPa) = 0.01691564
#
# Stress axis : x y z
#
# Youngs Moduli (GPa) = 64.54885 89.36426 70.86565
#
# Poissons Ratio (x) = 0.16883 0.37563
# Poissons Ratio (y) = 0.12195 0.33655
# Poissons Ratio (z) = 0.34215 0.42440
#
# Static dielectric constant tensor:
#      x y z
#    x 1.774400 0.000000 -0.019530 
#    y 0.000000 1.774430 0.000000 
#    z -0.019530 0.000000 1.694440 
# 
# From -- ./inp_files/23873.got.cif
#   From: 2010.05.17/outbox.cif.g08.bks.cpg/sg5_12_cif.got.tgz:23873.got - 2010.06.03 18:56:24.
