data_PCOD9122920
_publ_section_title
;
Structure prediction by ZEFSAII (Michael W. Deem and Ramdas Pophale) SiO2 
 PCOD9122920
Probable space group: C 2
;
_chemical_formula_sum "Si O2"
_cell_formula_units_Z 24
_cell_length_a 13.687599
_cell_length_b 8.041092
_cell_length_c 14.129826
_cell_angle_alpha 90.000000
_cell_angle_beta 43.323618
_cell_angle_gamma 90.000000
_cell_volume 1067.033650
_symmetry_space_group_name_H-M "C 2"
_symmetry_group_IT_number 5
_symmetry_cell_setting 'monoclinic'
loop_
_space_group_symop_operation_xyz
x,y,z
-x,y,-z
1/2+x,1/2+y,z
1/2-x,1/2+y,-z
loop_
_atom_site_type_symbol
_atom_site_label
_atom_site_fract_x
_atom_site_fract_y
_atom_site_fract_z
Si Si1 0.604945 0.527710 0.304833
Si Si2 0.362920 0.184660 0.361434
Si Si3 0.659469 0.880062 0.361760
Si Si4 0.191539 0.888767 0.434542
Si Si5 0.674823 0.315595 0.090789
Si Si6 0.339346 0.535083 0.076692
O O1 0.637401 0.710582 0.316942
O O2 0.663086 0.398786 0.343402
O O3 0.435614 0.499352 0.428695
O O4 0.670302 0.479882 0.159526
O O5 0.260096 0.311971 0.375719
O O6 0.325182 0.218006 0.497991
O O7 0.523940 0.227681 0.220737
O O8 0.331481 0.994963 0.356524
O O9 0.500000 0.935296 0.500000
O O10 0.739715 0.009042 0.238132
O O11 0.795181 0.195662 0.047032
O O12 0.679997 0.377637 0.980080
O O13 0.500000 0.543546 0.000000
#
# Coordination Sequence:
#
# PCOD9122920 Si02
#       6
#     4   4   4   4   4   4
#     4   9  18  40  62  91 132 172 218 272 339 399
#     4  10  20  36  63  96 133 177 224 275 345 404
#     4  11  21  42  70 100 135 180 222 285 351 405
#     4   9  18  33  57  95 134 163 213 275 332 399
#     4  11  25  46  68  95 135 188 230 285 338 411
#     4  12  27  50  69 101 142 183 235 284 343 412
#
# _framework density 22.492262
#
# number of rings (size 3 to 8) (size 9 to 14) (size 15 to 20)
#    0.000    1.667    5.000    1.000    2.333    1.333 
#    9.000    0.000    0.000    0.000    0.000    0.000 
#    0.000    0.000    0.000    0.000    0.000    0.000 
#
# Total GULP energy -67080.734962 kJ/mol
# GULP energy per Si atom -5590.061247 kJ/mol
# Density = 2.244107 g / cm^3
# Si number density = 22.492262 Si / 1000 Ang^3
#
#
#
# Elastic Constant Matrix: (Units=GPa)
#
#
# Indices 1 2 3 4 5 6 
#
# 1 102.8705 25.8719 46.6542 0.0000 -10.0614 0.0000
# 2 25.8719 50.1794 19.2715 0.0000 -13.8949 0.0000
# 3 46.6542 19.2715 103.8408 0.0000 9.6016 0.0000
# 4 0.0000 0.0000 0.0000 18.6396 0.0000 6.6554
# 5 -10.0614 -13.8949 9.6016 0.0000 20.8026 0.0000
# 6 0.0000 0.0000 0.0000 6.6554 0.0000 33.7257
#
#
#
# Elastic Compliance Matrix: (Units=1/GPa)
#
#
# Indices 1 2 3 4 5 6 
#
# 1 0.014181 -0.002441 -0.006687 0.000000 0.008315 0.000000
# 2 -0.002441 0.029607 -0.006390 0.000000 0.021545 0.000000
# 3 -0.006687 -0.006390 0.015161 0.000000 -0.014500 0.000000
# 4 0.000000 0.000000 0.000000 0.057716 0.000000 -0.011390
# 5 0.008315 0.021545 -0.014500 0.000000 0.073176 0.000000
# 6 0.000000 0.000000 0.000000 -0.011390 0.000000 0.031899
#
#
# Mechanical properties :
#
#
# Convention : Reuss Voigt Hill
#
# Bulk Modulus (GPa) = 35.82578 48.94284 42.38431
# Shear Modulus (GPa) = 19.07817 25.63979 22.35898
#
# Velocity S-wave (km/s) = 2.91556 3.37996 3.15631
# Velocity P-wave (km/s) = 5.22462 6.08599 5.67168
#
# Compressibility (1/GPa) = 0.02791286
#
# Stress axis : x y z
#
# Youngs Moduli (GPa) = 70.51768 33.77591 65.95769
#
# Poissons Ratio (x) = 0.08244 0.44107
# Poissons Ratio (y) = 0.17212 0.42148
# Poissons Ratio (z) = 0.47156 0.21583
#
# Static dielectric constant tensor:
#      x y z
#    x 1.866540 0.000000 0.025710 
#    y 0.000000 1.859490 0.000000 
#    z 0.025710 0.000000 1.799390 
# 
# From -- ./inp_files/54080.got.cif
#   From: 2010.05.17/outbox.cif.g08.bks.cpg/sg5_28_cif.got.tgz:54080.got - 2010.06.03 18:56:24.
