data_PCOD9122744
_publ_section_title
;
Structure prediction by ZEFSAII (Michael W. Deem and Ramdas Pophale) SiO2 
 PCOD9122744
Probable space group: C 2
;
_chemical_formula_sum "Si O2"
_cell_formula_units_Z 30
_cell_length_a 22.670130
_cell_length_b 6.021612
_cell_length_c 23.031801
_cell_angle_alpha 90.000000
_cell_angle_beta 30.624757
_cell_angle_gamma 90.000000
_cell_volume 1601.640150
_symmetry_space_group_name_H-M "C 2"
_symmetry_group_IT_number 5
_symmetry_cell_setting 'monoclinic'
loop_
_space_group_symop_operation_xyz
x,y,z
-x,y,-z
1/2+x,1/2+y,z
1/2-x,1/2+y,-z
loop_
_atom_site_type_symbol
_atom_site_label
_atom_site_fract_x
_atom_site_fract_y
_atom_site_fract_z
Si Si1 0.500000 0.707670 0.000000
Si Si2 0.101118 0.909475 0.506431
Si Si3 0.106928 0.520830 0.591296
Si Si4 0.305208 0.206516 0.365554
Si Si5 0.415103 0.785153 0.686343
Si Si6 0.856123 0.644476 0.639454
Si Si7 0.207651 0.518836 0.827889
Si Si8 0.370586 0.385424 0.196609
O O1 0.454855 0.550365 0.090331
O O2 0.397423 0.863968 0.062199
O O3 0.222532 0.037722 0.400284
O O4 0.001680 0.091415 0.593506
O O5 0.102625 0.755444 0.561645
O O6 0.081835 0.752852 0.468155
O O7 0.214128 0.377511 0.473549
O O8 0.131171 0.572082 0.637624
O O9 0.985579 0.398385 0.679417
O O10 0.390976 0.316381 0.245934
O O11 0.286698 0.678431 0.801681
O O12 0.405276 0.964412 0.642952
O O13 0.751767 0.510758 0.697227
O O14 0.798157 0.845010 0.723973
O O15 0.150794 0.674241 0.826775
#
# Coordination Sequence:
#
# PCOD9122744 Si02
#       8
#     2   4   4   4   4   4   4   4
#     4  10  22  38  62  90 128 148 204 266 332 368
#     4  11  21  36  53  84 127 172 199 246 296 364
#     4  11  22  36  54  84 127 176 208 245 288 372
#     4  11  21  37  58  83 128 170 213 246 294 366
#     4  10  24  35  52  86 127 166 207 243 305 371
#     4  10  20  36  54  81 122 160 200 246 311 368
#     4  10  20  38  58  85 126 151 195 261 319 378
#     4  10  20  37  60  90 122 154 204 261 313 370
#
# _framework density 18.730799000000001
#
# number of rings (size 3 to 8) (size 9 to 14) (size 15 to 20)
#    0.000    1.600    4.000    1.200    0.000    3.200 
#    2.400    0.000    0.000    0.000    0.000    0.000 
#  180.000    0.000    0.000    0.000    0.000    0.000 
#
# Total GULP energy -83665.044556 kJ/mol
# GULP energy per Si atom -5577.669637 kJ/mol
# Density = 1.868817 g / cm^3
# Si number density = 18.730799 Si / 1000 Ang^3
#
#
#
# Elastic Constant Matrix: (Units=GPa)
#
#
# Indices 1 2 3 4 5 6 
#
# 1 114.9252 41.5633 49.4660 0.0104 -2.8979 -0.0086
# 2 41.5633 106.9668 37.3814 0.0318 -4.3017 -0.0123
# 3 49.4660 37.3814 65.7750 0.0395 -5.9007 -0.0208
# 4 0.0104 0.0318 0.0395 36.0600 -0.0433 -16.6991
# 5 -2.8979 -4.3017 -5.9007 -0.0433 16.4378 0.0293
# 6 -0.0086 -0.0123 -0.0208 -16.6991 0.0293 37.1449
#
#
#
# Elastic Compliance Matrix: (Units=1/GPa)
#
#
# Indices 1 2 3 4 5 6 
#
# 1 0.013257 -0.002096 -0.008905 0.000007 -0.001408 0.000002
# 2 -0.002096 0.012005 -0.005164 -0.000004 0.000918 -0.000002
# 3 -0.008905 -0.005164 0.025391 -0.000013 0.006193 -0.000001
# 4 0.000007 -0.000004 -0.000013 0.035023 0.000060 0.015745
# 5 -0.001408 0.000918 0.006193 0.000060 0.063051 -0.000019
# 6 0.000002 -0.000002 -0.000001 0.015745 -0.000019 0.034000
#
#
# Mechanical properties :
#
#
# Convention : Reuss Voigt Hill
#
# Bulk Modulus (GPa) = 54.57724 60.49872 57.53798
# Shear Modulus (GPa) = 22.60782 28.54565 25.57673
#
# Velocity S-wave (km/s) = 3.47794 3.90807 3.69926
# Velocity P-wave (km/s) = 6.73268 7.26176 7.00222
#
# Compressibility (1/GPa) = 0.01832266
#
# Stress axis : x y z
#
# Youngs Moduli (GPa) = 75.43443 83.30150 39.38455
#
# Poissons Ratio (x) = 0.17457 0.35071
# Poissons Ratio (y) = 0.15809 0.20338
# Poissons Ratio (z) = 0.67173 0.43017
#
# Static dielectric constant tensor:
#      x y z
#    x 1.645720 0.000000 -0.053790 
#    y 0.000000 1.695560 0.000010 
#    z -0.053790 0.000010 1.730770 
# 
# From -- ./inp_files/67268.got.cif
#   From: 2010.05.17/outbox.cif.g08.bks.cpg/sg5_34_cif.got.tgz:67268.got - 2010.06.03 18:56:24.
