data_PCOD9122366
_publ_section_title
;
Structure prediction by ZEFSAII (Michael W. Deem and Ramdas Pophale) SiO2 
 PCOD9122366
Probable space group: C 2
;
_chemical_formula_sum "Si O2"
_cell_formula_units_Z 22
_cell_length_a 12.224775
_cell_length_b 7.420871
_cell_length_c 10.054433
_cell_angle_alpha 90.000000
_cell_angle_beta 75.913665
_cell_angle_gamma 90.000000
_cell_volume 884.695409
_symmetry_space_group_name_H-M "C 2"
_symmetry_group_IT_number 5
_symmetry_cell_setting 'monoclinic'
loop_
_space_group_symop_operation_xyz
x,y,z
-x,y,-z
1/2+x,1/2+y,z
1/2-x,1/2+y,-z
loop_
_atom_site_type_symbol
_atom_site_label
_atom_site_fract_x
_atom_site_fract_y
_atom_site_fract_z
Si Si1 0.892421 0.450400 0.374610
Si Si2 0.176779 0.235824 0.839601
Si Si3 0.473703 0.328292 0.293478
Si Si4 0.500000 0.476541 0.000000
Si Si5 0.188261 0.044601 0.259913
Si Si6 0.717653 0.916469 0.325683
O O1 0.907721 0.300025 0.255677
O O2 0.768747 0.524198 0.365042
O O3 0.872206 0.392166 0.530485
O O4 0.973852 0.620838 0.336888
O O5 0.106301 0.111855 0.958642
O O6 0.241267 0.417305 0.863021
O O7 0.272314 0.110642 0.744599
O O8 0.568040 0.457742 0.326444
O O9 0.344636 0.391750 0.345716
O O10 0.497340 0.352455 0.129588
O O11 0.192087 0.255664 0.230254
#
# Coordination Sequence:
#
# PCOD9122366 Si02
#       6
#     4   4   4   2   4   4
#     4   9  20  40  65  93 138 170 213 289 340 397
#     4   9  20  39  61  93 127 168 221 273 336 396
#     4  10  21  42  68  96 131 180 225 277 345 408
#     4  10  22  42  62  90 134 178 222 278 344 390
#     4   9  21  39  64  98 127 172 228 269 342 412
#     4  10  19  42  66  91 137 167 210 288 343 399
#
# _framework density 24.867314
#
# number of rings (size 3 to 8) (size 9 to 14) (size 15 to 20)
#    1.091    1.455    0.000    2.182    0.000    1.455 
#   16.364    0.000    8.000    0.000    0.000    0.000 
#    0.000    0.000    0.000    0.000    0.000    0.000 
#
# Total GULP energy -61380.507026 kJ/mol
# GULP energy per Si atom -5580.046093 kJ/mol
# Density = 2.481071 g / cm^3
# Si number density = 24.867314 Si / 1000 Ang^3
#
#
#
# Elastic Constant Matrix: (Units=GPa)
#
#
# Indices 1 2 3 4 5 6 
#
# 1 110.2985 11.0566 -2.8581 0.0000 -22.4289 0.0000
# 2 11.0566 114.6310 -2.4448 0.0000 1.2195 0.0000
# 3 -2.8581 -2.4448 68.9028 0.0000 -11.8403 0.0000
# 4 0.0000 0.0000 0.0000 29.6683 0.0000 -5.1592
# 5 -22.4289 1.2195 -11.8403 0.0000 27.0610 0.0000
# 6 0.0000 0.0000 0.0000 -5.1592 0.0000 27.7347
#
#
#
# Elastic Compliance Matrix: (Units=1/GPa)
#
#
# Indices 1 2 3 4 5 6 
#
# 1 0.011364 -0.001160 0.002225 0.000000 0.010445 0.000000
# 2 -0.001160 0.008851 0.000035 0.000000 -0.001345 0.000000
# 3 0.002225 0.000035 0.016137 0.000000 0.008903 0.000000
# 4 0.000000 0.000000 0.000000 0.034833 0.000000 0.006480
# 5 0.010445 -0.001345 0.008903 0.000000 0.049567 0.000000
# 6 0.000000 0.000000 0.000000 0.006480 0.000000 0.037261
#
#
# Mechanical properties :
#
#
# Convention : Reuss Voigt Hill
#
# Bulk Modulus (GPa) = 25.93928 33.92662 29.93295
# Shear Modulus (GPa) = 29.64507 36.09805 32.87156
#
# Velocity S-wave (km/s) = 3.45647 3.81415 3.63971
# Velocity P-wave (km/s) = 5.13647 5.75063 5.45220
#
# Compressibility (1/GPa) = 0.03855157
#
# Stress axis : x y z
#
# Youngs Moduli (GPa) = 87.99612 112.98723 61.97077
#
# Poissons Ratio (x) = 0.13104 -0.13789
# Poissons Ratio (y) = 0.10206 -0.00216
# Poissons Ratio (z) = -0.19580 -0.00393
#
# Static dielectric constant tensor:
#      x y z
#    x 2.044310 0.000000 0.017370 
#    y 0.000000 1.985080 0.000000 
#    z 0.017370 0.000000 1.924580 
# 
# From -- ./inp_files/41276.got.cif
#   From: 2010.05.17/outbox.cif.g08.bks.cpg/sg5_21_cif.got.tgz:41276.got - 2010.06.03 18:56:24.
