data_PCOD9122365
_publ_section_title
;
Structure prediction by ZEFSAII (Michael W. Deem and Ramdas Pophale) SiO2 
 PCOD9122365
Probable space group: C 2
;
_chemical_formula_sum "Si O2"
_cell_formula_units_Z 28
_cell_length_a 10.511364
_cell_length_b 11.253972
_cell_length_c 11.122391
_cell_angle_alpha 90.000000
_cell_angle_beta 81.084277
_cell_angle_gamma 90.000000
_cell_volume 1299.821413
_symmetry_space_group_name_H-M "C 2"
_symmetry_group_IT_number 5
_symmetry_cell_setting 'monoclinic'
loop_
_space_group_symop_operation_xyz
x,y,z
-x,y,-z
1/2+x,1/2+y,z
1/2-x,1/2+y,-z
loop_
_atom_site_type_symbol
_atom_site_label
_atom_site_fract_x
_atom_site_fract_y
_atom_site_fract_z
Si Si1 0.877382 0.204930 0.701329
Si Si2 0.051782 0.890873 0.208412
Si Si3 0.149354 0.633792 0.190532
Si Si4 0.361011 0.554794 0.332298
Si Si5 0.279186 0.480954 0.604146
Si Si6 0.494878 0.948897 0.636078
Si Si7 0.138372 0.106060 0.042926
O O1 0.901326 0.335244 0.648025
O O2 0.014943 0.137604 0.664704
O O3 0.776483 0.118570 0.650511
O O4 0.849028 0.197055 0.847341
O O5 0.070493 0.753907 0.180807
O O6 0.116257 0.915315 0.329172
O O7 0.127344 0.975395 0.104347
O O8 0.910401 0.949316 0.236739
O O9 0.250540 0.632430 0.287206
O O10 0.053352 0.532204 0.249759
O O11 0.241779 0.612150 0.063583
O O12 0.318007 0.493464 0.460785
O O13 0.142729 0.418695 0.640545
O O14 0.500000 0.003217 0.500000
O O15 0.000000 0.129291 0.000000
#
# Coordination Sequence:
#
# PCOD9122365 Si02
#       7
#     4   4   4   4   4   4   4
#     4  10  22  41  67  93 122 175 221 269 323 388
#     4  10  23  40  67  95 123 172 224 268 327 390
#     4  12  24  40  63  99 131 167 219 270 334 388
#     4  10  19  42  66  90 126 168 216 268 319 399
#     4  10  21  42  63  94 131 168 219 261 333 390
#     4  12  25  40  61 103 139 167 212 271 335 401
#     4  10  21  45  67  89 124 174 229 267 326 395
#
# _framework density 21.541421
#
# number of rings (size 3 to 8) (size 9 to 14) (size 15 to 20)
#    0.000    1.714    4.286    3.429    2.000    2.286 
#    2.571    2.857    0.000    0.000    0.000    0.000 
#    0.000    0.000    0.000    0.000    0.000    0.000 
#
# Total GULP energy -78158.436828 kJ/mol
# GULP energy per Si atom -5582.745488 kJ/mol
# Density = 2.149239 g / cm^3
# Si number density = 21.541421 Si / 1000 Ang^3
#
#
#
# Elastic Constant Matrix: (Units=GPa)
#
#
# Indices 1 2 3 4 5 6 
#
# 1 34.9256 -3.9355 7.4651 0.0000 -9.3376 0.0000
# 2 -3.9355 81.4322 31.5504 0.0000 -20.8925 0.0000
# 3 7.4651 31.5504 113.0334 0.0000 -34.6011 0.0000
# 4 0.0000 0.0000 0.0000 12.6489 0.0000 2.6129
# 5 -9.3376 -20.8925 -34.6011 0.0000 32.2146 0.0000
# 6 0.0000 0.0000 0.0000 2.6129 0.0000 19.7332
#
#
#
# Elastic Compliance Matrix: (Units=1/GPa)
#
#
# Indices 1 2 3 4 5 6 
#
# 1 0.032543 0.004718 0.000533 0.000000 0.013066 0.000000
# 2 0.004718 0.015657 -0.001721 0.000000 0.009674 0.000000
# 3 0.000533 -0.001721 0.013405 0.000000 0.013437 0.000000
# 4 0.000000 0.000000 0.000000 0.081281 0.000000 -0.010762
# 5 0.013066 0.009674 0.013437 0.000000 0.055535 0.000000
# 6 0.000000 0.000000 0.000000 -0.010762 0.000000 0.052101
#
#
# Mechanical properties :
#
#
# Convention : Reuss Voigt Hill
#
# Bulk Modulus (GPa) = 14.56293 33.28345 23.92319
# Shear Modulus (GPa) = 18.77229 25.87341 22.32285
#
# Velocity S-wave (km/s) = 2.95524 3.46945 3.22262
# Velocity P-wave (km/s) = 4.29182 5.61550 4.99768
#
# Compressibility (1/GPa) = 0.06866752
#
# Stress axis : x y z
#
# Youngs Moduli (GPa) = 30.72834 63.87030 74.59771
#
# Poissons Ratio (x) = -0.30136 -0.03979
# Poissons Ratio (y) = -0.14499 0.12835
# Poissons Ratio (z) = -0.01639 0.10989
#
# Static dielectric constant tensor:
#      x y z
#    x 1.816210 0.000000 0.011670 
#    y 0.000000 1.802470 0.000000 
#    z 0.011670 0.000000 1.790810 
# 
# From -- ./inp_files/38812.got.cif
#   From: 2010.05.17/outbox.cif.g08.bks.cpg/sg5_20_cif.got.tgz:38812.got - 2010.06.03 18:56:24.
