data_PCOD9122581
_publ_section_title
;
Structure prediction by ZEFSAII (Michael W. Deem and Ramdas Pophale) SiO2 
 PCOD9122581
Probable space group: C 2
;
_chemical_formula_sum "Si O2"
_cell_formula_units_Z 20
_cell_length_a 18.439496
_cell_length_b 7.486859
_cell_length_c 13.752942
_cell_angle_alpha 90.000000
_cell_angle_beta 21.905425
_cell_angle_gamma 90.000000
_cell_volume 708.339068
_symmetry_space_group_name_H-M "C 2"
_symmetry_group_IT_number 5
_symmetry_cell_setting 'monoclinic'
loop_
_space_group_symop_operation_xyz
x,y,z
-x,y,-z
1/2+x,1/2+y,z
1/2-x,1/2+y,-z
loop_
_atom_site_type_symbol
_atom_site_label
_atom_site_fract_x
_atom_site_fract_y
_atom_site_fract_z
Si Si1 0.878664 0.309350 0.236765
Si Si2 0.536456 0.504068 0.557124
Si Si3 0.081919 0.698179 0.746395
Si Si4 0.245714 0.951193 0.923173
Si Si5 0.810869 0.389614 0.629464
O O1 0.687171 0.382384 0.424355
O O2 0.972565 0.496179 0.155404
O O3 0.788325 0.184952 0.431574
O O4 0.000000 0.223620 0.000000
O O5 0.500000 0.411363 0.500000
O O6 0.640532 0.687448 0.397288
O O7 0.368840 0.543524 0.845032
O O8 0.153295 0.836883 0.742632
O O9 0.902537 0.784913 0.912800
O O10 0.263310 0.003518 0.785959
O O11 0.472164 0.946428 0.674867
#
# Coordination Sequence:
#
# PCOD9122581 Si02
#       5
#     4   4   4   4   4
#     4  10  22  38  61  87 116 158 193 240 299 345
#     4  10  20  36  59  86 115 149 194 245 282 346
#     4  10  21  38  60  89 117 152 200 241 289 352
#     4  10  20  34  60  86 110 152 196 230 293 345
#     4  10  20  37  59  83 114 155 187 241 292 342
#
# _framework density 28.235063
#
# number of rings (size 3 to 8) (size 9 to 14) (size 15 to 20)
#    0.000    2.000    2.000    3.000    2.800    0.000 
#    0.000    7.000    4.400    0.000    0.000    0.000 
#    0.000    0.000    0.000    0.000    0.000    0.000 
#
# Total GULP energy -55766.306075 kJ/mol
# GULP energy per Si atom -5576.630608 kJ/mol
# Density = 2.817080 g / cm^3
# Si number density = 28.235063 Si / 1000 Ang^3
#
#
#
# Elastic Constant Matrix: (Units=GPa)
#
#
# Indices 1 2 3 4 5 6 
#
# 1 108.9906 42.3753 15.2127 0.0001 -0.8099 0.0000
# 2 42.3753 73.7842 19.3789 -0.0001 5.2821 0.0000
# 3 15.2127 19.3789 171.4995 0.0000 50.4132 0.0000
# 4 0.0001 -0.0001 0.0000 0.5390 -0.0001 11.0847
# 5 -0.8099 5.2821 50.4132 -0.0001 63.8100 0.0000
# 6 0.0000 0.0000 0.0000 11.0847 0.0000 21.0715
#
#
#
# Elastic Compliance Matrix: (Units=1/GPa)
#
#
# Indices 1 2 3 4 5 6 
#
# 1 0.011900 -0.006751 -0.000653 0.000000 0.001226 0.000000
# 2 -0.006751 0.017798 -0.001243 0.000000 -0.000577 0.000000
# 3 -0.000653 -0.001243 0.007817 0.000000 -0.006081 0.000000
# 4 0.000000 0.000000 0.000000 -0.188960 0.000000 0.099403
# 5 0.001226 -0.000577 -0.006081 0.000000 0.020539 0.000000
# 6 0.000000 0.000000 0.000000 0.099403 0.000000 -0.004834
#
#
# Mechanical properties :
#
#
# Convention : Reuss Voigt Hill
#
# Bulk Modulus (GPa) = 49.45123 56.46756 52.95939
# Shear Modulus (GPa) = -44.76018 35.57126 -4.59446
#
# Velocity S-wave (km/s) = -3.98586 3.55325 -1.27701
# Velocity P-wave (km/s) = 1.90543 6.07261 4.07713
#
# Compressibility (1/GPa) = 0.02022194
#
# Stress axis : x y z
#
# Youngs Moduli (GPa) = 84.03382 56.18720 127.92871
#
# Poissons Ratio (x) = 0.37929 0.08355
# Poissons Ratio (y) = 0.56727 0.15896
# Poissons Ratio (z) = 0.05489 0.06982
#
# Static dielectric constant tensor:
#      x y z
#    x 2.449320 0.000000 0.141990 
#    y 0.000000 2.161970 0.000000 
#    z 0.141990 0.000000 2.301790 
# 
# From -- ./inp_files/18301.got.cif
#   From: 2010.05.17/outbox.cif.g08.bks.cpg/sg5_10_cif.got.tgz:18301.got - 2010.06.03 18:56:24.
