data_PCOD9122051
_publ_section_title
;
Structure prediction by ZEFSAII (Michael W. Deem and Ramdas Pophale) SiO2 
 PCOD9122051
Probable space group: C 2
;
_chemical_formula_sum "Si O2"
_cell_formula_units_Z 24
_cell_length_a 15.096239
_cell_length_b 7.210511
_cell_length_c 15.072443
_cell_angle_alpha 90.000000
_cell_angle_beta 37.479026
_cell_angle_gamma 90.000000
_cell_volume 998.293674
_symmetry_space_group_name_H-M "C 2"
_symmetry_group_IT_number 5
_symmetry_cell_setting 'monoclinic'
loop_
_space_group_symop_operation_xyz
x,y,z
-x,y,-z
1/2+x,1/2+y,z
1/2-x,1/2+y,-z
loop_
_atom_site_type_symbol
_atom_site_label
_atom_site_fract_x
_atom_site_fract_y
_atom_site_fract_z
Si Si1 0.758164 0.590410 0.337875
Si Si2 0.162751 0.189795 0.755289
Si Si3 0.448013 0.590923 0.336612
Si Si4 0.759417 0.675074 0.138178
Si Si5 0.679237 0.728196 0.933049
Si Si6 0.558243 0.225570 0.162097
O O1 0.743781 0.375766 0.326036
O O2 0.636467 0.634635 0.506186
O O3 0.757069 0.700955 0.246240
O O4 0.916894 0.605145 0.256263
O O5 0.165431 0.107169 0.655035
O O6 0.204592 0.122652 0.819800
O O7 0.987907 0.213797 0.905258
O O8 0.598793 0.705454 0.224851
O O9 0.505895 0.384231 0.271063
O O10 0.799247 0.453017 0.094844
O O11 0.882189 0.780724 0.983323
O O12 0.795935 0.649014 0.909059
#
# Coordination Sequence:
#
# PCOD9122051 Si02
#       6
#     4   4   4   4   4   4
#     4  11  22  39  62  86 122 160 195 241 302 364
#     4  10  19  38  61  82 118 153 198 235 297 352
#     4  11  23  38  59  93 122 151 195 255 302 341
#     4  10  20  39  62  86 114 159 202 236 286 364
#     4   9  19  36  61  86 107 156 198 241 280 355
#     4  11  21  38  61  93 115 151 206 248 293 345
#
# _framework density 24.041022000000002
#
# number of rings (size 3 to 8) (size 9 to 14) (size 15 to 20)
#    0.000    1.667    3.333    2.000    0.000    0.000 
#    6.000    2.500    0.000    0.000    0.000    0.000 
#    0.000    0.000    0.000    0.000    0.000    0.000 
#
# Total GULP energy -66920.268346 kJ/mol
# GULP energy per Si atom -5576.689029 kJ/mol
# Density = 2.398630 g / cm^3
# Si number density = 24.041022 Si / 1000 Ang^3
#
#
#
# Elastic Constant Matrix: (Units=GPa)
#
#
# Indices 1 2 3 4 5 6 
#
# 1 111.0162 -12.9519 32.3286 0.0000 22.7863 0.0000
# 2 -12.9519 34.0053 4.0982 0.0000 2.2338 0.0000
# 3 32.3286 4.0982 141.6704 0.0000 14.5731 0.0000
# 4 0.0000 0.0000 0.0000 20.1734 0.0000 0.5806
# 5 22.7863 2.2338 14.5731 0.0000 27.3115 0.0000
# 6 0.0000 0.0000 0.0000 0.5806 0.0000 26.0208
#
#
#
# Elastic Compliance Matrix: (Units=1/GPa)
#
#
# Indices 1 2 3 4 5 6 
#
# 1 0.012184 0.005505 -0.001955 0.000000 -0.009572 0.000000
# 2 0.005505 0.032109 -0.001526 0.000000 -0.006405 0.000000
# 3 -0.001955 -0.001526 0.007796 0.000000 -0.002404 0.000000
# 4 0.000000 0.000000 0.000000 0.049602 0.000000 -0.001107
# 5 -0.009572 -0.006405 -0.002404 0.000000 0.046408 0.000000
# 6 0.000000 0.000000 0.000000 -0.001107 0.000000 0.038456
#
#
# Mechanical properties :
#
#
# Convention : Reuss Voigt Hill
#
# Bulk Modulus (GPa) = 17.81370 37.07130 27.44250
# Shear Modulus (GPa) = 24.84865 32.24895 28.54880
#
# Velocity S-wave (km/s) = 3.21844 3.66650 3.44976
# Velocity P-wave (km/s) = 4.60836 5.77736 5.22565
#
# Compressibility (1/GPa) = 0.05613655
#
# Stress axis : x y z
#
# Youngs Moduli (GPa) = 82.07502 31.14432 128.26776
#
# Poissons Ratio (x) = -0.17145 0.25075
# Poissons Ratio (y) = -0.45183 0.19577
# Poissons Ratio (z) = 0.16045 0.04753
#
# Static dielectric constant tensor:
#      x y z
#    x 1.969450 0.000000 0.082690 
#    y 0.000000 2.031090 0.000000 
#    z 0.082690 0.000000 1.928550 
# 
# From -- ./inp_files/23305.got.cif
#   From: 2010.05.17/outbox.cif.g08.bks.cpg/sg5_12_cif.got.tgz:23305.got - 2010.06.03 18:56:24.
