data_PCOD9122330
_publ_section_title
;
Structure prediction by ZEFSAII (Michael W. Deem and Ramdas Pophale) SiO2 
 PCOD9122330
Probable space group: C 2
;
_chemical_formula_sum "Si O2"
_cell_formula_units_Z 24
_cell_length_a 18.556858
_cell_length_b 6.958403
_cell_length_c 24.638455
_cell_angle_alpha 90.000000
_cell_angle_beta 161.578849
_cell_angle_gamma 90.000000
_cell_volume 1005.341499
_symmetry_space_group_name_H-M "C 2"
_symmetry_group_IT_number 5
_symmetry_cell_setting 'monoclinic'
loop_
_space_group_symop_operation_xyz
x,y,z
-x,y,-z
1/2+x,1/2+y,z
1/2-x,1/2+y,-z
loop_
_atom_site_type_symbol
_atom_site_label
_atom_site_fract_x
_atom_site_fract_y
_atom_site_fract_z
Si Si1 0.987324 0.535030 0.204392
Si Si2 0.577531 0.687649 0.722961
Si Si3 0.428698 0.818581 0.392835
Si Si4 0.568577 0.285827 0.940804
Si Si5 0.426504 0.127348 0.618939
Si Si6 0.401146 0.240528 0.489636
O O1 0.040352 0.674239 0.293769
O O2 0.168860 0.360731 0.330096
O O3 0.742794 0.442179 0.041925
O O4 0.988637 0.646551 0.149464
O O5 0.571459 0.660775 0.654262
O O6 0.802225 0.665641 0.919401
O O7 0.346347 0.604873 0.582717
O O8 0.542439 0.919982 0.698273
O O9 0.500000 0.724257 0.500000
O O10 0.593806 0.004528 0.507456
O O11 0.164665 0.882793 0.205827
O O12 0.512672 0.257373 0.630704
O O13 0.500000 0.285508 0.500000
#
# Coordination Sequence:
#
# PCOD9122330 Si02
#       6
#     4   4   4   4   4   4
#     4  11  25  42  72 104 145 185 241 292 359 421
#     4  10  21  38  68  95 141 175 235 281 359 416
#     4  10  22  39  70  98 137 190 231 287 359 415
#     4  11  24  42  67 105 141 185 232 299 353 420
#     4  10  19  41  65 101 129 187 227 289 345 429
#     4  10  22  42  69 100 139 182 235 287 347 424
#
# _framework density 23.872485000000001
#
# number of rings (size 3 to 8) (size 9 to 14) (size 15 to 20)
#    0.000    1.667    3.333    1.500    4.667    3.333 
#    0.000    0.000    0.000    0.000    0.000    0.000 
#    0.000    0.000    0.000    0.000    0.000    0.000 
#
# Total GULP energy -66903.476640 kJ/mol
# GULP energy per Si atom -5575.289720 kJ/mol
# Density = 2.381815 g / cm^3
# Si number density = 23.872485 Si / 1000 Ang^3
#
#
#
# Elastic Constant Matrix: (Units=GPa)
#
#
# Indices 1 2 3 4 5 6 
#
# 1 179.6132 38.5352 53.3615 -0.0011 -31.3544 -0.0014
# 2 38.5352 94.9880 29.8279 -0.0032 -2.3628 -0.0008
# 3 53.3615 29.8279 106.7675 0.0063 -10.6173 0.0014
# 4 -0.0011 -0.0032 0.0063 37.1887 -0.0004 -1.6065
# 5 -31.3544 -2.3628 -10.6173 -0.0004 61.1616 -0.0005
# 6 -0.0014 -0.0008 0.0014 -1.6065 -0.0005 21.5152
#
#
#
# Elastic Compliance Matrix: (Units=1/GPa)
#
#
# Indices 1 2 3 4 5 6 
#
# 1 0.007404 -0.002041 -0.002809 0.000001 0.003229 0.000001
# 2 -0.002041 0.012104 -0.002461 0.000001 -0.001006 0.000001
# 3 -0.002809 -0.002461 0.011504 -0.000002 0.000462 -0.000001
# 4 0.000001 0.000001 -0.000002 0.026977 0.000000 0.002014
# 5 0.003229 -0.001006 0.000462 0.000000 0.018047 0.000001
# 6 0.000001 0.000001 -0.000001 0.002014 0.000001 0.046629
#
#
# Mechanical properties :
#
#
# Convention : Reuss Voigt Hill
#
# Bulk Modulus (GPa) = 61.02028 69.42423 65.22225
# Shear Modulus (GPa) = 35.02648 41.28270 38.15459
#
# Velocity S-wave (km/s) = 3.83460 4.16300 4.00217
# Velocity P-wave (km/s) = 6.72473 7.22854 6.98118
#
# Compressibility (1/GPa) = 0.01638800
#
# Stress axis : x y z
#
# Youngs Moduli (GPa) = 135.06900 82.62020 86.92953
#
# Poissons Ratio (x) = 0.16864 0.24418
# Poissons Ratio (y) = 0.27570 0.21396
# Poissons Ratio (z) = 0.37940 0.20335
#
# Static dielectric constant tensor:
#      x y z
#    x 2.146880 0.000000 -0.060060 
#    y 0.000000 1.979940 0.000000 
#    z -0.060060 0.000000 1.894570 
# 
# From -- ./inp_files/69163.got.cif
#   From: 2010.05.17/outbox.cif.g08.bks.cpg/sg5_35_cif.got.tgz:69163.got - 2010.06.03 18:56:24.
