data_PCOD9122170
_publ_section_title
;
Structure prediction by ZEFSAII (Michael W. Deem and Ramdas Pophale) SiO2 
 PCOD9122170
Probable space group: C 2
;
_chemical_formula_sum "Si O2"
_cell_formula_units_Z 24
_cell_length_a 11.559762
_cell_length_b 10.156926
_cell_length_c 17.718590
_cell_angle_alpha 90.000000
_cell_angle_beta 152.028005
_cell_angle_gamma 90.000000
_cell_volume 975.776075
_symmetry_space_group_name_H-M "C 2"
_symmetry_group_IT_number 5
_symmetry_cell_setting 'monoclinic'
loop_
_space_group_symop_operation_xyz
x,y,z
-x,y,-z
1/2+x,1/2+y,z
1/2-x,1/2+y,-z
loop_
_atom_site_type_symbol
_atom_site_label
_atom_site_fract_x
_atom_site_fract_y
_atom_site_fract_z
Si Si1 0.280340 0.221050 0.225927
Si Si2 0.465051 0.974248 0.584549
Si Si3 0.680089 0.367579 0.537938
Si Si4 0.330427 0.246033 0.832333
Si Si5 0.485927 0.600021 0.742192
Si Si6 0.271669 0.687824 0.977104
O O1 0.355255 0.096629 0.319901
O O2 0.503112 0.318829 0.368419
O O3 0.730029 0.165447 0.864741
O O4 0.020643 0.276686 0.107386
O O5 0.231816 0.995734 0.396198
O O6 0.343148 0.981761 0.597763
O O7 0.617721 0.840888 0.677618
O O8 0.500000 0.408515 0.500000
O O9 0.847607 0.243228 0.658816
O O10 0.189461 0.122109 0.791884
O O11 0.523291 0.230127 0.875421
O O12 0.630409 0.582729 0.904183
O O13 0.000000 0.801702 0.000000
#
# Coordination Sequence:
#
# PCOD9122170 Si02
#       6
#     4   4   4   4   4   4
#     4  10  22  39  61  92 124 166 204 255 319 364
#     4  10  22  38  63  95 118 164 220 244 311 377
#     4  10  19  39  61  87 126 163 205 259 306 366
#     4   9  20  39  65  93 125 163 207 261 309 363
#     4   9  19  40  63  88 123 165 205 255 315 362
#     4  10  20  40  62  84 127 163 203 255 312 368
#
# _framework density 24.595807000000001
#
# number of rings (size 3 to 8) (size 9 to 14) (size 15 to 20)
#    0.000    2.333    1.667    0.000    2.333    1.333 
#    6.000    7.500    7.333    0.000    0.000    0.000 
#    0.000    0.000    0.000    0.000    0.000    0.000 
#
# Total GULP energy -66826.062916 kJ/mol
# GULP energy per Si atom -5568.838576 kJ/mol
# Density = 2.453983 g / cm^3
# Si number density = 24.595807 Si / 1000 Ang^3
#
#
#
# Elastic Constant Matrix: (Units=GPa)
#
#
# Indices 1 2 3 4 5 6 
#
# 1 169.7213 16.7076 78.7711 0.0004 17.8331 0.0000
# 2 16.7076 27.5991 39.5534 0.0012 -3.7541 0.0000
# 3 78.7711 39.5534 148.5201 0.0039 2.3029 0.0004
# 4 0.0004 0.0012 0.0039 38.0015 0.0004 2.7651
# 5 17.8331 -3.7541 2.3029 0.0004 57.3167 -0.0002
# 6 0.0000 0.0000 0.0004 2.7651 -0.0002 17.7173
#
#
#
# Elastic Compliance Matrix: (Units=1/GPa)
#
#
# Indices 1 2 3 4 5 6 
#
# 1 0.008158 0.001464 -0.004682 0.000000 -0.002254 0.000000
# 2 0.001464 0.060027 -0.016827 0.000000 0.004152 0.000000
# 3 -0.004682 -0.016827 0.013701 -0.000001 -0.000196 0.000000
# 4 0.000000 0.000000 -0.000001 0.026617 0.000000 -0.004154
# 5 -0.002254 0.004152 -0.000196 0.000000 0.018428 0.000000
# 6 0.000000 0.000000 0.000000 -0.004154 0.000000 0.057090
#
#
# Mechanical properties :
#
#
# Convention : Reuss Voigt Hill
#
# Bulk Modulus (GPa) = 23.92553 68.43387 46.17970
# Shear Modulus (GPa) = 21.00470 36.66098 28.83284
#
# Velocity S-wave (km/s) = 2.92549 3.86494 3.42755
# Velocity P-wave (km/s) = 4.59999 6.91381 5.87200
#
# Compressibility (1/GPa) = 0.04179635
#
# Stress axis : x y z
#
# Youngs Moduli (GPa) = 122.58643 16.65909 72.98976
#
# Poissons Ratio (x) = -0.02440 0.34171
# Poissons Ratio (y) = -0.17953 1.22823
# Poissons Ratio (z) = 0.57390 0.28033
#
# Static dielectric constant tensor:
#      x y z
#    x 2.084560 0.000000 -0.001540 
#    y 0.000000 1.903990 0.000000 
#    z -0.001540 0.000000 1.979730 
# 
# From -- ./inp_files/38901.got.cif
#   From: 2010.05.17/outbox.cif.g08.bks.cpg/sg5_20_cif.got.tgz:38901.got - 2010.06.03 18:56:24.
