data_PCOD9122663
_publ_section_title
;
Structure prediction by ZEFSAII (Michael W. Deem and Ramdas Pophale) SiO2 
 PCOD9122663
Probable space group: C 2
;
_chemical_formula_sum "Si O2"
_cell_formula_units_Z 30
_cell_length_a 7.053069
_cell_length_b 33.986688
_cell_length_c 5.401807
_cell_angle_alpha 90.000000
_cell_angle_beta 76.622790
_cell_angle_gamma 90.000000
_cell_volume 1259.737190
_symmetry_space_group_name_H-M "C 2"
_symmetry_group_IT_number 5
_symmetry_cell_setting 'monoclinic'
loop_
_space_group_symop_operation_xyz
x,y,z
-x,y,-z
1/2+x,1/2+y,z
1/2-x,1/2+y,-z
loop_
_atom_site_type_symbol
_atom_site_label
_atom_site_fract_x
_atom_site_fract_y
_atom_site_fract_z
Si Si1 0.762849 0.125000 0.562480
Si Si2 0.288882 0.427058 0.926797
Si Si3 0.264045 0.580404 0.055877
Si Si4 0.129149 0.843764 0.209198
Si Si5 0.173827 0.499329 0.257586
Si Si6 0.739259 0.715423 0.424894
Si Si7 0.500000 0.479228 0.500000
Si Si8 0.268806 0.756884 0.077108
O O1 0.704549 0.104540 0.321493
O O2 0.700393 0.170157 0.615699
O O3 0.000000 0.125590 0.500000
O O4 0.703131 0.100804 0.820701
O O5 0.237682 0.382750 0.866152
O O6 0.336662 0.451546 0.668057
O O7 0.500000 0.424553 0.000000
O O8 0.164553 0.456125 0.135831
O O9 0.186319 0.535985 0.073145
O O10 0.500000 0.580121 0.000000
O O11 0.233595 0.801938 0.166232
O O12 0.000000 0.847828 0.500000
O O13 0.000000 0.842844 0.000000
O O14 0.382577 0.502903 0.333546
O O15 0.000000 0.504482 0.500000
O O16 0.500000 0.716232 0.500000
O O17 0.804875 0.730987 0.672289
O O18 0.800250 0.743003 0.174403
O O19 0.500000 0.750938 0.000000
#
# Coordination Sequence:
#
# PCOD9122663 Si02
#       8
#     4   4   4   4   4   4   2   4
#     4   9  18  32  58  89 117 161 212 259 310 377
#     4   9  20  40  62  87 117 165 212 263 315 378
#     4  10  20  35  59  89 124 159 212 269 313 376
#     4  11  22  40  63  89 122 164 210 256 315 380
#     4  11  25  41  62  96 128 171 218 266 329 393
#     4   9  17  33  56  86 124 158 204 257 313 369
#     4  10  20  42  68  82 126 170 212 270 318 378
#     4  10  20  35  58  90 125 157 200 262 307 371
#
# _framework density 23.814488000000001
#
# number of rings (size 3 to 8) (size 9 to 14) (size 15 to 20)
#    0.000    2.133    0.667    2.800    4.667    3.733 
#    2.400    0.667    0.000    8.000    0.000    0.000 
#    0.000    0.000    0.000    0.000    0.000    0.000 
#
# Total GULP energy -83916.173413 kJ/mol
# GULP energy per Si atom -5594.411561 kJ/mol
# Density = 2.376028 g / cm^3
# Si number density = 23.814488 Si / 1000 Ang^3
#
#
#
# Elastic Constant Matrix: (Units=GPa)
#
#
# Indices 1 2 3 4 5 6 
#
# 1 71.1717 14.2665 33.8080 0.0000 6.0413 0.0000
# 2 14.2665 190.1755 90.4722 0.0000 -3.7582 0.0000
# 3 33.8080 90.4722 181.6170 0.0000 3.7958 0.0000
# 4 0.0000 0.0000 0.0000 50.7223 0.0000 1.9296
# 5 6.0413 -3.7582 3.7958 0.0000 45.6157 0.0000
# 6 0.0000 0.0000 0.0000 1.9296 0.0000 5.6287
#
#
#
# Elastic Compliance Matrix: (Units=1/GPa)
#
#
# Indices 1 2 3 4 5 6 
#
# 1 0.015570 0.000206 -0.002963 0.000000 -0.001798 0.000000
# 2 0.000206 0.006928 -0.003507 0.000000 0.000835 0.000000
# 3 -0.002963 -0.003507 0.007816 0.000000 -0.000547 0.000000
# 4 0.000000 0.000000 0.000000 0.019976 0.000000 -0.006848
# 5 -0.001798 0.000835 -0.000547 0.000000 0.022275 0.000000
# 6 0.000000 0.000000 0.000000 -0.006848 0.000000 0.180008
#
#
# Mechanical properties :
#
#
# Convention : Reuss Voigt Hill
#
# Bulk Modulus (GPa) = 56.22641 80.00641 68.11641
# Shear Modulus (GPa) = 18.44828 40.68785 29.56806
#
# Velocity S-wave (km/s) = 2.78630 4.13793 3.52746
# Velocity P-wave (km/s) = 5.83204 7.51655 6.72723
#
# Compressibility (1/GPa) = 0.01778524
#
# Stress axis : x y z
#
# Youngs Moduli (GPa) = 64.22803 144.34923 127.94118
#
# Poissons Ratio (x) = -0.02977 0.37915
# Poissons Ratio (y) = -0.01325 0.44867
# Poissons Ratio (z) = 0.19034 0.50621
#
# Static dielectric constant tensor:
#      x y z
#    x 1.964030 0.000000 -0.029840 
#    y 0.000000 1.887530 0.000000 
#    z -0.029840 0.000000 1.851100 
# 
# From -- ./inp_files/3923.got.cif
#   From: 2010.05.17/outbox.cif.g08.bks.cpg/sg5_2_cif.got.tgz:3923.got - 2010.06.03 18:56:24.
