data_PCOD9122245
_publ_section_title
;
Structure prediction by ZEFSAII (Michael W. Deem and Ramdas Pophale) SiO2 
 PCOD9122245
Probable space group: C 2
;
_chemical_formula_sum "Si O2"
_cell_formula_units_Z 32
_cell_length_a 26.350502
_cell_length_b 11.734594
_cell_length_c 7.732203
_cell_angle_alpha 90.000000
_cell_angle_beta 146.378972
_cell_angle_gamma 90.000000
_cell_volume 1323.830970
_symmetry_space_group_name_H-M "C 2"
_symmetry_group_IT_number 5
_symmetry_cell_setting 'monoclinic'
loop_
_space_group_symop_operation_xyz
x,y,z
-x,y,-z
1/2+x,1/2+y,z
1/2-x,1/2+y,-z
loop_
_atom_site_type_symbol
_atom_site_label
_atom_site_fract_x
_atom_site_fract_y
_atom_site_fract_z
Si Si1 0.040234 0.192400 0.797320
Si Si2 0.774398 0.681303 0.819080
Si Si3 0.022074 0.426796 0.358145
Si Si4 0.049730 0.669536 0.464080
Si Si5 0.727755 0.919334 0.807681
Si Si6 0.253444 0.140372 0.376812
Si Si7 0.417696 0.574689 0.664307
Si Si8 0.356592 0.345566 0.486643
O O1 0.000000 0.229481 0.500000
O O2 0.035805 0.319362 0.873758
O O3 0.969882 0.086811 0.633083
O O4 0.144273 0.152903 0.091467
O O5 0.764040 0.817643 0.786741
O O6 0.793382 0.630016 0.684363
O O7 0.675399 0.641485 0.600593
O O8 0.848203 0.643865 0.170815
O O9 0.009121 0.557339 0.258387
O O10 0.127130 0.398062 0.604159
O O11 0.000000 0.446962 0.500000
O O12 0.062775 0.772671 0.371085
O O13 0.000000 0.704178 0.500000
O O14 0.727819 0.035440 0.698239
O O15 0.797654 0.907635 0.167775
O O16 0.294181 0.256663 0.411442
O O17 0.398173 0.454767 0.698602
O O18 0.500000 0.636491 0.000000
#
# Coordination Sequence:
#
# PCOD9122245 Si02
#       8
#     4   4   4   4   4   4   4   4
#     4  11  23  40  71 103 136 182 245 286 344 428
#     4  11  26  45  70 103 149 185 237 299 367 423
#     4  10  19  39  71  99 131 172 241 294 339 403
#     4  10  23  45  71  99 138 187 239 295 354 428
#     4  11  23  45  72 103 139 189 244 293 355 428
#     4  12  26  45  69 109 145 190 232 297 368 426
#     4  12  25  45  67 100 148 186 231 297 361 425
#     4  11  25  41  72  98 139 187 242 290 351 426
#
# _framework density 24.172270999999999
#
# number of rings (size 3 to 8) (size 9 to 14) (size 15 to 20)
#    0.000    1.000    3.750    3.000    5.250    4.500 
#    0.000    0.000    0.000    0.000    0.000    0.000 
#    0.000    0.000    0.000    0.000    0.000    0.000 
#
# Total GULP energy -89284.518308 kJ/mol
# GULP energy per Si atom -5580.282394 kJ/mol
# Density = 2.411725 g / cm^3
# Si number density = 24.172271 Si / 1000 Ang^3
#
#
#
# Elastic Constant Matrix: (Units=GPa)
#
#
# Indices 1 2 3 4 5 6 
#
# 1 88.2407 38.8687 10.9913 0.0000 22.7406 0.0000
# 2 38.8687 123.8128 15.0491 0.0000 9.5735 0.0000
# 3 10.9913 15.0491 51.4159 0.0000 17.8853 0.0000
# 4 0.0000 0.0000 0.0000 29.0527 0.0000 16.8393
# 5 22.7406 9.5735 17.8853 0.0000 38.8612 0.0000
# 6 0.0000 0.0000 0.0000 16.8393 0.0000 51.8850
#
#
#
# Elastic Compliance Matrix: (Units=1/GPa)
#
#
# Indices 1 2 3 4 5 6 
#
# 1 0.015224 -0.004245 0.000861 0.000000 -0.008259 0.000000
# 2 -0.004245 0.009599 -0.002314 0.000000 0.001185 0.000000
# 3 0.000861 -0.002314 0.023716 0.000000 -0.010849 0.000000
# 4 0.000000 0.000000 0.000000 0.042395 0.000000 -0.013760
# 5 -0.008259 0.001185 -0.010849 0.000000 0.035267 0.000000
# 6 0.000000 0.000000 0.000000 -0.013760 0.000000 0.023739
#
#
# Mechanical properties :
#
#
# Convention : Reuss Voigt Hill
#
# Bulk Modulus (GPa) = 26.92319 43.69862 35.31091
# Shear Modulus (GPa) = 28.78223 37.19711 32.98967
#
# Velocity S-wave (km/s) = 3.45441 3.92705 3.69829
# Velocity P-wave (km/s) = 5.20316 6.21929 5.73378
#
# Compressibility (1/GPa) = 0.03714270
#
# Stress axis : x y z
#
# Youngs Moduli (GPa) = 65.68647 104.17617 42.16501
#
# Poissons Ratio (x) = 0.44226 -0.03631
# Poissons Ratio (y) = 0.27886 0.09757
# Poissons Ratio (z) = -0.05656 0.24108
#
# Static dielectric constant tensor:
#      x y z
#    x 1.586450 0.000000 0.047780 
#    y 0.000000 1.991900 0.000000 
#    z 0.047780 0.000000 1.934230 
# 
# From -- ./inp_files/32640.got.cif
#   From: 2010.05.17/outbox.cif.g08.bks.cpg/sg5_17_cif.got.tgz:32640.got - 2010.06.03 18:56:24.
