data_PCOD9122954
_publ_section_title
;
Structure prediction by ZEFSAII (Michael W. Deem and Ramdas Pophale) SiO2 
 PCOD9122954
Probable space group: C 2
;
_chemical_formula_sum "Si O2"
_cell_formula_units_Z 26
_cell_length_a 16.311565
_cell_length_b 7.688888
_cell_length_c 11.535628
_cell_angle_alpha 90.000000
_cell_angle_beta 126.830968
_cell_angle_gamma 90.000000
_cell_volume 1158.007974
_symmetry_space_group_name_H-M "C 2"
_symmetry_group_IT_number 5
_symmetry_cell_setting 'monoclinic'
loop_
_space_group_symop_operation_xyz
x,y,z
-x,y,-z
1/2+x,1/2+y,z
1/2-x,1/2+y,-z
loop_
_atom_site_type_symbol
_atom_site_label
_atom_site_fract_x
_atom_site_fract_y
_atom_site_fract_z
Si Si1 0.191769 0.417810 0.887504
Si Si2 0.660376 0.962744 0.305151
Si Si3 0.264426 0.594016 0.622067
Si Si4 0.612557 0.434980 0.087725
Si Si5 0.000000 0.599243 0.000000
Si Si6 0.595502 0.199667 0.664930
Si Si7 0.208043 0.027180 0.807820
O O1 0.301657 0.490927 0.930912
O O2 0.104416 0.546929 0.767001
O O3 0.182914 0.222361 0.829649
O O4 0.207639 0.435139 0.037546
O O5 0.664089 0.759053 0.337604
O O6 0.695519 0.051680 0.453665
O O7 0.553956 0.001445 0.150542
O O8 0.746276 0.020402 0.283058
O O9 0.333943 0.444849 0.740453
O O10 0.189456 0.656370 0.659710
O O11 0.584758 0.238496 0.028867
O O12 0.500000 0.523471 0.000000
O O13 0.500000 0.192409 0.500000
O O14 0.613085 0.391984 0.730849
#
# Coordination Sequence:
#
# PCOD9122954 Si02
#       7
#     4   4   4   4   2   4   4
#     4  11  21  41  67  90 127 167 208 259 312 368
#     4  11  23  39  62  95 122 169 203 256 311 371
#     4  10  23  41  64  87 130 162 206 255 319 362
#     4   9  20  40  64  90 121 161 207 257 308 362
#     4  10  20  36  66  90 122 156 212 248 310 368
#     4  10  24  43  64  93 125 165 213 259 311 370
#     4  11  22  41  66  89 128 166 208 251 315 371
#
# _framework density 22.452351
#
# number of rings (size 3 to 8) (size 9 to 14) (size 15 to 20)
#    0.462    1.231    3.077    0.923    3.231    3.077 
#    2.769    1.538    0.000    0.000    0.000    0.000 
#    0.000    0.000    0.000    0.000    0.000    0.000 
#
# Total GULP energy -72493.281307 kJ/mol
# GULP energy per Si atom -5576.406254 kJ/mol
# Density = 2.240125 g / cm^3
# Si number density = 22.452351 Si / 1000 Ang^3
#
#
#
# Elastic Constant Matrix: (Units=GPa)
#
#
# Indices 1 2 3 4 5 6 
#
# 1 22.8625 12.5419 9.8614 0.0000 -3.5617 0.0000
# 2 12.5419 109.9800 48.2793 0.0000 7.3659 0.0000
# 3 9.8614 48.2793 162.0562 0.0000 12.2137 0.0000
# 4 0.0000 0.0000 0.0000 35.8692 0.0000 -7.8786
# 5 -3.5617 7.3659 12.2137 0.0000 43.5956 0.0000
# 6 0.0000 0.0000 0.0000 -7.8786 0.0000 12.1999
#
#
#
# Elastic Compliance Matrix: (Units=1/GPa)
#
#
# Indices 1 2 3 4 5 6 
#
# 1 0.048117 -0.005040 -0.001825 0.000000 0.005294 0.000000
# 2 -0.005040 0.011024 -0.002867 0.000000 -0.001471 0.000000
# 3 -0.001825 -0.002867 0.007264 0.000000 -0.001700 0.000000
# 4 0.000000 0.000000 0.000000 0.032487 0.000000 0.020980
# 5 0.005294 -0.001471 -0.001700 0.000000 0.024095 0.000000
# 6 0.000000 0.000000 0.000000 0.020980 0.000000 0.095517
#
#
# Mechanical properties :
#
#
# Convention : Reuss Voigt Hill
#
# Bulk Modulus (GPa) = 21.30375 48.47375 34.88875
# Shear Modulus (GPa) = 19.71481 33.28067 26.49774
#
# Velocity S-wave (km/s) = 2.96645 3.85422 3.43910
# Velocity P-wave (km/s) = 4.60891 6.43763 5.59845
#
# Compressibility (1/GPa) = 0.04694010
#
# Stress axis : x y z
#
# Youngs Moduli (GPa) = 20.78274 90.70831 137.66638
#
# Poissons Ratio (x) = 0.45721 0.25129
# Poissons Ratio (y) = 0.10475 0.39465
# Poissons Ratio (z) = 0.03794 0.26004
#
# Static dielectric constant tensor:
#      x y z
#    x 1.896820 0.000000 0.034080 
#    y 0.000000 1.893260 0.000000 
#    z 0.034080 0.000000 1.824950 
# 
# From -- ./inp_files/46168.got.cif
#   From: 2010.05.17/outbox.cif.g08.bks.cpg/sg5_24_cif.got.tgz:46168.got - 2010.06.03 18:56:24.
