data_PCOD9122175
_publ_section_title
;
Structure prediction by ZEFSAII (Michael W. Deem and Ramdas Pophale) SiO2 
 PCOD9122175
Probable space group: C 2
;
_chemical_formula_sum "Si O2"
_cell_formula_units_Z 20
_cell_length_a 12.775894
_cell_length_b 9.014003
_cell_length_c 16.376066
_cell_angle_alpha 90.000000
_cell_angle_beta 152.865797
_cell_angle_gamma 90.000000
_cell_volume 860.114023
_symmetry_space_group_name_H-M "C 2"
_symmetry_group_IT_number 5
_symmetry_cell_setting 'monoclinic'
loop_
_space_group_symop_operation_xyz
x,y,z
-x,y,-z
1/2+x,1/2+y,z
1/2-x,1/2+y,-z
loop_
_atom_site_type_symbol
_atom_site_label
_atom_site_fract_x
_atom_site_fract_y
_atom_site_fract_z
Si Si1 0.237523 0.045920 0.479478
Si Si2 0.302903 0.268672 0.649386
Si Si3 0.744056 0.757989 0.325908
Si Si4 0.094250 0.504936 0.854913
Si Si5 0.097106 0.974593 0.152869
O O1 0.150079 0.143889 0.496183
O O2 0.237926 0.154848 0.402799
O O3 0.136056 0.890691 0.377904
O O4 0.489083 0.000133 0.689310
O O5 0.238778 0.363224 0.684369
O O6 0.517083 0.168876 0.827444
O O7 0.549795 0.881830 0.196929
O O8 0.700335 0.639835 0.223684
O O9 0.000000 0.822741 0.500000
O O10 0.363249 0.488437 0.043536
O O11 0.000000 0.921091 0.000000
#
# Coordination Sequence:
#
# PCOD9122175 Si02
#       5
#     4   4   4   4   4
#     4   9  17  36  62  87 118 162 210 250 310 359
#     4   9  19  36  63  87 121 162 208 257 305 371
#     4  11  22  39  64  93 125 166 211 257 310 380
#     4  10  19  39  61  92 122 165 208 256 320 360
#     4  11  23  38  62  93 129 166 208 254 319 378
#
# _framework density 23.252732000000002
#
# number of rings (size 3 to 8) (size 9 to 14) (size 15 to 20)
#    1.200    0.800    2.000    2.400    0.000    0.000 
#    0.000    9.000    0.000    0.000    0.000    0.000 
#    0.000    0.000    0.000    0.000    0.000    0.000 
#
# Total GULP energy -55679.343615 kJ/mol
# GULP energy per Si atom -5567.934362 kJ/mol
# Density = 2.319981 g / cm^3
# Si number density = 23.252732 Si / 1000 Ang^3
#
#
#
# Elastic Constant Matrix: (Units=GPa)
#
#
# Indices 1 2 3 4 5 6 
#
# 1 36.2245 28.3810 20.5648 0.0012 -3.9528 0.0005
# 2 28.3810 134.2841 24.6662 0.0034 -5.9452 0.0017
# 3 20.5648 24.6662 98.4888 0.0046 2.9843 0.0025
# 4 0.0012 0.0034 0.0046 34.6182 0.0020 -5.3343
# 5 -3.9528 -5.9452 2.9843 0.0020 49.1391 0.0007
# 6 0.0005 0.0017 0.0025 -5.3343 0.0007 20.6811
#
#
#
# Elastic Compliance Matrix: (Units=1/GPa)
#
#
# Indices 1 2 3 4 5 6 
#
# 1 0.036382 -0.006466 -0.006053 0.000000 0.002512 0.000000
# 2 -0.006466 0.009011 -0.000926 -0.000001 0.000626 -0.000001
# 3 -0.006053 -0.000926 0.011689 -0.000001 -0.001309 -0.000002
# 4 0.000000 -0.000001 -0.000001 0.030082 -0.000001 0.007759
# 5 0.002512 0.000626 -0.001309 -0.000001 0.020708 -0.000001
# 6 0.000000 -0.000001 -0.000002 0.007759 -0.000001 0.050355
#
#
# Mechanical properties :
#
#
# Convention : Reuss Voigt Hill
#
# Bulk Modulus (GPa) = 33.12144 46.24681 39.68412
# Shear Modulus (GPa) = 25.61714 33.91339 29.76527
#
# Velocity S-wave (km/s) = 3.32276 3.82313 3.58170
# Velocity P-wave (km/s) = 5.38480 6.27857 5.84878
#
# Compressibility (1/GPa) = 0.03019193
#
# Stress axis : x y z
#
# Youngs Moduli (GPa) = 27.48577 110.97170 85.55126
#
# Poissons Ratio (x) = 0.71758 0.51788
# Poissons Ratio (y) = 0.17773 0.07919
# Poissons Ratio (z) = 0.16638 0.10272
#
# Static dielectric constant tensor:
#      x y z
#    x 1.960700 0.000000 -0.006980 
#    y 0.000000 1.893610 0.000000 
#    z -0.006980 0.000000 1.831650 
# 
# From -- ./inp_files/32418.got.cif
#   From: 2010.05.17/outbox.cif.g08.bks.cpg/sg5_17_cif.got.tgz:32418.got - 2010.06.03 18:56:24.
