data_PCOD9122396
_publ_section_title
;
Structure prediction by ZEFSAII (Michael W. Deem and Ramdas Pophale) SiO2 
 PCOD9122396
Probable space group: C 2
;
_chemical_formula_sum "Si O2"
_cell_formula_units_Z 32
_cell_length_a 14.464995
_cell_length_b 10.892766
_cell_length_c 13.899933
_cell_angle_alpha 90.000000
_cell_angle_beta 36.218586
_cell_angle_gamma 90.000000
_cell_volume 1294.074266
_symmetry_space_group_name_H-M "C 2"
_symmetry_group_IT_number 5
_symmetry_cell_setting 'monoclinic'
loop_
_space_group_symop_operation_xyz
x,y,z
-x,y,-z
1/2+x,1/2+y,z
1/2-x,1/2+y,-z
loop_
_atom_site_type_symbol
_atom_site_label
_atom_site_fract_x
_atom_site_fract_y
_atom_site_fract_z
Si Si1 0.355198 0.865820 0.977992
Si Si2 0.764714 0.122711 0.968225
Si Si3 0.565973 0.029578 0.551907
Si Si4 0.180441 0.669922 0.821976
Si Si5 0.193972 0.392734 0.753436
Si Si6 0.926403 0.042840 0.321680
Si Si7 0.353558 0.770187 0.504586
Si Si8 0.929741 0.794207 0.405796
O O1 0.249285 0.759373 0.022047
O O2 0.542343 0.843318 0.824340
O O3 0.315888 0.867843 0.125071
O O4 0.334624 0.997420 0.942470
O O5 0.755864 0.145195 0.861178
O O6 0.936391 0.085826 0.863136
O O7 0.500000 0.036297 0.500000
O O8 0.755666 0.037068 0.414393
O O9 0.536810 0.887782 0.604593
O O10 0.500728 0.157389 0.650146
O O11 0.181711 0.541455 0.760677
O O12 0.282846 0.761726 0.671338
O O13 0.000000 0.703305 0.000000
O O14 0.343540 0.331022 0.578213
O O15 0.999727 0.921361 0.309492
O O16 0.918232 0.141335 0.414458
O O17 0.205709 0.784371 0.559842
#
# Coordination Sequence:
#
# PCOD9122396 Si02
#       8
#     4   4   4   4   4   4   4   4
#     4  10  22  43  69  96 133 179 230 274 332 402
#     4  11  24  42  68 102 132 181 231 279 336 397
#     4  10  23  40  59  96 138 168 207 264 352 397
#     4  11  22  43  69  98 128 181 236 263 325 412
#     4  10  19  44  72  92 130 184 227 268 332 417
#     4  10  22  42  67  97 130 176 224 277 328 399
#     4  10  22  41  67  98 136 173 217 282 332 394
#     4  10  21  42  69  98 133 169 221 281 336 402
#
# _framework density 24.728103000000001
#
# number of rings (size 3 to 8) (size 9 to 14) (size 15 to 20)
#    0.000    1.750    3.750    1.500    1.750    4.000 
#    2.250    1.250    0.000    0.000    0.000    0.000 
#    0.000    0.000    0.000    0.000    0.000    0.000 
#
# Total GULP energy -89231.827941 kJ/mol
# GULP energy per Si atom -5576.989246 kJ/mol
# Density = 2.467182 g / cm^3
# Si number density = 24.728103 Si / 1000 Ang^3
#
#
#
# Elastic Constant Matrix: (Units=GPa)
#
#
# Indices 1 2 3 4 5 6 
#
# 1 106.3775 55.1554 24.6467 0.0000 -15.7080 0.0000
# 2 55.1554 208.6398 35.8357 0.0000 15.9842 0.0000
# 3 24.6467 35.8357 41.9215 0.0000 -8.1600 0.0000
# 4 0.0000 0.0000 0.0000 33.8340 0.0000 6.5829
# 5 -15.7080 15.9842 -8.1600 0.0000 28.6548 0.0000
# 6 0.0000 0.0000 0.0000 6.5829 0.0000 58.0998
#
#
#
# Elastic Compliance Matrix: (Units=1/GPa)
#
#
# Indices 1 2 3 4 5 6 
#
# 1 0.013221 -0.003614 -0.003049 0.000000 0.008395 0.000000
# 2 -0.003614 0.007296 -0.005600 0.000000 -0.007646 0.000000
# 3 -0.003049 -0.005600 0.032519 0.000000 0.010713 0.000000
# 4 0.000000 0.000000 0.000000 0.030222 0.000000 -0.003424
# 5 0.008395 -0.007646 0.010713 0.000000 0.046816 0.000000
# 6 0.000000 0.000000 0.000000 -0.003424 0.000000 0.017600
#
#
# Mechanical properties :
#
#
# Convention : Reuss Voigt Hill
#
# Bulk Modulus (GPa) = 35.07688 65.35715 50.21702
# Shear Modulus (GPa) = 27.51728 40.20445 33.86087
#
# Velocity S-wave (km/s) = 3.33948 4.03657 3.70446
# Velocity P-wave (km/s) = 5.39308 6.94355 6.21684
#
# Compressibility (1/GPa) = 0.02850881
#
# Stress axis : x y z
#
# Youngs Moduli (GPa) = 75.63958 137.05916 30.75120
#
# Poissons Ratio (x) = 0.49540 0.09375
# Poissons Ratio (y) = 0.27340 0.17221
# Poissons Ratio (z) = 0.23061 0.76756
#
# Static dielectric constant tensor:
#      x y z
#    x 1.851480 0.000000 -0.203280 
#    y 0.000000 2.048410 0.000000 
#    z -0.203280 0.000000 1.705670 
# 
# From -- ./inp_files/54567.got.cif
#   From: 2010.05.17/outbox.cif.g08.bks.cpg/sg5_28_cif.got.tgz:54567.got - 2010.06.03 18:56:24.
