data_PCOD9122811
_publ_section_title
;
Structure prediction by ZEFSAII (Michael W. Deem and Ramdas Pophale) SiO2 
 PCOD9122811
Probable space group: C 2
;
_chemical_formula_sum "Si O2"
_cell_formula_units_Z 24
_cell_length_a 22.919772
_cell_length_b 7.601997
_cell_length_c 6.416110
_cell_angle_alpha 90.000000
_cell_angle_beta 71.766055
_cell_angle_gamma 90.000000
_cell_volume 1061.783413
_symmetry_space_group_name_H-M "C 2"
_symmetry_group_IT_number 5
_symmetry_cell_setting 'monoclinic'
loop_
_space_group_symop_operation_xyz
x,y,z
-x,y,-z
1/2+x,1/2+y,z
1/2-x,1/2+y,-z
loop_
_atom_site_type_symbol
_atom_site_label
_atom_site_fract_x
_atom_site_fract_y
_atom_site_fract_z
Si Si1 0.764928 0.689880 0.232309
Si Si2 0.144387 0.996632 0.903823
Si Si3 0.561427 0.018388 0.000769
Si Si4 0.679551 0.847379 0.028690
Si Si5 0.637650 0.235760 0.581559
Si Si6 0.441857 0.338772 0.702917
O O1 0.680058 0.676415 0.880829
O O2 0.701147 0.774370 0.229990
O O3 0.791203 0.690781 0.439896
O O4 0.777753 0.502535 0.111720
O O5 0.186762 0.830013 0.919429
O O6 0.088128 0.991941 0.126295
O O7 0.126382 0.930290 0.694833
O O8 0.400423 0.094711 0.238882
O O9 0.539056 0.186987 0.156881
O O10 0.610330 0.916531 0.086483
O O11 0.500000 0.919188 0.000000
O O12 0.610714 0.252285 0.384572
O O13 0.500000 0.389046 0.500000
#
# Coordination Sequence:
#
# PCOD9122811 Si02
#       6
#     4   4   4   4   4   4
#     4   9  18  35  64  84 115 156 191 246 304 341
#     4   9  21  35  58  88 113 151 200 245 293 349
#     4  10  20  36  58  93 119 162 196 241 295 352
#     4  11  18  38  64  89 119 156 202 243 300 356
#     4   8  18  35  58  84 112 156 198 231 301 341
#     4  11  19  36  62  80 124 160 195 241 296 349
#
# _framework density 22.603477999999999
#
# number of rings (size 3 to 8) (size 9 to 14) (size 15 to 20)
#    1.000    1.333    5.000    0.000    0.000    0.000 
#    3.000    5.833    0.000    0.000    0.000    0.000 
#    0.000    0.000    0.000    0.000    0.000    0.000 
#
# Total GULP energy -66819.099332 kJ/mol
# GULP energy per Si atom -5568.258278 kJ/mol
# Density = 2.255203 g / cm^3
# Si number density = 22.603478 Si / 1000 Ang^3
#
#
#
# Elastic Constant Matrix: (Units=GPa)
#
#
# Indices 1 2 3 4 5 6 
#
# 1 125.4130 14.0057 30.2272 0.0000 29.9598 0.0000
# 2 14.0057 104.3251 8.4492 0.0000 -2.1617 0.0000
# 3 30.2272 8.4492 48.9891 0.0000 6.3627 0.0000
# 4 0.0000 0.0000 0.0000 -1.1843 0.0000 8.3192
# 5 29.9598 -2.1617 6.3627 0.0000 42.4387 0.0000
# 6 0.0000 0.0000 0.0000 8.3192 0.0000 29.2069
#
#
#
# Elastic Compliance Matrix: (Units=1/GPa)
#
#
# Indices 1 2 3 4 5 6 
#
# 1 0.011194 -0.001182 -0.005782 0.000000 -0.007096 0.000000
# 2 -0.001182 0.009870 -0.001170 0.000000 0.001512 0.000000
# 3 -0.005782 -0.001170 0.024129 0.000000 0.000404 0.000000
# 4 0.000000 0.000000 0.000000 -0.281376 0.000000 0.080146
# 5 -0.007096 0.001512 0.000404 0.000000 0.028589 0.000000
# 6 0.000000 0.000000 0.000000 0.080146 0.000000 0.011410
#
#
# Mechanical properties :
#
#
# Convention : Reuss Voigt Hill
#
# Bulk Modulus (GPa) = 34.56876 42.67683 38.62280
# Shear Modulus (GPa) = -29.36436 29.16193 -0.10122
#
# Velocity S-wave (km/s) = -3.60822 3.59577 -0.21184
# Velocity P-wave (km/s) = 1.42558 6.01340 4.13090
#
# Compressibility (1/GPa) = 0.02892785
#
# Stress axis : x y z
#
# Youngs Moduli (GPa) = 89.33134 101.31587 41.44332
#
# Poissons Ratio (x) = 0.11972 0.23961
# Poissons Ratio (y) = 0.10556 0.04847
# Poissons Ratio (z) = 0.51649 0.11850
#
# Static dielectric constant tensor:
#      x y z
#    x 1.948030 0.000000 0.036070 
#    y 0.000000 1.823330 0.000000 
#    z 0.036070 0.000000 1.834550 
# 
# From -- ./inp_files/28566.got.cif
#   From: 2010.05.17/outbox.cif.g08.bks.cpg/sg5_15_cif.got.tgz:28566.got - 2010.06.03 18:56:24.
