data_PCOD9122943
_publ_section_title
;
Structure prediction by ZEFSAII (Michael W. Deem and Ramdas Pophale) SiO2 
 PCOD9122943
Probable space group: C 2
;
_chemical_formula_sum "Si O2"
_cell_formula_units_Z 32
_cell_length_a 27.139264
_cell_length_b 14.539300
_cell_length_c 9.872265
_cell_angle_alpha 90.000000
_cell_angle_beta 154.372656
_cell_angle_gamma 90.000000
_cell_volume 1684.847660
_symmetry_space_group_name_H-M "C 2"
_symmetry_group_IT_number 5
_symmetry_cell_setting 'monoclinic'
loop_
_space_group_symop_operation_xyz
x,y,z
-x,y,-z
1/2+x,1/2+y,z
1/2-x,1/2+y,-z
loop_
_atom_site_type_symbol
_atom_site_label
_atom_site_fract_x
_atom_site_fract_y
_atom_site_fract_z
Si Si1 0.945777 0.964900 0.217886
Si Si2 0.800603 0.127767 0.767983
Si Si3 0.968451 0.813495 0.766031
Si Si4 0.769224 0.358835 0.400606
Si Si5 0.913083 0.525021 0.676087
Si Si6 0.224210 0.329027 0.264809
Si Si7 0.672852 0.175764 0.177650
Si Si8 0.072581 0.501388 0.813714
O O1 0.000000 0.977817 0.500000
O O2 0.019693 0.901240 0.302068
O O3 0.829341 0.905764 0.932589
O O4 0.905161 0.058608 0.045596
O O5 0.840953 0.232045 0.887702
O O6 0.734107 0.128815 0.458939
O O7 0.699396 0.087987 0.613702
O O8 0.833810 0.798852 0.448896
O O9 0.000000 0.833537 0.000000
O O10 0.056794 0.733657 0.932313
O O11 0.874527 0.425622 0.638171
O O12 0.744274 0.357709 0.501312
O O13 0.762559 0.251902 0.347876
O O14 0.983550 0.508667 0.716357
O O15 0.000000 0.568495 0.000000
O O16 0.154224 0.413786 0.033320
O O17 0.642184 0.096509 0.997149
O O18 0.000000 0.494446 0.500000
#
# Coordination Sequence:
#
# PCOD9122943 Si02
#       8
#     4   4   4   4   4   4   4   4
#     4  10  21  36  58  89 125 156 189 241 305 357
#     4  10  20  36  65  89 111 158 208 241 278 366
#     4  11  20  37  66  92 111 152 202 248 296 343
#     4   9  19  36  62  89 111 149 204 249 287 352
#     4  11  19  37  66  86 113 157 203 239 297 366
#     4  11  21  38  61  90 118 151 207 251 286 343
#     4  10  20  37  64  93 114 151 206 254 290 346
#     4  12  26  39  57  90 128 157 194 254 305 345
#
# _framework density 18.992815
#
# number of rings (size 3 to 8) (size 9 to 14) (size 15 to 20)
#    0.000    1.500    6.250    1.500    0.000    4.500 
#    0.000    2.500    0.000    0.000    0.000    0.000 
#    0.000    0.000    0.000    0.000    0.000    0.000 
#
# Total GULP energy -89091.175814 kJ/mol
# GULP energy per Si atom -5568.198488 kJ/mol
# Density = 1.894959 g / cm^3
# Si number density = 18.992815 Si / 1000 Ang^3
#
#
#
# Elastic Constant Matrix: (Units=GPa)
#
#
# Indices 1 2 3 4 5 6 
#
# 1 26.1624 12.7258 10.8726 0.0000 -4.4033 0.0000
# 2 12.7258 130.6786 59.2562 0.0000 -9.1587 0.0000
# 3 10.8726 59.2562 90.8941 0.0000 -23.3384 0.0000
# 4 0.0000 0.0000 0.0000 21.6359 0.0000 5.4883
# 5 -4.4033 -9.1587 -23.3384 0.0000 15.9285 0.0000
# 6 0.0000 0.0000 0.0000 5.4883 0.0000 25.8682
#
#
#
# Elastic Compliance Matrix: (Units=1/GPa)
#
#
# Indices 1 2 3 4 5 6 
#
# 1 0.041486 -0.003108 -0.000722 0.000000 0.008623 0.000000
# 2 -0.003108 0.011551 -0.009096 0.000000 -0.007545 0.000000
# 3 -0.000722 -0.009096 0.025046 0.000000 0.031269 0.000000
# 4 0.000000 0.000000 0.000000 0.048848 0.000000 -0.010364
# 5 0.008623 -0.007545 0.031269 0.000000 0.106642 0.000000
# 6 0.000000 0.000000 0.000000 -0.010364 0.000000 0.040856
#
#
# Mechanical properties :
#
#
# Convention : Reuss Voigt Hill
#
# Bulk Modulus (GPa) = 19.14542 45.93826 32.54184
# Shear Modulus (GPa) = 15.73852 23.67854 19.70853
#
# Velocity S-wave (km/s) = 2.88176 3.53471 3.22480
# Velocity P-wave (km/s) = 4.60163 6.39520 5.57107
#
# Compressibility (1/GPa) = 0.05223182
#
# Stress axis : x y z
#
# Youngs Moduli (GPa) = 24.10442 86.57513 39.92574
#
# Poissons Ratio (x) = 0.26910 0.02882
# Poissons Ratio (y) = 0.07492 0.36315
# Poissons Ratio (z) = 0.01740 0.78745
#
# Static dielectric constant tensor:
#      x y z
#    x 1.566610 0.000000 0.050830 
#    y 0.000000 1.713080 0.000000 
#    z 0.050830 0.000000 1.671050 
# 
# From -- ./inp_files/31967.got.cif
#   From: 2010.05.17/outbox.cif.g08.bks.cpg/sg5_16_cif.got.tgz:31967.got - 2010.06.03 18:56:24.
