data_PCOD9122034
_publ_section_title
;
Structure prediction by ZEFSAII (Michael W. Deem and Ramdas Pophale) SiO2 
 PCOD9122034
Probable space group: C 2
;
_chemical_formula_sum "Si O2"
_cell_formula_units_Z 28
_cell_length_a 12.089485
_cell_length_b 9.172278
_cell_length_c 17.111425
_cell_angle_alpha 90.000000
_cell_angle_beta 142.924516
_cell_angle_gamma 90.000000
_cell_volume 1143.911573
_symmetry_space_group_name_H-M "C 2"
_symmetry_group_IT_number 5
_symmetry_cell_setting 'monoclinic'
loop_
_space_group_symop_operation_xyz
x,y,z
-x,y,-z
1/2+x,1/2+y,z
1/2-x,1/2+y,-z
loop_
_atom_site_type_symbol
_atom_site_label
_atom_site_fract_x
_atom_site_fract_y
_atom_site_fract_z
Si Si1 0.610139 0.333540 0.130921
Si Si2 0.164892 0.068527 0.949399
Si Si3 0.317729 0.207681 0.554637
Si Si4 0.407680 0.074725 0.767698
Si Si5 0.071006 0.321132 0.120451
Si Si6 0.327306 0.075989 0.294776
Si Si7 0.400575 0.526899 0.672531
O O1 0.454602 0.452366 0.068406
O O2 0.651294 0.218333 0.220068
O O3 0.794682 0.428302 0.227272
O O4 0.500000 0.255338 0.000000
O O5 0.090419 0.230376 0.927566
O O6 0.103360 0.032222 0.825631
O O7 0.375052 0.060884 0.091646
O O8 0.348357 0.103810 0.646814
O O9 0.475440 0.145743 0.586431
O O10 0.350515 0.373553 0.601857
O O11 0.133999 0.160471 0.406149
O O12 0.332445 0.930587 0.765906
O O13 0.216585 0.196379 0.182904
O O14 0.000000 0.387512 0.000000
O O15 0.227843 0.048234 0.322097
#
# Coordination Sequence:
#
# PCOD9122034 Si02
#       7
#     4   4   4   4   4   4   4
#     4  10  19  38  57  95 136 167 223 279 333 410
#     4  10  21  40  63  93 130 172 226 280 328 418
#     4  12  24  46  73  94 135 188 218 291 341 401
#     4  12  22  36  66  99 135 170 226 284 341 396
#     4  10  21  35  60  98 135 170 224 273 337 414
#     4  10  22  44  68  91 133 180 223 278 342 409
#     4  10  25  45  68 102 133 173 246 269 338 424
#
# _framework density 24.477416000000002
#
# number of rings (size 3 to 8) (size 9 to 14) (size 15 to 20)
#    0.000    1.714    2.857    5.143    6.000    0.000 
#    0.000    0.000    0.000    0.000    0.000    0.000 
#    0.000    0.000    0.000    0.000    0.000    0.000 
#
# Total GULP energy -78198.049764 kJ/mol
# GULP energy per Si atom -5585.574983 kJ/mol
# Density = 2.442170 g / cm^3
# Si number density = 24.477416 Si / 1000 Ang^3
#
#
#
# Elastic Constant Matrix: (Units=GPa)
#
#
# Indices 1 2 3 4 5 6 
#
# 1 32.5448 22.8925 13.8149 0.0000 -8.4117 0.0000
# 2 22.8925 99.8085 1.1802 0.0000 -15.0312 0.0000
# 3 13.8149 1.1802 113.3026 0.0000 -28.4081 0.0000
# 4 0.0000 0.0000 0.0000 38.2399 0.0000 -11.5648
# 5 -8.4117 -15.0312 -28.4081 0.0000 29.1380 0.0000
# 6 0.0000 0.0000 0.0000 -11.5648 0.0000 14.4833
#
#
#
# Elastic Compliance Matrix: (Units=1/GPa)
#
#
# Indices 1 2 3 4 5 6 
#
# 1 0.039143 -0.008460 -0.003898 0.000000 0.003135 0.000000
# 2 -0.008460 0.012948 0.002593 0.000000 0.006765 0.000000
# 3 -0.003898 0.002593 0.012345 0.000000 0.012248 0.000000
# 4 0.000000 0.000000 0.000000 0.034476 0.000000 0.027529
# 5 0.003135 0.006765 0.012248 0.000000 0.050655 0.000000
# 6 0.000000 0.000000 0.000000 0.027529 0.000000 0.091027
#
#
# Mechanical properties :
#
#
# Convention : Reuss Voigt Hill
#
# Bulk Modulus (GPa) = 22.26938 35.71455 28.99196
# Shear Modulus (GPa) = 18.17564 30.22345 24.19955
#
# Velocity S-wave (km/s) = 2.72793 3.51771 3.14769
# Velocity P-wave (km/s) = 4.36346 5.57867 5.00806
#
# Compressibility (1/GPa) = 0.04490471
#
# Stress axis : x y z
#
# Youngs Moduli (GPa) = 25.54752 77.23392 81.00331
#
# Poissons Ratio (x) = 0.65338 0.31579
# Poissons Ratio (y) = 0.21612 -0.21002
# Poissons Ratio (z) = 0.09960 -0.20025
#
# Static dielectric constant tensor:
#      x y z
#    x 2.062470 0.000000 0.080870 
#    y 0.000000 1.937450 0.000000 
#    z 0.080870 0.000000 2.056090 
# 
# From -- ./inp_files/61477.got.cif
#   From: 2010.05.17/outbox.cif.g08.bks.cpg/sg5_31_cif.got.tgz:61477.got - 2010.06.03 18:56:24.
