data_PCOD9122967
_publ_section_title
;
Structure prediction by ZEFSAII (Michael W. Deem and Ramdas Pophale) SiO2 
 PCOD9122967
Probable space group: C 2
;
_chemical_formula_sum "Si O2"
_cell_formula_units_Z 32
_cell_length_a 12.996074
_cell_length_b 13.155930
_cell_length_c 11.902850
_cell_angle_alpha 90.000000
_cell_angle_beta 135.451442
_cell_angle_gamma 90.000000
_cell_volume 1427.646606
_symmetry_space_group_name_H-M "C 2"
_symmetry_group_IT_number 5
_symmetry_cell_setting 'monoclinic'
loop_
_space_group_symop_operation_xyz
x,y,z
-x,y,-z
1/2+x,1/2+y,z
1/2-x,1/2+y,-z
loop_
_atom_site_type_symbol
_atom_site_label
_atom_site_fract_x
_atom_site_fract_y
_atom_site_fract_z
Si Si1 0.362516 0.266970 0.318022
Si Si2 0.505533 0.733056 0.370703
Si Si3 0.185192 0.047091 0.014595
Si Si4 0.541568 0.989831 0.908087
Si Si5 0.706130 0.880597 0.381986
Si Si6 0.910483 0.015445 0.662429
Si Si7 0.838861 0.529713 0.348686
Si Si8 0.316756 0.771918 0.019399
O O1 0.500000 0.298615 0.500000
O O2 0.230451 0.319139 0.285254
O O3 0.363672 0.145550 0.330269
O O4 0.337625 0.286722 0.166279
O O5 0.500000 0.745545 0.500000
O O6 0.626878 0.807184 0.409237
O O7 0.549542 0.616987 0.375396
O O8 0.356898 0.757373 0.182596
O O9 0.130818 0.163239 0.991449
O O10 0.050662 0.993772 0.849075
O O11 0.246737 0.988550 0.170959
O O12 0.326543 0.053167 0.042958
O O13 0.395595 0.979249 0.720329
O O14 0.597132 0.872945 0.948942
O O15 0.500000 0.022930 0.000000
O O16 0.859029 0.923366 0.545714
O O17 0.768960 0.032248 0.630681
O O18 0.000000 0.485177 0.500000
#
# Coordination Sequence:
#
# PCOD9122967 Si02
#       8
#     4   4   4   4   4   4   4   4
#     4  10  20  36  67  98 123 162 224 287 323 378
#     4  10  23  43  64  92 133 184 219 259 339 412
#     4  10  23  39  64  99 132 173 223 279 331 390
#     4  11  22  39  64  95 130 172 226 269 330 399
#     4  11  23  38  64  97 125 173 223 274 329 394
#     4  11  23  39  65  94 135 175 219 273 338 397
#     4  10  20  40  65  94 127 168 226 274 329 392
#     4   9  21  40  65  89 131 175 222 266 330 397
#
# _framework density 22.414511000000001
#
# number of rings (size 3 to 8) (size 9 to 14) (size 15 to 20)
#    0.000    1.750    2.500    1.125    1.750    5.000 
#    0.000    0.000    0.000    1.500    0.000    0.000 
#    0.000    0.000    0.000    0.000    0.000    0.000 
#
# Total GULP energy -89208.811807 kJ/mol
# GULP energy per Si atom -5575.550738 kJ/mol
# Density = 2.236349 g / cm^3
# Si number density = 22.414511 Si / 1000 Ang^3
#
#
#
# Elastic Constant Matrix: (Units=GPa)
#
#
# Indices 1 2 3 4 5 6 
#
# 1 81.5468 19.8350 42.9573 0.0000 -20.9339 0.0000
# 2 19.8350 65.5449 36.5507 0.0000 -2.2358 0.0000
# 3 42.9573 36.5507 213.8935 0.0000 -12.6429 0.0000
# 4 0.0000 0.0000 0.0000 23.7586 0.0000 -1.0682
# 5 -20.9339 -2.2358 -12.6429 0.0000 37.9142 0.0000
# 6 0.0000 0.0000 0.0000 -1.0682 0.0000 19.3607
#
#
#
# Elastic Compliance Matrix: (Units=1/GPa)
#
#
# Indices 1 2 3 4 5 6 
#
# 1 0.016340 -0.003433 -0.002218 0.000000 0.008080 0.000000
# 2 -0.003433 0.017585 -0.002414 0.000000 -0.001663 0.000000
# 3 -0.002218 -0.002414 0.005562 0.000000 0.000488 0.000000
# 4 0.000000 0.000000 0.000000 0.042195 0.000000 0.002328
# 5 0.008080 -0.001663 0.000488 0.000000 0.030901 0.000000
# 6 0.000000 0.000000 0.000000 0.002328 0.000000 0.051779
#
#
# Mechanical properties :
#
#
# Convention : Reuss Voigt Hill
#
# Bulk Modulus (GPa) = 42.81011 62.18569 52.49790
# Shear Modulus (GPa) = 26.55664 33.64951 30.10307
#
# Velocity S-wave (km/s) = 3.44582 3.87878 3.66870
# Velocity P-wave (km/s) = 5.91374 6.91836 6.43568
#
# Compressibility (1/GPa) = 0.02335897
#
# Stress axis : x y z
#
# Youngs Moduli (GPa) = 61.19859 56.86720 179.79444
#
# Poissons Ratio (x) = 0.19520 0.39870
# Poissons Ratio (y) = 0.21007 0.43400
# Poissons Ratio (z) = 0.13571 0.13727
#
# Static dielectric constant tensor:
#      x y z
#    x 1.837210 0.000000 0.025040 
#    y 0.000000 1.815520 0.000000 
#    z 0.025040 0.000000 1.957460 
# 
# From -- ./inp_files/43104.got.cif
#   From: 2010.05.17/outbox.cif.g08.bks.cpg/sg5_22_cif.got.tgz:43104.got - 2010.06.03 18:56:24.
