data_PCOD9122805
_publ_section_title
;
Structure prediction by ZEFSAII (Michael W. Deem and Ramdas Pophale) SiO2 
 PCOD9122805
Probable space group: C 2
;
_chemical_formula_sum "Si O2"
_cell_formula_units_Z 24
_cell_length_a 15.096825
_cell_length_b 7.742542
_cell_length_c 13.760361
_cell_angle_alpha 90.000000
_cell_angle_beta 139.421494
_cell_angle_gamma 90.000000
_cell_volume 1046.258985
_symmetry_space_group_name_H-M "C 2"
_symmetry_group_IT_number 5
_symmetry_cell_setting 'monoclinic'
loop_
_space_group_symop_operation_xyz
x,y,z
-x,y,-z
1/2+x,1/2+y,z
1/2-x,1/2+y,-z
loop_
_atom_site_type_symbol
_atom_site_label
_atom_site_fract_x
_atom_site_fract_y
_atom_site_fract_z
Si Si1 0.694388 0.543760 0.833578
Si Si2 0.409978 0.181911 0.164120
Si Si3 0.366364 0.002149 0.331564
Si Si4 0.319335 0.358068 0.681279
Si Si5 0.158973 0.888018 0.615440
Si Si6 0.108070 0.125626 0.403538
O O1 0.645545 0.361458 0.838331
O O2 0.740351 0.495069 0.763385
O O3 0.553302 0.651176 0.715110
O O4 0.809395 0.621201 0.996370
O O5 0.400852 0.050969 0.248806
O O6 0.557103 0.227549 0.241179
O O7 0.500000 0.938756 0.500000
O O8 0.331777 0.187000 0.354216
O O9 0.239188 0.882942 0.257868
O O10 0.192022 0.286542 0.512647
O O11 0.369015 0.546422 0.683980
O O12 0.000000 0.927339 0.500000
O O13 0.170670 0.967157 0.519753
#
# Coordination Sequence:
#
# PCOD9122805 Si02
#       6
#     4   4   4   4   4   4
#     4   9  20  38  59  83 122 171 208 258 325 376
#     4  10  22  40  61  90 126 165 213 263 317 383
#     4  10  20  38  63  91 125 166 209 265 326 376
#     4  11  22  37  63  94 125 164 214 267 314 380
#     4   8  16  35  60  83 116 160 207 257 314 374
#     4  10  20  36  58  89 121 160 214 264 315 381
#
# _framework density 22.938870000000001
#
# number of rings (size 3 to 8) (size 9 to 14) (size 15 to 20)
#    0.000    2.333    0.000    5.000    0.000    6.000 
#    0.000    7.500    0.000    8.000    0.000    0.000 
#    0.000    0.000    0.000    0.000    0.000    0.000 
#
# Total GULP energy -66939.826001 kJ/mol
# GULP energy per Si atom -5578.318833 kJ/mol
# Density = 2.288666 g / cm^3
# Si number density = 22.938870 Si / 1000 Ang^3
#
#
#
# Elastic Constant Matrix: (Units=GPa)
#
#
# Indices 1 2 3 4 5 6 
#
# 1 134.4919 27.8128 67.4069 0.0000 9.0999 0.0000
# 2 27.8128 42.3053 6.4247 0.0000 7.9051 0.0000
# 3 67.4069 6.4247 122.1302 0.0000 2.2501 0.0000
# 4 0.0000 0.0000 0.0000 39.0648 0.0000 -0.0291
# 5 9.0999 7.9051 2.2501 0.0000 24.3147 0.0000
# 6 0.0000 0.0000 0.0000 -0.0291 0.0000 24.6770
#
#
#
# Elastic Compliance Matrix: (Units=1/GPa)
#
#
# Indices 1 2 3 4 5 6 
#
# 1 0.012083 -0.006657 -0.006286 0.000000 -0.001776 0.000000
# 2 -0.006657 0.029004 0.002280 0.000000 -0.007149 0.000000
# 3 -0.006286 0.002280 0.011527 0.000000 0.000544 0.000000
# 4 0.000000 0.000000 0.000000 0.025599 0.000000 0.000030
# 5 -0.001776 -0.007149 0.000544 0.000000 0.044066 0.000000
# 6 0.000000 0.000000 0.000000 0.000030 0.000000 0.040524
#
#
# Mechanical properties :
#
#
# Convention : Reuss Voigt Hill
#
# Bulk Modulus (GPa) = 31.96071 55.80180 43.88126
# Shear Modulus (GPa) = 25.69943 30.76350 28.23146
#
# Velocity S-wave (km/s) = 3.35079 3.66609 3.51198
# Velocity P-wave (km/s) = 5.37900 6.50380 5.96795
#
# Compressibility (1/GPa) = 0.03128842
#
# Stress axis : x y z
#
# Youngs Moduli (GPa) = 82.76321 34.47817 86.75043
#
# Poissons Ratio (x) = 0.22952 0.54530
# Poissons Ratio (y) = 0.55096 -0.19781
# Poissons Ratio (z) = 0.52024 -0.07862
#
# Static dielectric constant tensor:
#      x y z
#    x 1.948770 0.000000 -0.041570 
#    y 0.000000 1.911740 0.000000 
#    z -0.041570 0.000000 1.819690 
# 
# From -- ./inp_files/54248.got.cif
#   From: 2010.05.17/outbox.cif.g08.bks.cpg/sg5_28_cif.got.tgz:54248.got - 2010.06.03 18:56:24.
