data_PCOD9122593
_publ_section_title
;
Structure prediction by ZEFSAII (Michael W. Deem and Ramdas Pophale) SiO2 
 PCOD9122593
Probable space group: C 2
;
_chemical_formula_sum "Si O2"
_cell_formula_units_Z 30
_cell_length_a 5.304827
_cell_length_b 26.468880
_cell_length_c 12.204202
_cell_angle_alpha 90.000000
_cell_angle_beta 51.276905
_cell_angle_gamma 90.000000
_cell_volume 1336.934267
_symmetry_space_group_name_H-M "C 2"
_symmetry_group_IT_number 5
_symmetry_cell_setting 'monoclinic'
loop_
_space_group_symop_operation_xyz
x,y,z
-x,y,-z
1/2+x,1/2+y,z
1/2-x,1/2+y,-z
loop_
_atom_site_type_symbol
_atom_site_label
_atom_site_fract_x
_atom_site_fract_y
_atom_site_fract_z
Si Si1 0.064362 0.541190 0.854191
Si Si2 0.806651 0.209652 0.962574
Si Si3 0.262263 0.403810 0.255540
Si Si4 0.305107 0.632894 0.655204
Si Si5 0.868860 0.818466 0.917325
Si Si6 0.000000 0.965098 0.000000
Si Si7 0.398043 0.455345 0.648359
Si Si8 0.693218 0.199833 0.345554
O O1 0.103248 0.592141 0.776565
O O2 0.355071 0.504495 0.737858
O O3 0.780283 0.504020 0.895509
O O4 0.000000 0.549527 0.000000
O O5 0.049377 0.228330 0.801713
O O6 0.500000 0.181026 0.000000
O O7 0.658422 0.257651 0.067851
O O8 0.000000 0.178678 0.000000
O O9 0.368521 0.345035 0.230364
O O10 0.337633 0.424057 0.355672
O O11 0.920184 0.419700 0.292801
O O12 0.525363 0.430128 0.100688
O O13 0.500000 0.609307 0.500000
O O14 0.575272 0.658072 0.659965
O O15 0.070136 0.674426 0.663274
O O16 0.500000 0.835620 0.000000
O O17 0.000000 0.832745 0.000000
O O18 0.500000 0.472190 0.500000
O O19 0.500000 0.224702 0.500000
#
# Coordination Sequence:
#
# PCOD9122593 Si02
#       8
#     4   4   4   4   4   2   4   4
#     4  11  23  38  57  89 124 161 206 260 307 351
#     4  10  21  38  62  97 121 151 202 250 311 364
#     4  11  21  37  63  88 121 161 207 249 308 364
#     4  10  23  40  61  86 122 166 204 245 304 368
#     4  10  20  34  61  92 119 152 191 252 301 365
#     4  10  22  36  56  92 120 164 198 258 308 356
#     4  11  24  40  60  86 123 171 216 252 302 364
#     4  10  22  42  64  89 122 165 202 246 311 381
#
# _framework density 22.439395999999999
#
# number of rings (size 3 to 8) (size 9 to 14) (size 15 to 20)
#    0.000    1.600    2.000    2.400    3.733    1.600 
#    0.000    2.667    0.000   19.200    0.000    0.000 
#    0.000    0.000    0.000    0.000    0.000    0.000 
#
# Total GULP energy -83552.359795 kJ/mol
# GULP energy per Si atom -5570.157320 kJ/mol
# Density = 2.238832 g / cm^3
# Si number density = 22.439396 Si / 1000 Ang^3
#
#
#
# Elastic Constant Matrix: (Units=GPa)
#
#
# Indices 1 2 3 4 5 6 
#
# 1 131.1395 4.7426 14.4733 0.0000 7.8624 0.0000
# 2 4.7426 49.5031 27.1308 0.0000 4.5695 0.0000
# 3 14.4733 27.1308 128.9160 0.0000 13.0763 0.0000
# 4 0.0000 0.0000 0.0000 10.1251 0.0000 60.7106
# 5 7.8624 4.5695 13.0763 0.0000 35.5599 0.0000
# 6 0.0000 0.0000 0.0000 60.7106 0.0000 -64.6440
#
#
#
# Elastic Compliance Matrix: (Units=1/GPa)
#
#
# Indices 1 2 3 4 5 6 
#
# 1 0.007796 -0.000242 -0.000678 0.000000 -0.001443 0.000000
# 2 -0.000242 0.022892 -0.004672 0.000000 -0.001170 0.000000
# 3 -0.000678 -0.004672 0.009079 0.000000 -0.002588 0.000000
# 4 0.000000 0.000000 0.000000 0.014894 0.000000 0.013988
# 5 -0.001443 -0.001170 -0.002588 0.000000 0.029543 0.000000
# 6 0.000000 0.000000 0.000000 0.013988 0.000000 -0.002333
#
#
# Mechanical properties :
#
#
# Convention : Reuss Voigt Hill
#
# Bulk Modulus (GPa) = 34.98571 44.69466 39.84018
# Shear Modulus (GPa) = 48.74139 13.75567 31.24853
#
# Velocity S-wave (km/s) = 4.66567 2.47860 3.73577
# Velocity P-wave (km/s) = 6.68204 5.30589 6.03333
#
# Compressibility (1/GPa) = 0.02858310
#
# Stress axis : x y z
#
# Youngs Moduli (GPa) = 128.27812 43.68251 110.14617
#
# Poissons Ratio (x) = 0.01058 0.07466
# Poissons Ratio (y) = 0.03106 0.51459
# Poissons Ratio (z) = 0.08695 0.20408
#
# Static dielectric constant tensor:
#      x y z
#    x 2.251730 0.000000 -0.182390 
#    y 0.000000 1.831360 0.000000 
#    z -0.182390 0.000000 1.990630 
# 
# From -- ./inp_files/34449.got.cif
#   From: 2010.05.17/outbox.cif.g08.bks.cpg/sg5_18_cif.got.tgz:34449.got - 2010.06.03 18:56:24.
