data_PCOD9122133
_publ_section_title
;
Structure prediction by ZEFSAII (Michael W. Deem and Ramdas Pophale) SiO2 
 PCOD9122133
Probable space group: C 2
;
_chemical_formula_sum "Si O2"
_cell_formula_units_Z 26
_cell_length_a 18.084215
_cell_length_b 5.198313
_cell_length_c 22.559482
_cell_angle_alpha 90.000000
_cell_angle_beta 35.589847
_cell_angle_gamma 90.000000
_cell_volume 1234.236634
_symmetry_space_group_name_H-M "C 2"
_symmetry_group_IT_number 5
_symmetry_cell_setting 'monoclinic'
loop_
_space_group_symop_operation_xyz
x,y,z
-x,y,-z
1/2+x,1/2+y,z
1/2-x,1/2+y,-z
loop_
_atom_site_type_symbol
_atom_site_label
_atom_site_fract_x
_atom_site_fract_y
_atom_site_fract_z
Si Si1 0.000000 0.425061 0.500000
Si Si2 0.080177 0.861790 0.667542
Si Si3 0.198099 0.781214 0.301509
Si Si4 0.352382 0.049940 0.781466
Si Si5 0.806621 0.358237 0.933858
Si Si6 0.895450 0.374401 0.273160
Si Si7 0.018626 0.152590 0.601666
O O1 0.105036 0.597409 0.399630
O O2 0.931340 0.265494 0.492522
O O3 0.136147 0.607756 0.661359
O O4 0.928953 0.791164 0.760353
O O5 0.111629 0.101866 0.688586
O O6 0.105277 0.959651 0.583790
O O7 0.233380 0.634733 0.217734
O O8 0.308006 0.872786 0.272592
O O9 0.107901 0.008647 0.337869
O O10 0.284058 0.899980 0.878329
O O11 0.466771 0.877373 0.678633
O O12 0.957685 0.400277 0.841668
O O13 0.734088 0.580771 0.016590
#
# Coordination Sequence:
#
# PCOD9122133 Si02
#       7
#     2   4   4   4   4   4   4
#     4  10  22  40  66  98 124 172 230 258 320 378
#     4  10  19  38  66  90 125 168 218 252 317 397
#     4  10  23  39  70  92 137 169 215 268 319 397
#     4   9  20  39  66  91 125 181 208 254 334 388
#     4  11  22  39  67  96 128 168 224 267 311 391
#     4  11  23  40  67  99 126 172 213 265 334 371
#     4  10  19  40  68  89 126 175 218 256 320 401
#
# _framework density 21.065653999999999
#
# number of rings (size 3 to 8) (size 9 to 14) (size 15 to 20)
#    0.000    1.846    3.077    2.308    6.462    0.000 
#    0.000    0.769   13.538    0.000    0.000    0.000 
#    0.000    0.000    0.000    0.000    0.000    0.000 
#
# Total GULP energy -72563.866337 kJ/mol
# GULP energy per Si atom -5581.835872 kJ/mol
# Density = 2.101771 g / cm^3
# Si number density = 21.065654 Si / 1000 Ang^3
#
#
#
# Elastic Constant Matrix: (Units=GPa)
#
#
# Indices 1 2 3 4 5 6 
#
# 1 167.2356 43.4176 32.2135 0.0249 18.4914 -0.0301
# 2 43.4176 102.0599 16.4033 0.0548 12.4229 -0.0221
# 3 32.2135 16.4033 62.5868 -0.0087 15.5257 0.0013
# 4 0.0249 0.0548 -0.0087 12.2560 -0.0191 18.7218
# 5 18.4914 12.4229 15.5257 -0.0191 32.2616 0.0134
# 6 -0.0301 -0.0221 0.0013 18.7218 0.0134 36.2596
#
#
#
# Elastic Compliance Matrix: (Units=1/GPa)
#
#
# Indices 1 2 3 4 5 6 
#
# 1 0.007347 -0.002458 -0.002643 -0.000082 -0.001993 0.000048
# 2 -0.002458 0.011315 -0.001100 -0.000279 -0.002419 0.000150
# 3 -0.002643 -0.001100 0.019470 0.000065 -0.007431 -0.000035
# 4 -0.000082 -0.000279 0.000065 0.386194 0.000435 -0.199402
# 5 -0.001993 -0.002419 -0.007431 0.000435 0.036647 -0.000241
# 6 0.000048 0.000150 -0.000035 -0.199402 -0.000241 0.130536
#
#
# Mechanical properties :
#
#
# Convention : Reuss Voigt Hill
#
# Bulk Modulus (GPa) = 38.86610 57.32791 48.09700
# Shear Modulus (GPa) = 8.16341 32.14530 20.15436
#
# Velocity S-wave (km/s) = 1.97069 3.91059 3.09648
# Velocity P-wave (km/s) = 4.86500 6.90386 5.97208
#
# Compressibility (1/GPa) = 0.02572937
#
# Stress axis : x y z
#
# Youngs Moduli (GPa) = 136.10506 88.37520 51.36107
#
# Poissons Ratio (x) = 0.21724 0.13575
# Poissons Ratio (y) = 0.33457 0.05652
# Poissons Ratio (z) = 0.35973 0.09725
#
# Static dielectric constant tensor:
#      x y z
#    x 1.796310 0.000030 0.027340 
#    y 0.000030 1.850360 0.000010 
#    z 0.027340 0.000010 1.779870 
# 
# From -- ./inp_files/55189.got.cif
#   From: 2010.05.17/outbox.cif.g08.bks.cpg/sg5_28_cif.got.tgz:55189.got - 2010.06.03 18:56:24.
