data_PCOD9122110
_publ_section_title
;
Structure prediction by ZEFSAII (Michael W. Deem and Ramdas Pophale) SiO2 
 PCOD9122110
Probable space group: C 2
;
_chemical_formula_sum "Si O2"
_cell_formula_units_Z 26
_cell_length_a 11.663808
_cell_length_b 17.703179
_cell_length_c 8.613235
_cell_angle_alpha 90.000000
_cell_angle_beta 40.172248
_cell_angle_gamma 90.000000
_cell_volume 1147.299096
_symmetry_space_group_name_H-M "C 2"
_symmetry_group_IT_number 5
_symmetry_cell_setting 'monoclinic'
loop_
_space_group_symop_operation_xyz
x,y,z
-x,y,-z
1/2+x,1/2+y,z
1/2-x,1/2+y,-z
loop_
_atom_site_type_symbol
_atom_site_label
_atom_site_fract_x
_atom_site_fract_y
_atom_site_fract_z
Si Si1 0.797074 0.756620 0.172969
Si Si2 0.684036 0.254914 0.504072
Si Si3 0.000000 0.026834 0.500000
Si Si4 0.548399 0.416980 0.704068
Si Si5 0.500000 0.124199 0.500000
Si Si6 0.209928 0.125801 0.033671
Si Si7 0.500000 0.721140 0.000000
Si Si8 0.701173 0.919181 0.254659
O O1 0.739974 0.733333 0.404890
O O2 0.799211 0.692581 0.042591
O O3 0.686686 0.828951 0.237181
O O4 0.000000 0.780390 0.000000
O O5 0.560387 0.329055 0.640326
O O6 0.603048 0.180877 0.508974
O O7 0.846677 0.273572 0.224500
O O8 0.116980 0.076505 0.262094
O O9 0.105228 0.970790 0.505185
O O10 0.686629 0.427322 0.701928
O O11 0.350293 0.439872 0.969542
O O12 0.352985 0.087608 0.767079
O O13 0.071278 0.166412 0.062096
O O14 0.500000 0.946080 0.500000
#
# Coordination Sequence:
#
# PCOD9122110 Si02
#       8
#     4   4   2   4   2   4   2   4
#     4  11  19  38  69 106 137 164 213 282 349 394
#     4  10  19  38  64  99 135 166 208 288 339 391
#     4  12  27  46  66  88 139 188 228 282 322 400
#     4  10  22  44  63  98 141 177 222 278 334 395
#     4  10  19  38  66  96 129 168 218 280 340 384
#     4  11  24  42  67  98 134 180 224 272 341 413
#     4  10  24  38  68 104 126 170 228 280 348 404
#     4  10  21  41  75 102 131 174 221 280 351 407
#
# _framework density 22.661922000000001
#
# number of rings (size 3 to 8) (size 9 to 14) (size 15 to 20)
#    0.000    1.538    4.615    1.385    5.385    2.462 
#    1.385    1.538    0.000    0.000    0.000    0.000 
#    0.000    0.000    0.000    0.000    0.000    0.000 
#
# Total GULP energy -72486.276332 kJ/mol
# GULP energy per Si atom -5575.867410 kJ/mol
# Density = 2.261034 g / cm^3
# Si number density = 22.661922 Si / 1000 Ang^3
#
#
#
# Elastic Constant Matrix: (Units=GPa)
#
#
# Indices 1 2 3 4 5 6 
#
# 1 59.3708 20.5898 44.2054 -0.0001 13.3642 0.0001
# 2 20.5898 54.1438 66.3360 0.0000 10.9457 0.0000
# 3 44.2054 66.3360 202.7357 -0.0001 7.9095 0.0001
# 4 -0.0001 0.0000 -0.0001 58.8680 0.0001 -23.1780
# 5 13.3642 10.9457 7.9095 0.0001 44.9961 -0.0001
# 6 0.0001 0.0000 0.0001 -23.1780 -0.0001 65.7057
#
#
#
# Elastic Compliance Matrix: (Units=1/GPa)
#
#
# Indices 1 2 3 4 5 6 
#
# 1 0.021647 -0.002769 -0.003614 0.000000 -0.005121 0.000000
# 2 -0.002769 0.032742 -0.009899 0.000000 -0.005403 0.000000
# 3 -0.003614 -0.009899 0.008885 0.000000 0.001920 0.000000
# 4 0.000000 0.000000 0.000000 0.019727 0.000000 0.006959
# 5 -0.005121 -0.005403 0.001920 0.000000 0.024722 0.000000
# 6 0.000000 0.000000 0.000000 0.006959 0.000000 0.017674
#
#
# Mechanical properties :
#
#
# Convention : Reuss Voigt Hill
#
# Bulk Modulus (GPa) = 32.56220 64.27919 48.42070
# Shear Modulus (GPa) = 29.72687 46.25523 37.99105
#
# Velocity S-wave (km/s) = 3.62574 4.52275 4.09886
# Velocity P-wave (km/s) = 5.65048 7.46322 6.61920
#
# Compressibility (1/GPa) = 0.03071046
#
# Stress axis : x y z
#
# Youngs Moduli (GPa) = 46.19528 30.54146 112.55257
#
# Poissons Ratio (x) = 0.08455 0.40681
# Poissons Ratio (y) = 0.12789 1.11416
# Poissons Ratio (z) = 0.16697 0.30233
#
# Static dielectric constant tensor:
#      x y z
#    x 1.816430 0.000000 0.011660 
#    y 0.000000 1.873410 0.000000 
#    z 0.011660 0.000000 1.943020 
# 
# From -- ./inp_files/21917.got.cif
#   From: 2010.05.17/outbox.cif.g08.bks.cpg/sg5_11_cif.got.tgz:21917.got - 2010.06.03 18:56:24.
