data_PCOD9122122
_publ_section_title
;
Structure prediction by ZEFSAII (Michael W. Deem and Ramdas Pophale) SiO2 
 PCOD9122122
Probable space group: C 2
;
_chemical_formula_sum "Si O2"
_cell_formula_units_Z 30
_cell_length_a 21.592572
_cell_length_b 9.839861
_cell_length_c 6.783011
_cell_angle_alpha 90.000000
_cell_angle_beta 113.978678
_cell_angle_gamma 90.000000
_cell_volume 1316.794321
_symmetry_space_group_name_H-M "C 2"
_symmetry_group_IT_number 5
_symmetry_cell_setting 'monoclinic'
loop_
_space_group_symop_operation_xyz
x,y,z
-x,y,-z
1/2+x,1/2+y,z
1/2-x,1/2+y,-z
loop_
_atom_site_type_symbol
_atom_site_label
_atom_site_fract_x
_atom_site_fract_y
_atom_site_fract_z
Si Si1 0.342001 0.017280 0.689710
Si Si2 0.692601 0.351986 0.879844
Si Si3 0.874041 0.225522 0.598233
Si Si4 0.448899 0.372872 0.208074
Si Si5 0.242620 0.139641 0.839205
Si Si6 0.695017 0.469460 0.324959
Si Si7 0.911086 0.777865 0.712298
Si Si8 0.500000 0.626366 0.500000
O O1 0.317029 0.097806 0.853489
O O2 0.270436 0.013184 0.481633
O O3 0.398465 0.118492 0.682107
O O4 0.369875 0.864289 0.718028
O O5 0.614860 0.311806 0.758221
O O6 0.709726 0.491710 0.798806
O O7 0.743644 0.225107 0.944236
O O8 0.698853 0.406644 0.113999
O O9 0.809756 0.223584 0.364066
O O10 0.856689 0.095319 0.712480
O O11 0.943204 0.203801 0.560346
O O12 0.524274 0.318122 0.329682
O O13 0.457551 0.528965 0.293423
O O14 0.430812 0.336995 0.956471
O O15 0.661701 0.349577 0.414689
#
# Coordination Sequence:
#
# PCOD9122122 Si02
#       8
#     4   4   4   4   4   4   4   2
#     4  11  21  40  63  94 131 161 211 269 325 379
#     4  11  22  42  64  96 133 165 213 271 325 382
#     4  11  23  39  65  95 130 172 210 267 323 384
#     4  10  21  40  67  86 128 173 221 259 300 398
#     4  11  23  41  62  99 132 166 212 268 326 383
#     4  10  19  38  65  94 124 167 215 256 317 386
#     4  10  20  41  67  89 123 175 219 258 314 383
#     4  12  22  42  64  98 128 172 222 262 318 384
#
# _framework density 22.782601
#
# number of rings (size 3 to 8) (size 9 to 14) (size 15 to 20)
#    0.000    1.333    6.667    0.800    1.867    0.000 
#    2.400    2.000   11.733    0.000    0.000    0.000 
#    0.000    0.000    0.000    0.000    0.000    0.000 
#
# Total GULP energy -83568.224501 kJ/mol
# GULP energy per Si atom -5571.214967 kJ/mol
# Density = 2.273075 g / cm^3
# Si number density = 22.782601 Si / 1000 Ang^3
#
#
#
# Elastic Constant Matrix: (Units=GPa)
#
#
# Indices 1 2 3 4 5 6 
#
# 1 84.5324 9.6259 2.6242 0.0000 -1.1974 0.0000
# 2 9.6259 128.7860 8.2116 0.0000 2.0419 0.0000
# 3 2.6242 8.2116 58.0734 0.0000 18.0062 0.0000
# 4 0.0000 0.0000 0.0000 29.1981 0.0000 1.1491
# 5 -1.1974 2.0419 18.0062 0.0000 24.5462 0.0000
# 6 0.0000 0.0000 0.0000 1.1491 0.0000 25.7731
#
#
#
# Elastic Compliance Matrix: (Units=1/GPa)
#
#
# Indices 1 2 3 4 5 6 
#
# 1 0.011971 -0.000863 -0.000805 0.000000 0.001247 0.000000
# 2 -0.000863 0.007899 -0.001115 0.000000 0.000118 0.000000
# 3 -0.000805 -0.001115 0.022519 0.000000 -0.016466 0.000000
# 4 0.000000 0.000000 0.000000 0.034309 0.000000 -0.001530
# 5 0.001247 0.000118 -0.016466 0.000000 0.052869 0.000000
# 6 0.000000 0.000000 0.000000 -0.001530 0.000000 0.038868
#
#
# Mechanical properties :
#
#
# Convention : Reuss Voigt Hill
#
# Bulk Modulus (GPa) = 27.15771 34.70168 30.92970
# Shear Modulus (GPa) = 26.84209 32.63217 29.73713
#
# Velocity S-wave (km/s) = 3.43619 3.78872 3.61675
# Velocity P-wave (km/s) = 5.26208 5.86548 5.57196
#
# Compressibility (1/GPa) = 0.03682195
#
# Stress axis : x y z
#
# Youngs Moduli (GPa) = 83.53704 126.60602 44.40712
#
# Poissons Ratio (x) = 0.10928 0.03577
# Poissons Ratio (y) = 0.07210 0.04949
# Poissons Ratio (z) = 0.06728 0.14111
#
# Static dielectric constant tensor:
#      x y z
#    x 1.891220 0.000000 -0.075540 
#    y 0.000000 1.866520 0.000000 
#    z -0.075540 0.000000 2.068240 
# 
# From -- ./inp_files/30685.got.cif
#   From: 2010.05.17/outbox.cif.g08.bks.cpg/sg5_16_cif.got.tgz:30685.got - 2010.06.03 18:56:24.
