data_PCOD9122506
_publ_section_title
;
Structure prediction by ZEFSAII (Michael W. Deem and Ramdas Pophale) SiO2 
 PCOD9122506
Probable space group: C 2
;
_chemical_formula_sum "Si O2"
_cell_formula_units_Z 32
_cell_length_a 8.171204
_cell_length_b 8.825681
_cell_length_c 19.187743
_cell_angle_alpha 90.000000
_cell_angle_beta 99.022624
_cell_angle_gamma 90.000000
_cell_volume 1366.629854
_symmetry_space_group_name_H-M "C 2"
_symmetry_group_IT_number 5
_symmetry_cell_setting 'monoclinic'
loop_
_space_group_symop_operation_xyz
x,y,z
-x,y,-z
1/2+x,1/2+y,z
1/2-x,1/2+y,-z
loop_
_atom_site_type_symbol
_atom_site_label
_atom_site_fract_x
_atom_site_fract_y
_atom_site_fract_z
Si Si1 0.681623 0.357210 0.044736
Si Si2 0.541447 0.000539 0.673893
Si Si3 0.055088 0.856960 0.706260
Si Si4 0.061946 0.004598 0.168778
Si Si5 0.184057 0.559448 0.545787
Si Si6 0.299843 0.003151 0.920442
Si Si7 0.080667 0.358031 0.203326
Si Si8 0.196247 0.914616 0.578119
O O1 0.687056 0.446960 0.117916
O O2 0.692921 0.179841 0.061302
O O3 0.500000 0.387072 0.000000
O O4 0.806845 0.410717 0.993018
O O5 0.538308 0.176823 0.695503
O O6 0.674292 0.979038 0.620664
O O7 0.547401 0.902524 0.744521
O O8 0.366923 0.965018 0.625494
O O9 0.239247 0.883736 0.749697
O O10 0.059111 0.931736 0.629677
O O11 0.932664 0.922576 0.756158
O O12 0.880438 0.970982 0.124913
O O13 0.072390 0.183085 0.181993
O O14 0.207905 0.736768 0.561626
O O15 0.309578 0.500012 0.495780
O O16 0.000000 0.541719 0.500000
O O17 0.425095 0.955551 0.867732
#
# Coordination Sequence:
#
# PCOD9122506 Si02
#       8
#     4   4   4   4   4   4   4   4
#     4  10  21  36  53  75 104 137 171 210 254 301
#     4   9  18  35  54  74 104 136 168 210 255 300
#     4   9  19  36  53  74 105 135 167 209 254 302
#     4  10  21  35  53  78 104 133 172 211 251 303
#     4   9  18  34  53  74 102 135 168 208 256 303
#     4  10  21  36  54  77 105 135 170 211 253 301
#     4  10  20  34  54  79 103 132 171 211 253 303
#     4   9  18  34  54  75 103 135 169 210 254 301
#
# _framework density 23.415265000000002
#
# number of rings (size 3 to 8) (size 9 to 14) (size 15 to 20)
#    0.000    2.500    0.000    1.500    0.000    3.000 
#    0.000   13.125    0.000    0.000    0.000    0.000 
#    0.000    0.000    0.000    0.000    0.000    0.000 
#
# Total GULP energy -89430.354917 kJ/mol
# GULP energy per Si atom -5589.397182 kJ/mol
# Density = 2.336197 g / cm^3
# Si number density = 23.415265 Si / 1000 Ang^3
#
#
#
# Elastic Constant Matrix: (Units=GPa)
#
#
# Indices 1 2 3 4 5 6 
#
# 1 86.0763 5.1450 62.9764 0.0000 -17.3873 0.0000
# 2 5.1450 93.9647 99.9909 0.0000 -41.0895 0.0000
# 3 62.9764 99.9909 253.0262 0.0000 -48.6349 0.0000
# 4 0.0000 0.0000 0.0000 58.5933 0.0000 -2.3771
# 5 -17.3873 -41.0895 -48.6349 0.0000 46.3578 0.0000
# 6 0.0000 0.0000 0.0000 -2.3771 0.0000 25.5148
#
#
#
# Elastic Compliance Matrix: (Units=1/GPa)
#
#
# Indices 1 2 3 4 5 6 
#
# 1 0.017525 0.009649 -0.006598 0.000000 0.008203 0.000000
# 2 0.009649 0.029393 -0.010414 0.000000 0.018747 0.000000
# 3 -0.006598 -0.010414 0.009344 0.000000 -0.001902 0.000000
# 4 0.000000 0.000000 0.000000 0.017132 0.000000 0.001596
# 5 0.008203 0.018747 -0.001902 0.000000 0.039269 0.000000
# 6 0.000000 0.000000 0.000000 0.001596 0.000000 0.039342
#
#
# Mechanical properties :
#
#
# Convention : Reuss Voigt Hill
#
# Bulk Modulus (GPa) = 24.07510 85.47688 54.77599
# Shear Modulus (GPa) = 27.68905 43.75685 35.72295
#
# Velocity S-wave (km/s) = 3.44251 4.32757 3.91016
# Velocity P-wave (km/s) = 5.10933 7.84567 6.62042
#
# Compressibility (1/GPa) = 0.04153670
#
# Stress axis : x y z
#
# Youngs Moduli (GPa) = 57.05996 34.02124 107.01823
#
# Poissons Ratio (x) = -0.32827 0.70614
# Poissons Ratio (y) = -0.55057 1.11448
# Poissons Ratio (z) = 0.37650 0.35429
#
# Static dielectric constant tensor:
#      x y z
#    x 1.893280 0.000000 -0.002610 
#    y 0.000000 1.788660 0.000000 
#    z -0.002610 0.000000 1.920500 
# 
# From -- ./inp_files/60208.got.cif
#   From: 2010.05.17/outbox.cif.g08.bks.cpg/sg5_31_cif.got.tgz:60208.got - 2010.06.03 18:56:24.
