data_PCOD9122193
_publ_section_title
;
Structure prediction by ZEFSAII (Michael W. Deem and Ramdas Pophale) SiO2 
 PCOD9122193
Probable space group: C 2
;
_chemical_formula_sum "Si O2"
_cell_formula_units_Z 32
_cell_length_a 16.600667
_cell_length_b 21.976760
_cell_length_c 9.993583
_cell_angle_alpha 90.000000
_cell_angle_beta 27.082712
_cell_angle_gamma 90.000000
_cell_volume 1659.913479
_symmetry_space_group_name_H-M "C 2"
_symmetry_group_IT_number 5
_symmetry_cell_setting 'monoclinic'
loop_
_space_group_symop_operation_xyz
x,y,z
-x,y,-z
1/2+x,1/2+y,z
1/2-x,1/2+y,-z
loop_
_atom_site_type_symbol
_atom_site_label
_atom_site_fract_x
_atom_site_fract_y
_atom_site_fract_z
Si Si1 0.149478 0.052190 0.877915
Si Si2 0.706497 0.270409 0.211138
Si Si3 0.980459 0.353408 0.190677
Si Si4 0.701738 0.177124 0.447957
Si Si5 0.281307 0.180632 0.052083
Si Si6 0.786855 0.749548 0.314483
Si Si7 0.008627 0.467427 0.639158
Si Si8 0.846766 0.046440 0.818309
O O1 0.195948 0.120285 0.762371
O O2 0.328744 0.014073 0.601667
O O3 0.095247 0.050859 0.112884
O O4 0.000000 0.027691 0.000000
O O5 0.500000 0.286759 0.500000
O O6 0.735730 0.236297 0.308014
O O7 0.838234 0.326232 0.016410
O O8 0.749477 0.220714 0.034272
O O9 0.957550 0.417826 0.297005
O O10 0.825461 0.307020 0.467684
O O11 0.000000 0.356866 0.000000
O O12 0.747379 0.194646 0.531040
O O13 0.491399 0.166750 0.749413
O O14 0.235093 0.223255 0.246374
O O15 0.192215 0.115047 0.174273
O O16 0.000000 0.762071 0.000000
O O17 0.000000 0.440745 0.500000
O O18 0.829438 0.505627 0.927757
O O19 0.000000 0.019531 0.500000
#
# Coordination Sequence:
#
# PCOD9122193 Si02
#       8
#     4   4   4   4   4   4   4   4
#     4  11  24  41  68  96 128 173 214 266 327 385
#     4  10  22  38  65  98 130 170 208 261 329 385
#     4  12  26  45  68  94 131 175 222 264 315 390
#     4  10  19  39  63  96 136 168 204 262 335 387
#     4  10  21  37  64  97 137 167 206 264 328 387
#     4  10  24  40  61 100 136 170 207 270 326 381
#     4  10  26  50  67  89 129 179 223 263 316 382
#     4  11  24  42  65  99 130 167 217 271 319 382
#
# _framework density 19.278113999999999
#
# number of rings (size 3 to 8) (size 9 to 14) (size 15 to 20)
#    0.000    1.500    3.750    0.000    7.000    2.000 
#    0.000    2.500    0.000    0.000    0.000    0.000 
#    0.000    0.000    0.000    0.000    0.000    0.000 
#
# Total GULP energy -89377.918457 kJ/mol
# GULP energy per Si atom -5586.119904 kJ/mol
# Density = 1.923424 g / cm^3
# Si number density = 19.278114 Si / 1000 Ang^3
#
#
#
# Elastic Constant Matrix: (Units=GPa)
#
#
# Indices 1 2 3 4 5 6 
#
# 1 83.3400 24.6198 47.9500 0.0115 13.0095 -0.0091
# 2 24.6198 59.4231 34.7256 -0.0103 7.0625 0.0001
# 3 47.9500 34.7256 109.5946 -0.0301 20.2643 -0.0005
# 4 0.0115 -0.0103 -0.0301 -5.2758 0.0106 1.3235
# 5 13.0095 7.0625 20.2643 0.0106 22.1855 0.0033
# 6 -0.0091 0.0001 -0.0005 1.3235 0.0033 17.2210
#
#
#
# Elastic Compliance Matrix: (Units=1/GPa)
#
#
# Indices 1 2 3 4 5 6 
#
# 1 0.016765 -0.003215 -0.005640 0.000069 -0.003655 0.000004
# 2 -0.003215 0.021279 -0.005332 -0.000018 -0.000018 -0.000001
# 3 -0.005640 -0.005332 0.014867 -0.000102 -0.008575 0.000007
# 4 0.000069 -0.000018 -0.000102 -0.185959 0.000145 0.014292
# 5 -0.003655 -0.000018 -0.008575 0.000145 0.055056 -0.000024
# 6 0.000004 -0.000001 0.000007 0.014292 -0.000024 0.056970
#
#
# Mechanical properties :
#
#
# Convention : Reuss Voigt Hill
#
# Bulk Modulus (GPa) = 40.75769 51.88317 46.32043
# Shear Modulus (GPa) = 321.92454 16.49695 169.21075
#
# Velocity S-wave (km/s) = 12.93647 2.92847 9.37891
# Velocity P-wave (km/s) = 15.63087 6.19726 11.88970
#
# Compressibility (1/GPa) = 0.02453525
#
# Stress axis : x y z
#
# Youngs Moduli (GPa) = 59.64942 46.99515 67.26196
#
# Poissons Ratio (x) = 0.15111 0.37937
# Poissons Ratio (y) = 0.19179 0.35865
# Poissons Ratio (z) = 0.33643 0.25059
#
# Static dielectric constant tensor:
#      x y z
#    x 1.665570 -0.000010 -0.013500 
#    y -0.000010 1.633120 0.000010 
#    z -0.013500 0.000010 1.715190 
# 
# From -- ./inp_files/25583.got.cif
#   From: 2010.05.17/outbox.cif.g08.bks.cpg/sg5_13_cif.got.tgz:25583.got - 2010.06.03 18:56:24.
