data_PCOD9122357
_publ_section_title
;
Structure prediction by ZEFSAII (Michael W. Deem and Ramdas Pophale) SiO2 
 PCOD9122357
Probable space group: C 2
;
_chemical_formula_sum "Si O2"
_cell_formula_units_Z 30
_cell_length_a 24.684582
_cell_length_b 7.700634
_cell_length_c 7.750475
_cell_angle_alpha 90.000000
_cell_angle_beta 60.457814
_cell_angle_gamma 90.000000
_cell_volume 1281.729223
_symmetry_space_group_name_H-M "C 2"
_symmetry_group_IT_number 5
_symmetry_cell_setting 'monoclinic'
loop_
_space_group_symop_operation_xyz
x,y,z
-x,y,-z
1/2+x,1/2+y,z
1/2-x,1/2+y,-z
loop_
_atom_site_type_symbol
_atom_site_label
_atom_site_fract_x
_atom_site_fract_y
_atom_site_fract_z
Si Si1 0.811312 0.104220 0.013284
Si Si2 0.319362 0.214966 0.865435
Si Si3 0.696572 0.105943 0.715235
Si Si4 0.566036 0.933005 0.916361
Si Si5 0.500000 0.674178 0.500000
Si Si6 0.537875 0.563733 0.783643
Si Si7 0.394911 0.904472 0.750699
Si Si8 0.328538 0.488672 0.366140
O O1 0.838310 0.082175 0.163928
O O2 0.822088 0.921664 0.894812
O O3 0.739205 0.153445 0.154181
O O4 0.838343 0.268865 0.867968
O O5 0.306665 0.130197 0.073823
O O6 0.377339 0.096768 0.715287
O O7 0.685887 0.292633 0.654396
O O8 0.766201 0.052267 0.556681
O O9 0.635218 0.998189 0.755429
O O10 0.553242 0.756344 0.832386
O O11 0.500000 0.035520 0.000000
O O12 0.573313 0.912581 0.111022
O O13 0.494990 0.564715 0.681781
O O14 0.442156 0.800093 0.558594
O O15 0.606296 0.492110 0.636503
O O16 0.500000 0.476425 0.000000
#
# Coordination Sequence:
#
# PCOD9122357 Si02
#       8
#     4   4   4   4   2   4   4   4
#     4  11  21  40  63  93 133 175 212 276 344 387
#     4  10  23  38  63  96 131 174 218 269 341 397
#     4  10  24  38  62  98 125 168 220 273 332 401
#     4  10  19  42  65  86 128 176 210 268 331 388
#     4  12  24  40  72  98 124 182 232 254 340 404
#     4  11  22  42  67  94 131 175 218 271 325 401
#     4  11  22  41  65  94 134 174 220 273 328 396
#     4  11  23  39  62  95 129 167 219 274 335 396
#
# _framework density 23.405878000000001
#
# number of rings (size 3 to 8) (size 9 to 14) (size 15 to 20)
#    0.000    1.333    5.333    0.800    3.733    1.600 
#    0.000    2.000    0.000    0.000    0.000    0.000 
#    0.000    0.000    0.000    0.000    0.000    0.000 
#
# Total GULP energy -83734.568416 kJ/mol
# GULP energy per Si atom -5582.304561 kJ/mol
# Density = 2.335260 g / cm^3
# Si number density = 23.405878 Si / 1000 Ang^3
#
#
#
# Elastic Constant Matrix: (Units=GPa)
#
#
# Indices 1 2 3 4 5 6 
#
# 1 96.2574 9.7763 15.7482 0.0000 -7.5503 0.0000
# 2 9.7763 64.7658 7.7244 0.0000 7.1423 0.0000
# 3 15.7482 7.7244 57.5354 0.0000 -19.0794 0.0000
# 4 0.0000 0.0000 0.0000 -19.3768 0.0000 12.2548
# 5 -7.5503 7.1423 -19.0794 0.0000 38.2918 0.0000
# 6 0.0000 0.0000 0.0000 12.2548 0.0000 11.1974
#
#
#
# Elastic Compliance Matrix: (Units=1/GPa)
#
#
# Indices 1 2 3 4 5 6 
#
# 1 0.011034 -0.001519 -0.002397 0.000000 0.001265 0.000000
# 2 -0.001519 0.016661 -0.003535 0.000000 -0.005169 0.000000
# 3 -0.002397 -0.003535 0.022249 0.000000 0.011273 0.000000
# 4 0.000000 0.000000 0.000000 -0.030498 0.000000 0.033378
# 5 0.001265 -0.005169 0.011273 0.000000 0.032946 0.000000
# 6 0.000000 0.000000 0.000000 0.033378 0.000000 0.052777
#
#
# Mechanical properties :
#
#
# Convention : Reuss Voigt Hill
#
# Bulk Modulus (GPa) = 28.53644 31.67292 30.10468
# Shear Modulus (GPa) = 37.95000 18.37644 28.16322
#
# Velocity S-wave (km/s) = 4.03101 2.80504 3.47256
# Velocity P-wave (km/s) = 5.82099 4.90433 5.38221
#
# Compressibility (1/GPa) = 0.03504292
#
# Stress axis : x y z
#
# Youngs Moduli (GPa) = 90.62512 60.01972 44.94486
#
# Poissons Ratio (x) = 0.09119 0.10773
# Poissons Ratio (y) = 0.13768 0.15888
# Poissons Ratio (z) = 0.21722 0.21217
#
# Static dielectric constant tensor:
#      x y z
#    x 2.011820 0.000000 -0.265430 
#    y 0.000000 1.877360 0.000000 
#    z -0.265430 0.000000 3.212910 
# 
# From -- ./inp_files/30677.got.cif
#   From: 2010.05.17/outbox.cif.g08.bks.cpg/sg5_16_cif.got.tgz:30677.got - 2010.06.03 18:56:24.
