data_PCOD9122067
_publ_section_title
;
Structure prediction by ZEFSAII (Michael W. Deem and Ramdas Pophale) SiO2 
 PCOD9122067
Probable space group: C 2
;
_chemical_formula_sum "Si O2"
_cell_formula_units_Z 28
_cell_length_a 11.528092
_cell_length_b 14.436178
_cell_length_c 8.466010
_cell_angle_alpha 90.000000
_cell_angle_beta 112.463920
_cell_angle_gamma 90.000000
_cell_volume 1302.017927
_symmetry_space_group_name_H-M "C 2"
_symmetry_group_IT_number 5
_symmetry_cell_setting 'monoclinic'
loop_
_space_group_symop_operation_xyz
x,y,z
-x,y,-z
1/2+x,1/2+y,z
1/2-x,1/2+y,-z
loop_
_atom_site_type_symbol
_atom_site_label
_atom_site_fract_x
_atom_site_fract_y
_atom_site_fract_z
Si Si1 0.912298 0.671360 0.817584
Si Si2 0.306520 0.201583 0.437535
Si Si3 0.519996 0.649497 0.342531
Si Si4 0.946697 0.347280 0.220536
Si Si5 0.210296 0.360162 0.174623
Si Si6 0.107625 0.545903 0.738845
Si Si7 0.702764 0.556691 0.888080
O O1 0.869685 0.726426 0.638476
O O2 0.788142 0.629204 0.833125
O O3 0.998490 0.586861 0.795757
O O4 0.000000 0.716465 0.000000
O O5 0.164540 0.167116 0.387934
O O6 0.297193 0.284030 0.304855
O O7 0.374782 0.113232 0.398092
O O8 0.500000 0.602052 0.500000
O O9 0.456787 0.750975 0.314382
O O10 0.439357 0.590823 0.178008
O O11 0.913457 0.437890 0.302938
O O12 0.082982 0.366635 0.212604
O O13 0.844962 0.334527 0.026907
O O14 0.278017 0.458001 0.186476
O O15 0.233578 0.552169 0.908517
#
# Coordination Sequence:
#
# PCOD9122067 Si02
#       7
#     4   4   4   4   4   4   4
#     4  10  20  37  61  86 116 158 205 249 301 351
#     4  11  22  37  60  95 120 155 206 252 298 353
#     4  11  22  36  57  89 123 159 194 244 304 360
#     4   9  18  35  60  92 119 153 205 251 288 340
#     4   9  18  36  62  88 120 161 199 240 297 363
#     4  10  20  36  64  91 117 151 203 258 290 343
#     4  10  19  38  62  86 122 164 193 236 306 363
#
# _framework density 21.505078999999999
#
# number of rings (size 3 to 8) (size 9 to 14) (size 15 to 20)
#    0.000    2.000    2.857    1.286    0.000    2.857 
#    0.000    1.429    3.143    0.000    0.000    0.000 
#    0.000    0.000    0.000    0.000    0.000    0.000 
#
# Total GULP energy -78170.198517 kJ/mol
# GULP energy per Si atom -5583.585608 kJ/mol
# Density = 2.145613 g / cm^3
# Si number density = 21.505079 Si / 1000 Ang^3
#
#
#
# Elastic Constant Matrix: (Units=GPa)
#
#
# Indices 1 2 3 4 5 6 
#
# 1 54.0554 16.7902 31.0432 0.0000 18.7883 0.0000
# 2 16.7902 68.9307 57.0735 0.0000 13.3452 0.0000
# 3 31.0432 57.0735 147.4225 0.0000 18.5814 0.0000
# 4 0.0000 0.0000 0.0000 -13.0180 0.0000 -17.4589
# 5 18.7883 13.3452 18.5814 0.0000 30.7043 0.0000
# 6 0.0000 0.0000 0.0000 -17.4589 0.0000 9.0446
#
#
#
# Elastic Compliance Matrix: (Units=1/GPa)
#
#
# Indices 1 2 3 4 5 6 
#
# 1 0.025212 -0.000856 -0.003334 0.000000 -0.013037 0.000000
# 2 -0.000856 0.022007 -0.007794 0.000000 -0.004324 0.000000
# 3 -0.003334 -0.007794 0.010629 0.000000 -0.001005 0.000000
# 4 0.000000 0.000000 0.000000 -0.021405 0.000000 -0.041317
# 5 -0.013037 -0.004324 -0.001005 0.000000 0.043034 0.000000
# 6 0.000000 0.000000 0.000000 -0.041317 0.000000 0.030808
#
#
# Mechanical properties :
#
#
# Convention : Reuss Voigt Hill
#
# Bulk Modulus (GPa) = 29.51759 53.35804 41.43782
# Shear Modulus (GPa) = 34.35302 16.37962 25.36632
#
# Velocity S-wave (km/s) = 4.00113 2.76282 3.43818
# Velocity P-wave (km/s) = 5.92462 5.91973 5.92218
#
# Compressibility (1/GPa) = 0.03387810
#
# Stress axis : x y z
#
# Youngs Moduli (GPa) = 39.66403 45.44076 94.07800
#
# Poissons Ratio (x) = 0.03892 0.31366
# Poissons Ratio (y) = 0.03397 0.73328
# Poissons Ratio (z) = 0.13224 0.35418
#
# Static dielectric constant tensor:
#      x y z
#    x 1.784860 0.000000 0.010760 
#    y 0.000000 1.746860 0.000000 
#    z 0.010760 0.000000 1.841170 
# 
# From -- ./inp_files/20332.got.cif
#   From: 2010.05.17/outbox.cif.g08.bks.cpg/sg5_11_cif.got.tgz:20332.got - 2010.06.03 18:56:24.
