data_PCOD9122962
_publ_section_title
;
Structure prediction by ZEFSAII (Michael W. Deem and Ramdas Pophale) SiO2 
 PCOD9122962
Probable space group: C 2
;
_chemical_formula_sum "Si O2"
_cell_formula_units_Z 22
_cell_length_a 10.220512
_cell_length_b 12.361113
_cell_length_c 7.409048
_cell_angle_alpha 90.000000
_cell_angle_beta 59.527785
_cell_angle_gamma 90.000000
_cell_volume 806.746359
_symmetry_space_group_name_H-M "C 2"
_symmetry_group_IT_number 5
_symmetry_cell_setting 'monoclinic'
loop_
_space_group_symop_operation_xyz
x,y,z
-x,y,-z
1/2+x,1/2+y,z
1/2-x,1/2+y,-z
loop_
_atom_site_type_symbol
_atom_site_label
_atom_site_fract_x
_atom_site_fract_y
_atom_site_fract_z
Si Si1 0.721613 0.560560 0.362058
Si Si2 0.680561 0.311877 0.355404
Si Si3 0.500000 0.830231 0.000000
Si Si4 0.331126 0.512037 0.178314
Si Si5 0.533632 0.021248 0.260046
Si Si6 0.324484 0.789634 0.647194
O O1 0.680601 0.442188 0.313713
O O2 0.677868 0.546256 0.605021
O O3 0.662223 0.665237 0.302027
O O4 0.901350 0.583310 0.250996
O O5 0.500000 0.279679 0.500000
O O6 0.833832 0.274505 0.135955
O O7 0.744570 0.288000 0.508420
O O8 0.518951 0.909090 0.159312
O O9 0.202266 0.566386 0.144293
O O10 0.274778 0.386081 0.197154
O O11 0.500000 0.525903 0.000000
O O12 0.500000 0.023268 0.500000
O O13 0.500000 0.819212 0.500000
#
# Coordination Sequence:
#
# PCOD9122962 Si02
#       6
#     4   4   2   4   4   4
#     4   9  20  40  63  90 125 177 217 278 344 400
#     4  10  22  39  64  96 132 175 226 283 339 414
#     4  10  20  36  66  96 126 174 224 276 336 404
#     4  10  21  39  65  94 130 177 218 276 345 414
#     4   9  19  39  66  90 129 174 218 272 342 403
#     4  11  22  42  65  93 134 177 219 282 352 405
#
# _framework density 27.270033999999999
#
# number of rings (size 3 to 8) (size 9 to 14) (size 15 to 20)
#    0.000    2.182    0.000    5.455    5.091    2.182 
#    8.182    0.000    0.000    0.000    0.000    0.000 
#    0.000    0.000    0.000    0.000    0.000    0.000 
#
# Total GULP energy -61301.751754 kJ/mol
# GULP energy per Si atom -5572.886523 kJ/mol
# Density = 2.720797 g / cm^3
# Si number density = 27.270034 Si / 1000 Ang^3
#
#
#
# Elastic Constant Matrix: (Units=GPa)
#
#
# Indices 1 2 3 4 5 6 
#
# 1 167.2505 5.7495 72.7276 0.0000 -64.3035 0.0000
# 2 5.7495 124.1709 24.2061 0.0000 -16.4148 0.0000
# 3 72.7276 24.2061 140.8558 0.0000 -43.1848 0.0000
# 4 0.0000 0.0000 0.0000 15.5499 0.0000 -11.8227
# 5 -64.3035 -16.4148 -43.1848 0.0000 74.5619 0.0000
# 6 0.0000 0.0000 0.0000 -11.8227 0.0000 13.4944
#
#
#
# Elastic Compliance Matrix: (Units=1/GPa)
#
#
# Indices 1 2 3 4 5 6 
#
# 1 0.010048 0.001093 -0.003217 0.000000 0.007043 0.000000
# 2 0.001093 0.008544 -0.001419 0.000000 0.002002 0.000000
# 3 -0.003217 -0.001419 0.009798 0.000000 0.002588 0.000000
# 4 0.000000 0.000000 0.000000 0.192614 0.000000 0.168753
# 5 0.007043 0.002002 0.002588 0.000000 0.021426 0.000000
# 6 0.000000 0.000000 0.000000 0.168753 0.000000 0.221953
#
#
# Mechanical properties :
#
#
# Convention : Reuss Voigt Hill
#
# Bulk Modulus (GPa) = 46.93797 70.84928 58.89363
# Shear Modulus (GPa) = 10.44782 42.69418 26.57100
#
# Velocity S-wave (km/s) = 1.95948 3.96107 3.12487
# Velocity P-wave (km/s) = 4.72960 6.85253 5.88754
#
# Compressibility (1/GPa) = 0.02130471
#
# Stress axis : x y z
#
# Youngs Moduli (GPa) = 99.52078 117.04079 102.06596
#
# Poissons Ratio (x) = -0.12791 0.32830
# Poissons Ratio (y) = -0.10876 0.14482
# Poissons Ratio (z) = 0.32011 0.16607
#
# Static dielectric constant tensor:
#      x y z
#    x 2.137340 0.000000 -0.023230 
#    y 0.000000 2.250800 0.000000 
#    z -0.023230 0.000000 2.250400 
# 
# From -- ./inp_files/19933.got.cif
#   From: 2010.05.17/outbox.cif.g08.bks.cpg/sg5_10_cif.got.tgz:19933.got - 2010.06.03 18:56:24.
