data_PCOD9122694
_publ_section_title
;
Structure prediction by ZEFSAII (Michael W. Deem and Ramdas Pophale) SiO2 
 PCOD9122694
Probable space group: C 2
;
_chemical_formula_sum "Si O2"
_cell_formula_units_Z 22
_cell_length_a 9.454738
_cell_length_b 26.788823
_cell_length_c 8.617224
_cell_angle_alpha 90.000000
_cell_angle_beta 147.343201
_cell_angle_gamma 90.000000
_cell_volume 1177.733468
_symmetry_space_group_name_H-M "C 2"
_symmetry_group_IT_number 5
_symmetry_cell_setting 'monoclinic'
loop_
_space_group_symop_operation_xyz
x,y,z
-x,y,-z
1/2+x,1/2+y,z
1/2-x,1/2+y,-z
loop_
_atom_site_type_symbol
_atom_site_label
_atom_site_fract_x
_atom_site_fract_y
_atom_site_fract_z
Si Si1 0.260209 0.868230 0.660293
Si Si2 0.966693 0.455641 0.652551
Si Si3 0.532128 0.517137 0.843162
Si Si4 0.000000 0.773219 0.500000
Si Si5 0.276457 0.175513 0.179230
Si Si6 0.772631 0.112750 0.166268
O O1 0.361007 0.903477 0.618555
O O2 0.165699 0.811257 0.546015
O O3 0.000000 0.891282 0.500000
O O4 0.500000 0.865447 0.000000
O O5 0.743677 0.497138 0.475181
O O6 0.000000 0.451597 0.500000
O O7 0.243783 0.474989 0.972386
O O8 0.624638 0.566013 0.839268
O O9 0.500000 0.525689 0.000000
O O10 0.173635 0.735051 0.760564
O O11 0.500000 0.153174 0.500000
O O12 0.284554 0.155696 0.013096
O O13 0.000000 0.163333 0.000000
O O14 0.000000 0.125864 0.500000
O O15 0.500000 0.100993 0.000000
#
# Coordination Sequence:
#
# PCOD9122694 Si02
#       6
#     4   4   4   2   4   4
#     4  10  20  35  61  88 116 151 201 250 297 355
#     4  10  21  37  59  87 123 159 199 245 297 357
#     4  10  22  39  58  85 122 169 206 230 291 383
#     4   8  22  38  68  86 114 152 230 232 304 364
#     4  10  21  41  68  84 118 165 209 245 300 378
#     4  12  25  39  61  95 130 154 202 264 313 347
#
# _framework density 18.679949000000001
#
# number of rings (size 3 to 8) (size 9 to 14) (size 15 to 20)
#    1.091    0.727    0.000    4.364    0.000    6.545 
#    0.000    0.000    8.000    0.000    0.000    0.000 
#    0.000    0.000    0.000    0.000    0.000    0.000 
#
# Total GULP energy -61310.232043 kJ/mol
# GULP energy per Si atom -5573.657458 kJ/mol
# Density = 1.863743 g / cm^3
# Si number density = 18.679949 Si / 1000 Ang^3
#
#
#
# Elastic Constant Matrix: (Units=GPa)
#
#
# Indices 1 2 3 4 5 6 
#
# 1 87.1377 57.0105 45.8563 0.0000 19.1926 0.0000
# 2 57.0105 95.4000 15.9936 0.0000 -1.4332 0.0000
# 3 45.8563 15.9936 115.8344 0.0000 14.3281 0.0000
# 4 0.0000 0.0000 0.0000 -2.1239 0.0000 -20.4282
# 5 19.1926 -1.4332 14.3281 0.0000 30.3951 0.0000
# 6 0.0000 0.0000 0.0000 -20.4282 0.0000 4.0764
#
#
#
# Elastic Compliance Matrix: (Units=1/GPa)
#
#
# Indices 1 2 3 4 5 6 
#
# 1 0.030185 -0.017011 -0.007586 0.000000 -0.016286 0.000000
# 2 -0.017011 0.020365 0.002628 0.000000 0.010463 0.000000
# 3 -0.007586 0.002628 0.011326 0.000000 -0.000425 0.000000
# 4 0.000000 0.000000 0.000000 -0.009570 0.000000 -0.047957
# 5 -0.016286 0.010463 -0.000425 0.000000 0.043877 0.000000
# 6 0.000000 0.000000 0.000000 -0.047957 0.000000 0.004986
#
#
# Mechanical properties :
#
#
# Convention : Reuss Voigt Hill
#
# Bulk Modulus (GPa) = 55.75019 59.56589 57.65804
# Shear Modulus (GPa) = 33.09341 18.43697 25.76519
#
# Velocity S-wave (km/s) = 4.21360 3.14505 3.71792
# Velocity P-wave (km/s) = 7.32000 6.71903 7.02594
#
# Compressibility (1/GPa) = 0.01793716
#
# Stress axis : x y z
#
# Youngs Moduli (GPa) = 33.12853 49.10467 88.29288
#
# Poissons Ratio (x) = 0.83534 0.66983
# Poissons Ratio (y) = 0.56357 -0.23207
# Poissons Ratio (z) = 0.25133 -0.12907
#
# Static dielectric constant tensor:
#      x y z
#    x 1.620840 0.000000 0.004350 
#    y 0.000000 1.655410 0.000000 
#    z 0.004350 0.000000 1.648490 
# 
# From -- ./inp_files/3508.got.cif
#   From: 2010.05.17/outbox.cif.g08.bks.cpg/sg5_2_cif.got.tgz:3508.got - 2010.06.03 18:56:24.
