data_PCOD9122910
_publ_section_title
;
Structure prediction by ZEFSAII (Michael W. Deem and Ramdas Pophale) SiO2 
 PCOD9122910
Probable space group: C 2
;
_chemical_formula_sum "Si O2"
_cell_formula_units_Z 24
_cell_length_a 8.321725
_cell_length_b 17.343349
_cell_length_c 8.057340
_cell_angle_alpha 90.000000
_cell_angle_beta 94.703839
_cell_angle_gamma 90.000000
_cell_volume 1158.971603
_symmetry_space_group_name_H-M "C 2"
_symmetry_group_IT_number 5
_symmetry_cell_setting 'monoclinic'
loop_
_space_group_symop_operation_xyz
x,y,z
-x,y,-z
1/2+x,1/2+y,z
1/2-x,1/2+y,-z
loop_
_atom_site_type_symbol
_atom_site_label
_atom_site_fract_x
_atom_site_fract_y
_atom_site_fract_z
Si Si1 0.372869 0.076190 0.878361
Si Si2 0.813982 0.955490 0.940311
Si Si3 0.290056 0.687404 0.666871
Si Si4 0.808285 0.788676 0.022526
Si Si5 0.882162 0.518618 0.337157
Si Si6 0.670473 0.698171 0.698267
O O1 0.489588 0.015812 0.802046
O O2 0.281958 0.123807 0.733823
O O3 0.500000 0.124475 0.000000
O O4 0.246256 0.034249 0.981791
O O5 0.748554 0.877391 0.018381
O O6 0.760506 0.963232 0.742293
O O7 0.000000 0.954152 0.000000
O O8 0.192837 0.605710 0.656050
O O9 0.483131 0.675214 0.700784
O O10 0.284266 0.726330 0.482800
O O11 0.229637 0.741053 0.812802
O O12 0.719542 0.750999 0.856763
O O13 0.000000 0.790836 0.000000
O O14 0.000000 0.500371 0.500000
#
# Coordination Sequence:
#
# PCOD9122910 Si02
#       6
#     4   4   4   4   4   4
#     4  10  20  36  63  89 119 161 208 259 314 374
#     4  10  23  43  62  90 126 175 213 256 324 384
#     4  11  24  39  65  95 127 163 211 268 316 377
#     4  11  24  42  65  89 129 173 213 259 318 387
#     4  11  21  39  65  95 125 160 210 269 314 374
#     4  11  22  40  63  97 125 164 210 264 322 372
#
# _framework density 20.708015
#
# number of rings (size 3 to 8) (size 9 to 14) (size 15 to 20)
#    0.000    1.333    1.667    5.000    0.000    4.000 
#    6.000    0.000    0.000    0.000    0.000    0.000 
#    0.000    0.000    0.000    0.000    0.000    0.000 
#
# Total GULP energy -66825.742923 kJ/mol
# GULP energy per Si atom -5568.811910 kJ/mol
# Density = 2.066088 g / cm^3
# Si number density = 20.708015 Si / 1000 Ang^3
#
#
#
# Elastic Constant Matrix: (Units=GPa)
#
#
# Indices 1 2 3 4 5 6 
#
# 1 100.4942 22.0597 55.6039 0.0000 19.5320 0.0000
# 2 22.0597 64.9217 33.4696 0.0000 9.9315 0.0000
# 3 55.6039 33.4696 153.9524 0.0000 20.1258 0.0000
# 4 0.0000 0.0000 0.0000 10.9735 0.0000 -2.5503
# 5 19.5320 9.9315 20.1258 0.0000 41.7143 0.0000
# 6 0.0000 0.0000 0.0000 -2.5503 0.0000 15.6605
#
#
#
# Elastic Compliance Matrix: (Units=1/GPa)
#
#
# Indices 1 2 3 4 5 6 
#
# 1 0.013267 -0.001920 -0.003866 0.000000 -0.003890 0.000000
# 2 -0.001920 0.017866 -0.002937 0.000000 -0.001937 0.000000
# 3 -0.003866 -0.002937 0.008754 0.000000 -0.001714 0.000000
# 4 0.000000 0.000000 0.000000 0.094714 0.000000 0.015424
# 5 -0.003890 -0.001937 -0.001714 0.000000 0.027082 0.000000
# 6 0.000000 0.000000 0.000000 0.015424 0.000000 0.066367
#
#
# Mechanical properties :
#
#
# Convention : Reuss Voigt Hill
#
# Bulk Modulus (GPa) = 44.56046 60.18164 52.37105
# Shear Modulus (GPa) = 19.76455 27.55200 23.65827
#
# Velocity S-wave (km/s) = 3.09275 3.65156 3.38371
# Velocity P-wave (km/s) = 5.85821 6.84862 6.37269
#
# Compressibility (1/GPa) = 0.02244142
#
# Stress axis : x y z
#
# Youngs Moduli (GPa) = 75.37290 55.97130 114.22706
#
# Poissons Ratio (x) = 0.10747 0.44159
# Poissons Ratio (y) = 0.14472 0.33553
# Poissons Ratio (z) = 0.29139 0.16441
#
# Static dielectric constant tensor:
#      x y z
#    x 1.785840 0.000000 0.056380 
#    y 0.000000 1.756550 0.000000 
#    z 0.056380 0.000000 1.860660 
# 
# From -- ./inp_files/15765.got.cif
#   From: 2010.05.17/outbox.cif.g08.bks.cpg/sg5_8_cif.got.tgz:15765.got - 2010.06.03 18:56:24.
