data_PCOD9122966
_publ_section_title
;
Structure prediction by ZEFSAII (Michael W. Deem and Ramdas Pophale) SiO2 
 PCOD9122966
Probable space group: C 2
;
_chemical_formula_sum "Si O2"
_cell_formula_units_Z 32
_cell_length_a 16.287570
_cell_length_b 16.265965
_cell_length_c 10.488385
_cell_angle_alpha 90.000000
_cell_angle_beta 31.268500
_cell_angle_gamma 90.000000
_cell_volume 1442.292463
_symmetry_space_group_name_H-M "C 2"
_symmetry_group_IT_number 5
_symmetry_cell_setting 'monoclinic'
loop_
_space_group_symop_operation_xyz
x,y,z
-x,y,-z
1/2+x,1/2+y,z
1/2-x,1/2+y,-z
loop_
_atom_site_type_symbol
_atom_site_label
_atom_site_fract_x
_atom_site_fract_y
_atom_site_fract_z
Si Si1 0.882425 0.865970 0.874329
Si Si2 0.384240 0.870115 0.268983
Si Si3 0.389814 0.785909 0.855111
Si Si4 0.046992 0.110982 0.296697
Si Si5 0.828746 0.514917 0.886288
Si Si6 0.097603 0.985380 0.713223
Si Si7 0.165683 0.558235 0.415034
Si Si8 0.823272 0.755136 0.609438
O O1 0.019519 0.811767 0.622871
O O2 0.727975 0.810673 0.102985
O O3 0.966339 0.912492 0.880772
O O4 0.790018 0.939895 0.918920
O O5 0.483443 0.851607 0.264143
O O6 0.297159 0.785802 0.340264
O O7 0.250596 0.938001 0.457250
O O8 0.500000 0.892550 0.000000
O O9 0.482858 0.704476 0.697122
O O10 0.271254 0.772159 0.133297
O O11 0.000000 0.087862 0.500000
O O12 0.966422 0.053025 0.299622
O O13 0.234995 0.097383 0.043525
O O14 0.834407 0.518631 0.725081
O O15 0.008121 0.523988 0.693360
O O16 0.169858 0.031699 0.738862
O O17 0.147928 0.657281 0.432673
#
# Coordination Sequence:
#
# PCOD9122966 Si02
#       8
#     4   4   4   4   4   4   4   4
#     4  10  22  37  59  93 128 163 208 266 326 387
#     4   9  20  36  60  95 124 165 216 277 327 392
#     4  11  20  39  63  90 125 167 227 269 323 388
#     4  11  24  41  62  91 132 174 217 273 329 392
#     4  10  23  40  65 102 128 173 217 270 338 383
#     4  10  23  40  62  94 129 171 215 266 342 384
#     4  11  21  41  71  95 136 170 224 276 321 399
#     4  10  20  36  67  95 125 166 226 277 318 384
#
# _framework density 22.186900999999999
#
# number of rings (size 3 to 8) (size 9 to 14) (size 15 to 20)
#    0.000    1.750    1.250    2.625    1.750   11.000 
#    4.500    0.000    2.750    0.000    0.000    0.000 
#    0.000    0.000    0.000    0.000    0.000    0.000 
#
# Total GULP energy -89207.631737 kJ/mol
# GULP energy per Si atom -5575.476984 kJ/mol
# Density = 2.213640 g / cm^3
# Si number density = 22.186901 Si / 1000 Ang^3
#
#
#
# Elastic Constant Matrix: (Units=GPa)
#
#
# Indices 1 2 3 4 5 6 
#
# 1 108.1842 23.5144 27.4339 0.0000 -30.2677 0.0000
# 2 23.5144 121.2377 19.8209 -0.0002 -12.9460 -0.0003
# 3 27.4339 19.8209 69.2130 -0.0002 -28.0340 -0.0008
# 4 0.0000 -0.0002 -0.0002 27.7512 -0.0001 0.4382
# 5 -30.2677 -12.9460 -28.0340 -0.0001 35.4321 0.0003
# 6 0.0000 -0.0003 -0.0008 0.4382 0.0003 13.4998
#
#
#
# Elastic Compliance Matrix: (Units=1/GPa)
#
#
# Indices 1 2 3 4 5 6 
#
# 1 0.012366 -0.001268 -0.000658 0.000000 0.009580 0.000000
# 2 -0.001268 0.008859 -0.001710 0.000000 0.000801 0.000000
# 3 -0.000658 -0.001710 0.021659 0.000000 0.015949 0.000001
# 4 0.000000 0.000000 0.000000 0.036053 0.000000 -0.001170
# 5 0.009580 0.000801 0.015949 0.000000 0.049318 0.000000
# 6 0.000000 0.000000 0.000001 -0.001170 0.000000 0.074113
#
#
# Mechanical properties :
#
#
# Convention : Reuss Voigt Hill
#
# Bulk Modulus (GPa) = 28.08070 48.90813 38.49442
# Shear Modulus (GPa) = 22.57210 30.52765 26.54988
#
# Velocity S-wave (km/s) = 3.19307 3.71338 3.46301
# Velocity P-wave (km/s) = 5.12622 6.36216 5.77734
#
# Compressibility (1/GPa) = 0.03561165
#
# Stress axis : x y z
#
# Youngs Moduli (GPa) = 80.86552 112.87609 46.17014
#
# Poissons Ratio (x) = 0.14311 0.03040
# Poissons Ratio (y) = 0.10253 0.07896
# Poissons Ratio (z) = 0.05324 0.19304
#
# Static dielectric constant tensor:
#      x y z
#    x 1.873730 0.000000 0.019900 
#    y 0.000000 1.880390 0.000000 
#    z 0.019900 0.000000 1.928380 
# 
# From -- ./inp_files/44965.got.cif
#   From: 2010.05.17/outbox.cif.g08.bks.cpg/sg5_23_cif.got.tgz:44965.got - 2010.06.03 18:56:24.
