data_PCOD9122955
_publ_section_title
;
Structure prediction by ZEFSAII (Michael W. Deem and Ramdas Pophale) SiO2 
 PCOD9122955
Probable space group: C 2
;
_chemical_formula_sum "Si O2"
_cell_formula_units_Z 26
_cell_length_a 13.633353
_cell_length_b 17.064969
_cell_length_c 10.517277
_cell_angle_alpha 90.000000
_cell_angle_beta 146.891172
_cell_angle_gamma 90.000000
_cell_volume 1336.558161
_symmetry_space_group_name_H-M "C 2"
_symmetry_group_IT_number 5
_symmetry_cell_setting 'monoclinic'
loop_
_space_group_symop_operation_xyz
x,y,z
-x,y,-z
1/2+x,1/2+y,z
1/2-x,1/2+y,-z
loop_
_atom_site_type_symbol
_atom_site_label
_atom_site_fract_x
_atom_site_fract_y
_atom_site_fract_z
Si Si1 0.026835 0.673410 0.883636
Si Si2 0.890569 0.088118 0.254714
Si Si3 0.000000 0.987944 0.000000
Si Si4 0.248685 0.410584 0.136289
Si Si5 0.781012 0.076753 0.568640
Si Si6 0.489412 0.351910 0.183543
Si Si7 0.338889 0.911196 0.664512
O O1 0.864437 0.644292 0.616248
O O2 0.044914 0.766746 0.907833
O O3 0.000000 0.644067 0.000000
O O4 0.213634 0.637972 0.040530
O O5 0.000000 0.111624 0.500000
O O6 0.030243 0.096371 0.292337
O O7 0.823387 0.998868 0.201917
O O8 0.065824 0.927136 0.962078
O O9 0.840772 0.042312 0.770591
O O10 0.388131 0.359340 0.208169
O O11 0.218661 0.394899 0.252733
O O12 0.047802 0.399638 0.864596
O O13 0.702729 0.002078 0.407581
O O14 0.702941 0.362140 0.431621
#
# Coordination Sequence:
#
# PCOD9122955 Si02
#       7
#     4   4   2   4   4   4   4
#     4  12  24  40  64  96 128 165 213 278 323 367
#     4  12  20  35  65  97 117 153 215 270 313 369
#     4  10  22  42  64  88 130 182 202 252 320 402
#     4  11  19  37  66  96 118 160 220 261 314 376
#     4  11  22  40  64  92 129 164 217 261 318 383
#     4  11  23  41  60  92 133 169 208 264 329 373
#     4  10  20  36  66  92 119 163 216 268 306 381
#
# _framework density 19.452950999999999
#
# number of rings (size 3 to 8) (size 9 to 14) (size 15 to 20)
#    0.000    0.923    8.462    0.462    0.000    1.231 
#    0.000   11.538    0.000    0.000    0.000    0.000 
#    0.000    0.000    0.000    0.000    0.000    0.000 
#
# Total GULP energy -72527.381158 kJ/mol
# GULP energy per Si atom -5579.029320 kJ/mol
# Density = 1.940867 g / cm^3
# Si number density = 19.452951 Si / 1000 Ang^3
#
#
#
# Elastic Constant Matrix: (Units=GPa)
#
#
# Indices 1 2 3 4 5 6 
#
# 1 15.2542 1.2801 31.2267 0.0000 9.5912 0.0000
# 2 1.2801 56.7485 28.1542 0.0000 1.2956 0.0000
# 3 31.2267 28.1542 120.6902 0.0000 16.4417 0.0000
# 4 0.0000 0.0000 0.0000 -60.1203 0.0000 11.6290
# 5 9.5912 1.2956 16.4417 0.0000 36.5362 0.0000
# 6 0.0000 0.0000 0.0000 11.6290 0.0000 18.6254
#
#
#
# Elastic Compliance Matrix: (Units=1/GPa)
#
#
# Indices 1 2 3 4 5 6 
#
# 1 0.174982 0.019633 -0.046342 0.000000 -0.025777 0.000000
# 2 0.019633 0.022206 -0.010068 0.000000 -0.001411 0.000000
# 3 -0.046342 -0.010068 0.022285 0.000000 0.002494 0.000000
# 4 0.000000 0.000000 0.000000 -0.014841 0.000000 0.009266
# 5 -0.025777 -0.001411 0.002494 0.000000 0.033065 0.000000
# 6 0.000000 0.000000 0.000000 0.009266 0.000000 0.047905
#
#
# Mechanical properties :
#
#
# Convention : Reuss Voigt Hill
#
# Bulk Modulus (GPa) = 6.85313 34.89053 20.87183
# Shear Modulus (GPa) = 12.26106 7.81037 10.03572
#
# Velocity S-wave (km/s) = 2.51329 2.00592 2.27380
# Velocity P-wave (km/s) = 3.45727 4.83112 4.20074
#
# Compressibility (1/GPa) = 0.14591883
#
# Stress axis : x y z
#
# Youngs Moduli (GPa) = 5.71486 45.03347 44.87367
#
# Poissons Ratio (x) = -0.88413 2.07955
# Poissons Ratio (y) = -0.11220 0.45177
# Poissons Ratio (z) = 0.26484 0.45338
#
# Static dielectric constant tensor:
#      x y z
#    x 1.719680 0.000000 -0.024530 
#    y 0.000000 1.676350 0.000000 
#    z -0.024530 0.000000 1.743240 
# 
# From -- ./inp_files/43259.got.cif
#   From: 2010.05.17/outbox.cif.g08.bks.cpg/sg5_22_cif.got.tgz:43259.got - 2010.06.03 18:56:24.
