data_PCOD9122413
_publ_section_title
;
Structure prediction by ZEFSAII (Michael W. Deem and Ramdas Pophale) SiO2 
 PCOD9122413
Probable space group: C 2
;
_chemical_formula_sum "Si O2"
_cell_formula_units_Z 28
_cell_length_a 20.583290
_cell_length_b 8.930102
_cell_length_c 11.132533
_cell_angle_alpha 90.000000
_cell_angle_beta 135.874127
_cell_angle_gamma 90.000000
_cell_volume 1424.696340
_symmetry_space_group_name_H-M "C 2"
_symmetry_group_IT_number 5
_symmetry_cell_setting 'monoclinic'
loop_
_space_group_symop_operation_xyz
x,y,z
-x,y,-z
1/2+x,1/2+y,z
1/2-x,1/2+y,-z
loop_
_atom_site_type_symbol
_atom_site_label
_atom_site_fract_x
_atom_site_fract_y
_atom_site_fract_z
Si Si1 0.991424 0.921950 0.740413
Si Si2 0.437037 0.729214 0.200856
Si Si3 0.631472 0.676091 0.356732
Si Si4 0.194727 0.294405 0.195485
Si Si5 0.500000 0.915405 0.500000
Si Si6 0.177614 0.606366 0.313673
Si Si7 0.113964 0.645390 0.494947
Si Si8 0.000000 0.795095 0.000000
O O1 0.966054 0.769321 0.640743
O O2 0.893354 0.006157 0.637843
O O3 0.056410 0.049261 0.768707
O O4 0.028568 0.889404 0.922214
O O5 0.538542 0.761337 0.274556
O O6 0.439338 0.814764 0.328819
O O7 0.359114 0.777080 0.001793
O O8 0.643748 0.696523 0.231478
O O9 0.728691 0.706660 0.552296
O O10 0.191908 0.460755 0.249886
O O11 0.299659 0.231843 0.329363
O O12 0.569188 0.019543 0.516784
O O13 0.152581 0.576976 0.420628
O O14 0.088666 0.695289 0.149419
#
# Coordination Sequence:
#
# PCOD9122413 Si02
#       8
#     4   4   4   4   2   4   4   2
#     4   9  19  40  55  93 119 165 192 242 332 363
#     4  10  23  39  65  87 123 167 214 260 302 370
#     4   9  19  36  61  93 125 155 190 253 328 380
#     4  11  19  37  64  99 124 154 205 263 327 363
#     4  12  26  46  58  86 124 178 232 246 298 370
#     4  10  21  35  63 100 132 149 197 261 326 382
#     4  10  23  41  63  88 128 174 201 258 315 371
#     4  10  20  30  60 100 130 154 188 250 322 390
#
# _framework density 19.653312
#
# number of rings (size 3 to 8) (size 9 to 14) (size 15 to 20)
#    0.857    1.143    1.429    2.143    6.000    0.571 
#    2.571    4.286    0.000    0.000    0.000    0.000 
#    0.000    0.000    0.000    0.000    0.000    0.000 
#
# Total GULP energy -78020.294076 kJ/mol
# GULP energy per Si atom -5572.878148 kJ/mol
# Density = 1.960858 g / cm^3
# Si number density = 19.653312 Si / 1000 Ang^3
#
#
#
# Elastic Constant Matrix: (Units=GPa)
#
#
# Indices 1 2 3 4 5 6 
#
# 1 24.4681 17.3832 22.1444 0.0000 -7.0147 0.0000
# 2 17.3832 88.8032 42.8916 0.0000 -19.4257 0.0000
# 3 22.1444 42.8916 140.5315 0.0000 -10.8735 0.0000
# 4 0.0000 0.0000 0.0000 21.1911 0.0000 -8.4884
# 5 -7.0147 -19.4257 -10.8735 0.0000 23.2371 0.0000
# 6 0.0000 0.0000 0.0000 -8.4884 0.0000 30.7703
#
#
#
# Elastic Compliance Matrix: (Units=1/GPa)
#
#
# Indices 1 2 3 4 5 6 
#
# 1 0.052631 -0.005591 -0.005934 0.000000 0.008438 0.000000
# 2 -0.005591 0.016188 -0.003261 0.000000 0.010319 0.000000
# 3 -0.005934 -0.003261 0.009023 0.000000 -0.000295 0.000000
# 4 0.000000 0.000000 0.000000 0.053052 0.000000 0.014635
# 5 0.008438 0.010319 -0.000295 0.000000 0.054070 0.000000
# 6 0.000000 0.000000 0.000000 0.014635 0.000000 0.036536
#
#
# Mechanical properties :
#
#
# Convention : Reuss Voigt Hill
#
# Bulk Modulus (GPa) = 20.71684 46.51567 33.61625
# Shear Modulus (GPa) = 18.71525 26.46528 22.59026
#
# Velocity S-wave (km/s) = 3.08923 3.67359 3.39401
# Velocity P-wave (km/s) = 4.82582 6.45858 5.70095
#
# Compressibility (1/GPa) = 0.04826992
#
# Stress axis : x y z
#
# Youngs Moduli (GPa) = 19.00023 61.77561 110.82227
#
# Poissons Ratio (x) = 0.34536 0.65765
# Poissons Ratio (y) = 0.10622 0.36142
# Poissons Ratio (z) = 0.11275 0.20147
#
# Static dielectric constant tensor:
#      x y z
#    x 1.693760 0.000000 0.011180 
#    y 0.000000 1.741040 0.000000 
#    z 0.011180 0.000000 1.698090 
# 
# From -- ./inp_files/47221.got.cif
#   From: 2010.05.17/outbox.cif.g08.bks.cpg/sg5_24_cif.got.tgz:47221.got - 2010.06.03 18:56:24.
