data_PCOD9122319
_publ_section_title
;
Structure prediction by ZEFSAII (Michael W. Deem and Ramdas Pophale) SiO2 
 PCOD9122319
Probable space group: C 2
;
_chemical_formula_sum "Si O2"
_cell_formula_units_Z 28
_cell_length_a 24.413843
_cell_length_b 7.826423
_cell_length_c 6.865465
_cell_angle_alpha 90.000000
_cell_angle_beta 104.577612
_cell_angle_gamma 90.000000
_cell_volume 1269.575246
_symmetry_space_group_name_H-M "C 2"
_symmetry_group_IT_number 5
_symmetry_cell_setting 'monoclinic'
loop_
_space_group_symop_operation_xyz
x,y,z
-x,y,-z
1/2+x,1/2+y,z
1/2-x,1/2+y,-z
loop_
_atom_site_type_symbol
_atom_site_label
_atom_site_fract_x
_atom_site_fract_y
_atom_site_fract_z
Si Si1 0.184634 0.829550 0.294965
Si Si2 0.923808 0.816933 0.521570
Si Si3 0.744633 0.971692 0.314378
Si Si4 0.365574 0.785619 0.889036
Si Si5 0.040545 0.508013 0.205316
Si Si6 0.035927 0.128524 0.224450
Si Si7 0.854794 0.990262 0.142381
O O1 0.133013 0.811449 0.398220
O O2 0.211555 0.647279 0.277107
O O3 0.233015 0.936664 0.448735
O O4 0.163628 0.908391 0.076487
O O5 0.950604 0.636402 0.608774
O O6 0.902495 0.875804 0.290342
O O7 0.963286 0.969830 0.634035
O O8 0.699625 0.827224 0.208034
O O9 0.799435 0.986496 0.227514
O O10 0.397542 0.659320 0.766927
O O11 0.403001 0.953355 0.868902
O O12 0.372425 0.685482 0.100615
O O13 0.017483 0.322558 0.258590
O O14 0.000000 0.579775 0.000000
O O15 0.000000 0.085969 0.000000
#
# Coordination Sequence:
#
# PCOD9122319 Si02
#       7
#     4   4   4   4   4   4   4
#     4  11  21  40  57  87 126 162 212 262 318 386
#     4  11  21  40  65  92 130 168 207 270 330 383
#     4  11  23  36  64  88 123 174 212 261 318 389
#     4  10  19  41  62  90 130 167 206 274 315 376
#     4   9  19  39  71  95 118 171 225 261 324 388
#     4   9  19  38  69  91 119 170 217 266 322 384
#     4  11  24  38  59  97 127 166 216 257 327 392
#
# _framework density 22.054618999999999
#
# number of rings (size 3 to 8) (size 9 to 14) (size 15 to 20)
#    0.857    0.857    2.857    2.143    2.000    1.143 
#    2.571    0.714    0.000    1.714    0.000    0.000 
#    0.000    0.000    0.000    0.000    0.000    0.000 
#
# Total GULP energy -78031.058026 kJ/mol
# GULP energy per Si atom -5573.647002 kJ/mol
# Density = 2.200442 g / cm^3
# Si number density = 22.054619 Si / 1000 Ang^3
#
#
#
# Elastic Constant Matrix: (Units=GPa)
#
#
# Indices 1 2 3 4 5 6 
#
# 1 84.1506 26.2282 29.2019 0.0000 -0.2599 0.0000
# 2 26.2282 110.6773 68.2892 0.0000 15.2730 0.0000
# 3 29.2019 68.2892 140.0587 0.0000 21.2394 0.0000
# 4 0.0000 0.0000 0.0000 -13.5923 0.0000 53.5974
# 5 -0.2599 15.2730 21.2394 0.0000 28.8274 0.0000
# 6 0.0000 0.0000 0.0000 53.5974 0.0000 -9.7009
#
#
#
# Elastic Compliance Matrix: (Units=1/GPa)
#
#
# Indices 1 2 3 4 5 6 
#
# 1 0.013328 -0.002248 -0.002118 0.000000 0.002872 0.000000
# 2 -0.002248 0.013462 -0.005641 0.000000 -0.002997 0.000000
# 3 -0.002118 -0.005641 0.011124 0.000000 -0.005227 0.000000
# 4 0.000000 0.000000 0.000000 0.003539 0.000000 0.019555
# 5 0.002872 -0.002997 -0.005227 0.000000 0.040154 0.000000
# 6 0.000000 0.000000 0.000000 0.019555 0.000000 0.004959
#
#
# Mechanical properties :
#
#
# Convention : Reuss Voigt Hill
#
# Bulk Modulus (GPa) = 55.86341 64.70281 60.28311
# Shear Modulus (GPa) = 44.42595 15.18466 29.80530
#
# Velocity S-wave (km/s) = 4.49303 2.62678 3.68017
# Velocity P-wave (km/s) = 7.23194 6.21299 6.74174
#
# Compressibility (1/GPa) = 0.01790080
#
# Stress axis : x y z
#
# Youngs Moduli (GPa) = 75.02987 74.28464 89.89251
#
# Poissons Ratio (x) = 0.16697 0.19043
# Poissons Ratio (y) = 0.16864 0.50704
# Poissons Ratio (z) = 0.15895 0.41901
#
# Static dielectric constant tensor:
#      x y z
#    x 1.865400 0.000000 0.021480 
#    y 0.000000 1.873100 0.000000 
#    z 0.021480 0.000000 1.807770 
# 
# From -- ./inp_files/11161.got.cif
#   From: 2010.05.17/outbox.cif.g08.bks.cpg/sg5_6_cif.got.tgz:11161.got - 2010.06.03 18:56:24.
