data_PCOD9122871
_publ_section_title
;
Structure prediction by ZEFSAII (Michael W. Deem and Ramdas Pophale) SiO2 
 PCOD9122871
Probable space group: C 2
;
_chemical_formula_sum "Si O2"
_cell_formula_units_Z 18
_cell_length_a 9.728374
_cell_length_b 9.136952
_cell_length_c 11.048154
_cell_angle_alpha 90.000000
_cell_angle_beta 60.064824
_cell_angle_gamma 90.000000
_cell_volume 851.030779
_symmetry_space_group_name_H-M "C 2"
_symmetry_group_IT_number 5
_symmetry_cell_setting 'monoclinic'
loop_
_space_group_symop_operation_xyz
x,y,z
-x,y,-z
1/2+x,1/2+y,z
1/2-x,1/2+y,-z
loop_
_atom_site_type_symbol
_atom_site_label
_atom_site_fract_x
_atom_site_fract_y
_atom_site_fract_z
Si Si1 0.000000 0.714710 0.500000
Si Si2 0.429943 0.443803 0.726148
Si Si3 0.209530 0.681643 0.783257
Si Si4 0.165061 0.683157 0.087016
Si Si5 0.731637 0.515520 0.728789
O O1 0.018984 0.824598 0.604075
O O2 0.852925 0.610627 0.596292
O O3 0.323726 0.551370 0.692822
O O4 0.320399 0.345331 0.862097
O O5 0.556770 0.530278 0.750378
O O6 0.261789 0.841543 0.716509
O O7 0.025528 0.654412 0.831401
O O8 0.219317 0.680330 0.925381
O O9 0.251063 0.574783 0.142005
#
# Coordination Sequence:
#
# PCOD9122871 Si02
#       5
#     2   4   4   4   4
#     4  10  24  40  54  82 120 150 194 244 276 324
#     4  10  22  38  59  84 114 152 193 235 281 334
#     4  10  20  36  61  87 116 151 185 228 289 345
#     4   9  20  38  57  88 122 144 181 236 286 343
#     4  10  22  39  60  83 114 153 192 235 282 333
#
# _framework density 21.150822000000002
#
# number of rings (size 3 to 8) (size 9 to 14) (size 15 to 20)
#    0.000    2.222    0.000    1.333    0.000   14.222 
#    0.000    0.000    0.000    0.000    0.000    0.000 
#    0.000    0.000    0.000    0.000    0.000    0.000 
#
# Total GULP energy -50250.116218 kJ/mol
# GULP energy per Si atom -5583.346246 kJ/mol
# Density = 2.110268 g / cm^3
# Si number density = 21.150822 Si / 1000 Ang^3
#
#
#
# Elastic Constant Matrix: (Units=GPa)
#
#
# Indices 1 2 3 4 5 6 
#
# 1 78.6488 59.1033 9.6057 0.0000 1.1476 0.0000
# 2 59.1033 98.5562 19.1548 0.0000 -16.7908 0.0000
# 3 9.6057 19.1548 61.7052 0.0000 7.5344 0.0000
# 4 0.0000 0.0000 0.0000 28.7174 0.0000 3.8973
# 5 1.1476 -16.7908 7.5344 0.0000 18.3300 0.0000
# 6 0.0000 0.0000 0.0000 3.8973 0.0000 37.5007
#
#
#
# Elastic Compliance Matrix: (Units=1/GPa)
#
#
# Indices 1 2 3 4 5 6 
#
# 1 0.030118 -0.023599 0.005798 0.000000 -0.025886 0.000000
# 2 -0.023599 0.032459 -0.010753 0.000000 0.035630 0.000000
# 3 0.005798 -0.010753 0.020939 0.000000 -0.018820 0.000000
# 4 0.000000 0.000000 0.000000 0.035320 0.000000 -0.003671
# 5 -0.025886 0.035630 -0.018820 0.000000 0.096550 0.000000
# 6 0.000000 0.000000 0.000000 -0.003671 0.000000 0.027048
#
#
# Mechanical properties :
#
#
# Convention : Reuss Voigt Hill
#
# Bulk Modulus (GPa) = 37.86604 46.07087 41.96845
# Shear Modulus (GPa) = 16.21559 26.97938 21.59749
#
# Velocity S-wave (km/s) = 2.77187 3.57539 3.19896
# Velocity P-wave (km/s) = 5.30906 6.23489 5.79051
#
# Compressibility (1/GPa) = 0.02640889
#
# Stress axis : x y z
#
# Youngs Moduli (GPa) = 33.20223 30.80846 47.75676
#
# Poissons Ratio (x) = 0.72704 -0.27688
# Poissons Ratio (y) = 0.78353 0.51352
# Poissons Ratio (z) = -0.19250 0.33128
#
# Static dielectric constant tensor:
#      x y z
#    x 1.740920 0.000000 0.017830 
#    y 0.000000 1.775420 0.000000 
#    z 0.017830 0.000000 1.802520 
# 
# From -- ./inp_files/26862.got.cif
#   From: 2010.05.17/outbox.cif.g08.bks.cpg/sg5_14_cif.got.tgz:26862.got - 2010.06.03 18:56:24.
