data_PCOD9122149
_publ_section_title
;
Structure prediction by ZEFSAII (Michael W. Deem and Ramdas Pophale) SiO2 
 PCOD9122149
Probable space group: C 2
;
_chemical_formula_sum "Si O2"
_cell_formula_units_Z 26
_cell_length_a 10.370911
_cell_length_b 11.503906
_cell_length_c 15.337547
_cell_angle_alpha 90.000000
_cell_angle_beta 143.073406
_cell_angle_gamma 90.000000
_cell_volume 1099.364730
_symmetry_space_group_name_H-M "C 2"
_symmetry_group_IT_number 5
_symmetry_cell_setting 'monoclinic'
loop_
_space_group_symop_operation_xyz
x,y,z
-x,y,-z
1/2+x,1/2+y,z
1/2-x,1/2+y,-z
loop_
_atom_site_type_symbol
_atom_site_label
_atom_site_fract_x
_atom_site_fract_y
_atom_site_fract_z
Si Si1 0.500000 0.760041 0.000000
Si Si2 0.572055 0.278266 0.441117
Si Si3 0.514734 0.029246 0.609917
Si Si4 0.464399 0.505487 0.668686
Si Si5 0.601150 0.979778 0.172683
Si Si6 0.183650 0.136560 0.932509
Si Si7 0.536166 0.839502 0.739640
O O1 0.398431 0.858110 0.880551
O O2 0.627366 0.677691 0.000164
O O3 0.500000 0.319212 0.500000
O O4 0.541262 0.366221 0.345159
O O5 0.830994 0.268520 0.592008
O O6 0.428407 0.163631 0.347442
O O7 0.500000 0.005366 0.500000
O O8 0.261607 0.033940 0.497241
O O9 0.634493 0.923491 0.719977
O O10 0.674212 0.541102 0.726698
O O11 0.504038 0.555820 0.786774
O O12 0.560743 0.935247 0.247312
O O13 0.598620 0.063022 0.956445
O O14 0.184649 0.252770 0.873685
#
# Coordination Sequence:
#
# PCOD9122149 Si02
#       7
#     2   4   4   4   4   4   4
#     4  10  24  42  74  96 140 194 244 280 364 420
#     4  10  19  38  69  97 126 182 233 288 353 422
#     4  10  23  41  67 105 139 186 235 299 366 423
#     4  11  21  39  70  99 138 177 241 295 353 432
#     4  11  22  43  71 102 136 192 241 287 356 427
#     4  11  23  43  69 102 137 181 241 298 341 437
#     4  10  22  42  66  99 140 175 240 293 355 428
#
# _framework density 23.650020000000001
#
# number of rings (size 3 to 8) (size 9 to 14) (size 15 to 20)
#    0.000    1.538    4.615    0.000    0.000    2.462 
#    0.000    6.923   13.538    0.000    0.000    0.000 
#    0.000    0.000    0.000    0.000    0.000    0.000 
#
# Total GULP energy -72452.606093 kJ/mol
# GULP energy per Si atom -5573.277392 kJ/mol
# Density = 2.359619 g / cm^3
# Si number density = 23.650020 Si / 1000 Ang^3
#
#
#
# Elastic Constant Matrix: (Units=GPa)
#
#
# Indices 1 2 3 4 5 6 
#
# 1 52.7688 51.8598 28.6540 0.0000 -4.1125 0.0000
# 2 51.8598 117.8384 56.4737 0.0000 -27.8719 0.0000
# 3 28.6540 56.4737 80.9154 0.0001 -6.3304 0.0001
# 4 0.0000 0.0000 0.0001 51.7623 0.0000 -13.4274
# 5 -4.1125 -27.8719 -6.3304 0.0000 44.7242 0.0000
# 6 0.0000 0.0000 0.0001 -13.4274 0.0000 38.6427
#
#
#
# Elastic Compliance Matrix: (Units=1/GPa)
#
#
# Indices 1 2 3 4 5 6 
#
# 1 0.035585 -0.016647 -0.001556 0.000000 -0.007322 0.000000
# 2 -0.016647 0.022942 -0.009220 0.000000 0.011462 0.000000
# 3 -0.001556 -0.009220 0.019096 0.000000 -0.003186 0.000000
# 4 0.000000 0.000000 0.000000 0.021233 0.000000 0.007378
# 5 -0.007322 0.011462 -0.003186 0.000000 0.028378 0.000000
# 6 0.000000 0.000000 0.000000 0.007378 0.000000 0.028442
#
#
# Mechanical properties :
#
#
# Convention : Reuss Voigt Hill
#
# Bulk Modulus (GPa) = 43.90531 58.38863 51.14697
# Shear Modulus (GPa) = 22.92381 34.66153 28.79267
#
# Velocity S-wave (km/s) = 3.11673 3.83247 3.49298
# Velocity P-wave (km/s) = 5.61755 6.65778 6.15966
#
# Compressibility (1/GPa) = 0.02277629
#
# Stress axis : x y z
#
# Youngs Moduli (GPa) = 28.10174 43.58767 52.36835
#
# Poissons Ratio (x) = 0.72560 0.08148
# Poissons Ratio (y) = 0.46781 0.48286
# Poissons Ratio (z) = 0.04372 0.40190
#
# Static dielectric constant tensor:
#      x y z
#    x 1.997850 0.000000 0.021220 
#    y 0.000000 1.994490 0.000000 
#    z 0.021220 0.000000 1.927990 
# 
# From -- ./inp_files/52598.got.cif
#   From: 2010.05.17/outbox.cif.g08.bks.cpg/sg5_27_cif.got.tgz:52598.got - 2010.06.03 18:56:24.
