data_PCOD9122320
_publ_section_title
;
Structure prediction by ZEFSAII (Michael W. Deem and Ramdas Pophale) SiO2 
 PCOD9122320
Probable space group: C 2
;
_chemical_formula_sum "Si O2"
_cell_formula_units_Z 28
_cell_length_a 17.064979
_cell_length_b 7.255352
_cell_length_c 10.003270
_cell_angle_alpha 90.000000
_cell_angle_beta 105.423289
_cell_angle_gamma 90.000000
_cell_volume 1193.926487
_symmetry_space_group_name_H-M "C 2"
_symmetry_group_IT_number 5
_symmetry_cell_setting 'monoclinic'
loop_
_space_group_symop_operation_xyz
x,y,z
-x,y,-z
1/2+x,1/2+y,z
1/2-x,1/2+y,-z
loop_
_atom_site_type_symbol
_atom_site_label
_atom_site_fract_x
_atom_site_fract_y
_atom_site_fract_z
Si Si1 0.749447 0.907020 0.748708
Si Si2 0.731524 0.993026 0.273346
Si Si3 0.079958 0.312126 0.593985
Si Si4 0.840950 0.994017 0.058236
Si Si5 0.655386 0.513143 0.442282
Si Si6 0.082421 0.290878 0.085123
Si Si7 0.501181 0.504345 0.753199
O O1 0.776544 0.710077 0.702194
O O2 0.652119 0.921294 0.698653
O O3 0.790749 0.045735 0.664452
O O4 0.789162 0.918570 0.911606
O O5 0.784959 0.988452 0.162357
O O6 0.787704 0.922218 0.419804
O O7 0.644896 0.908464 0.199353
O O8 0.122834 0.203819 0.491364
O O9 0.047286 0.149094 0.676225
O O10 0.000000 0.410875 0.500000
O O11 0.926158 0.898021 0.139294
O O12 0.869799 0.195152 0.016660
O O13 0.571337 0.410743 0.362852
O O14 0.046605 0.123035 0.157323
O O15 0.000000 0.391771 0.000000
#
# Coordination Sequence:
#
# PCOD9122320 Si02
#       7
#     4   4   4   4   4   4   4
#     4  11  22  38  61  98 121 158 206 258 308 349
#     4  11  24  39  61  95 126 158 200 264 309 352
#     4   9  20  38  63  92 120 159 207 250 297 365
#     4  11  21  40  65  90 122 162 213 245 296 374
#     4  10  21  36  61  90 120 155 209 248 297 359
#     4  10  23  40  65  90 123 164 210 245 305 371
#     4  10  19  41  62  93 112 168 207 246 284 390
#
# _framework density 23.452027999999999
#
# number of rings (size 3 to 8) (size 9 to 14) (size 15 to 20)
#    0.000    1.714    4.286    0.857    8.000    0.000 
#    2.571    0.000    0.000    0.000   14.857    0.000 
#    0.000    0.000    0.000    0.000    0.000    0.000 
#
# Total GULP energy -78138.125655 kJ/mol
# GULP energy per Si atom -5581.294690 kJ/mol
# Density = 2.339865 g / cm^3
# Si number density = 23.452028 Si / 1000 Ang^3
#
#
#
# Elastic Constant Matrix: (Units=GPa)
#
#
# Indices 1 2 3 4 5 6 
#
# 1 147.7138 17.6161 84.6462 0.0000 49.1016 0.0000
# 2 17.6161 18.0565 13.3574 0.0000 21.5242 0.0000
# 3 84.6462 13.3574 189.6996 0.0000 53.4312 0.0000
# 4 0.0000 0.0000 0.0000 24.3819 0.0000 14.0998
# 5 49.1016 21.5242 53.4312 0.0000 78.3949 0.0000
# 6 0.0000 0.0000 0.0000 14.0998 0.0000 24.1086
#
#
#
# Elastic Compliance Matrix: (Units=1/GPa)
#
#
# Indices 1 2 3 4 5 6 
#
# 1 0.010189 -0.003839 -0.003435 0.000000 -0.002986 0.000000
# 2 -0.003839 0.083850 0.002000 0.000000 -0.021980 0.000000
# 3 -0.003435 0.002000 0.007688 0.000000 -0.003638 0.000000
# 4 0.000000 0.000000 0.000000 0.061975 0.000000 -0.036245
# 5 -0.002986 -0.021980 -0.003638 0.000000 0.023141 0.000000
# 6 0.000000 0.000000 0.000000 -0.036245 0.000000 0.062677
#
#
# Mechanical properties :
#
#
# Convention : Reuss Voigt Hill
#
# Bulk Modulus (GPa) = 10.96758 65.18992 38.07875
# Shear Modulus (GPa) = 17.21412 41.36707 29.29060
#
# Velocity S-wave (km/s) = 2.71221 4.20444 3.53789
# Velocity P-wave (km/s) = 3.80721 7.17128 5.74117
#
# Compressibility (1/GPa) = 0.09117779
#
# Stress axis : x y z
#
# Youngs Moduli (GPa) = 98.14756 11.92613 130.07450
#
# Poissons Ratio (x) = 0.04579 0.44679
# Poissons Ratio (y) = 0.37683 -0.26016
# Poissons Ratio (z) = 0.33712 -0.02385
#
# Static dielectric constant tensor:
#      x y z
#    x 1.917400 0.000000 0.036850 
#    y 0.000000 1.953610 0.000000 
#    z 0.036850 0.000000 1.994410 
# 
# From -- ./inp_files/41773.got.cif
#   From: 2010.05.17/outbox.cif.g08.bks.cpg/sg5_21_cif.got.tgz:41773.got - 2010.06.03 18:56:24.
