data_PCOD9122313
_publ_section_title
;
Structure prediction by ZEFSAII (Michael W. Deem and Ramdas Pophale) SiO2 
 PCOD9122313
Probable space group: C 2
;
_chemical_formula_sum "Si O2"
_cell_formula_units_Z 22
_cell_length_a 19.793916
_cell_length_b 12.062217
_cell_length_c 10.471011
_cell_angle_alpha 90.000000
_cell_angle_beta 19.064636
_cell_angle_gamma 90.000000
_cell_volume 816.600533
_symmetry_space_group_name_H-M "C 2"
_symmetry_group_IT_number 5
_symmetry_cell_setting 'monoclinic'
loop_
_space_group_symop_operation_xyz
x,y,z
-x,y,-z
1/2+x,1/2+y,z
1/2-x,1/2+y,-z
loop_
_atom_site_type_symbol
_atom_site_label
_atom_site_fract_x
_atom_site_fract_y
_atom_site_fract_z
Si Si1 0.163115 0.542480 0.903231
Si Si2 0.933602 0.239852 0.903333
Si Si3 0.500000 0.891174 0.000000
Si Si4 0.454553 0.279146 0.828713
Si Si5 0.234075 0.391164 0.999972
Si Si6 0.716778 0.503189 0.828634
O O1 0.163070 0.476263 0.771384
O O2 0.172396 0.674851 0.889719
O O3 0.922139 0.525444 0.380805
O O4 0.293004 0.473509 0.777125
O O5 0.065496 0.306079 0.771460
O O6 0.697013 0.256889 0.380909
O O7 0.929825 0.308817 0.777204
O O8 0.937838 0.107482 0.889812
O O9 0.374876 0.304613 0.827297
O O10 0.400170 0.391170 0.000049
O O11 0.202174 0.477722 0.172692
#
# Coordination Sequence:
#
# PCOD9122313 Si02
#       6
#     4   4   2   4   4   4
#     4  10  19  41  56  86 123 153 203 243 302 354
#     4  10  19  41  56  86 123 153 203 243 302 354
#     4  10  24  40  60  72 120 174 188 254 296 354
#     4   9  20  35  61  91 113 155 193 256 304 345
#     4   9  18  31  62  87 116 153 196 242 310 353
#     4   9  20  35  61  91 113 155 193 256 304 345
#
# _framework density 26.940957000000001
#
# number of rings (size 3 to 8) (size 9 to 14) (size 15 to 20)
#    1.091    1.455    0.000    2.182    0.000    2.909 
#   13.091    5.455   16.000    0.000    0.000    0.000 
#    0.000    0.000    0.000    0.000    0.000    0.000 
#
# Total GULP energy -61394.286034 kJ/mol
# GULP energy per Si atom -5581.298730 kJ/mol
# Density = 2.687964 g / cm^3
# Si number density = 26.940957 Si / 1000 Ang^3
#
#
#
# Elastic Constant Matrix: (Units=GPa)
#
#
# Indices 1 2 3 4 5 6 
#
# 1 143.3158 66.5900 18.3357 -0.0024 0.9567 0.0016
# 2 66.5900 271.0686 13.9702 -0.0023 0.5873 0.0013
# 3 18.3357 13.9702 74.9184 -0.0048 -0.2032 0.0025
# 4 -0.0024 -0.0023 -0.0048 45.5558 0.0025 -0.1796
# 5 0.9567 0.5873 -0.2032 0.0025 19.2518 -0.0017
# 6 0.0016 0.0013 0.0025 -0.1796 -0.0017 29.9289
#
#
#
# Elastic Compliance Matrix: (Units=1/GPa)
#
#
# Indices 1 2 3 4 5 6 
#
# 1 0.008069 -0.001898 -0.001622 0.000000 -0.000360 0.000000
# 2 -0.001898 0.004172 -0.000313 0.000000 -0.000036 0.000000
# 3 -0.001622 -0.000313 0.013804 0.000001 0.000236 -0.000001
# 4 0.000000 0.000000 0.000001 0.021952 -0.000003 0.000132
# 5 -0.000360 -0.000036 0.000236 -0.000003 0.051965 0.000003
# 6 0.000000 0.000000 -0.000001 0.000132 0.000003 0.033413
#
#
# Mechanical properties :
#
#
# Convention : Reuss Voigt Hill
#
# Bulk Modulus (GPa) = 54.41263 76.34385 65.37824
# Shear Modulus (GPa) = 33.97495 44.97443 39.47469
#
# Velocity S-wave (km/s) = 3.55503 4.09023 3.83198
# Velocity P-wave (km/s) = 6.09031 7.12078 6.62561
#
# Compressibility (1/GPa) = 0.01837809
#
# Stress axis : x y z
#
# Youngs Moduli (GPa) = 123.92548 239.71749 72.44322
#
# Poissons Ratio (x) = 0.45497 0.11750
# Poissons Ratio (y) = 0.23520 0.02271
# Poissons Ratio (z) = 0.20100 0.07515
#
# Static dielectric constant tensor:
#      x y z
#    x 2.039710 0.000000 -0.005570 
#    y 0.000000 2.138780 0.000000 
#    z -0.005570 0.000000 2.538550 
# 
# From -- ./inp_files/46215.got.cif
#   From: 2010.05.17/outbox.cif.g08.bks.cpg/sg5_24_cif.got.tgz:46215.got - 2010.06.03 18:56:24.
