data_PCOD9122375
_publ_section_title
;
Structure prediction by ZEFSAII (Michael W. Deem and Ramdas Pophale) SiO2 
 PCOD9122375
Probable space group: C 2
;
_chemical_formula_sum "Si O2"
_cell_formula_units_Z 30
_cell_length_a 9.361556
_cell_length_b 16.977044
_cell_length_c 15.255843
_cell_angle_alpha 90.000000
_cell_angle_beta 39.495234
_cell_angle_gamma 90.000000
_cell_volume 1542.101722
_symmetry_space_group_name_H-M "C 2"
_symmetry_group_IT_number 5
_symmetry_cell_setting 'monoclinic'
loop_
_space_group_symop_operation_xyz
x,y,z
-x,y,-z
1/2+x,1/2+y,z
1/2-x,1/2+y,-z
loop_
_atom_site_type_symbol
_atom_site_label
_atom_site_fract_x
_atom_site_fract_y
_atom_site_fract_z
Si Si1 0.213227 0.841950 0.224253
Si Si2 0.258770 0.837777 0.995558
Si Si3 0.467098 0.180056 0.922323
Si Si4 0.907318 0.572622 0.791311
Si Si5 0.358225 0.499680 0.652015
Si Si6 0.000000 0.964036 0.000000
Si Si7 0.057937 0.695285 0.569837
Si Si8 0.043361 0.176126 0.375890
O O1 0.198397 0.831031 0.126991
O O2 0.128242 0.928740 0.287721
O O3 0.078630 0.772636 0.336225
O O4 0.472340 0.842460 0.132766
O O5 0.179343 0.756610 0.989783
O O6 0.129001 0.908778 0.009111
O O7 0.352791 0.128678 0.900461
O O8 0.711858 0.204698 0.768839
O O9 0.500000 0.136820 0.000000
O O10 0.693221 0.520322 0.868384
O O11 0.109204 0.519305 0.733988
O O12 0.001579 0.627783 0.668638
O O13 0.500000 0.477786 0.500000
O O14 0.449312 0.582348 0.646197
O O15 0.323294 0.713882 0.439837
O O16 0.000000 0.668251 0.500000
O O17 0.000000 0.183889 0.500000
#
# Coordination Sequence:
#
# PCOD9122375 Si02
#       8
#     4   4   4   4   4   2   4   4
#     4  11  24  42  66  95 135 176 225 272 343 401
#     4  11  24  43  63  95 138 174 214 284 333 401
#     4  11  23  40  72  95 132 178 226 269 342 400
#     4  11  24  44  65 100 134 174 223 289 329 399
#     4  10  19  42  69  86 127 176 217 268 333 393
#     4  12  26  42  70  96 140 170 224 278 352 392
#     4  12  25  40  67 103 130 173 228 282 334 397
#     4  10  20  43  67  91 132 174 219 272 326 404
#
# _framework density 19.453969000000001
#
# number of rings (size 3 to 8) (size 9 to 14) (size 15 to 20)
#    0.000    1.067    7.333    0.400    3.733    3.200 
#    2.400    0.000    0.000    0.000    0.000    0.000 
#    0.000    0.000    0.000    0.000    0.000    0.000 
#
# Total GULP energy -83726.858835 kJ/mol
# GULP energy per Si atom -5581.790589 kJ/mol
# Density = 1.940969 g / cm^3
# Si number density = 19.453969 Si / 1000 Ang^3
#
#
#
# Elastic Constant Matrix: (Units=GPa)
#
#
# Indices 1 2 3 4 5 6 
#
# 1 84.7692 32.8733 16.5366 -0.0002 -4.8712 0.0002
# 2 32.8733 33.0217 11.2057 0.0007 -1.5209 -0.0002
# 3 16.5366 11.2057 53.0599 -0.0010 -11.0401 0.0003
# 4 -0.0002 0.0007 -0.0010 25.4909 0.0005 -9.6429
# 5 -4.8712 -1.5209 -11.0401 0.0005 32.4195 -0.0004
# 6 0.0002 -0.0002 0.0003 -9.6429 -0.0004 21.7611
#
#
#
# Elastic Compliance Matrix: (Units=1/GPa)
#
#
# Indices 1 2 3 4 5 6 
#
# 1 0.019496 -0.018723 -0.001824 0.000001 0.001430 0.000000
# 2 -0.018723 0.050625 -0.005325 -0.000002 -0.002252 0.000000
# 3 -0.001824 -0.005325 0.021989 0.000001 0.006964 0.000000
# 4 0.000001 -0.000002 0.000001 0.047130 0.000000 0.020885
# 5 0.001430 -0.002252 0.006964 0.000000 0.033326 0.000000
# 6 0.000000 0.000000 0.000000 0.020885 0.000000 0.055208
#
#
# Mechanical properties :
#
#
# Convention : Reuss Voigt Hill
#
# Bulk Modulus (GPa) = 24.77383 32.45355 28.61369
# Shear Modulus (GPa) = 17.06640 23.28332 20.17486
#
# Velocity S-wave (km/s) = 2.96509 3.46329 3.22383
# Velocity P-wave (km/s) = 4.94819 5.71935 5.34769
#
# Compressibility (1/GPa) = 0.04036517
#
# Stress axis : x y z
#
# Youngs Moduli (GPa) = 51.29377 19.75299 45.47783
#
# Poissons Ratio (x) = 0.36984 0.08297
# Poissons Ratio (y) = 0.96037 0.24216
# Poissons Ratio (z) = 0.09358 0.10518
#
# Static dielectric constant tensor:
#      x y z
#    x 1.710910 0.000000 -0.022320 
#    y 0.000000 1.683070 0.000000 
#    z -0.022320 0.000000 1.682770 
# 
# From -- ./inp_files/51365.got.cif
#   From: 2010.05.17/outbox.cif.g08.bks.cpg/sg5_26_cif.got.tgz:51365.got - 2010.06.03 18:56:24.
