data_PCOD9122241
_publ_section_title
;
Structure prediction by ZEFSAII (Michael W. Deem and Ramdas Pophale) SiO2 
 PCOD9122241
Probable space group: C 2
;
_chemical_formula_sum "Si O2"
_cell_formula_units_Z 24
_cell_length_a 12.850327
_cell_length_b 14.225845
_cell_length_c 8.142920
_cell_angle_alpha 90.000000
_cell_angle_beta 136.638081
_cell_angle_gamma 90.000000
_cell_volume 1022.066216
_symmetry_space_group_name_H-M "C 2"
_symmetry_group_IT_number 5
_symmetry_cell_setting 'monoclinic'
loop_
_space_group_symop_operation_xyz
x,y,z
-x,y,-z
1/2+x,1/2+y,z
1/2-x,1/2+y,-z
loop_
_atom_site_type_symbol
_atom_site_label
_atom_site_fract_x
_atom_site_fract_y
_atom_site_fract_z
Si Si1 0.678351 0.053970 0.756198
Si Si2 0.110848 0.236430 0.979241
Si Si3 0.685199 0.710332 0.537184
Si Si4 0.028964 0.756793 0.335454
Si Si5 0.725334 0.363085 0.092711
Si Si6 0.370999 0.078244 0.957184
O O1 0.500000 0.060758 0.500000
O O2 0.749240 0.958334 0.772716
O O3 0.777650 0.147980 0.851972
O O4 0.690869 0.022844 0.961778
O O5 0.194533 0.322203 0.984066
O O6 0.986463 0.197346 0.709138
O O7 0.000000 0.265546 0.000000
O O8 0.710142 0.786880 0.705316
O O9 0.751012 0.615756 0.691420
O O10 0.797462 0.744036 0.519201
O O11 0.000000 0.759553 0.500000
O O12 0.949706 0.844909 0.156223
O O13 0.947514 0.668076 0.144718
O O14 0.500000 0.029644 0.000000
#
# Coordination Sequence:
#
# PCOD9122241 Si02
#       6
#     4   4   4   4   4   4
#     4  12  26  44  69  97 143 184 234 284 347 414
#     4  12  26  41  71 103 137 179 236 291 347 403
#     4  10  21  41  70  94 135 171 224 283 343 411
#     4  10  19  39  70  97 129 176 224 276 341 412
#     4  11  24  45  67 100 137 190 226 280 352 419
#     4   9  20  36  68  93 125 174 222 268 346 400
#
# _framework density 23.481846000000001
#
# number of rings (size 3 to 8) (size 9 to 14) (size 15 to 20)
#    0.000    1.333    3.333    4.500    4.667    2.000 
#    3.000    1.667    0.000    0.000    0.000    0.000 
#    0.000    0.000    0.000    0.000    0.000    0.000 
#
# Total GULP energy -66826.931049 kJ/mol
# GULP energy per Si atom -5568.910921 kJ/mol
# Density = 2.342840 g / cm^3
# Si number density = 23.481846 Si / 1000 Ang^3
#
#
#
# Elastic Constant Matrix: (Units=GPa)
#
#
# Indices 1 2 3 4 5 6 
#
# 1 100.7740 7.6742 26.3937 0.0000 -10.5782 0.0000
# 2 7.6742 82.1951 38.2894 0.0000 16.9504 0.0000
# 3 26.3937 38.2894 135.2148 0.0000 26.4611 0.0000
# 4 0.0000 0.0000 0.0000 16.0054 0.0000 5.1725
# 5 -10.5782 16.9504 26.4611 0.0000 46.8741 0.0000
# 6 0.0000 0.0000 0.0000 5.1725 0.0000 -2.6980
#
#
#
# Elastic Compliance Matrix: (Units=1/GPa)
#
#
# Indices 1 2 3 4 5 6 
#
# 1 0.011177 -0.000609 -0.002862 0.000000 0.004358 0.000000
# 2 -0.000609 0.014482 -0.003294 0.000000 -0.003515 0.000000
# 3 -0.002862 -0.003294 0.009871 0.000000 -0.005027 0.000000
# 4 0.000000 0.000000 0.000000 0.038577 0.000000 0.073960
# 5 0.004358 -0.003515 -0.005027 0.000000 0.026426 0.000000
# 6 0.000000 0.000000 0.000000 0.073960 0.000000 -0.228856
#
#
# Mechanical properties :
#
#
# Convention : Reuss Voigt Hill
#
# Bulk Modulus (GPa) = 45.45625 51.43317 48.44471
# Shear Modulus (GPa) = -46.52938 28.42474 -9.05232
#
# Velocity S-wave (km/s) = -4.45624 3.48300 -1.96555
# Velocity P-wave (km/s) = 2.66033 6.17462 3.94009
#
# Compressibility (1/GPa) = 0.02199918
#
# Stress axis : x y z
#
# Youngs Moduli (GPa) = 89.47227 69.04889 101.30740
#
# Poissons Ratio (x) = 0.04205 0.28995
# Poissons Ratio (y) = 0.05449 0.33374
# Poissons Ratio (z) = 0.25608 0.22747
#
# Static dielectric constant tensor:
#      x y z
#    x 2.046820 0.000000 -0.043670 
#    y 0.000000 1.920770 0.000000 
#    z -0.043670 0.000000 1.923830 
# 
# From -- ./inp_files/24722.got.cif
#   From: 2010.05.17/outbox.cif.g08.bks.cpg/sg5_13_cif.got.tgz:24722.got - 2010.06.03 18:56:24.
