data_PCOD9122445
_publ_section_title
;
Structure prediction by ZEFSAII (Michael W. Deem and Ramdas Pophale) SiO2 
 PCOD9122445
Probable space group: C 2
;
_chemical_formula_sum "Si O2"
_cell_formula_units_Z 26
_cell_length_a 15.766688
_cell_length_b 6.646574
_cell_length_c 12.243377
_cell_angle_alpha 90.000000
_cell_angle_beta 129.104490
_cell_angle_gamma 90.000000
_cell_volume 995.633664
_symmetry_space_group_name_H-M "C 2"
_symmetry_group_IT_number 5
_symmetry_cell_setting 'monoclinic'
loop_
_space_group_symop_operation_xyz
x,y,z
-x,y,-z
1/2+x,1/2+y,z
1/2-x,1/2+y,-z
loop_
_atom_site_type_symbol
_atom_site_label
_atom_site_fract_x
_atom_site_fract_y
_atom_site_fract_z
Si Si1 0.399245 0.603220 0.852861
Si Si2 0.288348 0.220783 0.431145
Si Si3 0.000000 0.742073 0.500000
Si Si4 0.473898 0.917403 0.295012
Si Si5 0.743248 0.291712 0.136038
Si Si6 0.826315 0.251326 0.437117
Si Si7 0.015956 0.698856 0.885557
O O1 0.324130 0.751765 0.724007
O O2 0.319007 0.493290 0.873518
O O3 0.454100 0.417198 0.826974
O O4 0.500000 0.694581 0.000000
O O5 0.393276 0.344790 0.471805
O O6 0.256339 0.205516 0.531617
O O7 0.318426 0.994076 0.424762
O O8 0.955748 0.598506 0.367217
O O9 0.357990 0.822845 0.171268
O O10 0.549784 0.748914 0.414434
O O11 0.522301 0.036420 0.232022
O O12 0.780555 0.186597 0.281559
O O13 0.648174 0.202178 0.983920
O O14 0.000000 0.650603 0.000000
#
# Coordination Sequence:
#
# PCOD9122445 Si02
#       7
#     4   4   2   4   4   4   4
#     4   8  16  34  57  78 111 156 200 227 295 373
#     4  10  20  36  58  89 110 156 199 250 294 356
#     4  10  20  32  64  82 114 150 210 240 298 342
#     4  11  18  38  60  87 114 161 202 251 291 365
#     4   9  17  37  56  85 110 161 198 232 301 368
#     4  10  21  34  65  84 118 154 206 244 297 363
#     4   9  21  34  62  83 117 161 203 244 306 362
#
# _framework density 26.114021000000001
#
# number of rings (size 3 to 8) (size 9 to 14) (size 15 to 20)
#    0.000    2.769    4.615    0.000   12.923    0.000 
#    5.538    2.308    3.385    0.000    0.000    0.000 
#    0.000    0.000    0.000    0.000    0.000    0.000 
#
# Total GULP energy -72477.294631 kJ/mol
# GULP energy per Si atom -5575.176510 kJ/mol
# Density = 2.605458 g / cm^3
# Si number density = 26.114021 Si / 1000 Ang^3
#
#
#
# Elastic Constant Matrix: (Units=GPa)
#
#
# Indices 1 2 3 4 5 6 
#
# 1 133.2345 8.8740 49.6538 0.0000 23.0004 0.0000
# 2 8.8740 45.1972 21.2451 0.0000 9.4068 0.0000
# 3 49.6538 21.2451 98.4554 0.0000 29.5821 0.0000
# 4 0.0000 0.0000 0.0000 24.0580 0.0000 -7.4697
# 5 23.0004 9.4068 29.5821 0.0000 65.1654 0.0000
# 6 0.0000 0.0000 0.0000 -7.4697 0.0000 12.3321
#
#
#
# Elastic Compliance Matrix: (Units=1/GPa)
#
#
# Indices 1 2 3 4 5 6 
#
# 1 0.009354 0.000526 -0.004419 0.000000 -0.001372 0.000000
# 2 0.000526 0.024751 -0.005184 0.000000 -0.001405 0.000000
# 3 -0.004419 -0.005184 0.014834 0.000000 -0.004426 0.000000
# 4 0.000000 0.000000 0.000000 0.051194 0.000000 0.031009
# 5 -0.001372 -0.001405 -0.004426 0.000000 0.018042 0.000000
# 6 0.000000 0.000000 0.000000 0.031009 0.000000 0.099872
#
#
# Mechanical properties :
#
#
# Convention : Reuss Voigt Hill
#
# Bulk Modulus (GPa) = 32.48290 48.49255 40.48773
# Shear Modulus (GPa) = 20.28707 33.45205 26.86956
#
# Velocity S-wave (km/s) = 2.79025 3.58299 3.21118
# Velocity P-wave (km/s) = 4.77981 5.97720 5.41172
#
# Compressibility (1/GPa) = 0.03078542
#
# Stress axis : x y z
#
# Youngs Moduli (GPa) = 106.90433 40.40211 67.41296
#
# Poissons Ratio (x) = -0.02125 0.29790
# Poissons Ratio (y) = -0.05623 0.34947
# Poissons Ratio (z) = 0.47241 0.20944
#
# Static dielectric constant tensor:
#      x y z
#    x 2.237930 0.000000 0.047790 
#    y 0.000000 2.107060 0.000000 
#    z 0.047790 0.000000 2.155390 
# 
# From -- ./inp_files/42519.got.cif
#   From: 2010.05.17/outbox.cif.g08.bks.cpg/sg5_22_cif.got.tgz:42519.got - 2010.06.03 18:56:24.
