data_PCOD9122719
_publ_section_title
;
Structure prediction by ZEFSAII (Michael W. Deem and Ramdas Pophale) SiO2 
 PCOD9122719
Probable space group: C 2
;
_chemical_formula_sum "Si O2"
_cell_formula_units_Z 24
_cell_length_a 14.269990
_cell_length_b 15.168502
_cell_length_c 6.973804
_cell_angle_alpha 90.000000
_cell_angle_beta 142.223263
_cell_angle_gamma 90.000000
_cell_volume 924.705199
_symmetry_space_group_name_H-M "C 2"
_symmetry_group_IT_number 5
_symmetry_cell_setting 'monoclinic'
loop_
_space_group_symop_operation_xyz
x,y,z
-x,y,-z
1/2+x,1/2+y,z
1/2-x,1/2+y,-z
loop_
_atom_site_type_symbol
_atom_site_label
_atom_site_fract_x
_atom_site_fract_y
_atom_site_fract_z
Si Si1 0.874092 0.129290 0.505772
Si Si2 0.000000 0.967876 0.500000
Si Si3 0.711824 0.820492 0.720495
Si Si4 0.783192 0.162980 0.776921
Si Si5 0.092171 0.412356 0.890475
Si Si6 0.500000 0.070635 0.500000
Si Si7 0.331438 0.357361 0.528512
O O1 0.796124 0.214677 0.280953
O O2 0.797938 0.116448 0.591680
O O3 0.878675 0.043857 0.377285
O O4 0.050613 0.153766 0.853430
O O5 0.966767 0.900776 0.623671
O O6 0.709303 0.875323 0.913825
O O7 0.548289 0.845755 0.360885
O O8 0.835592 0.848810 0.763297
O O9 0.649833 0.122861 0.687575
O O10 0.724216 0.261457 0.635717
O O11 0.033681 0.506075 0.730847
O O12 0.180301 0.413395 0.229600
#
# Coordination Sequence:
#
# PCOD9122719 Si02
#       7
#     4   2   4   4   4   2   4
#     4  10  21  38  61  88 118 162 203 250 298 375
#     4  12  25  35  60  96 128 146 204 271 311 342
#     4   9  19  38  63  85 112 158 206 243 288 369
#     4  10  21  40  62  83 123 164 201 238 319 364
#     4  10  20  35  64  86 112 152 208 247 289 356
#     4  10  21  35  60  92 118 154 196 263 297 360
#     4  11  22  39  60  89 120 161 197 251 305 366
#
# _framework density 25.954217
#
# number of rings (size 3 to 8) (size 9 to 14) (size 15 to 20)
#    0.000    2.000    1.667    3.000    4.667    0.000 
#    0.000    0.000    0.000    0.000    0.000    0.000 
#    0.000    0.000    0.000    0.000    0.000    0.000 
#
# Total GULP energy -67020.013093 kJ/mol
# GULP energy per Si atom -5585.001091 kJ/mol
# Density = 2.589514 g / cm^3
# Si number density = 25.954217 Si / 1000 Ang^3
#
#
#
# Elastic Constant Matrix: (Units=GPa)
#
#
# Indices 1 2 3 4 5 6 
#
# 1 183.0741 63.6625 39.0688 0.0000 11.2603 0.0000
# 2 63.6625 99.8663 39.9820 0.0000 -6.4946 0.0000
# 3 39.0688 39.9820 85.8022 0.0000 -0.3683 0.0000
# 4 0.0000 0.0000 0.0000 -2.5216 0.0000 3.0061
# 5 11.2603 -6.4946 -0.3683 0.0000 46.7607 0.0000
# 6 0.0000 0.0000 0.0000 3.0061 0.0000 53.8364
#
#
#
# Elastic Compliance Matrix: (Units=1/GPa)
#
#
# Indices 1 2 3 4 5 6 
#
# 1 0.007407 -0.004331 -0.001365 0.000000 -0.002396 0.000000
# 2 -0.004331 0.014974 -0.004992 0.000000 0.003083 0.000000
# 3 -0.001365 -0.004992 0.014601 0.000000 -0.000250 0.000000
# 4 0.000000 0.000000 0.000000 -0.371820 0.000000 0.020761
# 5 -0.002396 0.003083 -0.000250 0.000000 0.022389 0.000000
# 6 0.000000 0.000000 0.000000 0.020761 0.000000 0.017416
#
#
# Mechanical properties :
#
#
# Convention : Reuss Voigt Hill
#
# Bulk Modulus (GPa) = 64.07813 72.68546 68.38179
# Shear Modulus (GPa) = -18.62503 34.68372 8.02935
#
# Velocity S-wave (km/s) = -2.68173 3.65957 1.76079
# Velocity P-wave (km/s) = 3.89276 6.77662 5.52613
#
# Compressibility (1/GPa) = 0.01560595
#
# Stress axis : x y z
#
# Youngs Moduli (GPa) = 135.00689 66.78442 68.48767
#
# Poissons Ratio (x) = 0.28926 0.09346
# Poissons Ratio (y) = 0.58475 0.34189
# Poissons Ratio (z) = 0.18424 0.33338
#
# Static dielectric constant tensor:
#      x y z
#    x 2.117210 0.000000 0.026340 
#    y 0.000000 2.032540 0.000000 
#    z 0.026340 0.000000 2.066540 
# 
# From -- ./inp_files/24765.got.cif
#   From: 2010.05.17/outbox.cif.g08.bks.cpg/sg5_13_cif.got.tgz:24765.got - 2010.06.03 18:56:24.
