data_PCOD9122392
_publ_section_title
;
Structure prediction by ZEFSAII (Michael W. Deem and Ramdas Pophale) SiO2 
 PCOD9122392
Probable space group: C 2
;
_chemical_formula_sum "Si O2"
_cell_formula_units_Z 22
_cell_length_a 10.122973
_cell_length_b 10.690977
_cell_length_c 10.497108
_cell_angle_alpha 90.000000
_cell_angle_beta 102.822510
_cell_angle_gamma 90.000000
_cell_volume 1107.713572
_symmetry_space_group_name_H-M "C 2"
_symmetry_group_IT_number 5
_symmetry_cell_setting 'monoclinic'
loop_
_space_group_symop_operation_xyz
x,y,z
-x,y,-z
1/2+x,1/2+y,z
1/2-x,1/2+y,-z
loop_
_atom_site_type_symbol
_atom_site_label
_atom_site_fract_x
_atom_site_fract_y
_atom_site_fract_z
Si Si1 0.421425 0.464740 0.227931
Si Si2 0.245659 0.845401 0.598828
Si Si3 0.130983 0.601589 0.440424
Si Si4 0.208807 0.664320 0.184239
Si Si5 0.500000 0.316073 0.000000
Si Si6 0.010295 0.221229 0.654541
O O1 0.372446 0.369321 0.324968
O O2 0.614765 0.130079 0.285741
O O3 0.508791 0.576112 0.309467
O O4 0.486218 0.399482 0.122312
O O5 0.201969 0.726367 0.507801
O O6 0.392420 0.806542 0.686833
O O7 0.274207 0.977929 0.536243
O O8 0.215824 0.037771 0.841807
O O9 0.000000 0.578320 0.500000
O O10 0.336673 0.746082 0.264395
O O11 0.128920 0.729692 0.055375
O O12 0.000000 0.234740 0.500000
#
# Coordination Sequence:
#
# PCOD9122392 Si02
#       6
#     4   4   4   4   2   4
#     4   9  24  40  62  93 118 176 210 256 319 362
#     4  11  21  41  63  96 131 159 213 261 320 382
#     4  11  23  37  63  98 127 168 206 254 335 369
#     4   9  23  42  58  94 124 162 213 261 305 375
#     4  12  22  46  60  84 132 166 222 250 304 372
#     4  10  19  44  63  94 130 153 207 269 319 371
#
# _framework density 19.860728000000002
#
# number of rings (size 3 to 8) (size 9 to 14) (size 15 to 20)
#    1.091    0.727    1.818    1.636    0.000    6.545 
#    6.545    0.000    0.000    0.000    0.000    0.000 
#    0.000    0.000    0.000    0.000    0.000    0.000 
#
# Total GULP energy -61290.896161 kJ/mol
# GULP energy per Si atom -5571.899651 kJ/mol
# Density = 1.981552 g / cm^3
# Si number density = 19.860728 Si / 1000 Ang^3
#
#
#
# Elastic Constant Matrix: (Units=GPa)
#
#
# Indices 1 2 3 4 5 6 
#
# 1 24.1602 13.3407 -4.9280 0.0000 -7.7712 0.0000
# 2 13.3407 97.1622 17.4095 0.0000 -3.4361 0.0000
# 3 -4.9280 17.4095 16.1642 0.0000 17.3177 0.0000
# 4 0.0000 0.0000 0.0000 17.7402 0.0000 8.0495
# 5 -7.7712 -3.4361 17.3177 0.0000 33.6012 0.0000
# 6 0.0000 0.0000 0.0000 8.0495 0.0000 38.3919
#
#
#
# Elastic Compliance Matrix: (Units=1/GPa)
#
#
# Indices 1 2 3 4 5 6 
#
# 1 0.057608 -0.018779 0.057102 0.000000 -0.018027 0.000000
# 2 -0.018779 0.027866 -0.076229 0.000000 0.037794 0.000000
# 3 0.057102 -0.076229 0.347407 0.000000 -0.173639 0.000000
# 4 0.000000 0.000000 0.000000 0.062296 0.000000 -0.013061
# 5 -0.018027 0.037794 -0.173639 0.000000 0.118949 0.000000
# 6 0.000000 0.000000 0.000000 -0.013061 0.000000 0.028786
#
#
# Mechanical properties :
#
#
# Convention : Reuss Voigt Hill
#
# Bulk Modulus (GPa) = 2.80058 21.01455 11.90756
# Shear Modulus (GPa) = 5.96839 25.39094 15.67967
#
# Velocity S-wave (km/s) = 1.73541 3.57942 2.81282
# Velocity P-wave (km/s) = 2.32996 5.26184 4.06913
#
# Compressibility (1/GPa) = 0.35706883
#
# Stress axis : x y z
#
# Youngs Moduli (GPa) = 17.35856 35.88633 2.87847
#
# Poissons Ratio (x) = 0.67390 -0.16437
# Poissons Ratio (y) = 0.32597 0.21942
# Poissons Ratio (z) = -0.99121 2.73559
#
# Static dielectric constant tensor:
#      x y z
#    x 1.751770 0.000000 0.015500 
#    y 0.000000 1.714190 0.000000 
#    z 0.015500 0.000000 1.681530 
# 
# From -- ./inp_files/38075.got.cif
#   From: 2010.05.17/outbox.cif.g08.bks.cpg/sg5_20_cif.got.tgz:38075.got - 2010.06.03 18:56:24.
