data_PCOD9122534
_publ_section_title
;
Structure prediction by ZEFSAII (Michael W. Deem and Ramdas Pophale) SiO2 
 PCOD9122534
Probable space group: C 2
;
_chemical_formula_sum "Si O2"
_cell_formula_units_Z 24
_cell_length_a 23.515647
_cell_length_b 8.062020
_cell_length_c 17.066787
_cell_angle_alpha 90.000000
_cell_angle_beta 160.026564
_cell_angle_gamma 90.000000
_cell_volume 1105.224868
_symmetry_space_group_name_H-M "C 2"
_symmetry_group_IT_number 5
_symmetry_cell_setting 'monoclinic'
loop_
_space_group_symop_operation_xyz
x,y,z
-x,y,-z
1/2+x,1/2+y,z
1/2-x,1/2+y,-z
loop_
_atom_site_type_symbol
_atom_site_label
_atom_site_fract_x
_atom_site_fract_y
_atom_site_fract_z
Si Si1 0.030302 0.793890 0.684584
Si Si2 0.635689 0.470138 0.019152
Si Si3 0.883374 0.701840 0.643046
Si Si4 0.000000 0.549572 0.500000
Si Si5 0.830653 0.347144 0.505562
Si Si6 0.000000 0.985030 0.000000
Si Si7 0.377541 0.641521 0.167637
O O1 0.881932 0.792650 0.556151
O O2 0.992898 0.671919 0.565463
O O3 0.080083 0.980461 0.726180
O O4 0.195539 0.719056 0.941186
O O5 0.831778 0.445848 0.281384
O O6 0.533881 0.298775 0.880867
O O7 0.559115 0.567091 0.995017
O O8 0.616620 0.571850 0.914249
O O9 0.894536 0.511628 0.632617
O O10 0.730829 0.726040 0.504631
O O11 0.977805 0.276549 0.643109
O O12 0.667878 0.388280 0.242973
#
# Coordination Sequence:
#
# PCOD9122534 Si02
#       7
#     4   4   4   2   4   2   4
#     4  10  20  37  59  86 116 156 196 240 291 346
#     4   9  20  37  58  85 116 155 193 231 293 356
#     4  10  20  35  60  85 113 156 199 234 290 353
#     4  10  20  36  60  90 126 152 190 246 294 338
#     4  11  21  38  60  85 115 151 199 251 292 350
#     4  10  20  34  56  86 114 144 186 244 300 328
#     4  10  21  38  59  83 114 155 201 238 289 359
#
# _framework density 21.715038
#
# number of rings (size 3 to 8) (size 9 to 14) (size 15 to 20)
#    0.000    2.000    0.000    5.000    0.000    2.667 
#    0.000   11.667    0.000   19.000    0.000    0.000 
#    0.000    0.000    0.000    0.000    0.000    0.000 
#
# Total GULP energy -66936.839913 kJ/mol
# GULP energy per Si atom -5578.069993 kJ/mol
# Density = 2.166561 g / cm^3
# Si number density = 21.715038 Si / 1000 Ang^3
#
#
#
# Elastic Constant Matrix: (Units=GPa)
#
#
# Indices 1 2 3 4 5 6 
#
# 1 78.3177 -12.2011 10.1892 0.0000 2.5765 0.0000
# 2 -12.2011 74.2218 9.0000 0.0000 -2.0054 0.0000
# 3 10.1892 9.0000 96.1814 0.0000 1.2338 0.0000
# 4 0.0000 0.0000 0.0000 22.5346 0.0000 11.7777
# 5 2.5765 -2.0054 1.2338 0.0000 22.6178 0.0000
# 6 0.0000 0.0000 0.0000 11.7777 0.0000 31.3890
#
#
#
# Elastic Compliance Matrix: (Units=1/GPa)
#
#
# Indices 1 2 3 4 5 6 
#
# 1 0.013389 0.002365 -0.001624 0.000000 -0.001227 0.000000
# 2 0.002365 0.014082 -0.001582 0.000000 0.001066 0.000000
# 3 -0.001624 -0.001582 0.010724 0.000000 -0.000540 0.000000
# 4 0.000000 0.000000 0.000000 0.055202 0.000000 -0.020713
# 5 -0.001227 0.001066 -0.000540 0.000000 0.044477 0.000000
# 6 0.000000 0.000000 0.000000 -0.020713 0.000000 0.039630
#
#
# Mechanical properties :
#
#
# Convention : Reuss Voigt Hill
#
# Bulk Modulus (GPa) = 27.38771 29.18856 28.28814
# Shear Modulus (GPa) = 26.12926 31.42381 28.77654
#
# Velocity S-wave (km/s) = 3.47260 3.80820 3.64426
# Velocity P-wave (km/s) = 5.35894 5.72777 5.54642
#
# Compressibility (1/GPa) = 0.03651273
#
# Stress axis : x y z
#
# Youngs Moduli (GPa) = 74.69085 71.01035 93.24873
#
# Poissons Ratio (x) = -0.16792 0.15142
# Poissons Ratio (y) = -0.17662 0.14751
# Poissons Ratio (z) = 0.12129 0.11233
#
# Static dielectric constant tensor:
#      x y z
#    x 1.849440 0.000000 -0.000750 
#    y 0.000000 1.817570 0.000000 
#    z -0.000750 0.000000 1.807050 
# 
# From -- ./inp_files/22873.got.cif
#   From: 2010.05.17/outbox.cif.g08.bks.cpg/sg5_12_cif.got.tgz:22873.got - 2010.06.03 18:56:24.
