data_PCOD9122475
_publ_section_title
;
Structure prediction by ZEFSAII (Michael W. Deem and Ramdas Pophale) SiO2 
 PCOD9122475
Probable space group: C 2
;
_chemical_formula_sum "Si O2"
_cell_formula_units_Z 26
_cell_length_a 14.494424
_cell_length_b 13.559140
_cell_length_c 5.469916
_cell_angle_alpha 90.000000
_cell_angle_beta 111.483358
_cell_angle_gamma 90.000000
_cell_volume 1000.325486
_symmetry_space_group_name_H-M "C 2"
_symmetry_group_IT_number 5
_symmetry_cell_setting 'monoclinic'
loop_
_space_group_symop_operation_xyz
x,y,z
-x,y,-z
1/2+x,1/2+y,z
1/2-x,1/2+y,-z
loop_
_atom_site_type_symbol
_atom_site_label
_atom_site_fract_x
_atom_site_fract_y
_atom_site_fract_z
Si Si1 0.189954 0.183560 0.739966
Si Si2 0.587147 0.181008 0.250444
Si Si3 0.225360 0.961456 0.342072
Si Si4 0.852080 0.951892 0.230145
Si Si5 0.883543 0.173258 0.833522
Si Si6 0.449849 0.953490 0.701929
Si Si7 0.000000 0.820734 0.500000
O O1 0.306582 0.180451 0.781705
O O2 0.131524 0.223451 0.445976
O O3 0.151293 0.070270 0.745792
O O4 0.162608 0.228249 0.976651
O O5 0.546301 0.072813 0.273924
O O6 0.584152 0.243777 0.493909
O O7 0.500000 0.225341 0.000000
O O8 0.183550 0.073535 0.268815
O O9 0.333232 0.945568 0.553755
O O10 0.163855 0.918751 0.506564
O O11 0.219782 0.922881 0.060787
O O12 0.953321 0.898069 0.262082
O O13 0.000000 0.153378 0.000000
O O14 0.500000 0.920492 0.500000
O O15 0.500000 0.913750 0.000000
#
# Coordination Sequence:
#
# PCOD9122475 Si02
#       7
#     4   4   4   4   4   4   2
#     4  10  22  39  62  90 128 181 229 278 322 406
#     4  11  25  40  63  94 147 181 224 275 356 412
#     4  10  21  37  60  90 133 171 225 280 337 395
#     4  10  23  37  59  86 137 173 228 261 343 397
#     4  10  20  33  58  90 124 166 223 284 330 378
#     4  11  21  36  63  94 131 171 232 290 336 392
#     4  12  28  40  64 102 150 188 210 284 366 422
#
# _framework density 25.991540000000001
#
# number of rings (size 3 to 8) (size 9 to 14) (size 15 to 20)
#    0.000    1.538    3.846    1.385   19.385    0.000 
#    0.000    0.000    0.000    0.000    0.000    6.462 
#    0.000    0.000    0.000    0.000    0.000    0.000 
#
# Total GULP energy -72523.544223 kJ/mol
# GULP energy per Si atom -5578.734171 kJ/mol
# Density = 2.593238 g / cm^3
# Si number density = 25.991540 Si / 1000 Ang^3
#
#
#
# Elastic Constant Matrix: (Units=GPa)
#
#
# Indices 1 2 3 4 5 6 
#
# 1 138.1659 13.5602 71.6885 0.0000 -6.0954 0.0000
# 2 13.5602 76.0756 11.5465 0.0000 -5.6526 0.0000
# 3 71.6885 11.5465 203.2738 0.0000 -14.9528 0.0000
# 4 0.0000 0.0000 0.0000 50.8106 0.0000 41.2823
# 5 -6.0954 -5.6526 -14.9528 0.0000 59.6769 0.0000
# 6 0.0000 0.0000 0.0000 41.2823 0.0000 63.6123
#
#
#
# Elastic Compliance Matrix: (Units=1/GPa)
#
#
# Indices 1 2 3 4 5 6 
#
# 1 0.008953 -0.001124 -0.003091 0.000000 0.000033 0.000000
# 2 -0.001124 0.013470 -0.000289 0.000000 0.001089 0.000000
# 3 -0.003091 -0.000289 0.006114 0.000000 0.001189 0.000000
# 4 0.000000 0.000000 0.000000 0.041632 0.000000 -0.027018
# 5 0.000033 0.001089 0.001189 0.000000 0.017161 0.000000
# 6 0.000000 0.000000 0.000000 -0.027018 0.000000 0.033254
#
#
# Mechanical properties :
#
#
# Convention : Reuss Voigt Hill
#
# Bulk Modulus (GPa) = 51.20674 67.90063 59.55368
# Shear Modulus (GPa) = 36.73706 56.20132 46.46919
#
# Velocity S-wave (km/s) = 3.76363 4.65509 4.23289
# Velocity P-wave (km/s) = 6.21536 7.42119 6.84488
#
# Compressibility (1/GPa) = 0.01952868
#
# Stress axis : x y z
#
# Youngs Moduli (GPa) = 111.68916 74.23961 163.57225
#
# Poissons Ratio (x) = 0.08346 0.50565
# Poissons Ratio (y) = 0.12557 0.04720
# Poissons Ratio (z) = 0.34526 0.02142
#
# Static dielectric constant tensor:
#      x y z
#    x 1.994630 0.000000 0.314410 
#    y 0.000000 2.237310 0.000000 
#    z 0.314410 0.000000 2.002240 
# 
# From -- ./inp_files/7248.got.cif
#   From: 2010.05.17/outbox.cif.g08.bks.cpg/sg5_4_cif.got.tgz:7248.got - 2010.06.03 18:56:24.
