data_PCOD9122682
_publ_section_title
;
Structure prediction by ZEFSAII (Michael W. Deem and Ramdas Pophale) SiO2 
 PCOD9122682
Probable space group: C 2
;
_chemical_formula_sum "Si O2"
_cell_formula_units_Z 28
_cell_length_a 13.425793
_cell_length_b 9.064859
_cell_length_c 12.037951
_cell_angle_alpha 90.000000
_cell_angle_beta 126.454912
_cell_angle_gamma 90.000000
_cell_volume 1178.378950
_symmetry_space_group_name_H-M "C 2"
_symmetry_group_IT_number 5
_symmetry_cell_setting 'monoclinic'
loop_
_space_group_symop_operation_xyz
x,y,z
-x,y,-z
1/2+x,1/2+y,z
1/2-x,1/2+y,-z
loop_
_atom_site_type_symbol
_atom_site_label
_atom_site_fract_x
_atom_site_fract_y
_atom_site_fract_z
Si Si1 0.302464 0.306610 0.910283
Si Si2 0.857887 0.279886 0.858592
Si Si3 0.907478 0.321137 0.540162
Si Si4 0.777298 0.495988 0.966778
Si Si5 0.056595 0.810125 0.217424
Si Si6 0.694103 0.567487 0.377900
Si Si7 0.465882 0.996064 0.774604
O O1 0.431818 0.315492 0.064012
O O2 0.231525 0.153590 0.893613
O O3 0.247734 0.458390 0.921712
O O4 0.334446 0.303226 0.802453
O O5 0.815365 0.151485 0.747191
O O6 0.859772 0.422699 0.777839
O O7 0.764308 0.341477 0.890928
O O8 0.000000 0.247308 0.000000
O O9 0.813817 0.460774 0.463083
O O10 0.829198 0.184701 0.538740
O O11 0.992717 0.377802 0.698314
O O12 0.000000 0.290747 0.500000
O O13 0.924971 0.512396 0.064480
O O14 0.057289 0.658606 0.284612
O O15 0.078149 0.954500 0.302920
#
# Coordination Sequence:
#
# PCOD9122682 Si02
#       7
#     4   4   4   4   4   4   4
#     4  10  22  34  59  94 136 167 208 258 326 403
#     4   9  19  37  63  95 133 168 208 265 337 394
#     4  11  26  48  70  98 128 178 235 281 334 393
#     4  10  20  35  59  98 133 168 210 262 326 399
#     4  10  21  40  61  88 131 173 209 264 334 392
#     4  11  25  44  71  96 132 177 223 285 333 397
#     4   9  19  41  64  88 126 175 215 267 327 392
#
# _framework density 23.761458000000001
#
# number of rings (size 3 to 8) (size 9 to 14) (size 15 to 20)
#    0.000    2.000    1.429    0.857    6.000    3.429 
#    0.000    2.857    0.000    0.000    0.000    0.000 
#    0.000    0.000    0.000    0.000    0.000    0.000 
#
# Total GULP energy -78001.780901 kJ/mol
# GULP energy per Si atom -5571.555779 kJ/mol
# Density = 2.370738 g / cm^3
# Si number density = 23.761458 Si / 1000 Ang^3
#
#
#
# Elastic Constant Matrix: (Units=GPa)
#
#
# Indices 1 2 3 4 5 6 
#
# 1 74.4039 31.2275 18.0684 0.0000 -25.0088 0.0000
# 2 31.2275 140.8425 31.7034 0.0000 0.4544 0.0000
# 3 18.0684 31.7034 64.9743 0.0000 -1.7654 0.0000
# 4 0.0000 0.0000 0.0000 37.5413 0.0000 1.5755
# 5 -25.0088 0.4544 -1.7654 0.0000 31.6795 0.0000
# 6 0.0000 0.0000 0.0000 1.5755 0.0000 21.1320
#
#
#
# Elastic Compliance Matrix: (Units=1/GPa)
#
#
# Indices 1 2 3 4 5 6 
#
# 1 0.021742 -0.004065 -0.003600 0.000000 0.017021 0.000000
# 2 -0.004065 0.008740 -0.003229 0.000000 -0.003514 0.000000
# 3 -0.003600 -0.003229 0.017919 0.000000 -0.001797 0.000000
# 4 0.000000 0.000000 0.000000 0.026721 0.000000 -0.001992
# 5 0.017021 -0.003514 -0.001797 0.000000 0.044954 0.000000
# 6 0.000000 0.000000 0.000000 -0.001992 0.000000 0.047470
#
#
# Mechanical properties :
#
#
# Convention : Reuss Voigt Hill
#
# Bulk Modulus (GPa) = 37.57849 49.13548 43.35699
# Shear Modulus (GPa) = 25.22645 31.35199 28.28922
#
# Velocity S-wave (km/s) = 3.26184 3.63636 3.45418
# Velocity P-wave (km/s) = 5.48045 6.19309 5.84764
#
# Compressibility (1/GPa) = 0.02661097
#
# Stress axis : x y z
#
# Youngs Moduli (GPa) = 45.99438 114.42001 55.80736
#
# Poissons Ratio (x) = 0.46513 0.20091
# Poissons Ratio (y) = 0.18697 0.18023
# Poissons Ratio (z) = 0.16558 0.36952
#
# Static dielectric constant tensor:
#      x y z
#    x 2.016530 0.000000 0.028770 
#    y 0.000000 1.964870 0.000000 
#    z 0.028770 0.000000 1.968710 
# 
# From -- ./inp_files/41694.got.cif
#   From: 2010.05.17/outbox.cif.g08.bks.cpg/sg5_21_cif.got.tgz:41694.got - 2010.06.03 18:56:24.
