data_PCOD9122038
_publ_section_title
;
Structure prediction by ZEFSAII (Michael W. Deem and Ramdas Pophale) SiO2 
 PCOD9122038
Probable space group: C 2
;
_chemical_formula_sum "Si O2"
_cell_formula_units_Z 22
_cell_length_a 10.192652
_cell_length_b 11.188877
_cell_length_c 10.650396
_cell_angle_alpha 90.000000
_cell_angle_beta 104.810149
_cell_angle_gamma 90.000000
_cell_volume 1174.265408
_symmetry_space_group_name_H-M "C 2"
_symmetry_group_IT_number 5
_symmetry_cell_setting 'monoclinic'
loop_
_space_group_symop_operation_xyz
x,y,z
-x,y,-z
1/2+x,1/2+y,z
1/2-x,1/2+y,-z
loop_
_atom_site_type_symbol
_atom_site_label
_atom_site_fract_x
_atom_site_fract_y
_atom_site_fract_z
Si Si1 0.050013 0.010790 0.145997
Si Si2 0.239360 0.311541 0.463333
Si Si3 0.398687 0.492539 0.356698
Si Si4 0.025692 0.223638 0.728589
Si Si5 0.344527 0.956701 0.307459
Si Si6 0.500000 0.148402 0.500000
O O1 0.008293 0.149440 0.155624
O O2 0.209648 0.000254 0.206267
O O3 0.975672 0.950880 0.248648
O O4 0.000000 0.966015 0.000000
O O5 0.275230 0.409015 0.364423
O O6 0.199587 0.387101 0.575816
O O7 0.372942 0.229997 0.510363
O O8 0.112061 0.233720 0.386328
O O9 0.500000 0.486565 0.500000
O O10 0.373596 0.632607 0.321267
O O11 0.082259 0.355088 0.755388
O O12 0.442472 0.062762 0.376267
#
# Coordination Sequence:
#
# PCOD9122038 Si02
#       6
#     4   4   4   4   4   2
#     4  10  23  44  58  85 129 164 201 241 300 371
#     4  12  20  36  59  93 123 147 196 261 301 343
#     4  10  19  38  59  85 117 157 195 248 299 338
#     4  10  23  36  60  86 122 157 197 247 303 349
#     4  12  22  36  62  91 122 156 201 251 304 354
#     4  12  22  30  58  94 118 152 196 254 306 346
#
# _framework density 18.735119000000001
#
# number of rings (size 3 to 8) (size 9 to 14) (size 15 to 20)
#    1.091    0.000    6.364    1.091    2.545    0.000 
#    3.273    0.000    0.000    0.000    0.000    1.273 
#    0.000    0.000    0.000    0.000    0.000    0.000 
#
# Total GULP energy -61312.384460 kJ/mol
# GULP energy per Si atom -5573.853133 kJ/mol
# Density = 1.869248 g / cm^3
# Si number density = 18.735119 Si / 1000 Ang^3
#
#
#
# Elastic Constant Matrix: (Units=GPa)
#
#
# Indices 1 2 3 4 5 6 
#
# 1 63.9302 27.7128 11.6919 0.0000 4.4363 0.0000
# 2 27.7128 83.1600 0.9644 0.0000 1.1971 0.0000
# 3 11.6919 0.9644 83.3324 0.0000 -7.4159 0.0000
# 4 0.0000 0.0000 0.0000 6.9628 0.0000 -0.0934
# 5 4.4363 1.1971 -7.4159 0.0000 14.7549 0.0000
# 6 0.0000 0.0000 0.0000 -0.0934 0.0000 35.5609
#
#
#
# Elastic Compliance Matrix: (Units=1/GPa)
#
#
# Indices 1 2 3 4 5 6 
#
# 1 0.019482 -0.006353 -0.003282 0.000000 -0.006992 0.000000
# 2 -0.006353 0.014116 0.000833 0.000000 0.001184 0.000000
# 3 -0.003282 0.000833 0.013120 0.000000 0.007513 0.000000
# 4 0.000000 0.000000 0.000000 0.143625 0.000000 0.000377
# 5 -0.006992 0.001184 0.007513 0.000000 0.073556 0.000000
# 6 0.000000 0.000000 0.000000 0.000377 0.000000 0.028122
#
#
# Mechanical properties :
#
#
# Convention : Reuss Voigt Hill
#
# Bulk Modulus (GPa) = 34.34937 34.57342 34.46140
# Shear Modulus (GPa) = 15.65789 24.12596 19.89192
#
# Velocity S-wave (km/s) = 2.89407 3.59240 3.26198
# Velocity P-wave (km/s) = 5.43521 5.97503 5.71150
#
# Compressibility (1/GPa) = 0.02911262
#
# Stress axis : x y z
#
# Youngs Moduli (GPa) = 51.33053 70.84374 76.22204
#
# Poissons Ratio (x) = 0.45010 0.25016
# Poissons Ratio (y) = 0.32613 -0.06352
# Poissons Ratio (z) = 0.16847 -0.05904
#
# Static dielectric constant tensor:
#      x y z
#    x 1.673650 0.000000 -0.016570 
#    y 0.000000 1.688360 0.000000 
#    z -0.016570 0.000000 1.613520 
# 
# From -- ./inp_files/35487.got.cif
#   From: 2010.05.17/outbox.cif.g08.bks.cpg/sg5_18_cif.got.tgz:35487.got - 2010.06.03 18:56:24.
