data_PCOD9122895
_publ_section_title
;
Structure prediction by ZEFSAII (Michael W. Deem and Ramdas Pophale) SiO2 
 PCOD9122895
Probable space group: C 2
;
_chemical_formula_sum "Si O2"
_cell_formula_units_Z 28
_cell_length_a 22.228608
_cell_length_b 4.870872
_cell_length_c 13.949088
_cell_angle_alpha 90.000000
_cell_angle_beta 134.565514
_cell_angle_gamma 90.000000
_cell_volume 1076.014933
_symmetry_space_group_name_H-M "C 2"
_symmetry_group_IT_number 5
_symmetry_cell_setting 'monoclinic'
loop_
_space_group_symop_operation_xyz
x,y,z
-x,y,-z
1/2+x,1/2+y,z
1/2-x,1/2+y,-z
loop_
_atom_site_type_symbol
_atom_site_label
_atom_site_fract_x
_atom_site_fract_y
_atom_site_fract_z
Si Si1 0.698077 0.139460 0.410871
Si Si2 0.188477 0.796330 0.922737
Si Si3 0.649330 0.596931 0.699308
Si Si4 0.717953 0.419373 0.240389
Si Si5 0.000000 0.445047 0.500000
Si Si6 0.377328 0.259132 0.495697
Si Si7 0.500000 0.905335 0.000000
Si Si8 0.565462 0.443490 0.959144
O O1 0.775259 0.330440 0.536554
O O2 0.686715 0.215380 0.288687
O O3 0.619850 0.233514 0.388197
O O4 0.156106 0.842105 0.777066
O O5 0.229671 0.498074 0.978709
O O6 0.111473 0.885947 0.907937
O O7 0.737863 0.750096 0.794944
O O8 0.567734 0.767555 0.633744
O O9 0.633533 0.549290 0.567280
O O10 0.790964 0.608538 0.365656
O O11 0.641446 0.578459 0.108128
O O12 0.953123 0.627354 0.524827
O O13 0.507185 0.669901 0.096441
O O14 0.453402 0.145623 0.014111
#
# Coordination Sequence:
#
# PCOD9122895 Si02
#       8
#     4   4   4   4   2   4   2   4
#     4  10  20  36  62  95 124 158 215 273 322 384
#     4  12  25  42  75 111 137 179 240 299 345 413
#     4  11  22  42  67  99 138 181 222 287 349 408
#     4  10  21  38  69  96 125 171 225 283 338 399
#     4  10  24  42  60  96 142 186 222 272 356 416
#     4  10  21  40  65  94 136 174 223 280 340 408
#     4  10  26  46  66  86 140 182 214 286 342 404
#     4  11  23  46  67 100 135 179 233 279 347 419
#
# _framework density 26.021944000000001
#
# number of rings (size 3 to 8) (size 9 to 14) (size 15 to 20)
#    0.000    1.429    2.857    2.143    4.000    0.000 
#    2.571    4.286    0.000    0.000    0.000    0.000 
#    0.000    0.000    0.000    0.000    0.000    0.000 
#
# Total GULP energy -78085.561139 kJ/mol
# GULP energy per Si atom -5577.540081 kJ/mol
# Density = 2.596272 g / cm^3
# Si number density = 26.021944 Si / 1000 Ang^3
#
#
#
# Elastic Constant Matrix: (Units=GPa)
#
#
# Indices 1 2 3 4 5 6 
#
# 1 170.2930 17.8914 22.2076 0.0001 -24.4862 0.0000
# 2 17.8914 99.7092 4.5942 0.0017 -1.5355 0.0004
# 3 22.2076 4.5942 35.0857 0.0001 -10.1915 0.0001
# 4 0.0001 0.0017 0.0001 28.6662 0.0002 -2.2774
# 5 -24.4862 -1.5355 -10.1915 0.0002 33.2532 -0.0002
# 6 0.0000 0.0004 0.0001 -2.2774 -0.0002 38.8998
#
#
#
# Elastic Compliance Matrix: (Units=1/GPa)
#
#
# Indices 1 2 3 4 5 6 
#
# 1 0.006980 -0.001047 -0.003076 0.000000 0.004149 0.000000
# 2 -0.001047 0.010247 -0.000840 -0.000001 -0.000555 0.000000
# 3 -0.003076 -0.000840 0.032810 0.000000 0.007752 0.000000
# 4 0.000000 -0.000001 0.000000 0.035047 0.000000 0.002052
# 5 0.004149 -0.000555 0.007752 0.000000 0.035477 0.000000
# 6 0.000000 0.000000 0.000000 0.002052 0.000000 0.025827
#
#
# Mechanical properties :
#
#
# Convention : Reuss Voigt Hill
#
# Bulk Modulus (GPa) = 24.93068 43.83046 34.38057
# Shear Modulus (GPa) = 29.46624 37.52350 33.49487
#
# Velocity S-wave (km/s) = 3.36871 3.80148 3.59162
# Velocity P-wave (km/s) = 4.97316 6.01237 5.51729
#
# Compressibility (1/GPa) = 0.04011122
#
# Stress axis : x y z
#
# Youngs Moduli (GPa) = 143.26966 97.58783 30.47824
#
# Poissons Ratio (x) = 0.10216 0.09374
# Poissons Ratio (y) = 0.14998 0.02562
# Poissons Ratio (z) = 0.44066 0.08202
#
# Static dielectric constant tensor:
#      x y z
#    x 2.122540 0.000000 0.003460 
#    y 0.000000 2.027660 0.000000 
#    z 0.003460 0.000000 2.156160 
# 
# From -- ./inp_files/56510.got.cif
#   From: 2010.05.17/outbox.cif.g08.bks.cpg/sg5_29_cif.got.tgz:56510.got - 2010.06.03 18:56:24.
