data_PCOD9122742
_publ_section_title
;
Structure prediction by ZEFSAII (Michael W. Deem and Ramdas Pophale) SiO2 
 PCOD9122742
Probable space group: C 2
;
_chemical_formula_sum "Si O2"
_cell_formula_units_Z 22
_cell_length_a 7.403822
_cell_length_b 24.096980
_cell_length_c 7.799244
_cell_angle_alpha 90.000000
_cell_angle_beta 139.910023
_cell_angle_gamma 90.000000
_cell_volume 896.086818
_symmetry_space_group_name_H-M "C 2"
_symmetry_group_IT_number 5
_symmetry_cell_setting 'monoclinic'
loop_
_space_group_symop_operation_xyz
x,y,z
-x,y,-z
1/2+x,1/2+y,z
1/2-x,1/2+y,-z
loop_
_atom_site_type_symbol
_atom_site_label
_atom_site_fract_x
_atom_site_fract_y
_atom_site_fract_z
Si Si1 0.193100 0.035100 0.975429
Si Si2 0.345073 0.841723 0.575608
Si Si3 0.041813 0.220562 0.321895
Si Si4 0.500000 0.179930 0.000000
Si Si5 0.157022 0.909667 0.927495
Si Si6 0.260259 0.106908 0.538175
O O1 0.998406 0.067961 0.699470
O O2 0.232462 0.972936 0.935674
O O3 0.466271 0.067150 0.248581
O O4 0.000000 0.030648 0.000000
O O5 0.500000 0.839903 0.500000
O O6 0.322399 0.778730 0.626698
O O7 0.060407 0.875812 0.346257
O O8 0.560245 0.875688 0.846266
O O9 0.711025 0.214357 0.032835
O O10 0.000000 0.225697 0.500000
O O11 0.201438 0.163817 0.383762
O O12 0.690548 0.139214 0.248518
O O13 0.000000 0.911638 0.000000
#
# Coordination Sequence:
#
# PCOD9122742 Si02
#       6
#     4   4   4   2   4   4
#     4  11  22  36  53  75 113 145 182 215 252 312
#     4   9  17  27  47  71 104 134 164 201 267 331
#     4   9  19  30  52  78 111 136 167 216 273 324
#     4  10  20  36  52  84 110 140 170 220 274 320
#     4   9  18  30  45  70 102 142 168 202 255 319
#     4  11  21  35  54  77 112 141 177 218 267 308
#
# _framework density 24.551192
#
# number of rings (size 3 to 8) (size 9 to 14) (size 15 to 20)
#    0.000    2.182    1.818    1.636    8.909    2.909 
#    0.000    0.000    0.000    0.000    0.000    0.000 
#   40.909    0.000    0.000    0.000    0.000    0.000 
#
# Total GULP energy -61286.379145 kJ/mol
# GULP energy per Si atom -5571.489013 kJ/mol
# Density = 2.449531 g / cm^3
# Si number density = 24.551192 Si / 1000 Ang^3
#
#
#
# Elastic Constant Matrix: (Units=GPa)
#
#
# Indices 1 2 3 4 5 6 
#
# 1 31.0160 23.3799 22.6980 0.0000 7.3555 0.0000
# 2 23.3799 286.0326 130.2824 0.0000 39.8178 0.0000
# 3 22.6980 130.2824 206.6721 0.0000 38.6803 0.0000
# 4 0.0000 0.0000 0.0000 23.2443 0.0000 0.8864
# 5 7.3555 39.8178 38.6803 0.0000 30.3128 0.0000
# 6 0.0000 0.0000 0.0000 0.8864 0.0000 13.2567
#
#
#
# Elastic Compliance Matrix: (Units=1/GPa)
#
#
# Indices 1 2 3 4 5 6 
#
# 1 0.035904 -0.001297 -0.002383 0.000000 -0.003968 0.000000
# 2 -0.001297 0.005213 -0.002524 0.000000 -0.003312 0.000000
# 3 -0.002383 -0.002524 0.007833 0.000000 -0.006102 0.000000
# 4 0.000000 0.000000 0.000000 0.043131 0.000000 -0.002884
# 5 -0.003968 -0.003312 -0.006102 0.000000 0.046090 0.000000
# 6 0.000000 0.000000 0.000000 -0.002884 0.000000 0.075626
#
#
# Mechanical properties :
#
#
# Convention : Reuss Voigt Hill
#
# Bulk Modulus (GPa) = 27.36526 97.38237 62.37381
# Shear Modulus (GPa) = 20.97444 36.52012 28.74728
#
# Velocity S-wave (km/s) = 2.92604 3.86101 3.42557
# Velocity P-wave (km/s) = 4.75247 7.72189 6.41146
#
# Compressibility (1/GPa) = 0.03654269
#
# Stress axis : x y z
#
# Youngs Moduli (GPa) = 27.85205 191.84047 127.66093
#
# Poissons Ratio (x) = 0.24881 0.30422
# Poissons Ratio (y) = 0.03612 0.32217
# Poissons Ratio (z) = 0.06637 0.48413
#
# Static dielectric constant tensor:
#      x y z
#    x 2.255380 0.000000 0.165120 
#    y 0.000000 2.002370 0.000000 
#    z 0.165120 0.000000 2.423480 
# 
# From -- ./inp_files/5276.got.cif
#   From: 2010.05.17/outbox.cif.g08.bks.cpg/sg5_3_cif.got.tgz:5276.got - 2010.06.03 18:56:24.
