data_PCOD9122658
_publ_section_title
;
Structure prediction by ZEFSAII (Michael W. Deem and Ramdas Pophale) SiO2 
 PCOD9122658
Probable space group: C 2
;
_chemical_formula_sum "Si O2"
_cell_formula_units_Z 32
_cell_length_a 17.002442
_cell_length_b 11.462144
_cell_length_c 17.983350
_cell_angle_alpha 90.000000
_cell_angle_beta 153.455618
_cell_angle_gamma 90.000000
_cell_volume 1566.207417
_symmetry_space_group_name_H-M "C 2"
_symmetry_group_IT_number 5
_symmetry_cell_setting 'monoclinic'
loop_
_space_group_symop_operation_xyz
x,y,z
-x,y,-z
1/2+x,1/2+y,z
1/2-x,1/2+y,-z
loop_
_atom_site_type_symbol
_atom_site_label
_atom_site_fract_x
_atom_site_fract_y
_atom_site_fract_z
Si Si1 0.496440 0.579920 0.869836
Si Si2 0.548142 0.035510 0.873567
Si Si3 0.503018 0.289265 0.413633
Si Si4 0.154152 0.543254 0.508545
Si Si5 0.622539 0.673109 0.813117
Si Si6 0.104637 0.320516 0.021900
Si Si7 0.667674 0.944783 0.820448
Si Si8 0.823700 0.028593 0.491658
O O1 0.301521 0.529877 0.695976
O O2 0.554805 0.625438 0.836289
O O3 0.507553 0.698846 0.924995
O O4 0.631872 0.486001 0.017743
O O5 0.604715 0.027801 0.835340
O O6 0.342760 0.066974 0.698839
O O7 0.583796 0.906570 0.935374
O O8 0.682585 0.119250 0.029538
O O9 0.500000 0.273220 0.500000
O O10 0.606408 0.180414 0.466007
O O11 0.306286 0.296827 0.213848
O O12 0.600028 0.409155 0.476135
O O13 0.245435 0.504852 0.508213
O O14 0.969650 0.476647 0.360409
O O15 0.640020 0.811331 0.820108
O O16 0.481156 0.620330 0.635901
O O17 0.000000 0.381427 0.000000
#
# Coordination Sequence:
#
# PCOD9122658 Si02
#       8
#     4   4   4   4   4   4   4   4
#     4  10  20  36  54  88 121 156 203 251 309 364
#     4  10  20  36  54  88 121 156 203 251 309 364
#     4  12  24  42  64  99 132 168 214 267 325 383
#     4  10  22  36  59  92 126 163 209 263 314 374
#     4  10  20  35  58  85 122 160 201 255 308 371
#     4  12  22  38  64  91 125 164 206 265 317 376
#     4  10  20  35  58  85 122 160 201 255 308 371
#     4  10  22  36  59  92 126 163 209 263 314 374
#
# _framework density 20.431522000000001
#
# number of rings (size 3 to 8) (size 9 to 14) (size 15 to 20)
#    0.000    1.500    3.750    2.250    5.250    1.000 
#    0.000    0.000    0.000    1.500    0.000    0.000 
#    0.000    0.000    0.000    0.000    0.000    0.000 
#
# Total GULP energy -89285.619261 kJ/mol
# GULP energy per Si atom -5580.351204 kJ/mol
# Density = 2.038502 g / cm^3
# Si number density = 20.431522 Si / 1000 Ang^3
#
#
#
# Elastic Constant Matrix: (Units=GPa)
#
#
# Indices 1 2 3 4 5 6 
#
# 1 28.1440 -4.1938 4.4319 0.0001 -3.7579 0.0000
# 2 -4.1938 83.0402 51.6599 0.0001 4.1097 -0.0002
# 3 4.4319 51.6599 213.3798 0.0001 12.4191 -0.0002
# 4 0.0001 0.0001 0.0001 20.3206 0.0000 6.1998
# 5 -3.7579 4.1097 12.4191 0.0000 19.9923 -0.0002
# 6 0.0000 -0.0002 -0.0002 6.1998 -0.0002 3.4695
#
#
#
# Elastic Compliance Matrix: (Units=1/GPa)
#
#
# Indices 1 2 3 4 5 6 
#
# 1 0.037237 0.002662 -0.001861 0.000000 0.007608 0.000001
# 2 0.002662 0.014381 -0.003521 0.000000 -0.000268 0.000001
# 3 -0.001861 -0.003521 0.005764 0.000000 -0.003207 0.000000
# 4 0.000000 0.000000 0.000000 0.108200 -0.000002 -0.193346
# 5 0.007608 -0.000268 -0.003207 -0.000002 0.053496 0.000006
# 6 0.000001 0.000001 0.000000 -0.193346 0.000006 0.633721
#
#
# Mechanical properties :
#
#
# Convention : Reuss Voigt Hill
#
# Bulk Modulus (GPa) = 19.25253 47.59556 33.42404
# Shear Modulus (GPa) = 5.71067 26.93423 16.32245
#
# Velocity S-wave (km/s) = 1.67365 3.63474 2.82952
# Velocity P-wave (km/s) = 3.63018 6.40006 5.20284
#
# Compressibility (1/GPa) = 0.05194124
#
# Stress axis : x y z
#
# Youngs Moduli (GPa) = 26.85507 69.53788 173.48290
#
# Poissons Ratio (x) = -0.18508 0.32278
# Poissons Ratio (y) = -0.07148 0.61088
# Poissons Ratio (z) = 0.04997 0.24486
#
# Static dielectric constant tensor:
#      x y z
#    x 1.739390 0.000000 -0.000670 
#    y 0.000000 1.670710 0.000000 
#    z -0.000670 0.000000 1.802120 
# 
# From -- ./inp_files/67148.got.cif
#   From: 2010.05.17/outbox.cif.g08.bks.cpg/sg5_34_cif.got.tgz:67148.got - 2010.06.03 18:56:24.
