data_PCOD9122135
_publ_section_title
;
Structure prediction by ZEFSAII (Michael W. Deem and Ramdas Pophale) SiO2 
 PCOD9122135
Probable space group: C 2
;
_chemical_formula_sum "Si O2"
_cell_formula_units_Z 26
_cell_length_a 10.412534
_cell_length_b 9.825440
_cell_length_c 12.027480
_cell_angle_alpha 90.000000
_cell_angle_beta 123.423981
_cell_angle_gamma 90.000000
_cell_volume 1027.000162
_symmetry_space_group_name_H-M "C 2"
_symmetry_group_IT_number 5
_symmetry_cell_setting 'monoclinic'
loop_
_space_group_symop_operation_xyz
x,y,z
-x,y,-z
1/2+x,1/2+y,z
1/2-x,1/2+y,-z
loop_
_atom_site_type_symbol
_atom_site_label
_atom_site_fract_x
_atom_site_fract_y
_atom_site_fract_z
Si Si1 0.000000 0.639930 0.500000
Si Si2 0.269066 0.790216 0.493369
Si Si3 0.980818 0.941940 0.710315
Si Si4 0.830397 0.147554 0.074563
Si Si5 0.235647 0.096755 0.716013
Si Si6 0.072790 0.340910 0.217653
Si Si7 0.160915 0.671218 0.781893
O O1 0.867092 0.731122 0.493520
O O2 0.917641 0.579417 0.351385
O O3 0.292685 0.698142 0.397622
O O4 0.411263 0.799516 0.644584
O O5 0.195200 0.931200 0.412494
O O6 0.041360 0.789606 0.763402
O O7 0.030439 0.040849 0.833809
O O8 0.085784 0.001019 0.661264
O O9 0.743366 0.157442 0.150631
O O10 0.910823 0.292701 0.093061
O O11 0.730079 0.102928 0.923355
O O12 0.121808 0.496832 0.236909
O O13 0.200729 0.256755 0.209395
#
# Coordination Sequence:
#
# PCOD9122135 Si02
#       7
#     2   4   4   4   4   4   4
#     4   8  18  36  62  88 124 160 204 270 306 386
#     4  10  19  38  66  94 123 174 223 254 325 388
#     4   8  20  39  63  88 124 171 207 266 317 381
#     4  10  21  39  63  95 129 172 217 269 320 390
#     4   9  22  40  64  93 128 178 210 273 328 374
#     4  10  21  36  65  93 129 173 216 265 322 383
#     4   9  17  40  62  93 124 163 220 257 324 386
#
# _framework density 25.31645
#
# number of rings (size 3 to 8) (size 9 to 14) (size 15 to 20)
#    0.923    1.846    0.000    1.385    2.154    1.846 
#    5.538   10.769    3.385    0.000    0.000    0.000 
#    0.000    0.000    0.000    0.000    0.000    0.000 
#
# Total GULP energy -72614.052962 kJ/mol
# GULP energy per Si atom -5585.696382 kJ/mol
# Density = 2.525883 g / cm^3
# Si number density = 25.316450 Si / 1000 Ang^3
#
#
#
# Elastic Constant Matrix: (Units=GPa)
#
#
# Indices 1 2 3 4 5 6 
#
# 1 42.6876 23.9266 25.7054 0.0000 -9.7248 0.0000
# 2 23.9266 57.5922 24.6899 0.0000 -1.9311 0.0000
# 3 25.7054 24.6899 215.5231 0.0000 -5.7106 0.0000
# 4 0.0000 0.0000 0.0000 23.3260 0.0000 -1.1196
# 5 -9.7248 -1.9311 -5.7106 0.0000 30.8607 0.0000
# 6 0.0000 0.0000 0.0000 -1.1196 0.0000 37.0873
#
#
#
# Elastic Compliance Matrix: (Units=1/GPa)
#
#
# Indices 1 2 3 4 5 6 
#
# 1 0.034249 -0.012899 -0.002354 0.000000 0.009550 0.000000
# 2 -0.012899 0.023136 -0.001187 0.000000 -0.002837 0.000000
# 3 -0.002354 -0.001187 0.005060 0.000000 0.000120 0.000000
# 4 0.000000 0.000000 0.000000 0.042933 0.000000 0.001296
# 5 0.009550 -0.002837 0.000120 0.000000 0.035258 0.000000
# 6 0.000000 0.000000 0.000000 0.001296 0.000000 0.027003
#
#
# Mechanical properties :
#
#
# Convention : Reuss Voigt Hill
#
# Bulk Modulus (GPa) = 33.82471 51.60518 42.71495
# Shear Modulus (GPa) = 23.76714 34.35353 29.06034
#
# Velocity S-wave (km/s) = 3.06731 3.68770 3.39172
# Velocity P-wave (km/s) = 5.09257 6.20971 5.67868
#
# Compressibility (1/GPa) = 0.02956419
#
# Stress axis : x y z
#
# Youngs Moduli (GPa) = 29.19767 43.22216 197.63517
#
# Poissons Ratio (x) = 0.55754 0.46526
# Poissons Ratio (y) = 0.37663 0.23461
# Poissons Ratio (z) = 0.06874 0.05131
#
# Static dielectric constant tensor:
#      x y z
#    x 2.027950 0.000000 0.028530 
#    y 0.000000 2.052410 0.000000 
#    z 0.028530 0.000000 1.998050 
# 
# From -- ./inp_files/42276.got.cif
#   From: 2010.05.17/outbox.cif.g08.bks.cpg/sg5_22_cif.got.tgz:42276.got - 2010.06.03 18:56:24.
