data_PCOD9122969
_publ_section_title
;
Structure prediction by ZEFSAII (Michael W. Deem and Ramdas Pophale) SiO2 
 PCOD9122969
Probable space group: C 2
;
_chemical_formula_sum "Si O2"
_cell_formula_units_Z 24
_cell_length_a 7.804729
_cell_length_b 13.880880
_cell_length_c 14.254979
_cell_angle_alpha 90.000000
_cell_angle_beta 41.063564
_cell_angle_gamma 90.000000
_cell_volume 1014.467086
_symmetry_space_group_name_H-M "C 2"
_symmetry_group_IT_number 5
_symmetry_cell_setting 'monoclinic'
loop_
_space_group_symop_operation_xyz
x,y,z
-x,y,-z
1/2+x,1/2+y,z
1/2-x,1/2+y,-z
loop_
_atom_site_type_symbol
_atom_site_label
_atom_site_fract_x
_atom_site_fract_y
_atom_site_fract_z
Si Si1 0.264381 0.657890 0.532940
Si Si2 0.552879 0.944332 0.126903
Si Si3 0.803274 0.312501 0.372395
Si Si4 0.393629 0.478671 0.825146
Si Si5 0.207347 0.108695 0.838148
Si Si6 0.792764 0.459859 0.519419
O O1 0.500000 0.695268 0.500000
O O2 0.302094 0.706997 0.415829
O O3 0.312018 0.544439 0.501016
O O4 0.965592 0.666793 0.695722
O O5 0.434178 0.849431 0.223981
O O6 0.337670 0.002099 0.153550
O O7 0.671277 0.016890 0.154991
O O8 0.771313 0.918582 0.960521
O O9 0.500000 0.342968 0.500000
O O10 0.924121 0.378928 0.403870
O O11 0.541261 0.565745 0.818565
O O12 0.584532 0.420689 0.678369
O O13 0.000000 0.152266 0.000000
O O14 0.000000 0.510834 0.500000
#
# Coordination Sequence:
#
# PCOD9122969 Si02
#       6
#     4   4   4   4   4   4
#     4  12  25  41  67 105 141 183 235 290 343 415
#     4  10  20  40  66  99 134 179 228 284 341 415
#     4  12  24  40  64  98 141 180 230 288 340 407
#     4  10  20  36  68 100 130 180 223 275 348 410
#     4  10  21  41  69 103 139 179 228 288 355 415
#     4  12  21  40  68  97 132 177 228 284 346 407
#
# _framework density 23.657741000000001
#
# number of rings (size 3 to 8) (size 9 to 14) (size 15 to 20)
#    0.000    1.000    5.000    2.500    0.000    0.000 
#    0.000    1.667    0.000    2.000    8.667    0.000 
#    0.000    0.000    0.000    0.000    0.000    0.000 
#
# Total GULP energy -66899.849843 kJ/mol
# GULP energy per Si atom -5574.987487 kJ/mol
# Density = 2.360389 g / cm^3
# Si number density = 23.657741 Si / 1000 Ang^3
#
#
#
# Elastic Constant Matrix: (Units=GPa)
#
#
# Indices 1 2 3 4 5 6 
#
# 1 135.3468 22.1457 24.5248 -0.0016 -0.2042 0.0010
# 2 22.1457 62.7369 19.8115 0.0004 3.4180 -0.0001
# 3 24.5248 19.8115 196.0918 0.0002 0.2436 0.0006
# 4 -0.0016 0.0004 0.0002 24.6559 0.0008 5.8482
# 5 -0.2042 3.4180 0.2436 0.0008 25.5483 -0.0010
# 6 0.0010 -0.0001 0.0006 5.8482 -0.0010 21.1644
#
#
#
# Elastic Compliance Matrix: (Units=1/GPa)
#
#
# Indices 1 2 3 4 5 6 
#
# 1 0.007947 -0.002597 -0.000732 0.000001 0.000418 -0.000001
# 2 -0.002597 0.017436 -0.001434 0.000000 -0.002340 0.000000
# 3 -0.000732 -0.001434 0.005336 0.000000 0.000135 0.000000
# 4 0.000001 0.000000 0.000000 0.043403 -0.000002 -0.011993
# 5 0.000418 -0.002340 0.000135 -0.000002 0.039457 0.000002
# 6 -0.000001 0.000000 0.000000 -0.011993 0.000002 0.050563
#
#
# Mechanical properties :
#
#
# Convention : Reuss Voigt Hill
#
# Bulk Modulus (GPa) = 47.18404 58.57105 52.87755
# Shear Modulus (GPa) = 27.66535 36.11996 31.89266
#
# Velocity S-wave (km/s) = 3.42336 3.91163 3.67561
# Velocity P-wave (km/s) = 5.96771 6.72403 6.35713
#
# Compressibility (1/GPa) = 0.02119360
#
# Stress axis : x y z
#
# Youngs Moduli (GPa) = 125.84037 57.35100 187.40931
#
# Poissons Ratio (x) = 0.14892 0.13719
# Poissons Ratio (y) = 0.32677 0.26874
# Poissons Ratio (z) = 0.09212 0.08224
#
# Static dielectric constant tensor:
#      x y z
#    x 2.015030 0.000000 -0.051520 
#    y 0.000000 1.842430 0.000000 
#    z -0.051520 0.000000 1.968540 
# 
# From -- ./inp_files/50835.got.cif
#   From: 2010.05.17/outbox.cif.g08.bks.cpg/sg5_26_cif.got.tgz:50835.got - 2010.06.03 18:56:24.
