data_PCOD9122104
_publ_section_title
;
Structure prediction by ZEFSAII (Michael W. Deem and Ramdas Pophale) SiO2 
 PCOD9122104
Probable space group: C 2
;
_chemical_formula_sum "Si O2"
_cell_formula_units_Z 28
_cell_length_a 13.387325
_cell_length_b 8.619745
_cell_length_c 17.552318
_cell_angle_alpha 90.000000
_cell_angle_beta 36.430963
_cell_angle_gamma 90.000000
_cell_volume 1202.824377
_symmetry_space_group_name_H-M "C 2"
_symmetry_group_IT_number 5
_symmetry_cell_setting 'monoclinic'
loop_
_space_group_symop_operation_xyz
x,y,z
-x,y,-z
1/2+x,1/2+y,z
1/2-x,1/2+y,-z
loop_
_atom_site_type_symbol
_atom_site_label
_atom_site_fract_x
_atom_site_fract_y
_atom_site_fract_z
Si Si1 0.813891 0.889520 0.319355
Si Si2 0.000000 0.194111 0.500000
Si Si3 0.500000 0.859194 0.000000
Si Si4 0.263839 0.450838 0.721519
Si Si5 0.938072 0.782543 0.952138
Si Si6 0.310245 0.209065 0.584920
Si Si7 0.741623 0.616235 0.942126
Si Si8 0.003685 0.730115 0.325472
O O1 0.360379 0.808351 0.551290
O O2 0.892312 0.796645 0.201465
O O3 0.943268 0.866010 0.307364
O O4 0.791938 0.068939 0.316506
O O5 0.899053 0.084808 0.621229
O O6 0.395866 0.963217 0.125138
O O7 0.619406 0.747179 0.978837
O O8 0.231108 0.372879 0.658476
O O9 0.360087 0.311507 0.705126
O O10 0.851036 0.952489 0.999786
O O11 0.812571 0.669473 0.981418
O O12 0.000000 0.758902 0.000000
O O13 0.500000 0.197126 0.500000
O O14 0.345208 0.181342 0.474053
O O15 0.901990 0.608138 0.786051
#
# Coordination Sequence:
#
# PCOD9122104 Si02
#       8
#     4   2   2   4   4   4   4   4
#     4  11  25  41  63 101 135 173 237 290 348 415
#     4  12  24  42  60  92 140 174 220 290 336 408
#     4  10  20  40  74 102 136 190 238 296 346 440
#     4  10  21  41  67  94 131 182 228 278 355 415
#     4  11  25  48  70 104 147 191 239 299 357 432
#     4  10  19  38  64  90 124 178 221 269 346 418
#     4  10  22  44  73 101 141 191 239 294 363 422
#     4   9  21  39  66  94 130 169 237 283 340 423
#
# _framework density 23.278544
#
# number of rings (size 3 to 8) (size 9 to 14) (size 15 to 20)
#    0.000    1.714    3.571    0.857    6.000    2.286 
#   10.286    2.857    0.000    0.000    0.000    0.000 
#    0.000    0.000    0.000    0.000    0.000    0.000 
#
# Total GULP energy -78089.904989 kJ/mol
# GULP energy per Si atom -5577.850356 kJ/mol
# Density = 2.322556 g / cm^3
# Si number density = 23.278544 Si / 1000 Ang^3
#
#
#
# Elastic Constant Matrix: (Units=GPa)
#
#
# Indices 1 2 3 4 5 6 
#
# 1 107.5146 28.2299 46.5825 0.0000 17.5549 0.0000
# 2 28.2299 73.3491 25.1463 0.0000 -5.1474 0.0000
# 3 46.5825 25.1463 104.8029 0.0000 -1.0779 0.0000
# 4 0.0000 0.0000 0.0000 36.3758 0.0000 -20.9501
# 5 17.5549 -5.1474 -1.0779 0.0000 26.4726 0.0000
# 6 0.0000 0.0000 0.0000 -20.9501 0.0000 10.9390
#
#
#
# Elastic Compliance Matrix: (Units=1/GPa)
#
#
# Indices 1 2 3 4 5 6 
#
# 1 0.014649 -0.004497 -0.005544 0.000000 -0.010815 0.000000
# 2 -0.004497 0.016438 -0.001883 0.000000 0.006101 0.000000
# 3 -0.005544 -0.001883 0.012497 0.000000 0.003819 0.000000
# 4 0.000000 0.000000 0.000000 -0.266835 0.000000 -0.511038
# 5 -0.010815 0.006101 0.003819 0.000000 0.046288 0.000000
# 6 0.000000 0.000000 0.000000 -0.511038 0.000000 -0.887317
#
#
# Mechanical properties :
#
#
# Convention : Reuss Voigt Hill
#
# Bulk Modulus (GPa) = 50.66353 53.95379 52.30866
# Shear Modulus (GPa) = -4.83627 27.13797 11.15085
#
# Velocity S-wave (km/s) = -1.44294 3.41808 2.19102
# Velocity P-wave (km/s) = 4.36293 6.22940 5.37776
#
# Compressibility (1/GPa) = 0.01973806
#
# Stress axis : x y z
#
# Youngs Moduli (GPa) = 68.26216 60.83605 80.02066
#
# Poissons Ratio (x) = 0.27355 0.44361
# Poissons Ratio (y) = 0.30694 0.15065
# Poissons Ratio (z) = 0.37842 0.11453
#
# Static dielectric constant tensor:
#      x y z
#    x 1.927090 0.000000 0.077170 
#    y 0.000000 1.907590 0.000000 
#    z 0.077170 0.000000 2.016190 
# 
# From -- ./inp_files/61450.got.cif
#   From: 2010.05.17/outbox.cif.g08.bks.cpg/sg5_31_cif.got.tgz:61450.got - 2010.06.03 18:56:24.
