data_PCOD9122549
_publ_section_title
;
Structure prediction by ZEFSAII (Michael W. Deem and Ramdas Pophale) SiO2 
 PCOD9122549
Probable space group: C 2
;
_chemical_formula_sum "Si O2"
_cell_formula_units_Z 24
_cell_length_a 17.264881
_cell_length_b 16.275617
_cell_length_c 12.184737
_cell_angle_alpha 90.000000
_cell_angle_beta 20.846779
_cell_angle_gamma 90.000000
_cell_volume 1218.452733
_symmetry_space_group_name_H-M "C 2"
_symmetry_group_IT_number 5
_symmetry_cell_setting 'monoclinic'
loop_
_space_group_symop_operation_xyz
x,y,z
-x,y,-z
1/2+x,1/2+y,z
1/2-x,1/2+y,-z
loop_
_atom_site_type_symbol
_atom_site_label
_atom_site_fract_x
_atom_site_fract_y
_atom_site_fract_z
Si Si1 0.755256 0.942200 0.276327
Si Si2 0.261713 0.763513 0.651906
Si Si3 0.493803 0.078460 0.261756
Si Si4 0.897400 0.204565 0.244571
Si Si5 0.175846 0.081017 0.356392
Si Si6 0.134682 0.063704 0.054640
O O1 0.675234 0.848896 0.375929
O O2 0.620497 0.997659 0.539437
O O3 0.000000 0.939768 0.000000
O O4 0.768648 0.989079 0.142841
O O5 0.345805 0.762717 0.415226
O O6 0.343228 0.679150 0.598016
O O7 0.000000 0.757173 0.000000
O O8 0.322664 0.152958 0.487608
O O9 0.594199 0.067205 0.007138
O O10 0.691806 0.094125 0.084912
O O11 0.070727 0.135999 0.055995
O O12 0.000000 0.243338 0.000000
O O13 0.000000 0.052960 0.500000
O O14 0.089975 0.042717 0.583699
#
# Coordination Sequence:
#
# PCOD9122549 Si02
#       6
#     4   4   4   4   4   4
#     4  11  21  36  54  86 114 147 194 225 285 342
#     4  10  21  36  57  79 117 153 184 231 286 338
#     4  11  19  35  59  85 111 151 181 238 283 323
#     4  11  20  36  58  85 113 145 194 234 276 337
#     4   9  20  35  56  84 110 145 196 229 276 336
#     4  10  20  34  57  88 110 143 193 236 271 338
#
# _framework density 19.697113000000002
#
# number of rings (size 3 to 8) (size 9 to 14) (size 15 to 20)
#    0.000    1.667    5.000    0.500    0.000    1.333 
#    0.000    3.333    0.000    0.000    0.000    0.000 
#    0.000    0.000    0.000    0.000    0.000    0.000 
#
# Total GULP energy -66944.397861 kJ/mol
# GULP energy per Si atom -5578.699822 kJ/mol
# Density = 1.965228 g / cm^3
# Si number density = 19.697113 Si / 1000 Ang^3
#
#
#
# Elastic Constant Matrix: (Units=GPa)
#
#
# Indices 1 2 3 4 5 6 
#
# 1 67.3951 14.4385 27.4052 -0.0013 12.6444 -0.0020
# 2 14.4385 72.7270 35.3361 -0.0001 21.5283 -0.0042
# 3 27.4052 35.3361 123.9534 0.0121 34.0370 -0.0064
# 4 -0.0013 -0.0001 0.0121 15.0862 -0.0035 7.0127
# 5 12.6444 21.5283 34.0370 -0.0035 52.9090 0.0009
# 6 -0.0020 -0.0042 -0.0064 7.0127 0.0009 17.6154
#
#
#
# Elastic Compliance Matrix: (Units=1/GPa)
#
#
# Indices 1 2 3 4 5 6 
#
# 1 0.016591 -0.001462 -0.002825 0.000004 -0.001553 -0.000001
# 2 -0.001462 0.016951 -0.003293 0.000000 -0.004430 0.000003
# 3 -0.002825 -0.003293 0.011025 -0.000014 -0.005078 0.000009
# 4 0.000004 0.000000 -0.000014 0.081337 0.000014 -0.032380
# 5 -0.001553 -0.004430 -0.005078 0.000014 0.024340 -0.000010
# 6 -0.000001 0.000003 0.000009 -0.032380 -0.000010 0.069659
#
#
# Mechanical properties :
#
#
# Convention : Reuss Voigt Hill
#
# Bulk Modulus (GPa) = 34.00358 46.49277 40.24818
# Shear Modulus (GPa) = 20.41930 29.58184 25.00057
#
# Velocity S-wave (km/s) = 3.22322 3.87956 3.56652
# Velocity P-wave (km/s) = 5.58148 6.61234 6.11866
#
# Compressibility (1/GPa) = 0.02940866
#
# Stress axis : x y z
#
# Youngs Moduli (GPa) = 60.27318 58.99206 90.70148
#
# Poissons Ratio (x) = 0.08622 0.25624
# Poissons Ratio (y) = 0.08809 0.29867
# Poissons Ratio (z) = 0.17028 0.19426
#
# Static dielectric constant tensor:
#      x y z
#    x 1.733620 -0.000010 0.000220 
#    y -0.000010 1.650730 0.000010 
#    z 0.000220 0.000010 1.746270 
# 
# From -- ./inp_files/15748.got.cif
#   From: 2010.05.17/outbox.cif.g08.bks.cpg/sg5_8_cif.got.tgz:15748.got - 2010.06.03 18:56:24.
