data_PCOD9122758
_publ_section_title
;
Structure prediction by ZEFSAII (Michael W. Deem and Ramdas Pophale) SiO2 
 PCOD9122758
Probable space group: C 2
;
_chemical_formula_sum "Si O2"
_cell_formula_units_Z 28
_cell_length_a 17.129104
_cell_length_b 5.222078
_cell_length_c 15.444976
_cell_angle_alpha 90.000000
_cell_angle_beta 133.736405
_cell_angle_gamma 90.000000
_cell_volume 998.205443
_symmetry_space_group_name_H-M "C 2"
_symmetry_group_IT_number 5
_symmetry_cell_setting 'monoclinic'
loop_
_space_group_symop_operation_xyz
x,y,z
-x,y,-z
1/2+x,1/2+y,z
1/2-x,1/2+y,-z
loop_
_atom_site_type_symbol
_atom_site_label
_atom_site_fract_x
_atom_site_fract_y
_atom_site_fract_z
Si Si1 0.540430 0.416710 0.257180
Si Si2 0.068788 0.135451 0.471761
Si Si3 0.107684 0.483612 0.700709
Si Si4 0.283003 0.064690 0.579565
Si Si5 0.873660 0.597888 0.924965
Si Si6 0.823854 0.981302 0.140127
Si Si7 0.691996 0.601458 0.224536
O O1 0.550011 0.498195 0.364896
O O2 0.595258 0.133577 0.298629
O O3 0.416363 0.477661 0.136243
O O4 0.621408 0.564301 0.255764
O O5 0.016086 0.417145 0.414738
O O6 0.000000 0.034130 0.500000
O O7 0.193891 0.083925 0.586145
O O8 0.142000 0.713412 0.789486
O O9 0.180942 0.539567 0.673214
O O10 0.146791 0.222312 0.776528
O O11 0.239395 0.304033 0.488001
O O12 0.806521 0.522778 0.962844
O O13 0.850506 0.886682 0.875852
O O14 0.823493 0.380630 0.825205
O O15 0.000000 0.564422 0.000000
#
# Coordination Sequence:
#
# PCOD9122758 Si02
#       7
#     4   4   4   4   4   4   4
#     4  10  21  38  56  84 116 149 192 233 277 335
#     4  10  20  36  56  81 114 155 195 238 276 316
#     4   9  18  35  54  79 108 148 192 223 268 335
#     4  10  21  36  55  80 112 149 191 243 282 311
#     4  10  21  40  62  87 112 142 183 227 280 346
#     4   9  19  35  58  80 110 147 180 223 277 335
#     4  10  21  36  61  85 113 150 182 227 282 332
#
# _framework density 28.050338
#
# number of rings (size 3 to 8) (size 9 to 14) (size 15 to 20)
#    0.000    2.286    0.000    2.143    0.000    4.571 
#    0.000   31.429    0.000    0.000    0.000    0.000 
#    0.000    0.000    0.000    0.000    0.000    0.000 
#
# Total GULP energy -78157.212255 kJ/mol
# GULP energy per Si atom -5582.658018 kJ/mol
# Density = 2.798649 g / cm^3
# Si number density = 28.050338 Si / 1000 Ang^3
#
#
#
# Elastic Constant Matrix: (Units=GPa)
#
#
# Indices 1 2 3 4 5 6 
#
# 1 217.4919 11.3463 28.7907 0.0000 41.9509 0.0000
# 2 11.3463 168.5331 36.1253 0.0001 -2.4304 0.0006
# 3 28.7907 36.1253 67.8405 0.0000 24.5347 0.0000
# 4 0.0000 0.0001 0.0000 44.4850 0.0000 0.5984
# 5 41.9509 -2.4304 24.5347 0.0000 56.7713 0.0000
# 6 0.0000 0.0006 0.0000 0.5984 0.0000 35.9643
#
#
#
# Elastic Compliance Matrix: (Units=1/GPa)
#
#
# Indices 1 2 3 4 5 6 
#
# 1 0.005428 -0.000234 -0.000859 0.000000 -0.003650 0.000000
# 2 -0.000234 0.006941 -0.004465 0.000000 0.002399 0.000000
# 3 -0.000859 -0.004465 0.020531 0.000000 -0.008429 0.000000
# 4 0.000000 0.000000 0.000000 0.022485 0.000000 -0.000374
# 5 -0.003650 0.002399 -0.008429 0.000000 0.024057 0.000000
# 6 0.000000 0.000000 0.000000 -0.000374 0.000000 0.027812
#
#
# Mechanical properties :
#
#
# Convention : Reuss Voigt Hill
#
# Bulk Modulus (GPa) = 45.90429 67.37669 56.64049
# Shear Modulus (GPa) = 39.79980 52.61767 46.20874
#
# Velocity S-wave (km/s) = 3.77088 4.33578 4.06316
# Velocity P-wave (km/s) = 5.94641 7.00981 6.49990
#
# Compressibility (1/GPa) = 0.02178446
#
# Stress axis : x y z
#
# Youngs Moduli (GPa) = 184.23875 144.07397 48.70735
#
# Poissons Ratio (x) = 0.03370 0.04184
# Poissons Ratio (y) = 0.04310 0.21746
# Poissons Ratio (z) = 0.15827 0.64322
#
# Static dielectric constant tensor:
#      x y z
#    x 2.426930 0.000000 0.086850 
#    y 0.000000 2.229530 0.000000 
#    z 0.086850 0.000000 2.291280 
# 
# From -- ./inp_files/61246.got.cif
#   From: 2010.05.17/outbox.cif.g08.bks.cpg/sg5_31_cif.got.tgz:61246.got - 2010.06.03 18:56:24.
