data_PCOD9122473
_publ_section_title
;
Structure prediction by ZEFSAII (Michael W. Deem and Ramdas Pophale) SiO2 
 PCOD9122473
Probable space group: C 2
;
_chemical_formula_sum "Si O2"
_cell_formula_units_Z 28
_cell_length_a 7.902268
_cell_length_b 29.262708
_cell_length_c 6.977363
_cell_angle_alpha 90.000000
_cell_angle_beta 134.694305
_cell_angle_gamma 90.000000
_cell_volume 1146.957689
_symmetry_space_group_name_H-M "C 2"
_symmetry_group_IT_number 5
_symmetry_cell_setting 'monoclinic'
loop_
_space_group_symop_operation_xyz
x,y,z
-x,y,-z
1/2+x,1/2+y,z
1/2-x,1/2+y,-z
loop_
_atom_site_type_symbol
_atom_site_label
_atom_site_fract_x
_atom_site_fract_y
_atom_site_fract_z
Si Si1 0.561891 0.136150 0.769662
Si Si2 0.000000 0.077908 0.000000
Si Si3 0.668512 0.769089 0.374999
Si Si4 0.159416 0.737286 0.902937
Si Si5 0.544240 0.864730 0.762314
Si Si6 0.500000 0.406168 0.000000
Si Si7 0.771325 0.948989 0.451264
Si Si8 0.829270 0.546573 0.551149
O O1 0.500000 0.147011 0.500000
O O2 0.592439 0.184850 0.888237
O O3 0.382255 0.095487 0.692463
O O4 0.810030 0.110902 0.945259
O O5 0.079047 0.048202 0.243502
O O6 0.751208 0.744542 0.245117
O O7 0.598883 0.821381 0.273251
O O8 0.903306 0.764135 0.698892
O O9 0.402639 0.749820 0.212516
O O10 0.500000 0.859898 0.500000
O O11 0.418978 0.909909 0.737577
O O12 0.827190 0.873903 0.991051
O O13 0.647735 0.438068 0.264069
O O14 0.000000 0.945030 0.500000
O O15 0.658083 0.999013 0.333369
O O16 0.000000 0.545461 0.500000
#
# Coordination Sequence:
#
# PCOD9122473 Si02
#       8
#     4   2   4   4   4   2   4   4
#     4   9  16  29  52  85 122 159 211 271 329 394
#     4   8  15  26  54  80 112 156 212 254 331 388
#     4  10  21  33  59  88 129 163 215 275 340 391
#     4  10  20  33  56  95 130 161 219 283 334 399
#     4  10  24  42  63  88 129 173 222 281 341 414
#     4  10  23  44  66  90 134 176 224 272 351 406
#     4  11  24  40  66  96 133 173 225 282 343 411
#     4   9  18  32  55  86 120 163 215 268 335 400
#
# _framework density 24.412412
#
# number of rings (size 3 to 8) (size 9 to 14) (size 15 to 20)
#    0.000    2.571    1.429    2.571    8.000    2.857 
#    0.000    0.000    0.000    0.857    3.714    0.000 
#    0.000    0.000    0.000    0.000    0.000    0.000 
#
# Total GULP energy -78046.815839 kJ/mol
# GULP energy per Si atom -5574.772560 kJ/mol
# Density = 2.435685 g / cm^3
# Si number density = 24.412412 Si / 1000 Ang^3
#
#
#
# Elastic Constant Matrix: (Units=GPa)
#
#
# Indices 1 2 3 4 5 6 
#
# 1 100.3482 30.1040 15.0838 0.0000 15.4364 0.0000
# 2 30.1040 209.1464 46.7415 0.0000 33.7133 0.0000
# 3 15.0838 46.7415 118.4687 0.0000 22.5514 0.0000
# 4 0.0000 0.0000 0.0000 -21.2343 0.0000 61.1106
# 5 15.4364 33.7133 22.5514 0.0000 40.1325 0.0000
# 6 0.0000 0.0000 0.0000 61.1106 0.0000 -35.4937
#
#
#
# Elastic Compliance Matrix: (Units=1/GPa)
#
#
# Indices 1 2 3 4 5 6 
#
# 1 0.010794 -0.000961 -0.000401 0.000000 -0.003119 0.000000
# 2 -0.000961 0.005849 -0.001478 0.000000 -0.003713 0.000000
# 3 -0.000401 -0.001478 0.009865 0.000000 -0.004147 0.000000
# 4 0.000000 0.000000 0.000000 0.011907 0.000000 0.020501
# 5 -0.003119 -0.003713 -0.004147 0.000000 0.031566 0.000000
# 6 0.000000 0.000000 0.000000 0.020501 0.000000 0.007124
#
#
# Mechanical properties :
#
#
# Convention : Reuss Voigt Hill
#
# Bulk Modulus (GPa) = 48.01895 67.98021 57.99958
# Shear Modulus (GPa) = 55.72399 19.08316 37.40358
#
# Velocity S-wave (km/s) = 4.78285 2.79892 3.91852
# Velocity P-wave (km/s) = 7.08615 6.19292 6.65454
#
# Compressibility (1/GPa) = 0.02082511
#
# Stress axis : x y z
#
# Youngs Moduli (GPa) = 92.64635 170.98245 101.36977
#
# Poissons Ratio (x) = 0.16435 0.04069
# Poissons Ratio (y) = 0.08905 0.14987
# Poissons Ratio (z) = 0.03719 0.25279
#
# Static dielectric constant tensor:
#      x y z
#    x 2.740600 0.000000 -0.377330 
#    y 0.000000 1.925640 0.000000 
#    z -0.377330 0.000000 2.195910 
# 
# From -- ./inp_files/17641.got.cif
#   From: 2010.05.17/outbox.cif.g08.bks.cpg/sg5_9_cif.got.tgz:17641.got - 2010.06.03 18:56:24.
