data_PCOD9122612
_publ_section_title
;
Structure prediction by ZEFSAII (Michael W. Deem and Ramdas Pophale) SiO2 
 PCOD9122612
Probable space group: C 2
;
_chemical_formula_sum "Si O2"
_cell_formula_units_Z 22
_cell_length_a 13.164957
_cell_length_b 8.705989
_cell_length_c 7.017599
_cell_angle_alpha 90.000000
_cell_angle_beta 109.329333
_cell_angle_gamma 90.000000
_cell_volume 758.976959
_symmetry_space_group_name_H-M "C 2"
_symmetry_group_IT_number 5
_symmetry_cell_setting 'monoclinic'
loop_
_space_group_symop_operation_xyz
x,y,z
-x,y,-z
1/2+x,1/2+y,z
1/2-x,1/2+y,-z
loop_
_atom_site_type_symbol
_atom_site_label
_atom_site_fract_x
_atom_site_fract_y
_atom_site_fract_z
Si Si1 0.388704 0.392940 0.550584
Si Si2 0.840744 0.925468 0.962052
Si Si3 0.000000 0.156335 0.000000
Si Si4 0.606884 0.739015 0.439886
Si Si5 0.870966 0.594079 0.097966
Si Si6 0.118846 0.561496 0.352784
O O1 0.500000 0.390480 0.500000
O O2 0.393888 0.396459 0.787203
O O3 0.346245 0.568822 0.483619
O O4 0.346411 0.216006 0.511710
O O5 0.721124 0.986011 0.880109
O O6 0.847677 0.775715 0.094295
O O7 0.915380 0.063717 0.078383
O O8 0.072571 0.240278 0.196562
O O9 0.500000 0.751905 0.500000
O O10 0.662828 0.905331 0.476020
O O11 0.986736 0.561433 0.262435
O O12 0.862278 0.569033 0.863227
#
# Coordination Sequence:
#
# PCOD9122612 Si02
#       6
#     4   4   2   4   4   4
#     4   9  19  37  60  79 118 162 201 244 302 356
#     4  10  21  35  60  89 116 156 204 250 299 365
#     4  10  20  38  62  84 122 162 198 248 310 346
#     4  10  20  34  64  91 112 155 205 246 301 359
#     4  10  21  34  57  92 118 152 205 246 303 360
#     4  10  20  37  58  86 121 160 193 250 301 360
#
# _framework density 28.986391000000001
#
# number of rings (size 3 to 8) (size 9 to 14) (size 15 to 20)
#    0.000    2.182    0.000    4.909    7.636    0.000 
#    0.000    0.000   12.000    4.364    0.000    0.000 
#    0.000    0.000    0.000    0.000    0.000    0.000 
#
# Total GULP energy -61559.030514 kJ/mol
# GULP energy per Si atom -5596.275501 kJ/mol
# Density = 2.892042 g / cm^3
# Si number density = 28.986391 Si / 1000 Ang^3
#
#
#
# Elastic Constant Matrix: (Units=GPa)
#
#
# Indices 1 2 3 4 5 6 
#
# 1 108.5063 66.9883 51.1277 0.0000 -1.2493 0.0000
# 2 66.9883 286.9989 46.1781 0.0000 -1.9865 0.0000
# 3 51.1277 46.1781 150.0997 0.0000 -11.9459 0.0000
# 4 0.0000 0.0000 0.0000 28.8053 0.0000 0.5330
# 5 -1.2493 -1.9865 -11.9459 0.0000 40.8013 0.0000
# 6 0.0000 0.0000 0.0000 0.5330 0.0000 66.8853
#
#
#
# Elastic Compliance Matrix: (Units=1/GPa)
#
#
# Indices 1 2 3 4 5 6 
#
# 1 0.012300 -0.002306 -0.003542 0.000000 -0.000773 0.000000
# 2 -0.002306 0.004099 -0.000476 0.000000 -0.000011 0.000000
# 3 -0.003542 -0.000476 0.008196 0.000000 0.002268 0.000000
# 4 0.000000 0.000000 0.000000 0.034721 0.000000 -0.000277
# 5 -0.000773 -0.000011 0.002268 0.000000 0.025149 0.000000
# 6 0.000000 0.000000 0.000000 -0.000277 0.000000 0.014953
#
#
# Mechanical properties :
#
#
# Convention : Reuss Voigt Hill
#
# Bulk Modulus (GPa) = 83.70949 97.13257 90.42103
# Shear Modulus (GPa) = 43.08549 52.71910 47.90229
#
# Velocity S-wave (km/s) = 3.85957 4.26931 4.06960
# Velocity P-wave (km/s) = 6.98594 7.60823 7.30371
#
# Compressibility (1/GPa) = 0.01194608
#
# Stress axis : x y z
#
# Youngs Moduli (GPa) = 81.30199 243.94756 122.01631
#
# Poissons Ratio (x) = 0.56264 0.43213
# Poissons Ratio (y) = 0.18752 0.05812
# Poissons Ratio (z) = 0.28794 0.11620
#
# Static dielectric constant tensor:
#      x y z
#    x 2.248070 0.000000 -0.018790 
#    y 0.000000 2.379760 0.000000 
#    z -0.018790 0.000000 2.264040 
# 
# From -- ./inp_files/22667.got.cif
#   From: 2010.05.17/outbox.cif.g08.bks.cpg/sg5_12_cif.got.tgz:22667.got - 2010.06.03 18:56:24.
