data_PCOD9122693
_publ_section_title
;
Structure prediction by ZEFSAII (Michael W. Deem and Ramdas Pophale) SiO2 
 PCOD9122693
Probable space group: C 2
;
_chemical_formula_sum "Si O2"
_cell_formula_units_Z 32
_cell_length_a 13.854407
_cell_length_b 16.611322
_cell_length_c 7.756491
_cell_angle_alpha 90.000000
_cell_angle_beta 117.067039
_cell_angle_gamma 90.000000
_cell_volume 1589.567692
_symmetry_space_group_name_H-M "C 2"
_symmetry_group_IT_number 5
_symmetry_cell_setting 'monoclinic'
loop_
_space_group_symop_operation_xyz
x,y,z
-x,y,-z
1/2+x,1/2+y,z
1/2-x,1/2+y,-z
loop_
_atom_site_type_symbol
_atom_site_label
_atom_site_fract_x
_atom_site_fract_y
_atom_site_fract_z
Si Si1 0.119480 0.472630 0.142801
Si Si2 0.249423 0.117136 0.872920
Si Si3 0.403792 0.237831 0.191029
Si Si4 0.486608 0.569215 0.278143
Si Si5 0.026784 0.888517 0.313623
Si Si6 0.734452 0.325164 0.619894
Si Si7 0.799632 0.159253 0.566388
Si Si8 0.074384 0.594983 0.416696
O O1 0.180833 0.534362 0.063386
O O2 0.197655 0.398144 0.245232
O O3 0.095101 0.532082 0.283020
O O4 0.000000 0.442442 0.000000
O O5 0.131550 0.103716 0.859419
O O6 0.225642 0.137932 0.653524
O O7 0.320088 0.188681 0.008144
O O8 0.460635 0.318208 0.167542
O O9 0.337236 0.276356 0.297194
O O10 0.502540 0.174425 0.308358
O O11 0.500000 0.569677 0.500000
O O12 0.498350 0.477116 0.230253
O O13 0.588057 0.618947 0.290761
O O14 0.152573 0.865038 0.416429
O O15 0.000000 0.888427 0.500000
O O16 0.804727 0.254732 0.593162
O O17 0.693248 0.123150 0.574981
O O18 0.000000 0.554882 0.500000
#
# Coordination Sequence:
#
# PCOD9122693 Si02
#       8
#     4   4   4   4   4   4   4   4
#     4  11  23  38  60  91 129 160 203 258 321 376
#     4  10  21  37  60  89 118 160 201 255 319 369
#     4  11  19  34  63  90 118 149 203 259 299 362
#     4   9  18  36  58  83 117 159 199 245 305 376
#     4   9  16  32  57  84 108 145 198 241 287 351
#     4  11  21  36  58  90 119 157 205 251 297 371
#     4  10  20  35  61  86 116 158 212 251 304 368
#     4  11  19  38  62  91 116 162 210 257 300 366
#
# _framework density 20.131259
#
# number of rings (size 3 to 8) (size 9 to 14) (size 15 to 20)
#    0.000    1.750    3.750    4.125    0.000    1.000 
#    0.000    3.125    0.000    1.500    0.000    0.000 
#    0.000    0.000    0.000    0.000    0.000    0.000 
#
# Total GULP energy -89211.066650 kJ/mol
# GULP energy per Si atom -5575.691666 kJ/mol
# Density = 2.008544 g / cm^3
# Si number density = 20.131259 Si / 1000 Ang^3
#
#
#
# Elastic Constant Matrix: (Units=GPa)
#
#
# Indices 1 2 3 4 5 6 
#
# 1 103.8873 37.9655 21.1481 0.0000 23.3141 0.0000
# 2 37.9655 108.0512 13.2011 0.0000 18.5642 0.0000
# 3 21.1481 13.2011 24.3638 0.0000 21.2670 0.0000
# 4 0.0000 0.0000 0.0000 38.2055 0.0000 13.2243
# 5 23.3141 18.5642 21.2670 0.0000 30.5581 0.0000
# 6 0.0000 0.0000 0.0000 13.2243 0.0000 30.9797
#
#
#
# Elastic Compliance Matrix: (Units=1/GPa)
#
#
# Indices 1 2 3 4 5 6 
#
# 1 0.012856 -0.003143 -0.006525 0.000000 -0.003358 0.000000
# 2 -0.003143 0.011103 0.001291 0.000000 -0.005246 0.000000
# 3 -0.006525 0.001291 0.107891 0.000000 -0.070893 0.000000
# 4 0.000000 0.000000 0.000000 0.030712 0.000000 -0.013110
# 5 -0.003358 -0.005246 -0.070893 0.000000 0.087811 0.000000
# 6 0.000000 0.000000 0.000000 -0.013110 0.000000 0.037875
#
#
# Mechanical properties :
#
#
# Convention : Reuss Voigt Hill
#
# Bulk Modulus (GPa) = 8.68846 42.32577 25.50711
# Shear Modulus (GPa) = 14.56163 30.88117 22.72140
#
# Velocity S-wave (km/s) = 2.69240 3.92087 3.36320
# Velocity P-wave (km/s) = 3.74041 6.44734 5.27062
#
# Compressibility (1/GPa) = 0.11509524
#
# Stress axis : x y z
#
# Youngs Moduli (GPa) = 77.78228 90.06782 9.26864
#
# Poissons Ratio (x) = 0.28310 0.06048
# Poissons Ratio (y) = 0.24448 -0.01197
# Poissons Ratio (z) = 0.50757 -0.11631
#
# Static dielectric constant tensor:
#      x y z
#    x 1.785980 0.000000 -0.048970 
#    y 0.000000 1.712420 0.000000 
#    z -0.048970 0.000000 1.768880 
# 
# From -- ./inp_files/24645.got.cif
#   From: 2010.05.17/outbox.cif.g08.bks.cpg/sg5_13_cif.got.tgz:24645.got - 2010.06.03 18:56:24.
