data_PCOD9122921
_publ_section_title
;
Structure prediction by ZEFSAII (Michael W. Deem and Ramdas Pophale) SiO2 
 PCOD9122921
Probable space group: C 2
;
_chemical_formula_sum "Si O2"
_cell_formula_units_Z 30
_cell_length_a 8.641475
_cell_length_b 12.233632
_cell_length_c 13.764506
_cell_angle_alpha 90.000000
_cell_angle_beta 121.468648
_cell_angle_gamma 90.000000
_cell_volume 1241.124204
_symmetry_space_group_name_H-M "C 2"
_symmetry_group_IT_number 5
_symmetry_cell_setting 'monoclinic'
loop_
_space_group_symop_operation_xyz
x,y,z
-x,y,-z
1/2+x,1/2+y,z
1/2-x,1/2+y,-z
loop_
_atom_site_type_symbol
_atom_site_label
_atom_site_fract_x
_atom_site_fract_y
_atom_site_fract_z
Si Si1 0.172108 0.512750 0.826738
Si Si2 0.760508 0.857070 0.548018
Si Si3 0.430358 0.812287 0.695837
Si Si4 0.435798 0.180330 0.377349
Si Si5 0.500000 0.521028 0.500000
Si Si6 0.343507 0.604692 0.254034
Si Si7 0.465494 0.415616 0.799624
Si Si8 0.546495 0.186894 0.903915
O O1 0.121956 0.594868 0.721984
O O2 0.362038 0.457603 0.860607
O O3 0.017457 0.417842 0.776022
O O4 0.190652 0.592752 0.925870
O O5 0.584080 0.830631 0.426164
O O6 0.797946 0.900500 0.668043
O O7 0.887741 0.750092 0.591059
O O8 0.854296 0.945404 0.506556
O O9 0.230762 0.766606 0.661326
O O10 0.562759 0.711545 0.759138
O O11 0.500000 0.125688 0.500000
O O12 0.414481 0.589047 0.385945
O O13 0.402131 0.500957 0.209344
O O14 0.133834 0.627508 0.192790
O O15 0.565562 0.301842 0.855413
O O16 0.500000 0.207577 0.000000
#
# Coordination Sequence:
#
# PCOD9122921 Si02
#       8
#     4   4   4   4   2   4   4   4
#     4  12  25  42  72  98 137 180 227 289 345 405
#     4  10  20  37  62 101 144 190 219 268 339 410
#     4  11  22  37  66 104 148 176 234 263 340 429
#     4  10  21  38  59 102 147 187 217 272 342 413
#     4  10  20  36  64 100 144 184 214 270 346 408
#     4  11  25  43  71 105 143 183 227 284 344 414
#     4  11  25  45  70 102 138 176 231 283 346 403
#     4  12  29  51  72  98 133 183 241 293 345 402
#
# _framework density 24.171633
#
# number of rings (size 3 to 8) (size 9 to 14) (size 15 to 20)
#    0.000    1.067    6.000    0.800    5.600    2.133 
#    0.000    0.000    0.000    0.000    0.000    0.000 
#    0.000    0.000    0.000    0.000    0.000    0.000 
#
# Total GULP energy -83907.552160 kJ/mol
# GULP energy per Si atom -5593.836811 kJ/mol
# Density = 2.411662 g / cm^3
# Si number density = 24.171633 Si / 1000 Ang^3
#
#
#
# Elastic Constant Matrix: (Units=GPa)
#
#
# Indices 1 2 3 4 5 6 
#
# 1 41.2952 24.5054 0.2937 0.0000 -6.1100 0.0000
# 2 24.5054 147.4613 35.4482 0.0000 -16.4272 0.0000
# 3 0.2937 35.4482 55.8536 0.0000 -24.9547 0.0000
# 4 0.0000 0.0000 0.0000 6.7714 0.0000 -19.1732
# 5 -6.1100 -16.4272 -24.9547 0.0000 25.5053 0.0000
# 6 0.0000 0.0000 0.0000 -19.1732 0.0000 30.5467
#
#
#
# Elastic Compliance Matrix: (Units=1/GPa)
#
#
# Indices 1 2 3 4 5 6 
#
# 1 0.029270 -0.005640 0.008768 0.000000 0.011958 0.000000
# 2 -0.005640 0.009091 -0.006622 0.000000 -0.001976 0.000000
# 3 0.008768 -0.006622 0.037476 0.000000 0.034502 0.000000
# 4 0.000000 0.000000 0.000000 -0.190005 0.000000 -0.119260
# 5 0.011958 -0.001976 0.034502 0.000000 0.074557 0.000000
# 6 0.000000 0.000000 0.000000 -0.119260 0.000000 -0.042119
#
#
# Mechanical properties :
#
#
# Convention : Reuss Voigt Hill
#
# Bulk Modulus (GPa) = 14.52467 40.56720 27.54593
# Shear Modulus (GPa) = -96.53701 24.85553 -35.84074
#
# Velocity S-wave (km/s) = -6.32652 3.21018 -3.85484
# Velocity P-wave (km/s) = 6.88073 5.52809 2.89695
#
# Compressibility (1/GPa) = 0.06884838
#
# Stress axis : x y z
#
# Youngs Moduli (GPa) = 34.16516 110.00430 26.68369
#
# Poissons Ratio (x) = 0.62039 -0.23397
# Poissons Ratio (y) = 0.19268 0.17671
# Poissons Ratio (z) = -0.29957 0.72850
#
# Static dielectric constant tensor:
#      x y z
#    x 2.197890 0.000000 -0.032230 
#    y 0.000000 1.933920 0.000000 
#    z -0.032230 0.000000 1.993970 
# 
# From -- ./inp_files/50536.got.cif
#   From: 2010.05.17/outbox.cif.g08.bks.cpg/sg5_26_cif.got.tgz:50536.got - 2010.06.03 18:56:24.
