data_PCOD9122011
_publ_section_title
;
Structure prediction by ZEFSAII (Michael W. Deem and Ramdas Pophale) SiO2 
 PCOD9122011
Probable space group: C 2
;
_chemical_formula_sum "Si O2"
_cell_formula_units_Z 30
_cell_length_a 5.546678
_cell_length_b 32.539811
_cell_length_c 6.995488
_cell_angle_alpha 90.000000
_cell_angle_beta 78.694012
_cell_angle_gamma 90.000000
_cell_volume 1238.098809
_symmetry_space_group_name_H-M "C 2"
_symmetry_group_IT_number 5
_symmetry_cell_setting 'monoclinic'
loop_
_space_group_symop_operation_xyz
x,y,z
-x,y,-z
1/2+x,1/2+y,z
1/2-x,1/2+y,-z
loop_
_atom_site_type_symbol
_atom_site_label
_atom_site_fract_x
_atom_site_fract_y
_atom_site_fract_z
Si Si1 0.500000 0.257841 0.500000
Si Si2 0.073939 0.212743 0.712108
Si Si3 0.771988 0.501231 0.386112
Si Si4 0.936726 0.118046 0.221476
Si Si5 0.067716 0.586344 0.774598
Si Si6 0.730518 0.288239 0.822022
Si Si7 0.724785 0.908808 0.713361
Si Si8 0.270794 0.378865 0.262618
O O1 0.348773 0.229872 0.667529
O O2 0.665337 0.285163 0.607466
O O3 0.076992 0.167220 0.790151
O O4 0.000000 0.209511 0.500000
O O5 0.903900 0.248712 0.824780
O O6 0.500000 0.515278 0.500000
O O7 0.874738 0.538141 0.241517
O O8 0.713744 0.456956 0.305642
O O9 0.000000 0.494814 0.500000
O O10 0.672639 0.098486 0.309203
O O11 0.175828 0.108616 0.310357
O O12 0.000000 0.100882 0.000000
O O13 0.000000 0.600032 0.000000
O O14 0.819231 0.335015 0.808004
O O15 0.500000 0.285545 0.000000
O O16 0.745413 0.887858 0.496898
O O17 0.433385 0.907986 0.799969
O O18 0.936046 0.886497 0.805345
#
# Coordination Sequence:
#
# PCOD9122011 Si02
#       8
#     2   4   4   4   4   4   4   4
#     4  10  24  44  62  92 134 172 224 292 342 398
#     4  10  25  42  65  96 132 174 228 287 347 408
#     4  12  21  39  65 102 126 171 229 277 336 419
#     4  10  23  43  68  91 132 179 223 273 345 415
#     4  10  24  43  63  95 133 178 217 276 348 409
#     4  11  26  42  67 101 135 185 237 288 352 419
#     4  10  19  37  66  88 129 173 218 271 350 403
#     4  10  20  37  61  91 128 170 222 271 329 407
#
# _framework density 24.230698
#
# number of rings (size 3 to 8) (size 9 to 14) (size 15 to 20)
#    0.000    1.600    2.667    1.600   13.067    2.133 
#    0.000    1.333    0.000    0.000    0.000    0.000 
#    0.000    0.000    0.000    0.000    0.000    0.000 
#
# Total GULP energy -83697.646394 kJ/mol
# GULP energy per Si atom -5579.843093 kJ/mol
# Density = 2.417555 g / cm^3
# Si number density = 24.230698 Si / 1000 Ang^3
#
#
#
# Elastic Constant Matrix: (Units=GPa)
#
#
# Indices 1 2 3 4 5 6 
#
# 1 164.5588 20.6693 29.8406 0.0000 -14.8630 0.0000
# 2 20.6693 126.7621 11.5229 0.0000 -27.5942 0.0000
# 3 29.8406 11.5229 66.0143 0.0000 -4.3836 0.0000
# 4 0.0000 0.0000 0.0000 22.3631 0.0000 14.0512
# 5 -14.8630 -27.5942 -4.3836 0.0000 40.9959 0.0000
# 6 0.0000 0.0000 0.0000 14.0512 0.0000 29.5361
#
#
#
# Elastic Compliance Matrix: (Units=1/GPa)
#
#
# Indices 1 2 3 4 5 6 
#
# 1 0.006824 -0.000444 -0.002883 0.000000 0.001867 0.000000
# 2 -0.000444 0.009369 -0.001034 0.000000 0.006035 0.000000
# 3 -0.002883 -0.001034 0.016634 0.000000 0.000038 0.000000
# 4 0.000000 0.000000 0.000000 0.063781 0.000000 -0.030343
# 5 0.001867 0.006035 0.000038 0.000000 0.029135 0.000000
# 6 0.000000 0.000000 0.000000 -0.030343 0.000000 0.048292
#
#
# Mechanical properties :
#
#
# Convention : Reuss Voigt Hill
#
# Bulk Modulus (GPa) = 41.48540 53.48894 47.48717
# Shear Modulus (GPa) = 26.20635 38.26585 32.23610
#
# Velocity S-wave (km/s) = 3.29224 3.97826 3.65140
# Velocity P-wave (km/s) = 5.62227 6.57457 6.11698
#
# Compressibility (1/GPa) = 0.02410486
#
# Stress axis : x y z
#
# Youngs Moduli (GPa) = 146.53962 106.73694 60.11611
#
# Poissons Ratio (x) = 0.04742 0.17333
# Poissons Ratio (y) = 0.06510 0.06215
# Poissons Ratio (z) = 0.42250 0.11035
#
# Static dielectric constant tensor:
#      x y z
#    x 2.017700 0.000000 -0.050250 
#    y 0.000000 1.880990 0.000000 
#    z -0.050250 0.000000 2.084560 
# 
# From -- ./inp_files/13341.got.cif
#   From: 2010.05.17/outbox.cif.g08.bks.cpg/sg5_7_cif.got.tgz:13341.got - 2010.06.03 18:56:24.
