data_PCOD9122448
_publ_section_title
;
Structure prediction by ZEFSAII (Michael W. Deem and Ramdas Pophale) SiO2 
 PCOD9122448
Probable space group: C 2
;
_chemical_formula_sum "Si O2"
_cell_formula_units_Z 32
_cell_length_a 15.380637
_cell_length_b 23.056301
_cell_length_c 15.810691
_cell_angle_alpha 90.000000
_cell_angle_beta 161.729540
_cell_angle_gamma 90.000000
_cell_volume 1757.747121
_symmetry_space_group_name_H-M "C 2"
_symmetry_group_IT_number 5
_symmetry_cell_setting 'monoclinic'
loop_
_space_group_symop_operation_xyz
x,y,z
-x,y,-z
1/2+x,1/2+y,z
1/2-x,1/2+y,-z
loop_
_atom_site_type_symbol
_atom_site_label
_atom_site_fract_x
_atom_site_fract_y
_atom_site_fract_z
Si Si1 0.308670 0.590660 0.250525
Si Si2 0.131000 0.995322 0.839233
Si Si3 0.999394 0.310138 0.092859
Si Si4 0.425881 0.038011 0.636815
Si Si5 0.718985 0.656788 0.522383
Si Si6 0.266718 0.705088 0.977895
Si Si7 0.800072 0.618463 0.239118
Si Si8 0.994720 0.893138 0.400731
O O1 0.500000 0.563509 0.500000
O O2 0.295231 0.544921 0.161514
O O3 0.498510 0.644665 0.393494
O O4 0.000000 0.603869 0.000000
O O5 0.004027 0.941881 0.669720
O O6 0.880321 0.016641 0.666480
O O7 0.398925 0.992130 0.146460
O O8 0.281360 0.340519 0.386162
O O9 0.868593 0.267632 0.041074
O O10 0.796209 0.362913 0.885719
O O11 0.000000 0.279570 0.000000
O O12 0.366239 0.095009 0.639858
O O13 0.584759 0.061955 0.702600
O O14 0.980903 0.700497 0.768046
O O15 0.520801 0.675299 0.262075
O O16 0.208493 0.668239 0.839641
O O17 0.000000 0.635699 0.500000
O O18 0.500000 0.608614 0.000000
O O19 0.000000 0.919518 0.500000
#
# Coordination Sequence:
#
# PCOD9122448 Si02
#       8
#     4   4   4   4   4   4   4   4
#     4  11  20  31  49  74 102 133 171 208 249 305
#     4  11  20  34  51  69 101 141 171 200 253 302
#     4  10  21  34  50  74 103 134 175 220 249 286
#     4  10  20  33  48  71 100 133 169 207 246 300
#     4  10  20  34  49  72 103 136 172 214 252 301
#     4  11  20  34  52  71 103 143 174 203 256 303
#     4  11  20  31  49  74 103 134 169 204 247 305
#     4  10  21  35  50  73 103 134 175 218 248 286
#
# _framework density 18.205121999999999
#
# number of rings (size 3 to 8) (size 9 to 14) (size 15 to 20)
#    0.000    1.500    0.000    9.750    0.000    3.000 
#    0.000    0.000    0.000    0.000    0.000    0.000 
#    0.000   56.000    0.000    0.000    0.000    0.000 
#
# Total GULP energy -89167.968067 kJ/mol
# GULP energy per Si atom -5572.998004 kJ/mol
# Density = 1.816369 g / cm^3
# Si number density = 18.205122 Si / 1000 Ang^3
#
#
#
# Elastic Constant Matrix: (Units=GPa)
#
#
# Indices 1 2 3 4 5 6 
#
# 1 62.7901 16.2900 23.9219 -0.0090 27.3949 0.0007
# 2 16.2900 38.1577 7.1069 -0.0098 7.0582 -0.0010
# 3 23.9219 7.1069 106.7497 -0.0341 12.9562 0.0021
# 4 -0.0090 -0.0098 -0.0341 12.0554 -0.0092 -3.7600
# 5 27.3949 7.0582 12.9562 -0.0092 43.3041 0.0019
# 6 0.0007 -0.0010 0.0021 -3.7600 0.0019 24.3416
#
#
#
# Elastic Compliance Matrix: (Units=1/GPa)
#
#
# Indices 1 2 3 4 5 6 
#
# 1 0.025171 -0.007573 -0.003480 -0.000008 -0.013648 -0.000001
# 2 -0.007573 0.029479 -0.000274 0.000019 0.000068 0.000004
# 3 -0.003480 -0.000274 0.010266 0.000027 -0.000825 0.000003
# 4 -0.000008 0.000019 0.000027 0.087149 0.000012 0.013462
# 5 -0.013648 0.000068 -0.000825 0.000012 0.031962 0.000000
# 6 -0.000001 0.000004 0.000003 0.013462 0.000000 0.043161
#
#
# Mechanical properties :
#
#
# Convention : Reuss Voigt Hill
#
# Bulk Modulus (GPa) = 23.66200 33.59279 28.62740
# Shear Modulus (GPa) = 18.94442 26.63213 22.78828
#
# Velocity S-wave (km/s) = 3.22935 3.82893 3.54185
# Velocity P-wave (km/s) = 5.18947 6.16766 5.69959
#
# Compressibility (1/GPa) = 0.04226185
#
# Stress axis : x y z
#
# Youngs Moduli (GPa) = 39.72785 33.92302 97.40926
#
# Poissons Ratio (x) = 0.25691 0.33899
# Poissons Ratio (y) = 0.30087 0.02666
# Poissons Ratio (z) = 0.13825 0.00928
#
# Static dielectric constant tensor:
#      x y z
#    x 1.689500 0.000000 0.007220 
#    y 0.000000 1.641460 0.000000 
#    z 0.007220 0.000000 1.640250 
# 
# From -- ./inp_files/55005.got.cif
#   From: 2010.05.17/outbox.cif.g08.bks.cpg/sg5_28_cif.got.tgz:55005.got - 2010.06.03 18:56:24.
