data_PCOD9122851
_publ_section_title
;
Structure prediction by ZEFSAII (Michael W. Deem and Ramdas Pophale) SiO2 
 PCOD9122851
Probable space group: C 2
;
_chemical_formula_sum "Si O2"
_cell_formula_units_Z 28
_cell_length_a 8.337059
_cell_length_b 19.074915
_cell_length_c 11.748527
_cell_angle_alpha 90.000000
_cell_angle_beta 133.897230
_cell_angle_gamma 90.000000
_cell_volume 1346.306375
_symmetry_space_group_name_H-M "C 2"
_symmetry_group_IT_number 5
_symmetry_cell_setting 'monoclinic'
loop_
_space_group_symop_operation_xyz
x,y,z
-x,y,-z
1/2+x,1/2+y,z
1/2-x,1/2+y,-z
loop_
_atom_site_type_symbol
_atom_site_label
_atom_site_fract_x
_atom_site_fract_y
_atom_site_fract_z
Si Si1 0.983639 0.282770 0.698953
Si Si2 0.515440 0.649779 0.133404
Si Si3 0.459611 0.260398 0.855388
Si Si4 0.021758 0.565562 0.634430
Si Si5 0.743254 0.688293 0.564227
Si Si6 0.152268 0.374019 0.965247
Si Si7 0.137605 0.531512 0.947912
O O1 0.005805 0.212662 0.787587
O O2 0.209057 0.290552 0.736596
O O3 0.991181 0.349492 0.783032
O O4 0.780545 0.259914 0.519856
O O5 0.745954 0.607824 0.254771
O O6 0.500000 0.682757 0.000000
O O7 0.321398 0.592125 0.045995
O O8 0.437578 0.201111 0.751113
O O9 0.500000 0.229474 0.000000
O O10 0.644272 0.319285 0.929563
O O11 0.017931 0.535186 0.763111
O O12 0.000000 0.525871 0.500000
O O13 0.820614 0.621528 0.533072
O O14 0.500000 0.675769 0.500000
O O15 0.238434 0.452935 0.995722
O O16 0.000000 0.369598 0.000000
O O17 0.000000 0.536003 0.000000
#
# Coordination Sequence:
#
# PCOD9122851 Si02
#       7
#     4   4   4   4   4   4   4
#     4  10  20  36  60  89 125 154 202 250 319 363
#     4  10  22  37  60  93 121 158 208 258 306 362
#     4   9  21  34  60  87 116 164 202 250 306 363
#     4  11  23  38  62  94 126 165 200 262 320 355
#     4  10  22  37  58  92 126 158 200 256 313 376
#     4  10  22  41  61  88 120 162 211 259 305 364
#     4  10  25  42  64  88 125 172 213 254 309 376
#
# _framework density 20.797643999999998
#
# number of rings (size 3 to 8) (size 9 to 14) (size 15 to 20)
#    0.000    2.000    1.429    0.429   14.000    5.143 
#    0.000    5.000    0.000    3.429    0.000    0.000 
#    0.000    0.000    0.000    0.000    0.000    0.000 
#
# Total GULP energy -77986.814991 kJ/mol
# GULP energy per Si atom -5570.486785 kJ/mol
# Density = 2.075031 g / cm^3
# Si number density = 20.797644 Si / 1000 Ang^3
#
#
#
# Elastic Constant Matrix: (Units=GPa)
#
#
# Indices 1 2 3 4 5 6 
#
# 1 69.9830 28.0079 38.2053 0.0000 -12.5338 0.0000
# 2 28.0079 72.0816 20.3775 0.0000 -4.8347 0.0000
# 3 38.2053 20.3775 97.4981 0.0000 -21.0125 0.0000
# 4 0.0000 0.0000 0.0000 17.0455 0.0000 -2.4284
# 5 -12.5338 -4.8347 -21.0125 0.0000 37.7757 0.0000
# 6 0.0000 0.0000 0.0000 -2.4284 0.0000 19.4708
#
#
#
# Elastic Compliance Matrix: (Units=1/GPa)
#
#
# Indices 1 2 3 4 5 6 
#
# 1 0.020585 -0.006060 -0.006244 0.000000 0.002582 0.000000
# 2 -0.006060 0.016530 -0.001201 0.000000 -0.000564 0.000000
# 3 -0.006244 -0.001201 0.014174 0.000000 0.005659 0.000000
# 4 0.000000 0.000000 0.000000 0.059728 0.000000 0.007449
# 5 0.002582 -0.000564 0.005659 0.000000 0.030404 0.000000
# 6 0.000000 0.000000 0.000000 0.007449 0.000000 0.052288
#
#
# Mechanical properties :
#
#
# Convention : Reuss Voigt Hill
#
# Bulk Modulus (GPa) = 41.18893 45.86045 43.52469
# Shear Modulus (GPa) = 21.85192 25.05653 23.45423
#
# Velocity S-wave (km/s) = 3.24495 3.47476 3.36182
# Velocity P-wave (km/s) = 5.82128 6.18039 6.00352
#
# Compressibility (1/GPa) = 0.02427837
#
# Stress axis : x y z
#
# Youngs Moduli (GPa) = 48.57795 60.49659 70.55246
#
# Poissons Ratio (x) = 0.36664 0.44050
# Poissons Ratio (y) = 0.29440 0.08476
# Poissons Ratio (z) = 0.30330 0.07268
#
# Static dielectric constant tensor:
#      x y z
#    x 1.791830 0.000000 -0.066790 
#    y 0.000000 1.717200 0.000000 
#    z -0.066790 0.000000 1.858070 
# 
# From -- ./inp_files/37224.got.cif
#   From: 2010.05.17/outbox.cif.g08.bks.cpg/sg5_19_cif.got.tgz:37224.got - 2010.06.03 18:56:24.
