data_PCOD9122212
_publ_section_title
;
Structure prediction by ZEFSAII (Michael W. Deem and Ramdas Pophale) SiO2 
 PCOD9122212
Probable space group: C 2
;
_chemical_formula_sum "Si O2"
_cell_formula_units_Z 26
_cell_length_a 8.772049
_cell_length_b 20.296137
_cell_length_c 7.964491
_cell_angle_alpha 90.000000
_cell_angle_beta 129.575461
_cell_angle_gamma 90.000000
_cell_volume 1092.965303
_symmetry_space_group_name_H-M "C 2"
_symmetry_group_IT_number 5
_symmetry_cell_setting 'monoclinic'
loop_
_space_group_symop_operation_xyz
x,y,z
-x,y,-z
1/2+x,1/2+y,z
1/2-x,1/2+y,-z
loop_
_atom_site_type_symbol
_atom_site_label
_atom_site_fract_x
_atom_site_fract_y
_atom_site_fract_z
Si Si1 0.708865 0.788250 0.188325
Si Si2 0.155902 0.042323 0.971244
Si Si3 0.573401 0.408885 0.746344
Si Si4 0.000000 0.689833 0.500000
Si Si5 0.377129 0.627205 0.567942
Si Si6 0.571222 0.020027 0.242254
Si Si7 0.657927 0.878268 0.468200
O O1 0.761117 0.853248 0.117321
O O2 0.887213 0.738405 0.292686
O O3 0.686082 0.817686 0.360273
O O4 0.500000 0.757582 0.000000
O O5 0.053399 0.104921 0.815016
O O6 0.154620 0.979662 0.847036
O O7 0.376178 0.050189 0.198298
O O8 0.000000 0.021940 0.000000
O O9 0.500000 0.406787 0.500000
O O10 0.371512 0.392818 0.699932
O O11 0.809286 0.659043 0.463684
O O12 0.500000 0.660289 0.500000
O O13 0.267519 0.561557 0.418086
O O14 0.598641 0.945204 0.324351
O O15 0.500000 0.029082 0.000000
O O16 0.500000 0.865748 0.500000
#
# Coordination Sequence:
#
# PCOD9122212 Si02
#       7
#     4   4   4   2   4   4   4
#     4  11  24  47  71  95 133 184 234 288 350 416
#     4  12  23  38  67 107 144 175 222 284 357 430
#     4  10  19  39  65  96 139 179 214 275 356 420
#     4  12  28  50  74  94 136 192 254 292 340 400
#     4  12  27  48  71  99 142 190 238 293 348 414
#     4  12  23  40  68 104 144 181 220 281 363 432
#     4  11  21  37  71 108 143 176 218 283 362 425
#
# _framework density 23.788495999999999
#
# number of rings (size 3 to 8) (size 9 to 14) (size 15 to 20)
#    0.000    0.615    5.385    5.538    1.077    2.462 
#    0.000    0.000    0.000    0.000    0.000    0.000 
#    0.000    0.000    0.000    0.000    0.000    0.000 
#
# Total GULP energy -72611.495195 kJ/mol
# GULP energy per Si atom -5585.499630 kJ/mol
# Density = 2.373435 g / cm^3
# Si number density = 23.788496 Si / 1000 Ang^3
#
#
#
# Elastic Constant Matrix: (Units=GPa)
#
#
# Indices 1 2 3 4 5 6 
#
# 1 145.8071 29.8806 3.6916 0.0000 32.1032 0.0000
# 2 29.8806 55.6170 4.0818 0.0000 0.1756 0.0000
# 3 3.6916 4.0818 50.0682 0.0000 32.0043 0.0000
# 4 0.0000 0.0000 0.0000 13.3664 0.0000 20.2476
# 5 32.1032 0.1756 32.0043 0.0000 49.9537 0.0000
# 6 0.0000 0.0000 0.0000 20.2476 0.0000 38.8534
#
#
#
# Elastic Compliance Matrix: (Units=1/GPa)
#
#
# Indices 1 2 3 4 5 6 
#
# 1 0.010319 -0.006001 0.006696 0.000000 -0.010900 0.000000
# 2 -0.006001 0.021644 -0.006331 0.000000 0.007837 0.000000
# 3 0.006696 -0.006331 0.038498 0.000000 -0.028946 0.000000
# 4 0.000000 0.000000 0.000000 0.355276 0.000000 -0.185145
# 5 -0.010900 0.007837 -0.028946 0.000000 0.045541 0.000000
# 6 0.000000 0.000000 0.000000 -0.185145 0.000000 0.122222
#
#
# Mechanical properties :
#
#
# Convention : Reuss Voigt Hill
#
# Bulk Modulus (GPa) = 16.89538 36.31114 26.60326
# Shear Modulus (GPa) = 8.00640 34.69056 21.34848
#
# Velocity S-wave (km/s) = 1.83656 3.82290 2.99896
# Velocity P-wave (km/s) = 3.40808 5.89774 4.81656
#
# Compressibility (1/GPa) = 0.05918778
#
# Stress axis : x y z
#
# Youngs Moduli (GPa) = 96.91282 46.20228 25.97562
#
# Poissons Ratio (x) = 0.27725 -0.17393
# Poissons Ratio (y) = 0.58155 0.16446
# Poissons Ratio (z) = -0.64892 0.29253
#
# Static dielectric constant tensor:
#      x y z
#    x 2.079660 0.000000 -0.034020 
#    y 0.000000 1.942990 0.000000 
#    z -0.034020 0.000000 1.953150 
# 
# From -- ./inp_files/17053.got.cif
#   From: 2010.05.17/outbox.cif.g08.bks.cpg/sg5_9_cif.got.tgz:17053.got - 2010.06.03 18:56:24.
