data_PCOD9122483
_publ_section_title
;
Structure prediction by ZEFSAII (Michael W. Deem and Ramdas Pophale) SiO2 
 PCOD9122483
Probable space group: C 2
;
_chemical_formula_sum "Si O2"
_cell_formula_units_Z 28
_cell_length_a 10.942045
_cell_length_b 16.889090
_cell_length_c 6.495519
_cell_angle_alpha 90.000000
_cell_angle_beta 114.532989
_cell_angle_gamma 90.000000
_cell_volume 1092.012149
_symmetry_space_group_name_H-M "C 2"
_symmetry_group_IT_number 5
_symmetry_cell_setting 'monoclinic'
loop_
_space_group_symop_operation_xyz
x,y,z
-x,y,-z
1/2+x,1/2+y,z
1/2-x,1/2+y,-z
loop_
_atom_site_type_symbol
_atom_site_label
_atom_site_fract_x
_atom_site_fract_y
_atom_site_fract_z
Si Si1 0.331188 0.787230 0.430299
Si Si2 0.000000 0.002083 0.000000
Si Si3 0.798031 0.873766 0.036040
Si Si4 0.720251 0.644928 0.857517
Si Si5 0.149286 0.720771 0.670198
Si Si6 0.613761 0.926445 0.277990
Si Si7 0.878973 0.012115 0.517609
Si Si8 0.500000 0.069561 0.000000
O O1 0.250819 0.840606 0.214088
O O2 0.366237 0.715866 0.299935
O O3 0.233310 0.746557 0.529262
O O4 0.424734 0.846903 0.628332
O O5 0.893087 0.945568 0.037390
O O6 0.925880 0.048492 0.766527
O O7 0.868193 0.800736 0.204739
O O8 0.673010 0.900074 0.094977
O O9 0.655127 0.571228 0.691426
O O10 0.754733 0.664559 0.120565
O O11 0.874200 0.627086 0.899951
O O12 0.000000 0.690956 0.500000
O O13 0.749786 0.960475 0.471782
O O14 0.518856 0.003823 0.195764
O O15 0.000000 0.962124 0.500000
#
# Coordination Sequence:
#
# PCOD9122483 Si02
#       8
#     4   2   4   4   4   4   4   2
#     4  10  20  39  62  89 124 162 214 267 321 378
#     4  12  20  33  63  94 122 162 200 268 320 373
#     4  10  20  33  60  98 124 153 207 269 323 379
#     4  10  23  42  60  90 130 172 218 261 320 394
#     4  10  20  34  62  94 124 163 209 267 320 380
#     4  10  21  40  63  91 127 166 213 270 322 384
#     4  11  23  39  60  91 129 165 212 267 321 380
#     4  10  22  43  61  88 138 174 212 266 324 397
#
# _framework density 25.640739
#
# number of rings (size 3 to 8) (size 9 to 14) (size 15 to 20)
#    0.000    1.714    2.857    1.714    2.000    3.429 
#    0.000   10.000    0.000    0.000    0.000    0.000 
#    0.000    0.000    0.000    0.000    0.000    0.000 
#
# Total GULP energy -78015.927743 kJ/mol
# GULP energy per Si atom -5572.566267 kJ/mol
# Density = 2.558238 g / cm^3
# Si number density = 25.640739 Si / 1000 Ang^3
#
#
#
# Elastic Constant Matrix: (Units=GPa)
#
#
# Indices 1 2 3 4 5 6 
#
# 1 45.7271 19.6521 37.8839 0.0000 -2.3483 0.0000
# 2 19.6521 83.3430 33.0668 0.0000 -4.4606 0.0000
# 3 37.8839 33.0668 194.3314 0.0000 -1.3963 0.0000
# 4 0.0000 0.0000 0.0000 -49.5159 0.0000 15.8278
# 5 -2.3483 -4.4606 -1.3963 0.0000 34.6862 0.0000
# 6 0.0000 0.0000 0.0000 15.8278 0.0000 24.7053
#
#
#
# Elastic Compliance Matrix: (Units=1/GPa)
#
#
# Indices 1 2 3 4 5 6 
#
# 1 0.027744 -0.004655 -0.004609 0.000000 0.001094 0.000000
# 2 -0.004655 0.013734 -0.001419 0.000000 0.001394 0.000000
# 3 -0.004609 -0.001419 0.006284 0.000000 -0.000242 0.000000
# 4 0.000000 0.000000 0.000000 -0.016763 0.000000 0.010739
# 5 0.001094 0.001394 -0.000242 0.000000 0.029074 0.000000
# 6 0.000000 0.000000 0.000000 0.010739 0.000000 0.033597
#
#
# Mechanical properties :
#
#
# Convention : Reuss Voigt Hill
#
# Bulk Modulus (GPa) = 37.88463 56.06746 46.97605
# Shear Modulus (GPa) = 40.37667 17.49504 28.93585
#
# Velocity S-wave (km/s) = 3.97256 2.61495 3.36298
# Velocity P-wave (km/s) = 5.98740 5.57057 5.78274
#
# Compressibility (1/GPa) = 0.02639593
#
# Stress axis : x y z
#
# Youngs Moduli (GPa) = 36.04424 72.81198 159.13274
#
# Poissons Ratio (x) = 0.33893 0.73337
# Poissons Ratio (y) = 0.16778 0.22588
# Poissons Ratio (z) = 0.16611 0.10335
#
# Static dielectric constant tensor:
#      x y z
#    x 2.100680 0.000000 0.083660 
#    y 0.000000 2.034080 0.000000 
#    z 0.083660 0.000000 2.154270 
# 
# From -- ./inp_files/7363.got.cif
#   From: 2010.05.17/outbox.cif.g08.bks.cpg/sg5_4_cif.got.tgz:7363.got - 2010.06.03 18:56:24.
