data_PCOD9122407
_publ_section_title
;
Structure prediction by ZEFSAII (Michael W. Deem and Ramdas Pophale) SiO2 
 PCOD9122407
Probable space group: C 2
;
_chemical_formula_sum "Si O2"
_cell_formula_units_Z 28
_cell_length_a 21.998583
_cell_length_b 6.218322
_cell_length_c 17.714571
_cell_angle_alpha 90.000000
_cell_angle_beta 140.416665
_cell_angle_gamma 90.000000
_cell_volume 1544.095723
_symmetry_space_group_name_H-M "C 2"
_symmetry_group_IT_number 5
_symmetry_cell_setting 'monoclinic'
loop_
_space_group_symop_operation_xyz
x,y,z
-x,y,-z
1/2+x,1/2+y,z
1/2-x,1/2+y,-z
loop_
_atom_site_type_symbol
_atom_site_label
_atom_site_fract_x
_atom_site_fract_y
_atom_site_fract_z
Si Si1 0.728810 0.275100 0.571316
Si Si2 0.903627 0.454056 0.652098
Si Si3 0.136332 0.865695 0.112508
Si Si4 0.500000 0.321924 0.500000
Si Si5 0.000000 0.246434 0.000000
Si Si6 0.521027 0.127789 0.128142
Si Si7 0.413352 0.647802 0.531728
Si Si8 0.672712 0.010295 0.657334
O O1 0.830216 0.311497 0.630728
O O2 0.677680 0.506337 0.529696
O O3 0.732154 0.157440 0.655055
O O4 0.660786 0.121576 0.456698
O O5 0.965068 0.592211 0.770143
O O6 0.951660 0.289809 0.638450
O O7 0.101895 0.768368 0.161264
O O8 0.086612 0.095947 0.059467
O O9 0.248966 0.897348 0.215016
O O10 0.080222 0.723126 0.996990
O O11 0.478241 0.474306 0.550724
O O12 0.589759 0.169427 0.605690
O O13 0.028499 0.396828 0.096129
O O14 0.379221 0.821156 0.437905
#
# Coordination Sequence:
#
# PCOD9122407 Si02
#       8
#     4   4   4   2   2   4   4   4
#     4  10  20  29  49  81 112 158 182 215 290 341
#     4  11  19  31  49  81 121 156 182 220 284 352
#     4   9  18  31  49  75 112 160 187 226 269 333
#     4  10  22  38  54  80 110 148 200 240 282 332
#     4   8  16  32  46  74 114 156 184 216 276 326
#     4   9  19  29  47  77 119 153 190 215 275 350
#     4  10  21  35  53  78 117 146 183 237 282 336
#     4  10  20  35  55  76 114 148 195 234 279 336
#
# _framework density 18.133592
#
# number of rings (size 3 to 8) (size 9 to 14) (size 15 to 20)
#    0.000    2.571    1.429    2.143    2.000    5.714 
#    0.000    0.000    0.000    0.000    0.000    0.000 
#  192.857    0.000    0.857    0.000    0.000    0.000 
#
# Total GULP energy -78004.180687 kJ/mol
# GULP energy per Si atom -5571.727192 kJ/mol
# Density = 1.809232 g / cm^3
# Si number density = 18.133592 Si / 1000 Ang^3
#
#
#
# Elastic Constant Matrix: (Units=GPa)
#
#
# Indices 1 2 3 4 5 6 
#
# 1 55.8073 24.8428 39.0183 0.0000 9.7230 0.0000
# 2 24.8428 92.0581 28.8713 -0.0001 6.9648 -0.0001
# 3 39.0183 28.8713 93.5777 0.0000 -4.4241 0.0000
# 4 0.0000 -0.0001 0.0000 14.7177 0.0000 2.5604
# 5 9.7230 6.9648 -4.4241 0.0000 17.5930 0.0000
# 6 0.0000 -0.0001 0.0000 2.5604 0.0000 25.2225
#
#
#
# Elastic Compliance Matrix: (Units=1/GPa)
#
#
# Indices 1 2 3 4 5 6 
#
# 1 0.032077 -0.002943 -0.013410 0.000000 -0.019935 0.000000
# 2 -0.002943 0.012903 -0.002954 0.000000 -0.004224 0.000000
# 3 -0.013410 -0.002954 0.017806 0.000000 0.013058 0.000000
# 4 0.000000 0.000000 0.000000 0.069167 0.000000 -0.007021
# 5 -0.019935 -0.004224 0.013058 0.000000 0.072814 0.000000
# 6 0.000000 0.000000 0.000000 -0.007021 0.000000 0.040360
#
#
# Mechanical properties :
#
#
# Convention : Reuss Voigt Hill
#
# Bulk Modulus (GPa) = 41.36579 47.43422 44.40001
# Shear Modulus (GPa) = 17.13519 21.42069 19.27794
#
# Velocity S-wave (km/s) = 3.07733 3.44069 3.26407
# Velocity P-wave (km/s) = 5.95716 6.48070 6.22444
#
# Compressibility (1/GPa) = 0.02417457
#
# Stress axis : x y z
#
# Youngs Moduli (GPa) = 31.17457 77.50309 56.16014
#
# Poissons Ratio (x) = 0.22807 0.75309
# Poissons Ratio (y) = 0.09174 0.16587
# Poissons Ratio (z) = 0.41804 0.22891
#
# Static dielectric constant tensor:
#      x y z
#    x 1.646140 0.000000 -0.011210 
#    y 0.000000 1.643760 0.000000 
#    z -0.011210 0.000000 1.650760 
# 
# From -- ./inp_files/56517.got.cif
#   From: 2010.05.17/outbox.cif.g08.bks.cpg/sg5_29_cif.got.tgz:56517.got - 2010.06.03 18:56:24.
