data_PCOD9122603
_publ_section_title
;
Structure prediction by ZEFSAII (Michael W. Deem and Ramdas Pophale) SiO2 
 PCOD9122603
Probable space group: C 2
;
_chemical_formula_sum "Si O2"
_cell_formula_units_Z 24
_cell_length_a 5.659791
_cell_length_b 24.610027
_cell_length_c 7.438921
_cell_angle_alpha 90.000000
_cell_angle_beta 89.188590
_cell_angle_gamma 90.000000
_cell_volume 1036.045621
_symmetry_space_group_name_H-M "C 2"
_symmetry_group_IT_number 5
_symmetry_cell_setting 'monoclinic'
loop_
_space_group_symop_operation_xyz
x,y,z
-x,y,-z
1/2+x,1/2+y,z
1/2-x,1/2+y,-z
loop_
_atom_site_type_symbol
_atom_site_label
_atom_site_fract_x
_atom_site_fract_y
_atom_site_fract_z
Si Si1 0.879807 0.102690 0.303934
Si Si2 0.000000 0.548909 0.500000
Si Si3 0.977820 0.222402 0.204208
Si Si4 0.624379 0.387829 0.802086
Si Si5 0.022641 0.767101 0.779235
Si Si6 0.864048 0.994356 0.746538
Si Si7 0.500000 0.940024 0.000000
O O1 0.608721 0.087522 0.346200
O O2 0.925466 0.158274 0.203389
O O3 0.000000 0.109478 0.500000
O O4 0.988766 0.048547 0.218081
O O5 0.800197 0.511186 0.418060
O O6 0.736533 0.248530 0.285771
O O7 0.240641 0.233816 0.278499
O O8 0.000000 0.243687 0.000000
O O9 0.576256 0.329150 0.723493
O O10 0.516950 0.440692 0.709934
O O11 0.500000 0.385415 0.000000
O O12 0.895153 0.401839 0.845148
O O13 0.000000 0.763364 0.000000
O O14 0.699266 0.977910 0.914470
#
# Coordination Sequence:
#
# PCOD9122603 Si02
#       7
#     4   2   4   4   4   4   2
#     4  10  23  40  60  83 116 161 204 249 306 364
#     4  10  22  40  62  80 122 162 202 252 308 374
#     4  10  22  38  62  91 120 157 202 254 299 359
#     4   9  19  33  58  90 124 157 194 244 304 367
#     4   9  20  36  59  91 125 157 196 246 306 361
#     4  10  21  37  59  93 115 163 198 250 306 368
#     4  10  20  34  62  92 126 152 194 254 304 368
#
# _framework density 23.165005000000001
#
# number of rings (size 3 to 8) (size 9 to 14) (size 15 to 20)
#    0.000    2.333    0.000    1.000   12.833    3.333 
#    1.500    0.000    1.833    2.000    0.000    0.000 
#    0.000    0.000    0.000    0.000    0.000    0.000 
#
# Total GULP energy -66994.816307 kJ/mol
# GULP energy per Si atom -5582.901359 kJ/mol
# Density = 2.311228 g / cm^3
# Si number density = 23.165005 Si / 1000 Ang^3
#
#
#
# Elastic Constant Matrix: (Units=GPa)
#
#
# Indices 1 2 3 4 5 6 
#
# 1 165.0826 90.6248 11.1000 0.0000 -12.3326 0.0000
# 2 90.6248 174.0667 1.0240 0.0000 -16.7680 0.0000
# 3 11.1000 1.0240 45.0362 0.0000 -0.0861 0.0000
# 4 0.0000 0.0000 0.0000 -73.6282 0.0000 -9.4437
# 5 -12.3326 -16.7680 -0.0861 0.0000 18.4440 0.0000
# 6 0.0000 0.0000 0.0000 -9.4437 0.0000 23.3549
#
#
#
# Elastic Compliance Matrix: (Units=1/GPa)
#
#
# Indices 1 2 3 4 5 6 
#
# 1 0.008722 -0.004349 -0.002047 0.000000 0.001869 0.000000
# 2 -0.004349 0.008466 0.000889 0.000000 0.004793 0.000000
# 3 -0.002047 0.000889 0.022688 0.000000 -0.000455 0.000000
# 4 0.000000 0.000000 0.000000 -0.012912 0.000000 -0.005221
# 5 0.001869 0.004793 -0.000455 0.000000 0.059823 0.000000
# 6 0.000000 0.000000 0.000000 -0.005221 0.000000 0.040706
#
#
# Mechanical properties :
#
#
# Convention : Reuss Voigt Hill
#
# Bulk Modulus (GPa) = 34.64975 65.52033 50.08504
# Shear Modulus (GPa) = 33.75447 12.39659 23.07553
#
# Velocity S-wave (km/s) = 3.82138 2.31583 3.15959
# Velocity P-wave (km/s) = 5.87034 5.95788 5.91427
#
# Compressibility (1/GPa) = 0.02886024
#
# Stress axis : x y z
#
# Youngs Moduli (GPa) = 114.64815 118.12461 44.07639
#
# Poissons Ratio (x) = 0.51373 0.09024
# Poissons Ratio (y) = 0.49861 -0.03917
# Poissons Ratio (z) = 0.23472 -0.10496
#
# Static dielectric constant tensor:
#      x y z
#    x 1.951880 0.000000 0.012350 
#    y 0.000000 1.833800 0.000000 
#    z 0.012350 0.000000 1.933370 
# 
# From -- ./inp_files/12856.got.cif
#   From: 2010.05.17/outbox.cif.g08.bks.cpg/sg5_7_cif.got.tgz:12856.got - 2010.06.03 18:56:24.
