data_PCOD9122788
_publ_section_title
;
Structure prediction by ZEFSAII (Michael W. Deem and Ramdas Pophale) SiO2 
 PCOD9122788
Probable space group: C 2
;
_chemical_formula_sum "Si O2"
_cell_formula_units_Z 24
_cell_length_a 13.559511
_cell_length_b 9.582991
_cell_length_c 9.825025
_cell_angle_alpha 90.000000
_cell_angle_beta 96.491659
_cell_angle_gamma 90.000000
_cell_volume 1268.484754
_symmetry_space_group_name_H-M "C 2"
_symmetry_group_IT_number 5
_symmetry_cell_setting 'monoclinic'
loop_
_space_group_symop_operation_xyz
x,y,z
-x,y,-z
1/2+x,1/2+y,z
1/2-x,1/2+y,-z
loop_
_atom_site_type_symbol
_atom_site_label
_atom_site_fract_x
_atom_site_fract_y
_atom_site_fract_z
Si Si1 0.839306 0.449860 0.231407
Si Si2 0.351416 0.627603 0.730692
Si Si3 0.885101 0.202323 0.440988
Si Si4 0.924709 0.015105 0.205477
Si Si5 0.688691 0.725410 0.000538
Si Si6 0.415334 0.202270 0.100973
O O1 0.731898 0.515388 0.243516
O O2 0.863908 0.343910 0.356409
O O3 0.836101 0.357137 0.095089
O O4 0.913769 0.576858 0.210428
O O5 0.330839 0.681812 0.575811
O O6 0.461134 0.563353 0.760739
O O7 0.341298 0.743238 0.846987
O O8 0.870990 0.074271 0.332886
O O9 0.000000 0.204254 0.500000
O O10 0.872899 0.096302 0.072176
O O11 0.921441 0.851449 0.176807
O O12 0.806252 0.696933 0.014661
O O13 0.500000 0.190805 0.000000
#
# Coordination Sequence:
#
# PCOD9122788 Si02
#       6
#     4   4   4   4   4   4
#     4  10  22  37  56  87 113 140 188 239 279 321
#     4  10  20  37  62  82 109 153 190 222 275 341
#     4   9  21  40  58  78 113 155 189 221 276 343
#     4  10  20  38  60  83 112 151 189 223 272 342
#     4  10  20  36  58  83 112 147 187 226 276 340
#     4  11  21  34  55  87 116 142 184 241 283 317
#
# _framework density 18.920210000000001
#
# number of rings (size 3 to 8) (size 9 to 14) (size 15 to 20)
#    0.000    2.000    0.000    4.500    0.000    6.667 
#    0.000    7.500    0.000    2.000    0.000    0.000 
#    0.000    0.000    0.000    0.000    0.000    0.000 
#
# Total GULP energy -66951.130545 kJ/mol
# GULP energy per Si atom -5579.260879 kJ/mol
# Density = 1.887715 g / cm^3
# Si number density = 18.920210 Si / 1000 Ang^3
#
#
#
# Elastic Constant Matrix: (Units=GPa)
#
#
# Indices 1 2 3 4 5 6 
#
# 1 60.2186 40.5884 36.7045 0.0000 -7.3228 0.0000
# 2 40.5884 129.6292 74.8622 0.0000 -17.9985 0.0000
# 3 36.7045 74.8622 157.9453 0.0000 -23.3634 0.0000
# 4 0.0000 0.0000 0.0000 12.4987 0.0000 0.4445
# 5 -7.3228 -17.9985 -23.3634 0.0000 24.6299 0.0000
# 6 0.0000 0.0000 0.0000 0.4445 0.0000 15.2099
#
#
#
# Elastic Compliance Matrix: (Units=1/GPa)
#
#
# Indices 1 2 3 4 5 6 
#
# 1 0.021751 -0.005344 -0.002493 0.000000 0.000197 0.000000
# 2 -0.005344 0.012196 -0.004020 0.000000 0.003511 0.000000
# 3 -0.002493 -0.004020 0.009622 0.000000 0.005448 0.000000
# 4 0.000000 0.000000 0.000000 0.080092 0.000000 -0.002341
# 5 0.000197 0.003511 0.005448 0.000000 0.048394 0.000000
# 6 0.000000 0.000000 0.000000 -0.002341 0.000000 0.065815
#
#
# Mechanical properties :
#
#
# Convention : Reuss Voigt Hill
#
# Bulk Modulus (GPa) = 50.35924 72.45593 61.40759
# Shear Modulus (GPa) = 18.64275 23.51023 21.07649
#
# Velocity S-wave (km/s) = 3.14241 3.52888 3.34124
# Velocity P-wave (km/s) = 6.31195 7.41503 6.88561
#
# Compressibility (1/GPa) = 0.01985733
#
# Stress axis : x y z
#
# Youngs Moduli (GPa) = 45.97438 81.99220 103.93126
#
# Poissons Ratio (x) = 0.43813 0.25908
# Poissons Ratio (y) = 0.24567 0.41777
# Poissons Ratio (z) = 0.11461 0.32958
#
# Static dielectric constant tensor:
#      x y z
#    x 1.648050 0.000000 -0.016930 
#    y 0.000000 1.665240 0.000000 
#    z -0.016930 0.000000 1.695730 
# 
# From -- ./inp_files/22781.got.cif
#   From: 2010.05.17/outbox.cif.g08.bks.cpg/sg5_12_cif.got.tgz:22781.got - 2010.06.03 18:56:24.
