data_PCOD9122200
_publ_section_title
;
Structure prediction by ZEFSAII (Michael W. Deem and Ramdas Pophale) SiO2 
 PCOD9122200
Probable space group: C 2
;
_chemical_formula_sum "Si O2"
_cell_formula_units_Z 30
_cell_length_a 13.906815
_cell_length_b 14.068185
_cell_length_c 15.885102
_cell_angle_alpha 90.000000
_cell_angle_beta 152.302975
_cell_angle_gamma 90.000000
_cell_volume 1444.502193
_symmetry_space_group_name_H-M "C 2"
_symmetry_group_IT_number 5
_symmetry_cell_setting 'monoclinic'
loop_
_space_group_symop_operation_xyz
x,y,z
-x,y,-z
1/2+x,1/2+y,z
1/2-x,1/2+y,-z
loop_
_atom_site_type_symbol
_atom_site_label
_atom_site_fract_x
_atom_site_fract_y
_atom_site_fract_z
Si Si1 0.189228 0.061370 0.836061
Si Si2 0.889171 0.387793 0.703716
Si Si3 0.616010 0.419277 0.913452
Si Si4 0.398597 0.101530 0.734857
Si Si5 0.581411 0.276860 0.359629
Si Si6 0.500000 0.372118 0.000000
Si Si7 0.732264 0.866781 0.203464
Si Si8 0.844972 0.222097 0.317905
O O1 0.100701 0.151728 0.717821
O O2 0.239484 0.975354 0.809298
O O3 0.395194 0.091389 0.047447
O O4 0.065127 0.007694 0.813382
O O5 0.832962 0.498619 0.650686
O O6 0.796099 0.319587 0.560693
O O7 0.773792 0.361668 0.701081
O O8 0.139847 0.390082 0.905487
O O9 0.484055 0.332323 0.775630
O O10 0.558803 0.433970 0.965087
O O11 0.421281 0.168998 0.671957
O O12 0.245212 0.148869 0.682496
O O13 0.405262 0.305247 0.290688
O O14 0.312776 0.299555 0.838180
O O15 0.500000 0.836783 0.000000
O O16 0.000000 0.276625 0.500000
#
# Coordination Sequence:
#
# PCOD9122200 Si02
#       8
#     4   4   4   4   4   2   4   4
#     4  10  19  39  64  91 125 161 208 268 319 374
#     4  11  23  40  67  93 131 174 214 268 315 389
#     4  10  23  38  62  86 129 167 212 259 323 381
#     4  11  21  40  59  97 131 167 210 272 320 374
#     4  11  23  38  62  99 135 166 212 268 325 380
#     4  12  24  44  58  90 134 164 210 272 318 388
#     4  11  18  37  66  97 126 164 213 263 323 370
#     4  12  23  33  63  96 124 156 213 266 323 376
#
# _framework density 20.7684
#
# number of rings (size 3 to 8) (size 9 to 14) (size 15 to 20)
#    0.000    1.067    8.000    0.400    5.600    0.000 
#    0.000    0.000    5.867    3.200    0.000    0.000 
#    0.000    0.000    0.000    0.000    0.000    0.000 
#
# Total GULP energy -83717.630526 kJ/mol
# GULP energy per Si atom -5581.175368 kJ/mol
# Density = 2.072113 g / cm^3
# Si number density = 20.768400 Si / 1000 Ang^3
#
#
#
# Elastic Constant Matrix: (Units=GPa)
#
#
# Indices 1 2 3 4 5 6 
#
# 1 99.3244 21.2058 8.7506 0.0073 -23.3543 0.0067
# 2 21.2058 31.4894 4.0224 0.0025 0.0707 0.0048
# 3 8.7506 4.0224 66.0862 0.0049 -9.3997 0.0036
# 4 0.0073 0.0025 0.0049 1.0708 0.0049 -6.5192
# 5 -23.3543 0.0707 -9.3997 0.0049 18.9451 0.0057
# 6 0.0067 0.0048 0.0036 -6.5192 0.0057 19.6578
#
#
#
# Elastic Compliance Matrix: (Units=1/GPa)
#
#
# Indices 1 2 3 4 5 6 
#
# 1 0.017977 -0.012369 0.001647 0.000262 0.023025 0.000077
# 2 -0.012369 0.040539 -0.003249 -0.000079 -0.017011 -0.000026
# 3 0.001647 -0.003249 0.016571 0.000159 0.010265 0.000047
# 4 0.000262 -0.000079 0.000159 -0.916413 0.000732 -0.303915
# 5 0.023025 -0.017011 0.010265 0.000732 0.086324 0.000212
# 6 0.000077 -0.000026 0.000047 -0.303915 0.000212 -0.049919
#
#
# Mechanical properties :
#
#
# Convention : Reuss Voigt Hill
#
# Bulk Modulus (GPa) = 21.21021 29.42861 25.31941
# Shear Modulus (GPa) = -6.56803 18.79615 6.11406
#
# Velocity S-wave (km/s) = -1.78027 3.01165 1.71765
# Velocity P-wave (km/s) = 2.45134 5.12777 4.01890
#
# Compressibility (1/GPa) = 0.04714710
#
# Stress axis : x y z
#
# Youngs Moduli (GPa) = 55.62533 24.66740 60.34500
#
# Poissons Ratio (x) = 0.30510 -0.09941
# Poissons Ratio (y) = 0.68801 0.19607
# Poissons Ratio (z) = -0.09163 0.08015
#
# Static dielectric constant tensor:
#      x y z
#    x 1.780820 -0.000010 0.044820 
#    y -0.000010 1.772360 -0.000010 
#    z 0.044820 -0.000010 1.876560 
# 
# From -- ./inp_files/54797.got.cif
#   From: 2010.05.17/outbox.cif.g08.bks.cpg/sg5_28_cif.got.tgz:54797.got - 2010.06.03 18:56:24.
