data_PCOD9122607
_publ_section_title
;
Structure prediction by ZEFSAII (Michael W. Deem and Ramdas Pophale) SiO2 
 PCOD9122607
Probable space group: C 2
;
_chemical_formula_sum "Si O2"
_cell_formula_units_Z 24
_cell_length_a 12.336319
_cell_length_b 9.811428
_cell_length_c 6.922286
_cell_angle_alpha 90.000000
_cell_angle_beta 97.237317
_cell_angle_gamma 90.000000
_cell_volume 831.176793
_symmetry_space_group_name_H-M "C 2"
_symmetry_group_IT_number 5
_symmetry_cell_setting 'monoclinic'
loop_
_space_group_symop_operation_xyz
x,y,z
-x,y,-z
1/2+x,1/2+y,z
1/2-x,1/2+y,-z
loop_
_atom_site_type_symbol
_atom_site_label
_atom_site_fract_x
_atom_site_fract_y
_atom_site_fract_z
Si Si1 0.884259 0.506410 0.236377
Si Si2 0.955423 0.838562 0.779376
Si Si3 0.505367 0.636919 0.731687
Si Si4 0.393372 0.925351 0.790282
Si Si5 0.267659 0.740012 0.189318
Si Si6 0.309610 0.285936 0.267996
O O1 0.840703 0.361785 0.289667
O O2 0.813009 0.625376 0.310064
O O3 0.014275 0.512600 0.295522
O O4 0.877372 0.495940 0.997296
O O5 0.845316 0.753064 0.716675
O O6 0.065338 0.826425 0.678885
O O7 0.939821 0.002156 0.782525
O O8 0.000000 0.793836 0.000000
O O9 0.500000 0.646047 0.500000
O O10 0.448165 0.772781 0.806642
O O11 0.636201 0.627831 0.808799
O O12 0.276673 0.893703 0.672300
O O13 0.227211 0.780963 0.966684
#
# Coordination Sequence:
#
# PCOD9122607 Si02
#       6
#     4   4   4   4   4   4
#     4   9  18  32  57  88 121 149 199 254 309 361
#     4  10  23  37  64  98 125 156 206 266 316 369
#     4  11  24  43  63  86 127 175 211 248 310 377
#     4   9  20  34  57  87 120 161 200 252 302 365
#     4   9  21  36  59  91 122 156 205 256 307 370
#     4  10  20  34  62  99 124 152 196 267 326 359
#
# _framework density 28.874727
#
# number of rings (size 3 to 8) (size 9 to 14) (size 15 to 20)
#    0.000    2.333    0.000    2.000   21.000    0.000 
#    3.000    0.000    0.000    1.000    0.000    0.000 
#    0.000    0.000    0.000    0.000    0.000    0.000 
#
# Total GULP energy -67088.327734 kJ/mol
# GULP energy per Si atom -5590.693978 kJ/mol
# Density = 2.880901 g / cm^3
# Si number density = 28.874727 Si / 1000 Ang^3
#
#
#
# Elastic Constant Matrix: (Units=GPa)
#
#
# Indices 1 2 3 4 5 6 
#
# 1 229.3824 32.9884 20.4581 0.0000 18.0248 0.0000
# 2 32.9884 106.0202 -4.4926 0.0000 2.2072 0.0000
# 3 20.4581 -4.4926 137.1981 0.0000 -2.3869 0.0000
# 4 0.0000 0.0000 0.0000 16.9454 0.0000 2.0483
# 5 18.0248 2.2072 -2.3869 0.0000 23.8059 0.0000
# 6 0.0000 0.0000 0.0000 2.0483 0.0000 35.8743
#
#
#
# Elastic Compliance Matrix: (Units=1/GPa)
#
#
# Indices 1 2 3 4 5 6 
#
# 1 0.004940 -0.001496 -0.000850 0.000000 -0.003687 0.000000
# 2 -0.001496 0.009916 0.000553 0.000000 0.000269 0.000000
# 3 -0.000850 0.000553 0.007457 0.000000 0.001340 0.000000
# 4 0.000000 0.000000 0.000000 0.059423 0.000000 -0.003393
# 5 -0.003687 0.000269 0.001340 0.000000 0.044907 0.000000
# 6 0.000000 0.000000 0.000000 -0.003393 0.000000 0.028069
#
#
# Mechanical properties :
#
#
# Convention : Reuss Voigt Hill
#
# Bulk Modulus (GPa) = 53.40380 63.38983 58.39681
# Shear Modulus (GPa) = 30.38751 43.56824 36.97787
#
# Velocity S-wave (km/s) = 3.24758 3.88863 3.58247
# Velocity P-wave (km/s) = 5.70942 6.49330 6.11394
#
# Compressibility (1/GPa) = 0.01872526
#
# Stress axis : x y z
#
# Youngs Moduli (GPa) = 202.41873 100.85130 134.10481
#
# Poissons Ratio (x) = 0.15092 0.11396
# Poissons Ratio (y) = 0.30290 -0.07409
# Poissons Ratio (z) = 0.17202 -0.05572
#
# Static dielectric constant tensor:
#      x y z
#    x 2.291690 0.000000 -0.058340 
#    y 0.000000 2.267650 0.000000 
#    z -0.058340 0.000000 2.354330 
# 
# From -- ./inp_files/19347.got.cif
#   From: 2010.05.17/outbox.cif.g08.bks.cpg/sg5_10_cif.got.tgz:19347.got - 2010.06.03 18:56:24.
