data_PCOD9122860
_publ_section_title
;
Structure prediction by ZEFSAII (Michael W. Deem and Ramdas Pophale) SiO2 
 PCOD9122860
Probable space group: C 2
;
_chemical_formula_sum "Si O2"
_cell_formula_units_Z 30
_cell_length_a 18.655664
_cell_length_b 8.108039
_cell_length_c 13.797869
_cell_angle_alpha 90.000000
_cell_angle_beta 43.040848
_cell_angle_gamma 90.000000
_cell_volume 1424.471223
_symmetry_space_group_name_H-M "C 2"
_symmetry_group_IT_number 5
_symmetry_cell_setting 'monoclinic'
loop_
_space_group_symop_operation_xyz
x,y,z
-x,y,-z
1/2+x,1/2+y,z
1/2-x,1/2+y,-z
loop_
_atom_site_type_symbol
_atom_site_label
_atom_site_fract_x
_atom_site_fract_y
_atom_site_fract_z
Si Si1 0.458089 0.599540 0.764074
Si Si2 0.167982 0.857483 0.789669
Si Si3 0.841424 0.138741 0.538074
Si Si4 0.000000 0.359851 0.500000
Si Si5 0.125090 0.457586 0.088884
Si Si6 0.947814 0.792262 0.908887
Si Si7 0.181413 0.568743 0.235133
Si Si8 0.310388 0.445595 0.756493
O O1 0.585533 0.583494 0.623554
O O2 0.427369 0.779339 0.837305
O O3 0.422782 0.442577 0.862516
O O4 0.390112 0.568545 0.733244
O O5 0.240387 0.757655 0.642058
O O6 0.054619 0.857989 0.852612
O O7 0.230758 0.015328 0.771748
O O8 0.140811 0.771352 0.919992
O O9 0.927517 0.252409 0.504299
O O10 0.810180 0.995790 0.644172
O O11 0.922843 0.469458 0.637988
O O12 0.198147 0.516385 0.106871
O O13 0.046910 0.612781 0.147009
O O14 0.199678 0.441995 0.921777
O O15 0.153477 0.758698 0.270157
#
# Coordination Sequence:
#
# PCOD9122860 Si02
#       8
#     4   4   4   2   4   4   4   4
#     4  12  24  41  65 102 135 166 222 283 333 395
#     4  10  23  48  65  91 136 183 216 275 338 411
#     4  11  21  42  62  93 136 171 215 278 337 387
#     4  10  20  36  60  92 132 174 208 272 338 394
#     4  12  23  41  68 102 129 170 224 283 327 391
#     4  11  24  45  70  93 132 181 227 266 337 406
#     4  11  23  37  66  98 130 171 225 277 333 394
#     4  12  22  37  67 102 133 170 222 281 337 399
#
# _framework density 21.060445999999999
#
# number of rings (size 3 to 8) (size 9 to 14) (size 15 to 20)
#    0.000    0.800    5.333    3.200    1.867    0.000 
#    4.800    1.333    0.000    0.000    0.000    0.000 
#    0.000    0.000    0.000    0.000    0.000    0.000 
#
# Total GULP energy -83553.243858 kJ/mol
# GULP energy per Si atom -5570.216257 kJ/mol
# Density = 2.101251 g / cm^3
# Si number density = 21.060446 Si / 1000 Ang^3
#
#
#
# Elastic Constant Matrix: (Units=GPa)
#
#
# Indices 1 2 3 4 5 6 
#
# 1 37.2564 6.3111 -1.6159 0.0000 -5.4869 0.0000
# 2 6.3111 123.9561 25.3494 -0.0001 10.9259 0.0000
# 3 -1.6159 25.3494 96.2484 -0.0001 -10.0160 0.0001
# 4 0.0000 -0.0001 -0.0001 -6.7385 0.0000 24.6029
# 5 -5.4869 10.9259 -10.0160 0.0000 23.1622 0.0000
# 6 0.0000 0.0000 0.0001 24.6029 0.0000 -1.3416
#
#
#
# Elastic Compliance Matrix: (Units=1/GPa)
#
#
# Indices 1 2 3 4 5 6 
#
# 1 0.028713 -0.002689 0.002126 0.000000 0.008989 0.000000
# 2 -0.002689 0.009429 -0.003202 0.000000 -0.006469 0.000000
# 3 0.002126 -0.003202 0.012019 0.000000 0.007211 0.000000
# 4 0.000000 0.000000 0.000000 0.002250 0.000000 0.041262
# 5 0.008989 -0.006469 0.007211 0.000000 0.051473 0.000000
# 6 0.000000 0.000000 0.000000 0.041262 0.000000 0.011301
#
#
# Mechanical properties :
#
#
# Convention : Reuss Voigt Hill
#
# Bulk Modulus (GPa) = 23.45711 35.28333 29.37022
# Shear Modulus (GPa) = 36.51608 18.17752 27.34680
#
# Velocity S-wave (km/s) = 4.16849 2.94106 3.60737
# Velocity P-wave (km/s) = 5.85923 5.32192 5.59703
#
# Compressibility (1/GPa) = 0.04263100
#
# Stress axis : x y z
#
# Youngs Moduli (GPa) = 34.82794 106.05246 83.20026
#
# Poissons Ratio (x) = 0.28517 -0.17686
# Poissons Ratio (y) = 0.09365 0.26639
# Poissons Ratio (z) = -0.07403 0.33956
#
# Static dielectric constant tensor:
#      x y z
#    x 1.788870 0.000000 0.006350 
#    y 0.000000 1.770710 0.000000 
#    z 0.006350 0.000000 1.999350 
# 
# From -- ./inp_files/56721.got.cif
#   From: 2010.05.17/outbox.cif.g08.bks.cpg/sg5_29_cif.got.tgz:56721.got - 2010.06.03 18:56:24.
