data_PCOD9122285
_publ_section_title
;
Structure prediction by ZEFSAII (Michael W. Deem and Ramdas Pophale) SiO2 
 PCOD9122285
Probable space group: C 2
;
_chemical_formula_sum "Si O2"
_cell_formula_units_Z 28
_cell_length_a 10.288199
_cell_length_b 15.667321
_cell_length_c 12.142702
_cell_angle_alpha 90.000000
_cell_angle_beta 136.832808
_cell_angle_gamma 90.000000
_cell_volume 1339.022281
_symmetry_space_group_name_H-M "C 2"
_symmetry_group_IT_number 5
_symmetry_cell_setting 'monoclinic'
loop_
_space_group_symop_operation_xyz
x,y,z
-x,y,-z
1/2+x,1/2+y,z
1/2-x,1/2+y,-z
loop_
_atom_site_type_symbol
_atom_site_label
_atom_site_fract_x
_atom_site_fract_y
_atom_site_fract_z
Si Si1 0.050604 0.383680 0.271446
Si Si2 0.691799 0.322655 0.171074
Si Si3 0.341180 0.174644 0.683068
Si Si4 0.569943 0.308600 0.417787
Si Si5 0.768473 0.928425 0.193674
Si Si6 0.149128 0.543005 0.913830
Si Si7 0.500000 0.490553 0.000000
Si Si8 0.000000 0.050092 0.500000
O O1 0.229285 0.357236 0.455092
O O2 0.122246 0.382648 0.188297
O O3 0.868295 0.328796 0.195630
O O4 0.983151 0.480967 0.242052
O O5 0.730980 0.257825 0.293893
O O6 0.500000 0.285975 0.000000
O O7 0.624890 0.421754 0.149264
O O8 0.405833 0.213087 0.607573
O O9 0.521529 0.126505 0.849225
O O10 0.168119 0.110169 0.562220
O O11 0.500000 0.311077 0.500000
O O12 0.413120 0.354945 0.244598
O O13 0.901136 0.989856 0.349430
O O14 0.686858 0.988882 0.048497
O O15 0.352887 0.546007 0.979901
#
# Coordination Sequence:
#
# PCOD9122285 Si02
#       8
#     4   4   4   4   4   4   2   2
#     4  10  19  40  66  91 122 171 220 264 320 399
#     4   9  21  37  62  93 127 162 215 274 323 387
#     4  12  24  40  63  99 133 170 211 286 339 377
#     4  10  22  43  64  91 136 170 220 267 332 401
#     4  11  21  41  68  97 123 178 222 270 315 418
#     4  11  22  39  69  95 129 169 227 272 333 381
#     4   8  20  42  60  92 122 168 220 268 312 406
#     4  12  24  38  62  98 128 166 228 258 342 396
#
# _framework density 20.910779999999999
#
# number of rings (size 3 to 8) (size 9 to 14) (size 15 to 20)
#    0.429    1.143    3.571    2.143    2.000    0.000 
#    2.571    1.429    3.143    0.000    0.000    0.000 
#    0.000    0.000    0.000    0.000    0.000    0.000 
#
# Total GULP energy -77981.251428 kJ/mol
# GULP energy per Si atom -5570.089388 kJ/mol
# Density = 2.086319 g / cm^3
# Si number density = 20.910780 Si / 1000 Ang^3
#
#
#
# Elastic Constant Matrix: (Units=GPa)
#
#
# Indices 1 2 3 4 5 6 
#
# 1 130.9783 43.3241 46.7587 0.0000 33.9106 0.0000
# 2 43.3241 80.7298 31.8170 0.0000 8.5645 0.0000
# 3 46.7587 31.8170 82.2756 0.0000 16.2176 0.0000
# 4 0.0000 0.0000 0.0000 6.0614 0.0000 -2.5285
# 5 33.9106 8.5645 16.2176 0.0000 31.8386 0.0000
# 6 0.0000 0.0000 0.0000 -2.5285 0.0000 35.3234
#
#
#
# Elastic Compliance Matrix: (Units=1/GPa)
#
#
# Indices 1 2 3 4 5 6 
#
# 1 0.013301 -0.004535 -0.003617 0.000000 -0.011104 0.000000
# 2 -0.004535 0.016200 -0.004203 0.000000 0.002613 0.000000
# 3 -0.003617 -0.004203 0.016510 0.000000 -0.003427 0.000000
# 4 0.000000 0.000000 0.000000 0.170057 0.000000 0.012173
# 5 -0.011104 0.002613 -0.003427 0.000000 0.044278 0.000000
# 6 0.000000 0.000000 0.000000 0.012173 0.000000 0.029181
#
#
# Mechanical properties :
#
#
# Convention : Reuss Voigt Hill
#
# Bulk Modulus (GPa) = 46.94087 59.75368 53.34728
# Shear Modulus (GPa) = 15.56003 26.11692 20.83848
#
# Velocity S-wave (km/s) = 2.73081 3.53791 3.16023
# Velocity P-wave (km/s) = 5.69561 6.73251 6.23565
#
# Compressibility (1/GPa) = 0.02130340
#
# Stress axis : x y z
#
# Youngs Moduli (GPa) = 75.18296 61.72991 60.56761
#
# Poissons Ratio (x) = 0.27992 0.21906
# Poissons Ratio (y) = 0.34092 0.25454
# Poissons Ratio (z) = 0.27192 0.25942
#
# Static dielectric constant tensor:
#      x y z
#    x 1.817570 0.000000 0.018970 
#    y 0.000000 1.765720 0.000000 
#    z 0.018970 0.000000 1.803290 
# 
# From -- ./inp_files/53083.got.cif
#   From: 2010.05.17/outbox.cif.g08.bks.cpg/sg5_27_cif.got.tgz:53083.got - 2010.06.03 18:56:24.
