data_PCOD9122394
_publ_section_title
;
Structure prediction by ZEFSAII (Michael W. Deem and Ramdas Pophale) SiO2 
 PCOD9122394
Probable space group: C 2
;
_chemical_formula_sum "Si O2"
_cell_formula_units_Z 28
_cell_length_a 13.521022
_cell_length_b 7.471657
_cell_length_c 12.046265
_cell_angle_alpha 90.000000
_cell_angle_beta 121.279788
_cell_angle_gamma 90.000000
_cell_volume 1040.071303
_symmetry_space_group_name_H-M "C 2"
_symmetry_group_IT_number 5
_symmetry_cell_setting 'monoclinic'
loop_
_space_group_symop_operation_xyz
x,y,z
-x,y,-z
1/2+x,1/2+y,z
1/2-x,1/2+y,-z
loop_
_atom_site_type_symbol
_atom_site_label
_atom_site_fract_x
_atom_site_fract_y
_atom_site_fract_z
Si Si1 0.312843 0.219880 0.718784
Si Si2 0.678029 0.162068 0.882752
Si Si3 0.104564 0.026152 0.131184
Si Si4 0.074923 0.173318 0.358510
Si Si5 0.686552 0.329443 0.521087
Si Si6 0.891141 0.513539 0.364779
Si Si7 0.315805 0.559922 0.181258
O O1 0.405942 0.312903 0.853529
O O2 0.349888 0.226986 0.614392
O O3 0.212165 0.372797 0.674578
O O4 0.259821 0.049521 0.749844
O O5 0.586594 0.048448 0.754456
O O6 0.649540 0.368098 0.845996
O O7 0.787831 0.099554 0.874179
O O8 0.727415 0.136933 0.035933
O O9 0.097287 0.102496 0.248539
O O10 0.000000 0.096143 0.000000
O O11 0.123916 0.021647 0.472187
O O12 0.934487 0.167312 0.279024
O O13 0.173259 0.328897 0.414813
O O14 0.642847 0.203579 0.595815
O O15 0.000000 0.445250 0.500000
#
# Coordination Sequence:
#
# PCOD9122394 Si02
#       7
#     4   4   4   4   4   4   4
#     4  10  25  41  65  95 133 172 225 276 320 404
#     4  11  23  43  68  95 136 170 228 271 327 399
#     4  10  19  44  70  89 130 181 218 276 340 377
#     4  11  24  40  72  94 135 175 222 274 335 392
#     4  11  22  44  63 100 130 177 216 270 328 404
#     4  11  23  43  66  95 135 174 218 274 333 387
#     4  12  26  43  68 101 130 179 222 280 331 385
#
# _framework density 26.921230000000001
#
# number of rings (size 3 to 8) (size 9 to 14) (size 15 to 20)
#    0.000    1.143    5.714    2.571    4.000    0.000 
#    0.000    0.714    0.000    0.000    0.000    0.000 
#    0.000    0.000    0.000    0.000    0.000    0.000 
#
# Total GULP energy -78145.530053 kJ/mol
# GULP energy per Si atom -5581.823575 kJ/mol
# Density = 2.685996 g / cm^3
# Si number density = 26.921230 Si / 1000 Ang^3
#
#
#
# Elastic Constant Matrix: (Units=GPa)
#
#
# Indices 1 2 3 4 5 6 
#
# 1 51.7396 -17.1688 15.3905 0.0000 2.4910 0.0000
# 2 -17.1688 104.6326 10.8843 0.0000 7.9471 0.0000
# 3 15.3905 10.8843 170.1870 0.0000 8.3683 0.0000
# 4 0.0000 0.0000 0.0000 33.7226 0.0000 -9.4691
# 5 2.4910 7.9471 8.3683 0.0000 48.9170 0.0000
# 6 0.0000 0.0000 0.0000 -9.4691 0.0000 26.1223
#
#
#
# Elastic Compliance Matrix: (Units=1/GPa)
#
#
# Indices 1 2 3 4 5 6 
#
# 1 0.021283 0.003813 -0.002102 0.000000 -0.001344 0.000000
# 2 0.003813 0.010410 -0.000926 0.000000 -0.001727 0.000000
# 3 -0.002102 -0.000926 0.006164 0.000000 -0.000797 0.000000
# 4 0.000000 0.000000 0.000000 0.033014 0.000000 0.011967
# 5 -0.001344 -0.001727 -0.000797 0.000000 0.020928 0.000000
# 6 0.000000 0.000000 0.000000 0.011967 0.000000 0.042620
#
#
# Mechanical properties :
#
#
# Convention : Reuss Voigt Hill
#
# Bulk Modulus (GPa) = 25.36308 38.30791 31.83549
# Shear Modulus (GPa) = 34.24839 42.91591 38.58215
#
# Velocity S-wave (km/s) = 3.57062 3.99699 3.78980
# Velocity P-wave (km/s) = 5.14206 5.96336 5.56788
#
# Compressibility (1/GPa) = 0.03942739
#
# Stress axis : x y z
#
# Youngs Moduli (GPa) = 46.98602 96.05797 162.22131
#
# Poissons Ratio (x) = -0.36627 0.34107
# Poissons Ratio (y) = -0.17916 0.15017
# Poissons Ratio (z) = 0.09879 0.08892
#
# Static dielectric constant tensor:
#      x y z
#    x 2.135300 0.000000 0.126090 
#    y 0.000000 2.170390 0.000000 
#    z 0.126090 0.000000 2.293410 
# 
# From -- ./inp_files/42024.got.cif
#   From: 2010.05.17/outbox.cif.g08.bks.cpg/sg5_22_cif.got.tgz:42024.got - 2010.06.03 18:56:24.
