data_PCOD9122759
_publ_section_title
;
Structure prediction by ZEFSAII (Michael W. Deem and Ramdas Pophale) SiO2 
 PCOD9122759
Probable space group: C 2
;
_chemical_formula_sum "Si O2"
_cell_formula_units_Z 32
_cell_length_a 10.909872
_cell_length_b 9.075726
_cell_length_c 19.341960
_cell_angle_alpha 90.000000
_cell_angle_beta 48.081862
_cell_angle_gamma 90.000000
_cell_volume 1425.059087
_symmetry_space_group_name_H-M "C 2"
_symmetry_group_IT_number 5
_symmetry_cell_setting 'monoclinic'
loop_
_space_group_symop_operation_xyz
x,y,z
-x,y,-z
1/2+x,1/2+y,z
1/2-x,1/2+y,-z
loop_
_atom_site_type_symbol
_atom_site_label
_atom_site_fract_x
_atom_site_fract_y
_atom_site_fract_z
Si Si1 0.594335 0.125000 0.351407
Si Si2 0.120065 0.056282 0.235301
Si Si3 0.161535 0.396871 0.499320
Si Si4 0.807146 0.877858 0.296622
Si Si5 0.036670 0.078971 0.566688
Si Si6 0.853083 0.299543 0.109235
Si Si7 0.918417 0.297216 0.244239
Si Si8 0.021434 0.632643 0.227657
O O1 0.731097 0.234881 0.333688
O O2 0.510598 0.181253 0.313012
O O3 0.452230 0.042651 0.447745
O O4 0.705458 0.984279 0.285759
O O5 0.105754 0.053403 0.323600
O O6 0.069986 0.214056 0.224315
O O7 0.270620 0.961802 0.149429
O O8 0.959446 0.969929 0.268043
O O9 0.191631 0.355618 0.407534
O O10 0.102089 0.245509 0.556661
O O11 0.330616 0.453263 0.467790
O O12 0.891983 0.734192 0.235405
O O13 0.000000 0.069226 0.500000
O O14 0.916690 0.264995 0.162638
O O15 0.707865 0.185075 0.141483
O O16 0.000000 0.299009 0.000000
O O17 0.959070 0.467317 0.243211
#
# Coordination Sequence:
#
# PCOD9122759 Si02
#       8
#     4   4   4   4   4   4   4   4
#     4  10  20  36  56  83 119 156 201 253 305 360
#     4   9  21  40  61  90 126 165 208 251 312 381
#     4  11  22  37  57  85 120 162 217 261 299 358
#     4   9  19  37  57  81 122 166 200 252 307 355
#     4  11  24  41  61  88 128 174 216 261 310 364
#     4  10  23  43  66  93 125 161 206 264 323 381
#     4  10  22  39  64  91 120 160 204 258 319 379
#     4  10  21  39  63  89 118 158 206 248 311 384
#
# _framework density 22.455210000000001
#
# number of rings (size 3 to 8) (size 9 to 14) (size 15 to 20)
#    0.000    2.000    0.000    2.625    0.000    7.000 
#    0.000    8.750    0.000    3.000    0.000    0.000 
#    0.000    0.000    0.000    0.000    0.000    0.000 
#
# Total GULP energy -89268.417558 kJ/mol
# GULP energy per Si atom -5579.276097 kJ/mol
# Density = 2.240410 g / cm^3
# Si number density = 22.455210 Si / 1000 Ang^3
#
#
#
# Elastic Constant Matrix: (Units=GPa)
#
#
# Indices 1 2 3 4 5 6 
#
# 1 93.9154 30.3258 25.3145 0.0000 -4.6268 0.0000
# 2 30.3258 141.3086 22.9937 0.0000 -16.4958 0.0000
# 3 25.3145 22.9937 92.4096 0.0000 -20.4968 0.0000
# 4 0.0000 0.0000 0.0000 7.9732 0.0000 -12.6085
# 5 -4.6268 -16.4958 -20.4968 0.0000 23.5827 0.0000
# 6 0.0000 0.0000 0.0000 -12.6085 0.0000 51.2772
#
#
#
# Elastic Compliance Matrix: (Units=1/GPa)
#
#
# Indices 1 2 3 4 5 6 
#
# 1 0.012162 -0.002325 -0.003202 0.000000 -0.002023 0.000000
# 2 -0.002325 0.008211 -0.000289 0.000000 0.005036 0.000000
# 3 -0.003202 -0.000289 0.014353 0.000000 0.011645 0.000000
# 4 0.000000 0.000000 0.000000 0.205217 0.000000 0.050460
# 5 -0.002023 0.005036 0.011645 0.000000 0.055650 0.000000
# 6 0.000000 0.000000 0.000000 0.050460 0.000000 0.031909
#
#
# Mechanical properties :
#
#
# Convention : Reuss Voigt Hill
#
# Bulk Modulus (GPa) = 43.30193 53.87795 48.58994
# Shear Modulus (GPa) = 14.41616 33.16660 23.79138
#
# Velocity S-wave (km/s) = 2.53651 3.84736 3.25853
# Velocity P-wave (km/s) = 5.28243 6.61678 5.98690
#
# Compressibility (1/GPa) = 0.02309366
#
# Stress axis : x y z
#
# Youngs Moduli (GPa) = 82.22277 121.79350 69.67063
#
# Poissons Ratio (x) = 0.28320 0.22307
# Poissons Ratio (y) = 0.19119 0.02014
# Poissons Ratio (z) = 0.26326 0.03521
#
# Static dielectric constant tensor:
#      x y z
#    x 1.878860 0.000000 -0.024800 
#    y 0.000000 1.967870 0.000000 
#    z -0.024800 0.000000 1.809330 
# 
# From -- ./inp_files/65121.got.cif
#   From: 2010.05.17/outbox.cif.g08.bks.cpg/sg5_33_cif.got.tgz:65121.got - 2010.06.03 18:56:24.
