data_PCOD9122725
_publ_section_title
;
Structure prediction by ZEFSAII (Michael W. Deem and Ramdas Pophale) SiO2 
 PCOD9122725
Probable space group: C 2
;
_chemical_formula_sum "Si O2"
_cell_formula_units_Z 32
_cell_length_a 18.014958
_cell_length_b 14.278453
_cell_length_c 13.096159
_cell_angle_alpha 90.000000
_cell_angle_beta 156.390401
_cell_angle_gamma 90.000000
_cell_volume 1349.160551
_symmetry_space_group_name_H-M "C 2"
_symmetry_group_IT_number 5
_symmetry_cell_setting 'monoclinic'
loop_
_space_group_symop_operation_xyz
x,y,z
-x,y,-z
1/2+x,1/2+y,z
1/2-x,1/2+y,-z
loop_
_atom_site_type_symbol
_atom_site_label
_atom_site_fract_x
_atom_site_fract_y
_atom_site_fract_z
Si Si1 0.239670 0.449850 0.209954
Si Si2 0.869767 0.297354 0.569178
Si Si3 0.805039 0.451105 0.622441
Si Si4 0.841144 0.126192 0.674035
Si Si5 0.152883 0.046448 0.956994
Si Si6 0.108096 0.146312 0.543360
Si Si7 0.496961 0.171760 0.614063
Si Si8 0.203699 0.851935 0.927568
O O1 0.283451 0.419460 0.381465
O O2 0.282733 0.560113 0.269771
O O3 0.328000 0.398689 0.224827
O O4 0.022221 0.439388 0.915988
O O5 0.759934 0.387356 0.468490
O O6 0.883169 0.229902 0.684912
O O7 0.783777 0.228422 0.377207
O O8 0.077447 0.324649 0.795312
O O9 0.767523 0.557854 0.542977
O O10 0.700240 0.141263 0.589331
O O11 0.042562 0.076070 0.920703
O O12 0.358758 0.085793 0.204776
O O13 0.035766 0.099262 0.719228
O O14 0.159186 0.935641 0.948978
O O15 0.000000 0.192024 0.500000
O O16 0.500000 0.202833 0.500000
O O17 0.585843 0.257498 0.789327
#
# Coordination Sequence:
#
# PCOD9122725 Si02
#       8
#     4   4   4   4   4   4   4   4
#     4  10  20  35  65 103 135 170 232 288 345 399
#     4  10  22  41  62 103 143 181 221 285 353 408
#     4  10  21  38  64 101 137 183 228 284 339 418
#     4  11  24  43  69  96 145 185 224 283 359 407
#     4  11  24  48  66 100 143 182 224 290 351 411
#     4  11  20  38  67  98 133 180 219 290 343 401
#     4  12  28  44  71 106 136 183 237 288 345 419
#     4  11  23  43  71 105 138 173 235 295 347 404
#
# _framework density 23.718454000000001
#
# number of rings (size 3 to 8) (size 9 to 14) (size 15 to 20)
#    0.000    1.250    6.250    1.500    5.250    0.500 
#    0.000    2.500    0.000    0.000    3.250    0.000 
#    0.000    0.000    0.000    0.000    0.000    0.000 
#
# Total GULP energy -89326.286894 kJ/mol
# GULP energy per Si atom -5582.892931 kJ/mol
# Density = 2.366447 g / cm^3
# Si number density = 23.718454 Si / 1000 Ang^3
#
#
#
# Elastic Constant Matrix: (Units=GPa)
#
#
# Indices 1 2 3 4 5 6 
#
# 1 135.1635 42.9695 25.6497 0.0000 41.6561 0.0000
# 2 42.9695 116.6447 23.3544 0.0000 10.8138 0.0000
# 3 25.6497 23.3544 38.4938 0.0000 24.1750 0.0000
# 4 0.0000 0.0000 0.0000 34.7648 0.0000 6.7701
# 5 41.6561 10.8138 24.1750 0.0000 29.5040 0.0000
# 6 0.0000 0.0000 0.0000 6.7701 0.0000 26.7254
#
#
#
# Elastic Compliance Matrix: (Units=1/GPa)
#
#
# Indices 1 2 3 4 5 6 
#
# 1 0.016417 -0.005548 0.011756 0.000000 -0.030778 0.000000
# 2 -0.005548 0.011733 -0.011620 0.000000 0.013054 0.000000
# 3 0.011756 -0.011620 0.067868 0.000000 -0.067949 0.000000
# 4 0.000000 0.000000 0.000000 0.030257 0.000000 -0.007665
# 5 -0.030778 0.013054 -0.067949 0.000000 0.128240 0.000000
# 6 0.000000 0.000000 0.000000 -0.007665 0.000000 0.039359
#
#
# Mechanical properties :
#
#
# Convention : Reuss Voigt Hill
#
# Bulk Modulus (GPa) = 11.73784 52.69435 32.21609
# Shear Modulus (GPa) = 15.01069 31.42074 23.21571
#
# Velocity S-wave (km/s) = 2.51842 3.64364 3.13198
# Velocity P-wave (km/s) = 3.66281 6.32189 5.16636
#
# Compressibility (1/GPa) = 0.08519459
#
# Stress axis : x y z
#
# Youngs Moduli (GPa) = 60.91366 85.22869 14.73446
#
# Poissons Ratio (x) = 0.47285 -0.17322
# Poissons Ratio (y) = 0.33795 0.17121
# Poissons Ratio (z) = -0.71611 0.99034
#
# Static dielectric constant tensor:
#      x y z
#    x 1.967350 0.000000 -0.020730 
#    y 0.000000 1.887950 0.000000 
#    z -0.020730 0.000000 1.965740 
# 
# From -- ./inp_files/57191.got.cif
#   From: 2010.05.17/outbox.cif.g08.bks.cpg/sg5_29_cif.got.tgz:57191.got - 2010.06.03 18:56:24.
