data_PCOD9122547
_publ_section_title
;
Structure prediction by ZEFSAII (Michael W. Deem and Ramdas Pophale) SiO2 
 PCOD9122547
Probable space group: C 2
;
_chemical_formula_sum "Si O2"
_cell_formula_units_Z 24
_cell_length_a 14.174928
_cell_length_b 13.133411
_cell_length_c 11.894317
_cell_angle_alpha 90.000000
_cell_angle_beta 150.420906
_cell_angle_gamma 90.000000
_cell_volume 1093.036532
_symmetry_space_group_name_H-M "C 2"
_symmetry_group_IT_number 5
_symmetry_cell_setting 'monoclinic'
loop_
_space_group_symop_operation_xyz
x,y,z
-x,y,-z
1/2+x,1/2+y,z
1/2-x,1/2+y,-z
loop_
_atom_site_type_symbol
_atom_site_label
_atom_site_fract_x
_atom_site_fract_y
_atom_site_fract_z
Si Si1 0.713953 0.024490 0.349654
Si Si2 0.489208 0.747049 0.859245
Si Si3 0.214119 0.610986 0.117306
Si Si4 0.107088 0.808526 0.497629
Si Si5 0.440370 0.532908 0.143921
Si Si6 0.768040 0.830147 0.970869
O O1 0.773307 0.097755 0.307916
O O2 0.834381 0.023627 0.590735
O O3 0.772547 0.913032 0.363207
O O4 0.490740 0.056602 0.122673
O O5 0.263660 0.734115 0.607804
O O6 0.589263 0.637454 0.953483
O O7 0.500000 0.780418 0.000000
O O8 0.581833 0.818020 0.858709
O O9 0.354768 0.553621 0.178893
O O10 0.218804 0.730666 0.092894
O O11 0.000000 0.777706 0.500000
O O12 0.941905 0.823309 0.237889
O O13 0.320701 0.438553 0.969599
#
# Coordination Sequence:
#
# PCOD9122547 Si02
#       6
#     4   4   4   4   4   4
#     4  10  20  34  57  87 111 147 194 239 290 334
#     4  11  22  36  59  87 113 153 194 237 285 347
#     4  10  20  34  57  86 114 149 191 243 285 343
#     4  11  20  33  59  84 112 143 192 244 285 331
#     4  10  21  38  56  84 118 149 191 238 294 343
#     4  10  21  38  56  85 118 152 188 239 294 345
#
# _framework density 21.957180999999999
#
# number of rings (size 3 to 8) (size 9 to 14) (size 15 to 20)
#    0.000    1.667    1.667    4.500    2.333    0.000 
#    3.000    0.000    0.000    0.000   13.000    0.000 
#    0.000    0.000    0.000    0.000    0.000    0.000 
#
# Total GULP energy -66842.092480 kJ/mol
# GULP energy per Si atom -5570.174373 kJ/mol
# Density = 2.190721 g / cm^3
# Si number density = 21.957181 Si / 1000 Ang^3
#
#
#
# Elastic Constant Matrix: (Units=GPa)
#
#
# Indices 1 2 3 4 5 6 
#
# 1 46.3282 21.3189 16.6584 0.0000 15.5237 0.0000
# 2 21.3189 126.9388 6.4812 0.0000 4.6105 0.0000
# 3 16.6584 6.4812 61.3711 0.0001 25.3533 0.0000
# 4 0.0000 0.0000 0.0001 14.7361 0.0000 11.8358
# 5 15.5237 4.6105 25.3533 0.0000 35.0034 0.0000
# 6 0.0000 0.0000 0.0000 11.8358 0.0000 3.1348
#
#
#
# Elastic Compliance Matrix: (Units=1/GPa)
#
#
# Indices 1 2 3 4 5 6 
#
# 1 0.027828 -0.004166 -0.003199 0.000000 -0.009475 0.000000
# 2 -0.004166 0.008554 -0.000100 0.000000 0.000794 0.000000
# 3 -0.003199 -0.000100 0.023662 0.000000 -0.015707 0.000000
# 4 0.000000 0.000000 0.000000 -0.033388 0.000000 0.126060
# 5 -0.009475 0.000794 -0.015707 0.000000 0.044043 0.000000
# 6 0.000000 0.000000 0.000000 0.126060 0.000000 -0.156951
#
#
# Mechanical properties :
#
#
# Convention : Reuss Voigt Hill
#
# Bulk Modulus (GPa) = 22.16686 35.95056 29.05871
# Shear Modulus (GPa) = -88.83444 23.25350 -32.79047
#
# Velocity S-wave (km/s) = -6.36756 3.25782 -3.86862
# Velocity P-wave (km/s) = 6.62901 5.52809 2.58689
#
# Compressibility (1/GPa) = 0.04511238
#
# Stress axis : x y z
#
# Youngs Moduli (GPa) = 35.93560 116.90729 42.26205
#
# Poissons Ratio (x) = 0.48704 0.13520
# Poissons Ratio (y) = 0.14971 0.00424
# Poissons Ratio (z) = 0.11496 0.01174
#
# Static dielectric constant tensor:
#      x y z
#    x 1.854990 0.000000 0.093410 
#    y 0.000000 1.947440 0.000000 
#    z 0.093410 0.000000 1.922780 
# 
# From -- ./inp_files/54635.got.cif
#   From: 2010.05.17/outbox.cif.g08.bks.cpg/sg5_28_cif.got.tgz:54635.got - 2010.06.03 18:56:24.
