data_PCOD9122539
_publ_section_title
;
Structure prediction by ZEFSAII (Michael W. Deem and Ramdas Pophale) SiO2 
 PCOD9122539
Probable space group: C 2
;
_chemical_formula_sum "Si O2"
_cell_formula_units_Z 16
_cell_length_a 7.267759
_cell_length_b 21.024330
_cell_length_c 6.414116
_cell_angle_alpha 90.000000
_cell_angle_beta 44.425304
_cell_angle_gamma 90.000000
_cell_volume 686.032019
_symmetry_space_group_name_H-M "C 2"
_symmetry_group_IT_number 5
_symmetry_cell_setting 'monoclinic'
loop_
_space_group_symop_operation_xyz
x,y,z
-x,y,-z
1/2+x,1/2+y,z
1/2-x,1/2+y,-z
loop_
_atom_site_type_symbol
_atom_site_label
_atom_site_fract_x
_atom_site_fract_y
_atom_site_fract_z
Si Si1 0.911909 0.490480 0.326685
Si Si2 0.000000 0.762025 0.500000
Si Si3 0.707253 0.364299 0.649232
Si Si4 0.076269 0.054622 0.172197
Si Si5 0.500000 0.675863 0.000000
O O1 0.772852 0.421877 0.434593
O O2 0.690427 0.544658 0.484977
O O3 0.000000 0.492719 0.500000
O O4 0.178122 0.507998 0.990726
O O5 0.932036 0.807410 0.360462
O O6 0.744942 0.718487 0.737860
O O7 0.000000 0.347212 0.500000
O O8 0.500000 0.383258 0.000000
O O9 0.109318 0.129399 0.097282
O O10 0.000000 0.033108 0.000000
#
# Coordination Sequence:
#
# PCOD9122539 Si02
#       5
#     4   2   4   4   2
#     4   9  14  28  51  83 112 139 195 246 294 344
#     4  12  24  40  60  94 126 166 206 238 310 376
#     4  11  23  39  61  93 123 165 200 254 309 362
#     4   8  15  26  50  82 108 142 198 245 279 348
#     4  10  20  34  56  92 122 158 212 248 286 378
#
# _framework density 23.322527000000001
#
# number of rings (size 3 to 8) (size 9 to 14) (size 15 to 20)
#    0.750    1.500    0.000    6.750    0.000    0.000 
#    0.000    0.000    0.000    0.000   32.500    0.000 
#    0.000    0.000    0.000    0.000    0.000    0.000 
#
# Total GULP energy -44584.379958 kJ/mol
# GULP energy per Si atom -5573.047495 kJ/mol
# Density = 2.326944 g / cm^3
# Si number density = 23.322527 Si / 1000 Ang^3
#
#
#
# Elastic Constant Matrix: (Units=GPa)
#
#
# Indices 1 2 3 4 5 6 
#
# 1 41.7739 15.9391 3.6637 0.0000 -26.6974 0.0000
# 2 15.9391 152.5332 71.5366 0.0000 -10.2343 0.0000
# 3 3.6637 71.5366 203.4675 0.0000 2.4538 0.0000
# 4 0.0000 0.0000 0.0000 46.4603 0.0000 -8.5105
# 5 -26.6974 -10.2343 2.4538 0.0000 42.0822 0.0000
# 6 0.0000 0.0000 0.0000 -8.5105 0.0000 -17.1528
#
#
#
# Elastic Compliance Matrix: (Units=1/GPa)
#
#
# Indices 1 2 3 4 5 6 
#
# 1 0.041255 -0.002517 -0.000166 0.000000 0.025570 0.000000
# 2 -0.002517 0.008189 -0.002840 0.000000 0.000560 0.000000
# 3 -0.000166 -0.002840 0.005930 0.000000 -0.001142 0.000000
# 4 0.000000 0.000000 0.000000 0.019731 0.000000 -0.009789
# 5 0.025570 0.000560 -0.001142 0.000000 0.040188 0.000000
# 6 0.000000 0.000000 0.000000 -0.009789 0.000000 -0.053442
#
#
# Mechanical properties :
#
#
# Convention : Reuss Voigt Hill
#
# Bulk Modulus (GPa) = 22.56002 64.45038 43.50520
# Shear Modulus (GPa) = 57.02949 34.72027 45.87488
#
# Velocity S-wave (km/s) = 4.95032 3.86255 4.43987
# Velocity P-wave (km/s) = 6.50909 6.89832 6.70653
#
# Compressibility (1/GPa) = 0.04432619
#
# Stress axis : x y z
#
# Youngs Moduli (GPa) = 24.23928 122.11880 168.62752
#
# Poissons Ratio (x) = 0.30743 0.02801
# Poissons Ratio (y) = 0.06102 0.47898
# Poissons Ratio (z) = 0.00403 0.34688
#
# Static dielectric constant tensor:
#      x y z
#    x 2.081780 0.000000 0.078210 
#    y 0.000000 1.886230 0.000000 
#    z 0.078210 0.000000 1.853350 
# 
# From -- ./inp_files/16620.got.cif
#   From: 2010.05.17/outbox.cif.g08.bks.cpg/sg5_9_cif.got.tgz:16620.got - 2010.06.03 18:56:24.
