data_PCOD9122397
_publ_section_title
;
Structure prediction by ZEFSAII (Michael W. Deem and Ramdas Pophale) SiO2 
 PCOD9122397
Probable space group: C 2
;
_chemical_formula_sum "Si O2"
_cell_formula_units_Z 22
_cell_length_a 16.070505
_cell_length_b 7.126561
_cell_length_c 7.602264
_cell_angle_alpha 90.000000
_cell_angle_beta 88.864705
_cell_angle_gamma 90.000000
_cell_volume 870.496875
_symmetry_space_group_name_H-M "C 2"
_symmetry_group_IT_number 5
_symmetry_cell_setting 'monoclinic'
loop_
_space_group_symop_operation_xyz
x,y,z
-x,y,-z
1/2+x,1/2+y,z
1/2-x,1/2+y,-z
loop_
_atom_site_type_symbol
_atom_site_label
_atom_site_fract_x
_atom_site_fract_y
_atom_site_fract_z
Si Si1 0.793403 0.523380 0.732057
Si Si2 0.869880 0.429102 0.374047
Si Si3 0.473022 0.014875 0.809488
Si Si4 0.064650 0.061516 0.148651
Si Si5 0.500000 0.611950 0.500000
Si Si6 0.752051 0.894359 0.905413
O O1 0.801627 0.460235 0.531016
O O2 0.886211 0.598524 0.760868
O O3 0.741363 0.702745 0.792837
O O4 0.768660 0.378116 0.886814
O O5 0.823578 0.490918 0.194252
O O6 0.954927 0.543657 0.334005
O O7 0.919607 0.235823 0.432106
O O8 0.448627 0.789653 0.828506
O O9 0.500000 0.075401 0.000000
O O10 0.158154 0.991237 0.113485
O O11 0.032831 0.992563 0.337340
O O12 0.000000 0.008131 0.000000
#
# Coordination Sequence:
#
# PCOD9122397 Si02
#       6
#     4   4   4   4   2   4
#     4  12  25  43  67 100 142 178 230 282 346 399
#     4  11  23  43  72  97 130 187 229 277 336 415
#     4  10  19  44  74  92 132 182 228 268 343 418
#     4  10  23  44  69  98 132 180 226 278 343 400
#     4  10  22  42  74  92 126 184 230 270 340 414
#     4  12  29  41  69 105 139 178 230 293 340 406
#
# _framework density 25.272921
#
# number of rings (size 3 to 8) (size 9 to 14) (size 15 to 20)
#    0.000    1.091    5.455    1.091    7.636    0.727 
#    3.273    0.000    0.000    0.000    0.000    0.000 
#    0.000    0.000    0.000    0.000    0.000    0.000 
#
# Total GULP energy -61245.819070 kJ/mol
# GULP energy per Si atom -5567.801734 kJ/mol
# Density = 2.521540 g / cm^3
# Si number density = 25.272921 Si / 1000 Ang^3
#
#
#
# Elastic Constant Matrix: (Units=GPa)
#
#
# Indices 1 2 3 4 5 6 
#
# 1 113.4507 11.2319 17.5026 0.0000 -0.9127 0.0000
# 2 11.2319 73.7120 3.6138 0.0000 -11.3609 0.0000
# 3 17.5026 3.6138 113.7563 0.0000 -38.7630 0.0000
# 4 0.0000 0.0000 0.0000 11.8573 0.0000 -18.5049
# 5 -0.9127 -11.3609 -38.7630 0.0000 59.0087 0.0000
# 6 0.0000 0.0000 0.0000 -18.5049 0.0000 -4.3154
#
#
#
# Elastic Compliance Matrix: (Units=1/GPa)
#
#
# Indices 1 2 3 4 5 6 
#
# 1 0.009238 -0.001527 -0.001835 0.000000 -0.001357 0.000000
# 2 -0.001527 0.014266 0.000914 0.000000 0.003324 0.000000
# 3 -0.001835 0.000914 0.011717 0.000000 0.007845 0.000000
# 4 0.000000 0.000000 0.000000 0.010964 0.000000 -0.047014
# 5 -0.001357 0.003324 0.007845 0.000000 0.022719 0.000000
# 6 0.000000 0.000000 0.000000 -0.047014 0.000000 -0.030125
#
#
# Mechanical properties :
#
#
# Convention : Reuss Voigt Hill
#
# Bulk Modulus (GPa) = 32.97481 40.62395 36.79938
# Shear Modulus (GPa) = 92.96717 31.21483 62.09100
#
# Velocity S-wave (km/s) = 6.07167 3.51823 4.96201
# Velocity P-wave (km/s) = 7.88856 5.71077 6.88630
#
# Compressibility (1/GPa) = 0.03032618
#
# Stress axis : x y z
#
# Youngs Moduli (GPa) = 108.25158 70.09487 85.34522
#
# Poissons Ratio (x) = 0.10701 0.15661
# Poissons Ratio (y) = 0.16527 -0.07803
# Poissons Ratio (z) = 0.19865 -0.06408
#
# Static dielectric constant tensor:
#      x y z
#    x 2.010620 0.000000 0.037150 
#    y 0.000000 2.253500 0.000000 
#    z 0.037150 0.000000 2.130120 
# 
# From -- ./inp_files/22662.got.cif
#   From: 2010.05.17/outbox.cif.g08.bks.cpg/sg5_12_cif.got.tgz:22662.got - 2010.06.03 18:56:24.
