data_PCOD9122875
_publ_section_title
;
Structure prediction by ZEFSAII (Michael W. Deem and Ramdas Pophale) SiO2 
 PCOD9122875
Probable space group: C 2
;
_chemical_formula_sum "Si O2"
_cell_formula_units_Z 24
_cell_length_a 17.310336
_cell_length_b 16.434287
_cell_length_c 11.315689
_cell_angle_alpha 90.000000
_cell_angle_beta 21.450734
_cell_angle_gamma 90.000000
_cell_volume 1177.236168
_symmetry_space_group_name_H-M "C 2"
_symmetry_group_IT_number 5
_symmetry_cell_setting 'monoclinic'
loop_
_space_group_symop_operation_xyz
x,y,z
-x,y,-z
1/2+x,1/2+y,z
1/2-x,1/2+y,-z
loop_
_atom_site_type_symbol
_atom_site_label
_atom_site_fract_x
_atom_site_fract_y
_atom_site_fract_z
Si Si1 0.928746 0.746300 0.339498
Si Si2 0.894607 0.897879 0.526745
Si Si3 0.202947 0.635784 0.293169
Si Si4 0.928193 0.964905 0.965071
Si Si5 0.013209 0.296473 0.141435
Si Si6 0.821922 0.308247 0.668630
O O1 0.999949 0.809714 0.341745
O O2 0.891328 0.657212 0.443423
O O3 0.698865 0.779009 0.630343
O O4 0.105877 0.757181 0.988826
O O5 0.000000 0.928193 0.500000
O O6 0.923337 0.948760 0.362984
O O7 0.655197 0.872759 0.899609
O O8 0.000000 0.627826 0.500000
O O9 0.344696 0.556251 0.085434
O O10 0.344503 0.714867 0.061821
O O11 0.742690 0.899995 0.206024
O O12 0.000000 0.946607 0.000000
O O13 0.922733 0.310946 0.398430
O O14 0.000000 0.273380 0.500000
#
# Coordination Sequence:
#
# PCOD9122875 Si02
#       6
#     4   4   4   4   4   4
#     4  10  20  36  61  91 119 159 207 252 306 372
#     4  10  20  37  61  89 120 159 204 251 305 367
#     4  11  22  39  60  86 120 163 205 253 310 367
#     4  11  23  40  60  89 124 161 206 256 311 371
#     4  11  20  37  63  90 120 159 206 258 308 368
#     4  11  21  37  61  91 122 159 205 258 307 367
#
# _framework density 20.386731999999999
#
# number of rings (size 3 to 8) (size 9 to 14) (size 15 to 20)
#    0.000    1.333    0.000   11.000    0.000    0.000 
#    0.000    4.167    0.000    4.000    0.000    0.000 
#    0.000    0.000    0.000    0.000    0.000    0.000 
#
# Total GULP energy -66870.450729 kJ/mol
# GULP energy per Si atom -5572.537561 kJ/mol
# Density = 2.034033 g / cm^3
# Si number density = 20.386732 Si / 1000 Ang^3
#
#
#
# Elastic Constant Matrix: (Units=GPa)
#
#
# Indices 1 2 3 4 5 6 
#
# 1 126.8086 16.2587 66.0480 0.0013 10.6602 -0.0002
# 2 16.2587 89.4096 50.5983 0.0235 13.6974 -0.0048
# 3 66.0480 50.5983 152.7042 0.0297 19.1522 -0.0051
# 4 0.0013 0.0235 0.0297 27.7547 -0.0072 5.4343
# 5 10.6602 13.6974 19.1522 -0.0072 47.3150 -0.0006
# 6 -0.0002 -0.0048 -0.0051 5.4343 -0.0006 17.2250
#
#
#
# Elastic Compliance Matrix: (Units=1/GPa)
#
#
# Indices 1 2 3 4 5 6 
#
# 1 0.010245 0.000863 -0.004631 0.000004 -0.000683 -0.000002
# 2 0.000863 0.014070 -0.004741 -0.000009 -0.002349 0.000005
# 3 -0.004631 -0.004741 0.010345 -0.000008 -0.001772 0.000004
# 4 0.000004 -0.000009 -0.000008 0.038402 0.000010 -0.012115
# 5 -0.000683 -0.002349 -0.001772 0.000010 0.022686 -0.000004
# 6 -0.000002 0.000005 0.000004 -0.012115 -0.000004 0.061878
#
#
# Mechanical properties :
#
#
# Convention : Reuss Voigt Hill
#
# Bulk Modulus (GPa) = 56.68548 70.52584 63.60566
# Shear Modulus (GPa) = 27.69703 34.19340 30.94522
#
# Velocity S-wave (km/s) = 3.68989 4.09985 3.90026
# Velocity P-wave (km/s) = 6.78374 7.55518 7.17983
#
# Compressibility (1/GPa) = 0.01764120
#
# Stress axis : x y z
#
# Youngs Moduli (GPa) = 97.60913 71.07186 96.66730
#
# Poissons Ratio (x) = -0.06131 0.44770
# Poissons Ratio (y) = -0.08420 0.45827
# Poissons Ratio (z) = 0.45206 0.33693
#
# Static dielectric constant tensor:
#      x y z
#    x 1.886250 -0.000010 0.002360 
#    y -0.000010 1.698040 0.000000 
#    z 0.002360 0.000000 1.769300 
# 
# From -- ./inp_files/45111.got.cif
#   From: 2010.05.17/outbox.cif.g08.bks.cpg/sg5_23_cif.got.tgz:45111.got - 2010.06.03 18:56:24.
