data_PCOD9122007
_publ_section_title
;
Structure prediction by ZEFSAII (Michael W. Deem and Ramdas Pophale) SiO2 
 PCOD9122007
Probable space group: C 2
;
_chemical_formula_sum "Si O2"
_cell_formula_units_Z 30
_cell_length_a 15.374691
_cell_length_b 10.185311
_cell_length_c 7.529577
_cell_angle_alpha 90.000000
_cell_angle_beta 100.764081
_cell_angle_gamma 90.000000
_cell_volume 1158.354859
_symmetry_space_group_name_H-M "C 2"
_symmetry_group_IT_number 5
_symmetry_cell_setting 'monoclinic'
loop_
_space_group_symop_operation_xyz
x,y,z
-x,y,-z
1/2+x,1/2+y,z
1/2-x,1/2+y,-z
loop_
_atom_site_type_symbol
_atom_site_label
_atom_site_fract_x
_atom_site_fract_y
_atom_site_fract_z
Si Si1 0.413218 0.578160 0.848151
Si Si2 0.443276 0.137867 0.334017
Si Si3 0.418571 0.119287 0.888999
Si Si4 0.709050 0.331443 0.301869
Si Si5 0.344158 0.860678 0.871678
Si Si6 0.000000 0.056062 0.500000
Si Si7 0.395889 0.875243 0.479547
Si Si8 0.344411 0.374030 0.306785
O O1 0.340006 0.461432 0.797843
O O2 0.371460 0.710944 0.921147
O O3 0.446158 0.607986 0.656372
O O4 0.500000 0.543006 0.000000
O O5 0.500000 0.220156 0.500000
O O6 0.523095 0.075561 0.257435
O O7 0.380036 0.242593 0.225846
O O8 0.389558 0.023403 0.403400
O O9 0.337635 0.205367 0.800079
O O10 0.394476 0.984216 0.978937
O O11 0.500000 0.202913 0.000000
O O12 0.815449 0.311756 0.335142
O O13 0.684942 0.336209 0.503075
O O14 0.366956 0.867835 0.671162
O O15 0.242292 0.903696 0.838973
O O16 0.921180 0.978809 0.365630
O O17 0.500000 0.835647 0.500000
#
# Coordination Sequence:
#
# PCOD9122007 Si02
#       8
#     4   4   4   4   4   2   4   4
#     4  11  24  43  67  96 140 174 213 273 337 384
#     4  11  17  37  65  90 124 163 216 251 311 385
#     4  12  24  41  63  92 130 169 207 261 319 382
#     4  10  21  39  66  97 126 166 221 262 319 390
#     4  11  23  40  63  95 132 167 211 271 330 380
#     4  10  22  40  68  96 128 172 228 270 318 396
#     4  10  20  36  67  95 120 166 219 263 315 386
#     4  10  19  37  65  96 125 167 215 272 319 381
#
# _framework density 25.898797999999999
#
# number of rings (size 3 to 8) (size 9 to 14) (size 15 to 20)
#    0.000    1.333    4.667    2.400    0.933    5.333 
#    0.000    4.000    0.000    0.000    0.000    0.000 
#    0.000    0.000    0.000    0.000    0.000    0.000 
#
# Total GULP energy -83579.093124 kJ/mol
# GULP energy per Si atom -5571.939542 kJ/mol
# Density = 2.583985 g / cm^3
# Si number density = 25.898798 Si / 1000 Ang^3
#
#
#
# Elastic Constant Matrix: (Units=GPa)
#
#
# Indices 1 2 3 4 5 6 
#
# 1 141.8727 50.8323 36.3158 0.0000 49.4465 0.0000
# 2 50.8323 99.0734 19.8425 0.0000 21.0278 0.0000
# 3 36.3158 19.8425 78.3905 0.0000 25.7371 0.0000
# 4 0.0000 0.0000 0.0000 2.7121 0.0000 15.1986
# 5 49.4465 21.0278 25.7371 0.0000 58.8577 0.0000
# 6 0.0000 0.0000 0.0000 15.1986 0.0000 26.7091
#
#
#
# Elastic Compliance Matrix: (Units=1/GPa)
#
#
# Indices 1 2 3 4 5 6 
#
# 1 0.011556 -0.003965 -0.001900 0.000000 -0.007461 0.000000
# 2 -0.003965 0.012487 -0.001113 0.000000 -0.000644 0.000000
# 3 -0.001900 -0.001113 0.015487 0.000000 -0.004778 0.000000
# 4 0.000000 0.000000 0.000000 -0.168449 0.000000 0.095854
# 5 -0.007461 -0.000644 -0.004778 0.000000 0.025577 0.000000
# 6 0.000000 0.000000 0.000000 0.095854 0.000000 -0.017105
#
#
# Mechanical properties :
#
#
# Convention : Reuss Voigt Hill
#
# Bulk Modulus (GPa) = 39.10115 59.25754 49.17935
# Shear Modulus (GPa) = -51.03888 31.81219 -9.61335
#
# Velocity S-wave (km/s) = -4.44408 3.50855 -1.92872
# Velocity P-wave (km/s) = 3.34704 6.27243 3.75105
#
# Compressibility (1/GPa) = 0.02557469
#
# Stress axis : x y z
#
# Youngs Moduli (GPa) = 86.53622 80.08103 64.56830
#
# Poissons Ratio (x) = 0.31752 0.12270
# Poissons Ratio (y) = 0.34311 0.07184
# Poissons Ratio (z) = 0.16445 0.08910
#
# Static dielectric constant tensor:
#      x y z
#    x 2.095390 0.000000 -0.145690 
#    y 0.000000 2.038560 0.000000 
#    z -0.145690 0.000000 2.448230 
# 
# From -- ./inp_files/23928.got.cif
#   From: 2010.05.17/outbox.cif.g08.bks.cpg/sg5_12_cif.got.tgz:23928.got - 2010.06.03 18:56:24.
