data_PCOD9122689
_publ_section_title
;
Structure prediction by ZEFSAII (Michael W. Deem and Ramdas Pophale) SiO2 
 PCOD9122689
Probable space group: C 2
;
_chemical_formula_sum "Si O2"
_cell_formula_units_Z 32
_cell_length_a 8.346375
_cell_length_b 23.722249
_cell_length_c 14.179987
_cell_angle_alpha 90.000000
_cell_angle_beta 28.668314
_cell_angle_gamma 90.000000
_cell_volume 1346.895850
_symmetry_space_group_name_H-M "C 2"
_symmetry_group_IT_number 5
_symmetry_cell_setting 'monoclinic'
loop_
_space_group_symop_operation_xyz
x,y,z
-x,y,-z
1/2+x,1/2+y,z
1/2-x,1/2+y,-z
loop_
_atom_site_type_symbol
_atom_site_label
_atom_site_fract_x
_atom_site_fract_y
_atom_site_fract_z
Si Si1 0.999296 0.693170 0.234883
Si Si2 0.368606 0.678888 0.217706
Si Si3 0.099913 0.294872 0.185764
Si Si4 0.197112 0.518081 0.802847
Si Si5 0.876819 0.422347 0.839075
Si Si6 0.769834 0.928464 0.442064
Si Si7 0.317680 0.640847 0.765046
Si Si8 0.185245 0.808956 0.594147
O O1 0.702678 0.684969 0.311352
O O2 0.020226 0.758908 0.251853
O O3 0.055145 0.667297 0.310629
O O4 0.308618 0.668760 0.015160
O O5 0.431887 0.744555 0.213681
O O6 0.398099 0.646408 0.301564
O O7 0.098746 0.357138 0.139420
O O8 0.862255 0.297209 0.401705
O O9 0.500000 0.283425 0.000000
O O10 0.523175 0.484567 0.662818
O O11 0.288466 0.581265 0.725847
O O12 0.996273 0.474208 0.841415
O O13 0.000000 0.527581 0.000000
O O14 0.101141 0.423213 0.630339
O O15 0.500000 0.431218 0.000000
O O16 0.500000 0.932180 0.500000
O O17 0.979436 0.870768 0.321446
O O18 0.000000 0.649995 0.000000
O O19 0.500000 0.815734 0.500000
#
# Coordination Sequence:
#
# PCOD9122689 Si02
#       8
#     4   4   4   4   4   4   4   4
#     4  10  21  37  61  95 121 161 209 253 317 380
#     4  10  20  37  63  91 124 164 203 256 316 380
#     4  10  20  36  61  87 126 162 199 261 320 375
#     4  11  23  41  66  93 128 173 215 266 323 383
#     4  10  22  41  64  96 125 169 218 264 326 384
#     4  10  22  41  63  93 132 169 212 267 323 385
#     4   9  20  42  63  89 129 166 210 264 313 372
#     4  10  20  35  60  90 126 161 202 259 317 378
#
# _framework density 23.758331999999999
#
# number of rings (size 3 to 8) (size 9 to 14) (size 15 to 20)
#    0.000    2.000    0.000    3.750    1.750    3.500 
#    9.000    3.750    0.000    0.000    0.000    0.000 
#    0.000    0.000    0.000    0.000    0.000    0.000 
#
# Total GULP energy -89250.016114 kJ/mol
# GULP energy per Si atom -5578.126007 kJ/mol
# Density = 2.370426 g / cm^3
# Si number density = 23.758332 Si / 1000 Ang^3
#
#
#
# Elastic Constant Matrix: (Units=GPa)
#
#
# Indices 1 2 3 4 5 6 
#
# 1 160.4032 40.2523 3.0303 0.0000 -0.5423 0.0000
# 2 40.2523 139.6205 0.6984 0.0000 5.8804 0.0000
# 3 3.0303 0.6984 48.0974 0.0001 10.9569 -0.0002
# 4 0.0000 0.0000 0.0001 -49.7556 0.0000 132.6816
# 5 -0.5423 5.8804 10.9569 0.0000 33.2397 0.0000
# 6 0.0000 0.0000 -0.0002 132.6816 0.0000 -204.3619
#
#
#
# Elastic Compliance Matrix: (Units=1/GPa)
#
#
# Indices 1 2 3 4 5 6 
#
# 1 0.006740 -0.001967 -0.000541 0.000000 0.000636 0.000000
# 2 -0.001967 0.007792 0.000359 0.000000 -0.001529 0.000000
# 3 -0.000541 0.000359 0.022528 0.000000 -0.007498 0.000000
# 4 0.000000 0.000000 0.000000 0.027482 0.000000 0.017843
# 5 0.000636 -0.001529 -0.007498 0.000000 0.032837 0.000000
# 6 0.000000 0.000000 0.000000 0.017843 0.000000 0.006691
#
#
# Mechanical properties :
#
#
# Convention : Reuss Voigt Hill
#
# Bulk Modulus (GPa) = 30.52312 48.45367 39.48840
# Shear Modulus (GPa) = 41.91475 -23.89955 9.00760
#
# Velocity S-wave (km/s) = 4.20481 -3.17510 1.94925
# Velocity P-wave (km/s) = 6.03731 2.64518 4.66080
#
# Compressibility (1/GPa) = 0.03276205
#
# Stress axis : x y z
#
# Youngs Moduli (GPa) = 148.36023 128.33600 44.38878
#
# Poissons Ratio (x) = 0.25248 0.02402
# Poissons Ratio (y) = 0.29187 -0.01594
# Poissons Ratio (z) = 0.08027 -0.04609
#
# Static dielectric constant tensor:
#      x y z
#    x 2.047010 0.000000 -0.258380 
#    y 0.000000 1.966020 0.000000 
#    z -0.258380 0.000000 2.373520 
# 
# From -- ./inp_files/51669.got.cif
#   From: 2010.05.17/outbox.cif.g08.bks.cpg/sg5_26_cif.got.tgz:51669.got - 2010.06.03 18:56:24.
