data_PCOD9122621
_publ_section_title
;
Structure prediction by ZEFSAII (Michael W. Deem and Ramdas Pophale) SiO2 
 PCOD9122621
Probable space group: C 2
;
_chemical_formula_sum "Si O2"
_cell_formula_units_Z 32
_cell_length_a 14.123304
_cell_length_b 24.830288
_cell_length_c 13.094645
_cell_angle_alpha 90.000000
_cell_angle_beta 158.870225
_cell_angle_gamma 90.000000
_cell_volume 1655.369245
_symmetry_space_group_name_H-M "C 2"
_symmetry_group_IT_number 5
_symmetry_cell_setting 'monoclinic'
loop_
_space_group_symop_operation_xyz
x,y,z
-x,y,-z
1/2+x,1/2+y,z
1/2-x,1/2+y,-z
loop_
_atom_site_type_symbol
_atom_site_label
_atom_site_fract_x
_atom_site_fract_y
_atom_site_fract_z
Si Si1 0.486548 0.084530 0.863835
Si Si2 0.369789 0.836254 0.027464
Si Si3 0.258481 0.877275 0.323313
Si Si4 0.630197 0.766591 0.472522
Si Si5 0.986548 0.018314 0.363835
Si Si6 0.845795 0.902935 0.548905
Si Si7 0.741519 0.725569 0.176688
Si Si8 0.654192 0.199910 0.951081
O O1 0.195650 0.064501 0.544931
O O2 0.572624 0.140494 0.901671
O O3 0.500000 0.090952 0.000000
O O4 0.695650 0.038343 0.044931
O O5 0.499992 0.801423 0.249993
O O6 0.599846 0.879310 0.236289
O O7 0.292643 0.790332 0.869729
O O8 0.102839 0.865479 0.793059
O O9 0.500000 0.898031 0.500000
O O10 0.292645 0.812512 0.369732
O O11 0.238574 0.900516 0.417321
O O12 0.000000 0.888627 0.000000
O O13 0.897144 0.737365 0.706922
O O14 0.400138 0.723535 0.263695
O O15 0.000000 0.011891 0.500000
O O16 0.072631 0.962350 0.401678
O O17 0.761431 0.702329 0.082683
O O18 0.000000 0.714217 0.500000
O O19 0.500000 0.704814 0.000000
#
# Coordination Sequence:
#
# PCOD9122621 Si02
#       8
#     4   4   4   4   4   4   4   4
#     4  10  22  40  60  82 105 135 183 239 288 327
#     4  10  20  35  53  80 114 149 186 220 259 320
#     4  11  21  34  53  82 119 151 181 218 265 328
#     4  10  20  35  53  80 114 149 186 220 259 320
#     4  10  22  40  60  82 105 135 183 239 288 327
#     4  11  21  37  59  81 111 150 187 225 276 330
#     4  11  21  34  53  82 119 151 181 218 265 328
#     4  11  21  37  59  81 111 150 187 225 276 330
#
# _framework density 19.331033999999999
#
# number of rings (size 3 to 8) (size 9 to 14) (size 15 to 20)
#    0.000    1.500    0.000    9.000    0.000    3.000 
#    0.000    0.000    0.000    4.500    0.000    0.000 
#    0.000    0.000    0.000    0.000    0.000    0.000 
#
# Total GULP energy -89373.483900 kJ/mol
# GULP energy per Si atom -5585.842744 kJ/mol
# Density = 1.928704 g / cm^3
# Si number density = 19.331034 Si / 1000 Ang^3
#
#
#
# Elastic Constant Matrix: (Units=GPa)
#
#
# Indices 1 2 3 4 5 6 
#
# 1 64.1651 42.5673 33.5250 -0.0007 29.2276 -0.0013
# 2 42.5673 81.5852 3.2052 0.0012 20.4370 -0.0003
# 3 33.5250 3.2052 109.6200 0.0056 27.5915 -0.0033
# 4 -0.0007 0.0012 0.0056 26.4103 0.0009 14.6976
# 5 29.2276 20.4370 27.5915 0.0009 31.7981 -0.0018
# 6 -0.0013 -0.0003 -0.0033 14.6976 -0.0018 32.1811
#
#
#
# Elastic Compliance Matrix: (Units=1/GPa)
#
#
# Indices 1 2 3 4 5 6 
#
# 1 0.037142 -0.014166 -0.005941 0.000005 -0.019880 -0.000003
# 2 -0.014166 0.020557 0.004836 -0.000003 -0.004388 0.000001
# 3 -0.005941 0.004836 0.013058 -0.000004 -0.008977 0.000003
# 4 0.000005 -0.000003 -0.000004 0.050767 -0.000002 -0.023186
# 5 -0.019880 -0.004388 -0.008977 -0.000002 0.060331 0.000003
# 6 -0.000003 0.000001 0.000003 -0.023186 0.000003 0.041664
#
#
# Mechanical properties :
#
#
# Convention : Reuss Voigt Hill
#
# Bulk Modulus (GPa) = 24.86667 45.99614 35.43141
# Shear Modulus (GPa) = 18.69401 29.81608 24.25504
#
# Velocity S-wave (km/s) = 3.11311 3.93159 3.54605
# Velocity P-wave (km/s) = 5.08070 6.66750 5.92743
#
# Compressibility (1/GPa) = 0.04021446
#
# Stress axis : x y z
#
# Youngs Moduli (GPa) = 26.92386 48.64469 76.58386
#
# Poissons Ratio (x) = 0.68908 0.45499
# Poissons Ratio (y) = 0.38139 -0.37033
# Poissons Ratio (z) = 0.15996 -0.23523
#
# Static dielectric constant tensor:
#      x y z
#    x 1.664290 0.000000 0.001160 
#    y 0.000000 1.668150 0.000000 
#    z 0.001160 0.000000 1.679400 
# 
# From -- ./inp_files/55029.got.cif
#   From: 2010.05.17/outbox.cif.g08.bks.cpg/sg5_28_cif.got.tgz:55029.got - 2010.06.03 18:56:24.
