data_PCOD9122258
_publ_section_title
;
Structure prediction by ZEFSAII (Michael W. Deem and Ramdas Pophale) SiO2 
 PCOD9122258
Probable space group: C 2
;
_chemical_formula_sum "Si O2"
_cell_formula_units_Z 32
_cell_length_a 11.941454
_cell_length_b 16.081754
_cell_length_c 17.488984
_cell_angle_alpha 90.000000
_cell_angle_beta 149.654848
_cell_angle_gamma 90.000000
_cell_volume 1696.779113
_symmetry_space_group_name_H-M "C 2"
_symmetry_group_IT_number 5
_symmetry_cell_setting 'monoclinic'
loop_
_space_group_symop_operation_xyz
x,y,z
-x,y,-z
1/2+x,1/2+y,z
1/2-x,1/2+y,-z
loop_
_atom_site_type_symbol
_atom_site_label
_atom_site_fract_x
_atom_site_fract_y
_atom_site_fract_z
Si Si1 0.938246 0.058360 0.699928
Si Si2 0.300909 0.975800 0.824548
Si Si3 0.204949 0.452639 0.679010
Si Si4 0.614154 0.277503 0.182949
Si Si5 0.748432 0.862603 0.353466
Si Si6 0.756240 0.612530 0.674028
Si Si7 0.647434 0.739417 0.836247
Si Si8 0.104205 0.511299 0.375873
O O1 0.745238 0.060740 0.522690
O O2 0.070010 0.143857 0.785954
O O3 0.836269 0.028912 0.719418
O O4 0.089418 0.984999 0.754423
O O5 0.291421 0.908370 0.751409
O O6 0.307780 0.064031 0.783003
O O7 0.500000 0.963950 0.000000
O O8 0.355453 0.371361 0.772425
O O9 0.000000 0.435415 0.500000
O O10 0.105629 0.475684 0.702947
O O11 0.710847 0.209934 0.297995
O O12 0.761522 0.266698 0.193119
O O13 0.360546 0.253866 0.015585
O O14 0.560730 0.794998 0.260308
O O15 0.000000 0.829746 0.500000
O O16 0.728089 0.933763 0.407495
O O17 0.500000 0.593572 0.500000
O O18 0.921451 0.574902 0.708680
#
# Coordination Sequence:
#
# PCOD9122258 Si02
#       8
#     4   4   4   4   4   4   4   4
#     4  11  21  40  61  92 129 162 210 260 317 381
#     4  11  21  35  63  93 121 161 207 259 316 376
#     4  10  23  38  65  92 131 165 210 267 326 376
#     4  11  22  41  59  97 127 171 212 264 315 383
#     4  11  22  41  67  92 125 165 217 267 317 381
#     4  11  19  36  67  93 124 164 221 265 306 375
#     4  11  24  40  62  92 132 166 216 260 326 382
#     4  10  19  40  62  97 118 163 213 264 313 382
#
# _framework density 18.859262000000001
#
# number of rings (size 3 to 8) (size 9 to 14) (size 15 to 20)
#    0.000    1.250    5.000    1.875    1.750    1.500 
#    0.000    1.250    0.000    0.000    0.000    0.000 
#    0.000    0.000    0.000    0.000    0.000    0.000 
#
# Total GULP energy -89283.609909 kJ/mol
# GULP energy per Si atom -5580.225619 kJ/mol
# Density = 1.881634 g / cm^3
# Si number density = 18.859262 Si / 1000 Ang^3
#
#
#
# Elastic Constant Matrix: (Units=GPa)
#
#
# Indices 1 2 3 4 5 6 
#
# 1 103.9305 36.0506 38.6193 0.0042 11.3086 -0.0002
# 2 36.0506 80.2865 49.8649 0.0033 6.7328 0.0011
# 3 38.6193 49.8649 80.8157 0.0070 5.3571 -0.0002
# 4 0.0042 0.0033 0.0070 18.3037 0.0038 7.5212
# 5 11.3086 6.7328 5.3571 0.0038 21.5491 -0.0004
# 6 -0.0002 0.0011 -0.0002 7.5212 -0.0004 29.0799
#
#
#
# Elastic Compliance Matrix: (Units=1/GPa)
#
#
# Indices 1 2 3 4 5 6 
#
# 1 0.012582 -0.002777 -0.003985 0.000000 -0.004745 0.000000
# 2 -0.002777 0.021036 -0.011503 0.000002 -0.002256 -0.000001
# 3 -0.003985 -0.011503 0.021350 -0.000006 0.000377 0.000002
# 4 0.000000 0.000002 -0.000006 0.061131 -0.000010 -0.015811
# 5 -0.004745 -0.002256 0.000377 -0.000010 0.049506 0.000003
# 6 0.000000 -0.000001 0.000002 -0.015811 0.000003 0.038477
#
#
# Mechanical properties :
#
#
# Convention : Reuss Voigt Hill
#
# Bulk Modulus (GPa) = 54.23219 57.12247 55.67733
# Shear Modulus (GPa) = 20.26276 23.15308 21.70792
#
# Velocity S-wave (km/s) = 3.28139 3.50762 3.39639
# Velocity P-wave (km/s) = 6.57080 6.83806 6.70576
#
# Compressibility (1/GPa) = 0.01843923
#
# Stress axis : x y z
#
# Youngs Moduli (GPa) = 79.47908 47.53802 46.83737
#
# Poissons Ratio (x) = 0.13201 0.18663
# Poissons Ratio (y) = 0.22071 0.53877
# Poissons Ratio (z) = 0.31669 0.54683
#
# Static dielectric constant tensor:
#      x y z
#    x 1.701120 0.000000 -0.036520 
#    y 0.000000 1.636890 0.000000 
#    z -0.036520 0.000000 1.727460 
# 
# From -- ./inp_files/60709.got.cif
#   From: 2010.05.17/outbox.cif.g08.bks.cpg/sg5_31_cif.got.tgz:60709.got - 2010.06.03 18:56:24.
