data_PCOD9122414
_publ_section_title
;
Structure prediction by ZEFSAII (Michael W. Deem and Ramdas Pophale) SiO2 
 PCOD9122414
Probable space group: C 2
;
_chemical_formula_sum "Si O2"
_cell_formula_units_Z 32
_cell_length_a 18.919023
_cell_length_b 20.884155
_cell_length_c 8.407694
_cell_angle_alpha 90.000000
_cell_angle_beta 31.081796
_cell_angle_gamma 90.000000
_cell_volume 1714.991763
_symmetry_space_group_name_H-M "C 2"
_symmetry_group_IT_number 5
_symmetry_cell_setting 'monoclinic'
loop_
_space_group_symop_operation_xyz
x,y,z
-x,y,-z
1/2+x,1/2+y,z
1/2-x,1/2+y,-z
loop_
_atom_site_type_symbol
_atom_site_label
_atom_site_fract_x
_atom_site_fract_y
_atom_site_fract_z
Si Si1 0.156917 0.562750 0.730021
Si Si2 0.841049 0.318456 0.250032
Si Si3 0.560071 0.889071 0.232578
Si Si4 0.252609 0.504760 0.868988
Si Si5 0.890137 0.103249 0.842336
Si Si6 0.287699 0.932134 0.573930
Si Si7 0.155789 0.174365 0.767820
Si Si8 0.985868 0.982872 0.835645
O O1 0.182178 0.544902 0.863765
O O2 0.191339 0.498094 0.564215
O O3 0.255047 0.620063 0.488982
O O4 0.000000 0.579021 0.000000
O O5 0.765688 0.372308 0.498487
O O6 0.790548 0.246301 0.364367
O O7 0.851022 0.344418 0.052094
O O8 0.000000 0.317944 0.000000
O O9 0.500000 0.853140 0.500000
O O10 0.430050 0.916895 0.386461
O O11 0.649816 0.949112 0.116801
O O12 0.293802 0.554548 0.927975
O O13 0.383498 0.471020 0.528998
O O14 0.000000 0.125577 0.500000
O O15 0.958287 0.056527 0.842393
O O16 0.836073 0.159283 0.058452
O O17 0.150880 0.942835 0.940530
O O18 0.000000 0.172347 0.000000
O O19 0.000000 0.976480 0.000000
#
# Coordination Sequence:
#
# PCOD9122414 Si02
#       8
#     4   4   4   4   4   4   4   4
#     4  12  21  36  59  85 118 145 188 247 286 337
#     4   9  20  38  58  82 113 153 195 234 277 342
#     4  11  21  35  56  86 116 151 188 230 293 342
#     4  11  21  33  53  87 118 144 184 239 291 335
#     4  10  20  31  50  84 117 140 184 235 286 330
#     4  11  19  37  59  85 113 148 191 241 284 336
#     4  11  22  39  60  82 115 156 196 234 281 342
#     4  11  18  31  54  80 110 146 184 235 285 326
#
# _framework density 18.658981000000001
#
# number of rings (size 3 to 8) (size 9 to 14) (size 15 to 20)
#    0.000    1.250    5.000    3.000    0.000    0.500 
#    0.000    3.125    0.000    0.000    0.000    7.000 
#    0.000    0.000    0.000    0.000    0.000    0.000 
#
# Total GULP energy -89223.250212 kJ/mol
# GULP energy per Si atom -5576.453138 kJ/mol
# Density = 1.861651 g / cm^3
# Si number density = 18.658981 Si / 1000 Ang^3
#
#
#
# Elastic Constant Matrix: (Units=GPa)
#
#
# Indices 1 2 3 4 5 6 
#
# 1 66.8059 18.1121 14.0571 0.0001 0.9891 -0.0001
# 2 18.1121 108.5405 32.5484 0.0001 4.1568 -0.0001
# 3 14.0571 32.5484 71.0694 0.0002 -5.2670 -0.0001
# 4 0.0001 0.0001 0.0002 23.8904 -0.0001 0.6341
# 5 0.9891 4.1568 -5.2670 -0.0001 29.2447 0.0001
# 6 -0.0001 -0.0001 -0.0001 0.6341 0.0001 11.4713
#
#
#
# Elastic Compliance Matrix: (Units=1/GPa)
#
#
# Indices 1 2 3 4 5 6 
#
# 1 0.015995 -0.001946 -0.002323 0.000000 -0.000683 0.000000
# 2 -0.001946 0.011090 -0.004871 0.000000 -0.002388 0.000000
# 3 -0.002323 -0.004871 0.017046 0.000000 0.003841 0.000000
# 4 0.000000 0.000000 0.000000 0.041919 0.000000 -0.002317
# 5 -0.000683 -0.002388 0.003841 0.000000 0.035249 0.000000
# 6 0.000000 0.000000 0.000000 -0.002317 0.000000 0.087302
#
#
# Mechanical properties :
#
#
# Convention : Reuss Voigt Hill
#
# Bulk Modulus (GPa) = 38.68417 41.76122 40.22269
# Shear Modulus (GPa) = 21.23153 25.03448 23.13300
#
# Velocity S-wave (km/s) = 3.37689 3.66688 3.52487
# Velocity P-wave (km/s) = 5.99848 6.35278 6.17817
#
# Compressibility (1/GPa) = 0.02585037
#
# Stress axis : x y z
#
# Youngs Moduli (GPa) = 62.51819 90.17071 58.66580
#
# Poissons Ratio (x) = 0.17551 0.13628
# Poissons Ratio (y) = 0.12168 0.28576
# Poissons Ratio (z) = 0.14523 0.43922
#
# Static dielectric constant tensor:
#      x y z
#    x 1.703950 0.000000 0.002030 
#    y 0.000000 1.631570 0.000000 
#    z 0.002030 0.000000 1.693800 
# 
# From -- ./inp_files/30064.got.cif
#   From: 2010.05.17/outbox.cif.g08.bks.cpg/sg5_16_cif.got.tgz:30064.got - 2010.06.03 18:56:24.
