data_PCOD9122903
_publ_section_title
;
Structure prediction by ZEFSAII (Michael W. Deem and Ramdas Pophale) SiO2 
 PCOD9122903
Probable space group: C 2
;
_chemical_formula_sum "Si O2"
_cell_formula_units_Z 28
_cell_length_a 13.818416
_cell_length_b 16.227944
_cell_length_c 8.865099
_cell_angle_alpha 90.000000
_cell_angle_beta 148.075272
_cell_angle_gamma 90.000000
_cell_volume 1051.237030
_symmetry_space_group_name_H-M "C 2"
_symmetry_group_IT_number 5
_symmetry_cell_setting 'monoclinic'
loop_
_space_group_symop_operation_xyz
x,y,z
-x,y,-z
1/2+x,1/2+y,z
1/2-x,1/2+y,-z
loop_
_atom_site_type_symbol
_atom_site_label
_atom_site_fract_x
_atom_site_fract_y
_atom_site_fract_z
Si Si1 0.642118 0.047630 0.570470
Si Si2 0.309967 0.799230 0.829121
Si Si3 0.431067 0.123747 0.055879
Si Si4 0.135020 0.015722 0.542225
Si Si5 0.993368 0.362625 0.657586
Si Si6 0.359496 0.633770 0.069061
Si Si7 0.872428 0.858566 0.681002
O O1 0.500000 0.088269 0.500000
O O2 0.816296 0.053315 0.906148
O O3 0.566561 0.957436 0.439113
O O4 0.616676 0.100092 0.388763
O O5 0.345924 0.707750 0.935157
O O6 0.133984 0.807171 0.487373
O O7 0.500000 0.828143 0.000000
O O8 0.323577 0.851546 0.003036
O O9 0.332998 0.039128 0.869402
O O10 0.500000 0.172501 0.000000
O O11 0.280586 0.153038 0.978565
O O12 0.000000 0.987000 0.500000
O O13 0.142865 0.949721 0.417095
O O14 0.051077 0.105233 0.388513
O O15 0.816317 0.324356 0.500009
O O16 0.000000 0.326522 0.500000
O O17 0.000000 0.862206 0.000000
#
# Coordination Sequence:
#
# PCOD9122903 Si02
#       7
#     4   4   4   4   4   4   4
#     4   9  18  35  60  90 123 163 211 258 311 378
#     4  10  24  44  65  91 134 180 218 266 336 402
#     4  10  20  36  62  98 131 164 212 270 326 388
#     4  10  22  40  68 100 132 169 218 273 329 390
#     4  10  21  40  66  93 127 175 221 262 323 405
#     4  10  22  42  65  94 130 172 214 267 329 387
#     4  11  23  41  66  98 129 171 226 278 326 384
#
# _framework density 26.635287999999999
#
# number of rings (size 3 to 8) (size 9 to 14) (size 15 to 20)
#    0.000    2.000    0.000    2.571    0.000    9.143 
#    0.000   11.429    0.000    0.000    0.000    0.000 
#    0.000    0.000    0.000    0.000    0.000    0.000 
#
# Total GULP energy -78004.654383 kJ/mol
# GULP energy per Si atom -5571.761027 kJ/mol
# Density = 2.657467 g / cm^3
# Si number density = 26.635288 Si / 1000 Ang^3
#
#
#
# Elastic Constant Matrix: (Units=GPa)
#
#
# Indices 1 2 3 4 5 6 
#
# 1 108.9253 6.5386 39.7204 0.0000 -16.8853 0.0000
# 2 6.5386 86.7075 23.3824 0.0000 -15.2361 0.0000
# 3 39.7204 23.3824 146.6403 0.0000 -39.6472 0.0000
# 4 0.0000 0.0000 0.0000 35.5571 0.0000 -12.4893
# 5 -16.8853 -15.2361 -39.6472 0.0000 47.8813 0.0000
# 6 0.0000 0.0000 0.0000 -12.4893 0.0000 20.8812
#
#
#
# Elastic Compliance Matrix: (Units=1/GPa)
#
#
# Indices 1 2 3 4 5 6 
#
# 1 0.010295 0.000162 -0.002344 0.000000 0.001742 0.000000
# 2 0.000162 0.012373 -0.001207 0.000000 0.002995 0.000000
# 3 -0.002344 -0.001207 0.009431 0.000000 0.006598 0.000000
# 4 0.000000 0.000000 0.000000 0.035603 0.000000 0.021295
# 5 0.001742 0.002995 0.006598 0.000000 0.027916 0.000000
# 6 0.000000 0.000000 0.000000 0.021295 0.000000 0.060627
#
#
# Mechanical properties :
#
#
# Convention : Reuss Voigt Hill
#
# Bulk Modulus (GPa) = 39.49334 53.50623 46.49979
# Shear Modulus (GPa) = 29.16088 39.03938 34.10013
#
# Velocity S-wave (km/s) = 3.31240 3.83260 3.58196
# Velocity P-wave (km/s) = 5.43037 6.30216 5.88244
#
# Compressibility (1/GPa) = 0.02532072
#
# Stress axis : x y z
#
# Youngs Moduli (GPa) = 97.12984 80.82418 106.03679
#
# Poissons Ratio (x) = -0.01306 0.24851
# Poissons Ratio (y) = -0.01570 0.12799
# Poissons Ratio (z) = 0.22764 0.09755
#
# Static dielectric constant tensor:
#      x y z
#    x 2.241870 0.000000 -0.081230 
#    y 0.000000 2.159350 0.000000 
#    z -0.081230 0.000000 2.275150 
# 
# From -- ./inp_files/25514.got.cif
#   From: 2010.05.17/outbox.cif.g08.bks.cpg/sg5_13_cif.got.tgz:25514.got - 2010.06.03 18:56:24.
