data_PCOD9122048
_publ_section_title
;
Structure prediction by ZEFSAII (Michael W. Deem and Ramdas Pophale) SiO2 
 PCOD9122048
Probable space group: C 2
;
_chemical_formula_sum "Si O2"
_cell_formula_units_Z 26
_cell_length_a 15.126504
_cell_length_b 4.959112
_cell_length_c 22.342774
_cell_angle_alpha 90.000000
_cell_angle_beta 37.833749
_cell_angle_gamma 90.000000
_cell_volume 1028.025263
_symmetry_space_group_name_H-M "C 2"
_symmetry_group_IT_number 5
_symmetry_cell_setting 'monoclinic'
loop_
_space_group_symop_operation_xyz
x,y,z
-x,y,-z
1/2+x,1/2+y,z
1/2-x,1/2+y,-z
loop_
_atom_site_type_symbol
_atom_site_label
_atom_site_fract_x
_atom_site_fract_y
_atom_site_fract_z
Si Si1 0.392335 0.302470 0.167102
Si Si2 0.299079 0.503892 0.846960
Si Si3 0.500000 0.925351 0.000000
Si Si4 0.573054 0.195544 0.720830
Si Si5 0.085725 0.366263 0.301629
Si Si6 0.797915 0.420544 0.510061
Si Si7 0.806521 0.926907 0.005465
O O1 0.442803 0.106487 0.085997
O O2 0.383940 0.135488 0.233763
O O3 0.243705 0.464813 0.236362
O O4 0.526414 0.506786 0.089663
O O5 0.444647 0.407363 0.799037
O O6 0.362500 0.568847 0.747232
O O7 0.248419 0.783768 0.904439
O O8 0.159437 0.310514 0.929582
O O9 0.709881 0.329422 0.614972
O O10 0.498483 0.997021 0.710904
O O11 0.968891 0.375756 0.416395
O O12 0.762944 0.725974 0.510318
O O13 0.787477 0.662159 0.972546
#
# Coordination Sequence:
#
# PCOD9122048 Si02
#       7
#     4   4   2   4   4   4   4
#     4  10  21  42  63  98 133 181 231 290 346 421
#     4  10  19  38  60  88 128 171 218 270 339 407
#     4   8  20  38  58  88 132 166 226 282 342 400
#     4  11  21  39  67  94 128 187 224 280 357 416
#     4  10  22  41  63  94 138 172 232 287 347 415
#     4  10  21  40  69  98 135 178 226 286 350 413
#     4  11  22  39  62  96 132 175 226 277 337 415
#
# _framework density 25.291208999999998
#
# number of rings (size 3 to 8) (size 9 to 14) (size 15 to 20)
#    0.000    1.846    3.077    0.923    0.000    0.615 
#    8.308    0.769    0.000    1.846    0.000    0.000 
#    0.000    0.000    0.000    0.000    0.000    0.000 
#
# Total GULP energy -72453.404641 kJ/mol
# GULP energy per Si atom -5573.338819 kJ/mol
# Density = 2.523364 g / cm^3
# Si number density = 25.291209 Si / 1000 Ang^3
#
#
#
# Elastic Constant Matrix: (Units=GPa)
#
#
# Indices 1 2 3 4 5 6 
#
# 1 88.8082 7.0772 68.9965 0.0181 1.7569 -0.0288
# 2 7.0772 67.9654 36.7832 0.0565 -5.2599 0.0641
# 3 68.9965 36.7832 239.3321 -0.0061 -23.5015 -0.0038
# 4 0.0181 0.0565 -0.0061 36.2382 0.0003 1.1021
# 5 1.7569 -5.2599 -23.5015 0.0003 51.4393 0.0107
# 6 -0.0288 0.0641 -0.0038 1.1021 0.0107 18.8667
#
#
#
# Elastic Compliance Matrix: (Units=1/GPa)
#
#
# Indices 1 2 3 4 5 6 
#
# 1 0.014866 0.000774 -0.004656 -0.000010 -0.002556 0.000021
# 2 0.000774 0.016103 -0.002658 -0.000024 0.000406 -0.000053
# 3 -0.004656 -0.002658 0.006196 0.000007 0.002718 0.000001
# 4 -0.000010 -0.000024 0.000007 0.027644 0.000001 -0.001615
# 5 -0.002556 0.000406 0.002718 0.000001 0.020811 -0.000017
# 6 0.000021 -0.000053 0.000001 -0.001615 -0.000017 0.053098
#
#
# Mechanical properties :
#
#
# Convention : Reuss Voigt Hill
#
# Bulk Modulus (GPa) = 41.51951 69.09108 55.30529
# Shear Modulus (GPa) = 31.28397 40.19210 35.73803
#
# Velocity S-wave (km/s) = 3.52085 3.99077 3.76315
# Velocity P-wave (km/s) = 5.74288 6.97227 6.38722
#
# Compressibility (1/GPa) = 0.02408506
#
# Stress axis : x y z
#
# Youngs Moduli (GPa) = 67.26694 62.10086 161.39766
#
# Poissons Ratio (x) = -0.04806 0.75141
# Poissons Ratio (y) = -0.05205 0.42901
# Poissons Ratio (z) = 0.31317 0.16507
#
# Static dielectric constant tensor:
#      x y z
#    x 2.376090 -0.000030 -0.030490 
#    y -0.000030 2.128760 0.000010 
#    z -0.030490 0.000010 1.989100 
# 
# From -- ./inp_files/70795.got.cif
#   From: 2010.05.17/outbox.cif.g08.bks.cpg/sg5_36_cif.got.tgz:70795.got - 2010.06.03 18:56:24.
