data_PCOD9122464
_publ_section_title
;
Structure prediction by ZEFSAII (Michael W. Deem and Ramdas Pophale) SiO2 
 PCOD9122464
Probable space group: C 2
;
_chemical_formula_sum "Si O2"
_cell_formula_units_Z 18
_cell_length_a 6.933480
_cell_length_b 13.880414
_cell_length_c 9.422634
_cell_angle_alpha 90.000000
_cell_angle_beta 56.471535
_cell_angle_gamma 90.000000
_cell_volume 755.944154
_symmetry_space_group_name_H-M "C 2"
_symmetry_group_IT_number 5
_symmetry_cell_setting 'monoclinic'
loop_
_space_group_symop_operation_xyz
x,y,z
-x,y,-z
1/2+x,1/2+y,z
1/2-x,1/2+y,-z
loop_
_atom_site_type_symbol
_atom_site_label
_atom_site_fract_x
_atom_site_fract_y
_atom_site_fract_z
Si Si1 0.000000 0.888541 0.000000
Si Si2 0.467188 0.904336 0.681045
Si Si3 0.490459 0.686003 0.778144
Si Si4 0.124405 0.708994 0.134589
Si Si5 0.811443 0.588051 0.445100
O O1 0.220563 0.942848 0.843384
O O2 0.917924 0.817151 0.905571
O O3 0.500000 0.894032 0.500000
O O4 0.479856 0.796335 0.731383
O O5 0.659959 0.983977 0.638826
O O6 0.686041 0.695385 0.819947
O O7 0.578203 0.615728 0.619921
O O8 0.248900 0.658604 0.949855
O O9 0.894620 0.667417 0.298859
O O10 0.000000 0.588961 0.500000
#
# Coordination Sequence:
#
# PCOD9122464 Si02
#       5
#     2   4   4   4   4
#     4  10  20  34  54  78 106 138 172 218 262 306
#     4  10  20  33  55  81 106 137 174 214 259 310
#     4   9  18  34  55  76 105 141 173 211 258 309
#     4   9  18  34  54  74 102 140 174 212 261 306
#     4   9  18  32  53  77 103 135 173 213 256 309
#
# _framework density 23.811281999999999
#
# number of rings (size 3 to 8) (size 9 to 14) (size 15 to 20)
#    0.000    2.667    0.000    1.333    0.000    5.333 
#    0.000    4.444    0.000   41.333    0.000    0.000 
#    0.000    0.000    0.000    0.000    0.000    0.000 
#
# Total GULP energy -50227.684302 kJ/mol
# GULP energy per Si atom -5580.853811 kJ/mol
# Density = 2.375709 g / cm^3
# Si number density = 23.811282 Si / 1000 Ang^3
#
#
#
# Elastic Constant Matrix: (Units=GPa)
#
#
# Indices 1 2 3 4 5 6 
#
# 1 67.3914 7.0903 41.5172 0.0000 -16.5464 0.0000
# 2 7.0903 78.9937 58.3270 0.0000 -13.7391 0.0000
# 3 41.5172 58.3270 197.4617 0.0000 -30.9652 0.0000
# 4 0.0000 0.0000 0.0000 9.5566 0.0000 -13.2362
# 5 -16.5464 -13.7391 -30.9652 0.0000 48.1164 0.0000
# 6 0.0000 0.0000 0.0000 -13.2362 0.0000 21.9501
#
#
#
# Elastic Compliance Matrix: (Units=1/GPa)
#
#
# Indices 1 2 3 4 5 6 
#
# 1 0.017954 0.001828 -0.003631 0.000000 0.004359 0.000000
# 2 0.001828 0.016505 -0.004918 0.000000 0.002176 0.000000
# 3 -0.003631 -0.004918 0.007635 0.000000 0.002260 0.000000
# 4 0.000000 0.000000 0.000000 0.634950 0.000000 0.382884
# 5 0.004359 0.002176 0.002260 0.000000 0.024358 0.000000
# 6 0.000000 0.000000 0.000000 0.382884 0.000000 0.276442
#
#
# Mechanical properties :
#
#
# Convention : Reuss Voigt Hill
#
# Bulk Modulus (GPa) = 34.90339 61.96840 48.43590
# Shear Modulus (GPa) = 4.99581 31.71877 18.35729
#
# Velocity S-wave (km/s) = 1.45005 3.65374 2.77961
# Velocity P-wave (km/s) = 4.18255 6.62428 5.53962
#
# Compressibility (1/GPa) = 0.02865051
#
# Stress axis : x y z
#
# Youngs Moduli (GPa) = 55.69887 60.58641 130.97494
#
# Poissons Ratio (x) = -0.11074 0.47560
# Poissons Ratio (y) = -0.10181 0.64419
# Poissons Ratio (z) = 0.20225 0.29799
#
# Static dielectric constant tensor:
#      x y z
#    x 2.006320 0.000000 -0.017650 
#    y 0.000000 1.912870 0.000000 
#    z -0.017650 0.000000 1.904310 
# 
# From -- ./inp_files/14054.got.cif
#   From: 2010.05.17/outbox.cif.g08.bks.cpg/sg5_8_cif.got.tgz:14054.got - 2010.06.03 18:56:24.
