data_PCOD9122238
_publ_section_title
;
Structure prediction by ZEFSAII (Michael W. Deem and Ramdas Pophale) SiO2 
 PCOD9122238
Probable space group: C 2
;
_chemical_formula_sum "Si O2"
_cell_formula_units_Z 22
_cell_length_a 5.034540
_cell_length_b 24.100440
_cell_length_c 7.585135
_cell_angle_alpha 90.000000
_cell_angle_beta 101.368593
_cell_angle_gamma 90.000000
_cell_volume 902.281905
_symmetry_space_group_name_H-M "C 2"
_symmetry_group_IT_number 5
_symmetry_cell_setting 'monoclinic'
loop_
_space_group_symop_operation_xyz
x,y,z
-x,y,-z
1/2+x,1/2+y,z
1/2-x,1/2+y,-z
loop_
_atom_site_type_symbol
_atom_site_label
_atom_site_fract_x
_atom_site_fract_y
_atom_site_fract_z
Si Si1 0.928865 0.489880 0.199701
Si Si2 0.356510 0.749408 0.173173
Si Si3 0.239521 0.091394 0.675414
Si Si4 0.207213 0.371799 0.865620
Si Si5 0.608146 0.195313 0.691968
Si Si6 0.000000 0.068308 0.000000
O O1 0.854046 0.428122 0.249842
O O2 0.153731 0.527643 0.322630
O O3 0.668175 0.528726 0.151752
O O4 0.000000 0.485664 0.000000
O O5 0.338848 0.813142 0.235890
O O6 0.060466 0.725786 0.177762
O O7 0.573942 0.706449 0.281548
O O8 0.500000 0.753285 0.000000
O O9 0.495594 0.132628 0.682031
O O10 0.000000 0.099973 0.500000
O O11 0.167450 0.101149 0.874807
O O12 0.500000 0.373757 0.000000
O O13 0.000000 0.371761 0.000000
O O14 0.500000 0.222176 0.500000
#
# Coordination Sequence:
#
# PCOD9122238 Si02
#       6
#     4   4   4   4   4   2
#     4   9  20  38  67 104 139 184 232 295 360 434
#     4  11  24  43  73 105 131 181 245 297 345 433
#     4  11  26  44  69 102 145 197 239 300 364 434
#     4  10  19  39  70 104 141 177 231 298 362 419
#     4  12  27  47  66  95 145 190 232 297 367 420
#     4  10  22  42  70 106 140 186 242 292 362 442
#
# _framework density 24.382622000000001
#
# number of rings (size 3 to 8) (size 9 to 14) (size 15 to 20)
#    0.000    1.455    0.909    4.364    6.364    2.909 
#    0.000    0.909    4.000    0.000    0.000    0.000 
#    0.000    0.000    0.000    0.000    0.000    0.000 
#
# Total GULP energy -61341.601853 kJ/mol
# GULP energy per Si atom -5576.509259 kJ/mol
# Density = 2.432713 g / cm^3
# Si number density = 24.382622 Si / 1000 Ang^3
#
#
#
# Elastic Constant Matrix: (Units=GPa)
#
#
# Indices 1 2 3 4 5 6 
#
# 1 133.3487 38.5698 21.2429 0.0000 6.5690 0.0000
# 2 38.5698 190.5602 37.0627 0.0000 15.3834 0.0000
# 3 21.2429 37.0627 81.6352 0.0000 -2.7996 0.0000
# 4 0.0000 0.0000 0.0000 9.1133 0.0000 20.5396
# 5 6.5690 15.3834 -2.7996 0.0000 42.3680 0.0000
# 6 0.0000 0.0000 0.0000 20.5396 0.0000 -12.7806
#
#
#
# Elastic Compliance Matrix: (Units=1/GPa)
#
#
# Indices 1 2 3 4 5 6 
#
# 1 0.008163 -0.001272 -0.001578 0.000000 -0.000908 0.000000
# 2 -0.001272 0.006180 -0.002551 0.000000 -0.002215 0.000000
# 3 -0.001578 -0.002551 0.013890 0.000000 0.002089 0.000000
# 4 0.000000 0.000000 0.000000 0.023740 0.000000 0.038153
# 5 -0.000908 -0.002215 0.002089 0.000000 0.024686 0.000000
# 6 0.000000 0.000000 0.000000 0.038153 0.000000 -0.016928
#
#
# Mechanical properties :
#
#
# Convention : Reuss Voigt Hill
#
# Bulk Modulus (GPa) = 57.36619 66.58833 61.97726
# Shear Modulus (GPa) = 65.49391 28.31805 46.90598
#
# Velocity S-wave (km/s) = 5.18837 3.41163 4.39081
# Velocity P-wave (km/s) = 7.71173 6.54890 7.15398
#
# Compressibility (1/GPa) = 0.01743187
#
# Stress axis : x y z
#
# Youngs Moduli (GPa) = 122.50174 161.81005 71.99491
#
# Poissons Ratio (x) = 0.20583 0.11359
# Poissons Ratio (y) = 0.15583 0.18364
# Poissons Ratio (z) = 0.19329 0.41274
#
# Static dielectric constant tensor:
#      x y z
#    x 2.023840 0.000000 0.002850 
#    y 0.000000 2.012410 0.000000 
#    z 0.002850 0.000000 1.974190 
# 
# From -- ./inp_files/12899.got.cif
#   From: 2010.05.17/outbox.cif.g08.bks.cpg/sg5_7_cif.got.tgz:12899.got - 2010.06.03 18:56:24.
