data_PCOD9122935
_publ_section_title
;
Structure prediction by ZEFSAII (Michael W. Deem and Ramdas Pophale) SiO2 
 PCOD9122935
Probable space group: C 2
;
_chemical_formula_sum "Si O2"
_cell_formula_units_Z 28
_cell_length_a 5.519414
_cell_length_b 30.500655
_cell_length_c 7.977724
_cell_angle_alpha 90.000000
_cell_angle_beta 61.213095
_cell_angle_gamma 90.000000
_cell_volume 1177.041619
_symmetry_space_group_name_H-M "C 2"
_symmetry_group_IT_number 5
_symmetry_cell_setting 'monoclinic'
loop_
_space_group_symop_operation_xyz
x,y,z
-x,y,-z
1/2+x,1/2+y,z
1/2-x,1/2+y,-z
loop_
_atom_site_type_symbol
_atom_site_label
_atom_site_fract_x
_atom_site_fract_y
_atom_site_fract_z
Si Si1 0.697658 0.850850 0.288215
Si Si2 0.841140 0.950018 0.230467
Si Si3 0.977025 0.130649 0.188232
Si Si4 0.286592 0.317916 0.730170
Si Si5 0.000000 0.688400 0.000000
Si Si6 0.156732 0.500072 0.770099
Si Si7 0.335902 0.222162 0.725441
Si Si8 0.000000 0.075377 0.500000
O O1 0.500000 0.831115 0.500000
O O2 0.765270 0.901113 0.309282
O O3 0.483297 0.847899 0.204839
O O4 0.997443 0.828289 0.193264
O O5 0.559761 0.976184 0.281099
O O6 0.061637 0.973148 0.280228
O O7 0.000000 0.946151 0.000000
O O8 0.799988 0.174422 0.217572
O O9 0.892821 0.103400 0.377708
O O10 0.000000 0.106394 0.000000
O O11 0.265715 0.153730 0.128158
O O12 0.500000 0.322639 0.500000
O O13 0.175592 0.268005 0.774627
O O14 0.999363 0.721056 0.843173
O O15 0.258233 0.545141 0.655095
O O16 0.000000 0.506850 0.000000
O O17 0.500000 0.222140 0.500000
#
# Coordination Sequence:
#
# PCOD9122935 Si02
#       8
#     4   4   4   4   2   4   4   2
#     4  10  20  36  64  97 132 177 233 291 337 419
#     4  10  22  45  66  96 141 182 223 286 367 421
#     4  10  24  45  66 101 141 184 232 299 351 432
#     4   9  20  36  60  99 134 177 235 291 335 405
#     4  10  22  42  66  96 136 188 224 302 342 420
#     4  10  25  45  70 103 142 180 234 304 353 438
#     4  10  21  41  67  94 139 189 236 282 360 422
#     4  12  26  46  76 106 132 194 242 292 382 430
#
# _framework density 23.788451999999999
#
# number of rings (size 3 to 8) (size 9 to 14) (size 15 to 20)
#    0.000    2.000    0.000    1.714    5.000    1.714 
#   12.857    0.000    0.000    0.000    0.000    0.000 
#    0.000    0.000    0.000    0.000    0.000    0.000 
#
# Total GULP energy -78129.872789 kJ/mol
# GULP energy per Si atom -5580.705199 kJ/mol
# Density = 2.373431 g / cm^3
# Si number density = 23.788452 Si / 1000 Ang^3
#
#
#
# Elastic Constant Matrix: (Units=GPa)
#
#
# Indices 1 2 3 4 5 6 
#
# 1 140.6109 38.9915 45.5357 0.0000 -2.2498 0.0000
# 2 38.9915 99.0002 34.8582 0.0000 6.7653 0.0000
# 3 45.5357 34.8582 109.2623 0.0000 16.9873 0.0000
# 4 0.0000 0.0000 0.0000 -99.0537 0.0000 -116.3301
# 5 -2.2498 6.7653 16.9873 0.0000 27.3787 0.0000
# 6 0.0000 0.0000 0.0000 -116.3301 0.0000 -62.4284
#
#
#
# Elastic Compliance Matrix: (Units=1/GPa)
#
#
# Indices 1 2 3 4 5 6 
#
# 1 0.009008 -0.002562 -0.003487 0.000000 0.003537 0.000000
# 2 -0.002562 0.012117 -0.002545 0.000000 -0.001625 0.000000
# 3 -0.003487 -0.002545 0.012577 0.000000 -0.007461 0.000000
# 4 0.000000 0.000000 0.000000 0.008495 0.000000 -0.015830
# 5 0.003537 -0.001625 -0.007461 0.000000 0.041846 0.000000
# 6 0.000000 0.000000 0.000000 -0.015830 0.000000 0.013479
#
#
# Mechanical properties :
#
#
# Convention : Reuss Voigt Hill
#
# Bulk Modulus (GPa) = 60.55148 65.29380 62.92264
# Shear Modulus (GPa) = 41.59200 -11.52149 15.03525
#
# Velocity S-wave (km/s) = 4.18594 -2.20314 2.51677
# Velocity P-wave (km/s) = 6.99086 4.58645 5.91218
#
# Compressibility (1/GPa) = 0.01651487
#
# Stress axis : x y z
#
# Youngs Moduli (GPa) = 111.01338 82.52660 79.50722
#
# Poissons Ratio (x) = 0.21142 0.27721
# Poissons Ratio (y) = 0.28440 0.20238
# Poissons Ratio (z) = 0.38706 0.21007
#
# Static dielectric constant tensor:
#      x y z
#    x 4.059540 0.000000 0.488130 
#    y 0.000000 1.889100 0.000000 
#    z 0.488130 0.000000 2.016690 
# 
# From -- ./inp_files/13329.got.cif
#   From: 2010.05.17/outbox.cif.g08.bks.cpg/sg5_7_cif.got.tgz:13329.got - 2010.06.03 18:56:24.
