data_PCOD9122173
_publ_section_title
;
Structure prediction by ZEFSAII (Michael W. Deem and Ramdas Pophale) SiO2 
 PCOD9122173
Probable space group: C 2
;
_chemical_formula_sum "Si O2"
_cell_formula_units_Z 28
_cell_length_a 15.727527
_cell_length_b 10.501175
_cell_length_c 15.310337
_cell_angle_alpha 90.000000
_cell_angle_beta 147.431620
_cell_angle_gamma 90.000000
_cell_volume 1361.169238
_symmetry_space_group_name_H-M "C 2"
_symmetry_group_IT_number 5
_symmetry_cell_setting 'monoclinic'
loop_
_space_group_symop_operation_xyz
x,y,z
-x,y,-z
1/2+x,1/2+y,z
1/2-x,1/2+y,-z
loop_
_atom_site_type_symbol
_atom_site_label
_atom_site_fract_x
_atom_site_fract_y
_atom_site_fract_z
Si Si1 0.357705 0.400420 0.976133
Si Si2 0.040214 0.407057 0.781754
Si Si3 0.000000 0.819959 0.500000
Si Si4 0.702818 0.470620 0.272139
Si Si5 0.581703 0.151130 0.427860
Si Si6 0.808404 0.239731 0.482911
Si Si7 0.289876 0.994131 0.700096
Si Si8 0.500000 0.166463 0.000000
O O1 0.228675 0.397004 0.940326
O O2 0.285235 0.455773 0.822292
O O3 0.516848 0.478196 0.133330
O O4 0.422331 0.260647 0.004494
O O5 0.997859 0.537577 0.694107
O O6 0.969005 0.288726 0.665460
O O7 0.935555 0.422620 0.778149
O O8 0.796840 0.583638 0.399582
O O9 0.033004 0.732916 0.612486
O O10 0.767726 0.340175 0.371769
O O11 0.674720 0.242829 0.442094
O O12 0.654929 0.401099 0.615144
O O13 0.796423 0.096077 0.438515
O O14 0.367650 0.079220 0.842547
#
# Coordination Sequence:
#
# PCOD9122173 Si02
#       8
#     4   4   2   4   4   4   4   2
#     4  10  19  39  66  92 115 155 210 249 300 359
#     4  10  22  39  65  93 119 155 211 253 300 352
#     4  12  24  40  60  92 122 166 202 242 318 356
#     4   9  19  38  65  89 118 157 207 246 300 354
#     4  10  21  39  60  88 130 153 200 259 295 359
#     4  10  19  39  61  90 120 158 201 261 291 348
#     4  11  23  42  58  92 128 160 201 251 305 364
#     4  10  22  44  60  84 132 158 202 252 296 374
#
# _framework density 20.570549
#
# number of rings (size 3 to 8) (size 9 to 14) (size 15 to 20)
#    0.000    2.000    4.286    0.857    2.000    1.714 
#    5.143    2.857    0.000    0.000    0.000    0.000 
#    0.000    0.000    0.000    0.000    0.000    0.000 
#
# Total GULP energy -78143.153834 kJ/mol
# GULP energy per Si atom -5581.653845 kJ/mol
# Density = 2.052373 g / cm^3
# Si number density = 20.570549 Si / 1000 Ang^3
#
#
#
# Elastic Constant Matrix: (Units=GPa)
#
#
# Indices 1 2 3 4 5 6 
#
# 1 95.5502 33.0828 16.9671 0.0000 34.3647 0.0000
# 2 33.0828 53.7819 12.0429 0.0000 10.6539 0.0000
# 3 16.9671 12.0429 30.5452 0.0000 15.2751 0.0000
# 4 0.0000 0.0000 0.0000 11.6089 0.0000 8.2558
# 5 34.3647 10.6539 15.2751 0.0000 31.8591 0.0000
# 6 0.0000 0.0000 0.0000 8.2558 0.0000 26.6105
#
#
#
# Elastic Compliance Matrix: (Units=1/GPa)
#
#
# Indices 1 2 3 4 5 6 
#
# 1 0.020441 -0.009104 0.002287 0.000000 -0.020100 0.000000
# 2 -0.009104 0.024824 -0.007221 0.000000 0.004981 0.000000
# 3 0.002287 -0.007221 0.045172 0.000000 -0.021710 0.000000
# 4 0.000000 0.000000 0.000000 0.110526 0.000000 -0.034290
# 5 -0.020100 0.004981 -0.021710 0.000000 0.061813 0.000000
# 6 0.000000 0.000000 0.000000 -0.034290 0.000000 0.048218
#
#
# Mechanical properties :
#
#
# Convention : Reuss Voigt Hill
#
# Bulk Modulus (GPa) = 16.03580 33.78478 24.91029
# Shear Modulus (GPa) = 13.89443 21.86801 17.88122
#
# Velocity S-wave (km/s) = 2.60177 3.26402 2.95153
# Velocity P-wave (km/s) = 4.10342 5.53756 4.87353
#
# Compressibility (1/GPa) = 0.06236046
#
# Stress axis : x y z
#
# Youngs Moduli (GPa) = 48.92152 40.28357 22.13765
#
# Poissons Ratio (x) = 0.36674 -0.05063
# Poissons Ratio (y) = 0.44538 0.15986
# Poissons Ratio (z) = -0.11188 0.29089
#
# Static dielectric constant tensor:
#      x y z
#    x 1.772580 0.000000 -0.015360 
#    y 0.000000 1.734090 0.000000 
#    z -0.015360 0.000000 1.730260 
# 
# From -- ./inp_files/62267.got.cif
#   From: 2010.05.17/outbox.cif.g08.bks.cpg/sg5_32_cif.got.tgz:62267.got - 2010.06.03 18:56:24.
