data_PCOD9122226
_publ_section_title
;
Structure prediction by ZEFSAII (Michael W. Deem and Ramdas Pophale) SiO2 
 PCOD9122226
Probable space group: C 2
;
_chemical_formula_sum "Si O2"
_cell_formula_units_Z 24
_cell_length_a 9.551441
_cell_length_b 19.917945
_cell_length_c 8.036226
_cell_angle_alpha 90.000000
_cell_angle_beta 133.996062
_cell_angle_gamma 90.000000
_cell_volume 1099.837394
_symmetry_space_group_name_H-M "C 2"
_symmetry_group_IT_number 5
_symmetry_cell_setting 'monoclinic'
loop_
_space_group_symop_operation_xyz
x,y,z
-x,y,-z
1/2+x,1/2+y,z
1/2-x,1/2+y,-z
loop_
_atom_site_type_symbol
_atom_site_label
_atom_site_fract_x
_atom_site_fract_y
_atom_site_fract_z
Si Si1 0.269781 0.730570 0.803666
Si Si2 0.500000 0.998217 0.000000
Si Si3 0.500000 0.365320 0.000000
Si Si4 0.276515 0.608668 0.365529
Si Si5 0.717644 0.578138 0.243427
Si Si6 0.121858 0.443781 0.759322
Si Si7 0.590490 0.250666 0.300469
O O1 0.219972 0.651550 0.762870
O O2 0.195397 0.756477 0.564940
O O3 0.140269 0.755747 0.848553
O O4 0.500000 0.739672 0.000000
O O5 0.321071 0.051087 0.828749
O O6 0.519436 0.951062 0.853541
O O7 0.334683 0.410159 0.950576
O O8 0.375822 0.315233 0.782337
O O9 0.500000 0.621971 0.500000
O O10 0.275721 0.579504 0.552167
O O11 0.160706 0.679974 0.278663
O O12 0.839573 0.520524 0.261022
O O13 0.500000 0.569264 0.000000
O O14 0.000000 0.415530 0.500000
#
# Coordination Sequence:
#
# PCOD9122226 Si02
#       7
#     4   2   2   4   4   4   4
#     4   9  20  40  72 104 132 180 227 303 361 408
#     4  12  25  44  74 110 139 176 250 290 364 420
#     4  12  29  48  64  94 149 192 238 286 334 422
#     4  11  23  39  73 111 143 178 228 307 364 422
#     4  10  19  39  68 101 144 170 222 292 367 411
#     4  12  26  47  68 100 142 193 234 289 345 425
#     4  10  23  43  64 101 142 182 238 284 349 424
#
# _framework density 21.821404999999999
#
# number of rings (size 3 to 8) (size 9 to 14) (size 15 to 20)
#    0.000    1.333    2.500    2.500    2.333    8.667 
#    7.500    0.000    0.000    0.000    0.000    0.000 
#    0.000    0.000    0.000    0.000    0.000    0.000 
#
# Total GULP energy -67031.366384 kJ/mol
# GULP energy per Si atom -5585.947199 kJ/mol
# Density = 2.177174 g / cm^3
# Si number density = 21.821405 Si / 1000 Ang^3
#
#
#
# Elastic Constant Matrix: (Units=GPa)
#
#
# Indices 1 2 3 4 5 6 
#
# 1 116.7268 38.4196 33.1787 0.0000 3.5040 0.0000
# 2 38.4196 49.4308 37.8635 0.0000 -7.8508 0.0000
# 3 33.1787 37.8635 90.8241 0.0000 8.2124 0.0000
# 4 0.0000 0.0000 0.0000 -21.0809 0.0000 17.8879
# 5 3.5040 -7.8508 8.2124 0.0000 38.9850 0.0000
# 6 0.0000 0.0000 0.0000 17.8879 0.0000 14.1680
#
#
#
# Elastic Compliance Matrix: (Units=1/GPa)
#
#
# Indices 1 2 3 4 5 6 
#
# 1 0.011846 -0.009663 -0.000027 0.000000 -0.003005 0.000000
# 2 -0.009663 0.040863 -0.014606 0.000000 0.012174 0.000000
# 3 -0.000027 -0.014606 0.017712 0.000000 -0.006670 0.000000
# 4 0.000000 0.000000 0.000000 -0.022901 0.000000 0.028914
# 5 -0.003005 0.012174 -0.006670 0.000000 0.029778 0.000000
# 6 0.000000 0.000000 0.000000 0.028914 0.000000 0.034076
#
#
# Mechanical properties :
#
#
# Convention : Reuss Voigt Hill
#
# Bulk Modulus (GPa) = 45.81285 52.87837 49.34561
# Shear Modulus (GPa) = 29.89699 16.24907 23.07303
#
# Velocity S-wave (km/s) = 3.70547 2.73177 3.25523
# Velocity P-wave (km/s) = 6.27275 5.85107 6.06557
#
# Compressibility (1/GPa) = 0.02182794
#
# Stress axis : x y z
#
# Youngs Moduli (GPa) = 84.42010 24.47221 56.45796
#
# Poissons Ratio (x) = 0.23649 0.00152
# Poissons Ratio (y) = 0.81579 0.82462
# Poissons Ratio (z) = 0.00228 0.35744
#
# Static dielectric constant tensor:
#      x y z
#    x 1.842550 0.000000 -0.008350 
#    y 0.000000 1.769010 0.000000 
#    z -0.008350 0.000000 1.869190 
# 
# From -- ./inp_files/16884.got.cif
#   From: 2010.05.17/outbox.cif.g08.bks.cpg/sg5_9_cif.got.tgz:16884.got - 2010.06.03 18:56:24.
