data_PCOD9122404
_publ_section_title
;
Structure prediction by ZEFSAII (Michael W. Deem and Ramdas Pophale) SiO2 
 PCOD9122404
Probable space group: C 2
;
_chemical_formula_sum "Si O2"
_cell_formula_units_Z 26
_cell_length_a 20.672558
_cell_length_b 12.185255
_cell_length_c 14.173260
_cell_angle_alpha 90.000000
_cell_angle_beta 18.091930
_cell_angle_gamma 90.000000
_cell_volume 1108.714450
_symmetry_space_group_name_H-M "C 2"
_symmetry_group_IT_number 5
_symmetry_cell_setting 'monoclinic'
loop_
_space_group_symop_operation_xyz
x,y,z
-x,y,-z
1/2+x,1/2+y,z
1/2-x,1/2+y,-z
loop_
_atom_site_type_symbol
_atom_site_label
_atom_site_fract_x
_atom_site_fract_y
_atom_site_fract_z
Si Si1 0.000000 0.125000 0.000000
Si Si2 0.504749 0.812607 0.321483
Si Si3 0.222415 0.629530 0.731775
Si Si4 0.422461 0.054508 0.501139
Si Si5 0.150569 0.713174 0.039034
Si Si6 0.842009 0.911813 0.491014
Si Si7 0.973164 0.324414 0.913579
O O1 0.180185 0.060737 0.804824
O O2 0.066911 0.210108 0.823741
O O3 0.291078 0.748328 0.598641
O O4 0.615492 0.817175 0.067284
O O5 0.487678 0.931260 0.388424
O O6 0.626904 0.738144 0.224959
O O7 0.380379 0.535550 0.474022
O O8 0.184946 0.648472 0.894487
O O9 0.000000 0.595875 0.000000
O O10 0.500000 0.080378 0.500000
O O11 0.528291 0.138972 0.282787
O O12 0.029842 0.831268 0.202126
O O13 0.668115 0.907738 0.649087
O O14 0.710946 0.859988 0.760783
#
# Coordination Sequence:
#
# PCOD9122404 Si02
#       7
#     2   4   4   4   4   4   4
#     4  10  22  44  76 102 142 184 254 300 368 442
#     4  12  29  44  69 103 155 190 241 308 385 451
#     4  12  26  48  71 106 148 190 247 308 375 453
#     4  12  26  48  71 106 148 190 247 308 375 453
#     4  12  26  48  71 106 148 190 247 308 375 453
#     4  10  22  44  76 102 142 184 254 300 368 442
#     4  10  19  46  70 109 131 187 253 299 361 451
#
# _framework density 23.450583999999999
#
# number of rings (size 3 to 8) (size 9 to 14) (size 15 to 20)
#    0.000    0.923    4.615    4.154    3.231    0.000 
#    8.308    0.000    0.000    0.000    0.000    0.000 
#    0.000    0.000    0.000    0.000    0.000    0.000 
#
# Total GULP energy -72620.134890 kJ/mol
# GULP energy per Si atom -5586.164222 kJ/mol
# Density = 2.339721 g / cm^3
# Si number density = 23.450584 Si / 1000 Ang^3
#
#
#
# Elastic Constant Matrix: (Units=GPa)
#
#
# Indices 1 2 3 4 5 6 
#
# 1 143.8640 30.2467 11.0342 -0.0022 0.5953 0.0004
# 2 30.2467 102.3122 6.8448 -0.0022 -4.0215 0.0002
# 3 11.0342 6.8448 33.5343 -0.0061 -11.5921 0.0009
# 4 -0.0022 -0.0022 -0.0061 -6.2462 0.0019 -0.9534
# 5 0.5953 -4.0215 -11.5921 0.0019 26.3318 -0.0003
# 6 0.0004 0.0002 0.0009 -0.9534 -0.0003 28.8909
#
#
#
# Elastic Compliance Matrix: (Units=1/GPa)
#
#
# Indices 1 2 3 4 5 6 
#
# 1 0.007610 -0.002138 -0.002642 0.000000 -0.001662 0.000000
# 2 -0.002138 0.010522 -0.001028 -0.000002 0.001203 0.000000
# 3 -0.002642 -0.001028 0.036406 -0.000029 0.015930 -0.000002
# 4 0.000000 -0.000002 -0.000029 -0.159296 -0.000002 -0.005257
# 5 -0.001662 0.001203 0.015930 -0.000002 0.045211 0.000000
# 6 0.000000 0.000000 -0.000002 -0.005257 0.000000 0.034439
#
#
# Mechanical properties :
#
#
# Convention : Reuss Voigt Hill
#
# Bulk Modulus (GPa) = 23.29870 41.77356 32.53613
# Shear Modulus (GPa) = 6115.91487 25.23429 3070.57458
#
# Velocity S-wave (km/s) = 51.12399 3.28390 36.22462
# Velocity P-wave (km/s) = 59.11718 5.67721 41.99447
#
# Compressibility (1/GPa) = 0.04292085
#
# Stress axis : x y z
#
# Youngs Moduli (GPa) = 131.40429 95.03683 27.46797
#
# Poissons Ratio (x) = 0.20322 0.07257
# Poissons Ratio (y) = 0.28099 0.02825
# Poissons Ratio (z) = 0.34717 0.09774
#
# Static dielectric constant tensor:
#      x y z
#    x 1.911550 0.000000 -0.032230 
#    y 0.000000 1.913870 0.000000 
#    z -0.032230 0.000000 1.988500 
# 
# From -- ./inp_files/57040.got.cif
#   From: 2010.05.17/outbox.cif.g08.bks.cpg/sg5_29_cif.got.tgz:57040.got - 2010.06.03 18:56:24.
