data_PCOD9122194
_publ_section_title
;
Structure prediction by ZEFSAII (Michael W. Deem and Ramdas Pophale) SiO2 
 PCOD9122194
Probable space group: C 2
;
_chemical_formula_sum "Si O2"
_cell_formula_units_Z 20
_cell_length_a 12.224017
_cell_length_b 7.982682
_cell_length_c 11.812398
_cell_angle_alpha 90.000000
_cell_angle_beta 134.050213
_cell_angle_gamma 90.000000
_cell_volume 828.451454
_symmetry_space_group_name_H-M "C 2"
_symmetry_group_IT_number 5
_symmetry_cell_setting 'monoclinic'
loop_
_space_group_symop_operation_xyz
x,y,z
-x,y,-z
1/2+x,1/2+y,z
1/2-x,1/2+y,-z
loop_
_atom_site_type_symbol
_atom_site_label
_atom_site_fract_x
_atom_site_fract_y
_atom_site_fract_z
Si Si1 0.964366 0.364130 0.192284
Si Si2 0.307414 0.574601 0.931579
Si Si3 0.395396 0.420872 0.774879
Si Si4 0.019450 0.060489 0.646268
Si Si5 0.342698 0.060110 0.818550
O O1 0.858197 0.521476 0.146561
O O2 0.991922 0.252567 0.322509
O O3 0.120506 0.427351 0.251667
O O4 0.877393 0.239324 0.040925
O O5 0.318580 0.558600 0.803260
O O6 0.426934 0.429691 0.057536
O O7 0.409297 0.464218 0.653112
O O8 0.321994 0.243195 0.749216
O O9 0.198226 0.016881 0.790567
O O10 0.000000 0.034037 0.500000
O O11 0.500000 0.064512 0.000000
#
# Coordination Sequence:
#
# PCOD9122194 Si02
#       5
#     4   4   4   4   4
#     4  11  23  39  69  99 138 176 223 280 344 398
#     4  10  19  39  64 103 134 169 217 292 334 390
#     4  10  20  41  62  94 136 173 218 279 328 395
#     4  11  26  46  65  95 140 185 224 273 330 409
#     4  12  23  41  70 100 132 173 225 285 339 389
#
# _framework density 24.141424000000001
#
# number of rings (size 3 to 8) (size 9 to 14) (size 15 to 20)
#    0.000    1.200    4.000    3.600    5.600    1.600 
#    0.000    1.000    0.000    0.000    0.000    0.000 
#    0.000    0.000    0.000    0.000    0.000    0.000 
#
# Total GULP energy -55905.428053 kJ/mol
# GULP energy per Si atom -5590.542805 kJ/mol
# Density = 2.408648 g / cm^3
# Si number density = 24.141424 Si / 1000 Ang^3
#
#
#
# Elastic Constant Matrix: (Units=GPa)
#
#
# Indices 1 2 3 4 5 6 
#
# 1 142.5118 32.5261 20.4987 0.0000 -40.2878 0.0000
# 2 32.5261 66.2039 13.8883 0.0000 -13.4469 0.0000
# 3 20.4987 13.8883 81.4222 0.0000 -40.6965 0.0000
# 4 0.0000 0.0000 0.0000 13.1238 0.0000 -16.7164
# 5 -40.2878 -13.4469 -40.6965 0.0000 47.2878 0.0000
# 6 0.0000 0.0000 0.0000 -16.7164 0.0000 49.9570
#
#
#
# Elastic Compliance Matrix: (Units=1/GPa)
#
#
# Indices 1 2 3 4 5 6 
#
# 1 0.010391 -0.003634 0.003355 0.000000 0.010707 0.000000
# 2 -0.003634 0.017332 -0.001975 0.000000 0.000133 0.000000
# 3 0.003355 -0.001975 0.022676 0.000000 0.021812 0.000000
# 4 0.000000 0.000000 0.000000 0.132799 0.000000 0.044437
# 5 0.010707 0.000133 0.021812 0.000000 0.049079 0.000000
# 6 0.000000 0.000000 0.000000 0.044437 0.000000 0.034886
#
#
# Mechanical properties :
#
#
# Convention : Reuss Voigt Hill
#
# Bulk Modulus (GPa) = 21.79103 47.10714 34.44908
# Shear Modulus (GPa) = 17.42365 36.95538 27.18951
#
# Velocity S-wave (km/s) = 2.68942 3.91677 3.35962
# Velocity P-wave (km/s) = 4.32319 6.32536 5.41757
#
# Compressibility (1/GPa) = 0.04589045
#
# Stress axis : x y z
#
# Youngs Moduli (GPa) = 96.24167 57.69830 44.09941
#
# Poissons Ratio (x) = 0.20968 -0.14797
# Poissons Ratio (y) = 0.34975 0.08710
# Poissons Ratio (z) = -0.32293 0.11396
#
# Static dielectric constant tensor:
#      x y z
#    x 1.924800 0.000000 -0.040020 
#    y 0.000000 1.925420 0.000000 
#    z -0.040020 0.000000 2.037300 
# 
# From -- ./inp_files/38155.got.cif
#   From: 2010.05.17/outbox.cif.g08.bks.cpg/sg5_20_cif.got.tgz:38155.got - 2010.06.03 18:56:24.
