data_PCOD9122342
_publ_section_title
;
Structure prediction by ZEFSAII (Michael W. Deem and Ramdas Pophale) SiO2 
 PCOD9122342
Probable space group: C 2
;
_chemical_formula_sum "Si O2"
_cell_formula_units_Z 20
_cell_length_a 9.661377
_cell_length_b 12.354886
_cell_length_c 8.783073
_cell_angle_alpha 90.000000
_cell_angle_beta 46.296282
_cell_angle_gamma 90.000000
_cell_volume 757.906956
_symmetry_space_group_name_H-M "C 2"
_symmetry_group_IT_number 5
_symmetry_cell_setting 'monoclinic'
loop_
_space_group_symop_operation_xyz
x,y,z
-x,y,-z
1/2+x,1/2+y,z
1/2-x,1/2+y,-z
loop_
_atom_site_type_symbol
_atom_site_label
_atom_site_fract_x
_atom_site_fract_y
_atom_site_fract_z
Si Si1 0.548520 0.536360 0.791103
Si Si2 0.919941 0.832546 0.409467
Si Si3 0.986122 0.370656 0.827355
Si Si4 0.329888 0.695479 0.747647
Si Si5 0.574554 0.107251 0.675056
O O1 0.546636 0.409151 0.758378
O O2 0.396249 0.595858 0.800316
O O3 0.754414 0.575659 0.571315
O O4 0.500000 0.562983 0.000000
O O5 0.692428 0.826948 0.610970
O O6 0.018148 0.715680 0.321089
O O7 0.000000 0.889780 0.500000
O O8 0.968389 0.495472 0.788869
O O9 0.828906 0.297636 0.861785
O O10 0.000000 0.363822 0.000000
O O11 0.500000 0.720030 0.500000
O O12 0.161994 0.654196 0.766150
#
# Coordination Sequence:
#
# PCOD9122342 Si02
#       5
#     4   4   4   4   4
#     4  10  20  39  66  93 122 174 223 265 338 405
#     4  11  23  44  64  93 138 177 217 289 340 394
#     4  11  23  44  69  99 131 178 231 274 339 409
#     4  10  19  41  68  91 130 178 218 272 337 402
#     4  10  23  43  64  95 139 170 224 280 338 399
#
# _framework density 26.388466000000001
#
# number of rings (size 3 to 8) (size 9 to 14) (size 15 to 20)
#    0.000    1.600    4.000    3.600    0.000    1.600 
#   10.800    0.000    0.000    0.000    0.000    0.000 
#    0.000    0.000    0.000    0.000    0.000    0.000 
#
# Total GULP energy -56039.450331 kJ/mol
# GULP energy per Si atom -5603.945033 kJ/mol
# Density = 2.632840 g / cm^3
# Si number density = 26.388466 Si / 1000 Ang^3
#
#
#
# Elastic Constant Matrix: (Units=GPa)
#
#
# Indices 1 2 3 4 5 6 
#
# 1 52.4918 9.0995 47.7919 -0.0007 29.4262 0.0007
# 2 9.0995 192.6475 55.0501 0.0000 10.1694 0.0002
# 3 47.7919 55.0501 177.1834 -0.0003 21.9361 0.0006
# 4 -0.0007 0.0000 -0.0003 12.8901 0.0004 12.8447
# 5 29.4262 10.1694 21.9361 0.0004 50.4561 -0.0005
# 6 0.0007 0.0002 0.0006 12.8447 -0.0005 25.4915
#
#
#
# Elastic Compliance Matrix: (Units=1/GPa)
#
#
# Indices 1 2 3 4 5 6 
#
# 1 0.036086 0.001523 -0.007994 0.000008 -0.017877 -0.000005
# 2 0.001523 0.005769 -0.002060 0.000000 -0.001155 0.000000
# 3 -0.007994 -0.002060 0.008256 -0.000001 0.001488 0.000001
# 4 0.000008 0.000000 -0.000001 0.155814 -0.000006 -0.078512
# 5 -0.017877 -0.001155 0.001488 -0.000006 0.029831 0.000004
# 6 -0.000005 0.000000 0.000001 -0.078512 0.000004 0.078790
#
#
# Mechanical properties :
#
#
# Convention : Reuss Voigt Hill
#
# Bulk Modulus (GPa) = 30.25720 71.80065 51.02893
# Shear Modulus (GPa) = 14.59327 38.45963 26.52645
#
# Velocity S-wave (km/s) = 2.35418 3.82179 3.17397
# Velocity P-wave (km/s) = 4.34517 6.83688 5.72815
#
# Compressibility (1/GPa) = 0.03304999
#
# Stress axis : x y z
#
# Youngs Moduli (GPa) = 27.71144 173.35361 121.12595
#
# Poissons Ratio (x) = -0.26409 0.96823
# Poissons Ratio (y) = -0.04222 0.24953
# Poissons Ratio (z) = 0.22151 0.35713
#
# Static dielectric constant tensor:
#      x y z
#    x 2.082800 0.000000 -0.066880 
#    y 0.000000 2.024820 0.000000 
#    z -0.066880 0.000000 2.099090 
# 
# From -- ./inp_files/18935.got.cif
#   From: 2010.05.17/outbox.cif.g08.bks.cpg/sg5_10_cif.got.tgz:18935.got - 2010.06.03 18:56:24.
