data_PCOD9122499
_publ_section_title
;
Structure prediction by ZEFSAII (Michael W. Deem and Ramdas Pophale) SiO2 
 PCOD9122499
Probable space group: C 2
;
_chemical_formula_sum "Si O2"
_cell_formula_units_Z 24
_cell_length_a 8.170233
_cell_length_b 8.940929
_cell_length_c 14.187624
_cell_angle_alpha 90.000000
_cell_angle_beta 90.848699
_cell_angle_gamma 90.000000
_cell_volume 1036.284761
_symmetry_space_group_name_H-M "C 2"
_symmetry_group_IT_number 5
_symmetry_cell_setting 'monoclinic'
loop_
_space_group_symop_operation_xyz
x,y,z
-x,y,-z
1/2+x,1/2+y,z
1/2-x,1/2+y,-z
loop_
_atom_site_type_symbol
_atom_site_label
_atom_site_fract_x
_atom_site_fract_y
_atom_site_fract_z
Si Si1 0.988255 0.635130 0.275332
Si Si2 0.675002 0.634016 0.605467
Si Si3 0.166521 0.482697 0.558668
Si Si4 0.172710 0.575183 0.104010
Si Si5 0.015515 0.986288 0.768205
Si Si6 0.329802 0.424916 0.939587
O O1 0.159165 0.610900 0.332594
O O2 0.017899 0.562127 0.172811
O O3 0.851195 0.566820 0.341970
O O4 0.971669 0.812767 0.261446
O O5 0.692611 0.537598 0.510658
O O6 0.670669 0.806965 0.577928
O O7 0.530728 0.585529 0.674769
O O8 0.000000 0.516369 0.500000
O O9 0.326489 0.523145 0.167344
O O10 0.193284 0.750221 0.081205
O O11 0.189654 0.488368 0.006062
O O12 0.864794 0.003845 0.839498
O O13 0.500000 0.438973 0.000000
#
# Coordination Sequence:
#
# PCOD9122499 Si02
#       6
#     4   4   4   4   4   4
#     4   9  19  36  53  73 103 135 169 210 251 296
#     4  10  20  34  53  77 103 134 170 208 252 300
#     4  10  21  35  53  77 103 133 170 209 251 301
#     4   9  18  34  54  75 103 135 168 209 253 298
#     4   9  18  35  54  74 104 135 167 210 253 297
#     4   9  18  34  53  74 102 136 170 208 252 296
#
# _framework density 23.159658
#
# number of rings (size 3 to 8) (size 9 to 14) (size 15 to 20)
#    0.000    2.667    0.000    1.000    0.000    2.667 
#    0.000   17.500    0.000    0.000    0.000    0.000 
#    0.000    0.000    0.000    0.000    0.000    0.000 
#
# Total GULP energy -67049.822462 kJ/mol
# GULP energy per Si atom -5587.485205 kJ/mol
# Density = 2.310695 g / cm^3
# Si number density = 23.159658 Si / 1000 Ang^3
#
#
#
# Elastic Constant Matrix: (Units=GPa)
#
#
# Indices 1 2 3 4 5 6 
#
# 1 83.8856 15.9632 61.9638 0.0000 -16.3529 0.0000
# 2 15.9632 78.0517 100.6600 0.0000 -39.4514 0.0000
# 3 61.9638 100.6600 245.6864 0.0000 -47.8572 0.0000
# 4 0.0000 0.0000 0.0000 58.4948 0.0000 -1.8415
# 5 -16.3529 -39.4514 -47.8572 0.0000 45.3516 0.0000
# 6 0.0000 0.0000 0.0000 -1.8415 0.0000 25.7373
#
#
#
# Elastic Compliance Matrix: (Units=1/GPa)
#
#
# Indices 1 2 3 4 5 6 
#
# 1 0.016030 0.007298 -0.005879 0.000000 0.005925 0.000000
# 2 0.007298 0.041961 -0.014362 0.000000 0.023978 0.000000
# 3 -0.005879 -0.014362 0.010813 0.000000 -0.003202 0.000000
# 4 0.000000 0.000000 0.000000 0.017134 0.000000 0.001226
# 5 0.005925 0.023978 -0.003202 0.000000 0.041666 0.000000
# 6 0.000000 0.000000 0.000000 0.001226 0.000000 0.038942
#
#
# Mechanical properties :
#
#
# Convention : Reuss Voigt Hill
#
# Bulk Modulus (GPa) = 23.29983 84.97751 54.13867
# Shear Modulus (GPa) = 24.18539 41.18585 32.68562
#
# Velocity S-wave (km/s) = 3.23505 4.22162 3.76083
# Velocity P-wave (km/s) = 4.90270 7.78039 6.50273
#
# Compressibility (1/GPa) = 0.04291877
#
# Stress axis : x y z
#
# Youngs Moduli (GPa) = 62.38438 23.83177 92.47990
#
# Poissons Ratio (x) = -0.17392 0.54366
# Poissons Ratio (y) = -0.45527 1.32816
# Poissons Ratio (z) = 0.36674 0.34226
#
# Static dielectric constant tensor:
#      x y z
#    x 1.864890 0.000000 -0.006400 
#    y 0.000000 1.779650 0.000000 
#    z -0.006400 0.000000 1.913290 
# 
# From -- ./inp_files/49861.got.cif
#   From: 2010.05.17/outbox.cif.g08.bks.cpg/sg5_25_cif.got.tgz:49861.got - 2010.06.03 18:56:24.
