data_PCOD9122442
_publ_section_title
;
Structure prediction by ZEFSAII (Michael W. Deem and Ramdas Pophale) SiO2 
 PCOD9122442
Probable space group: C 2
;
_chemical_formula_sum "Si O2"
_cell_formula_units_Z 30
_cell_length_a 13.586605
_cell_length_b 16.796526
_cell_length_c 12.475309
_cell_angle_alpha 90.000000
_cell_angle_beta 147.836826
_cell_angle_gamma 90.000000
_cell_volume 1515.529995
_symmetry_space_group_name_H-M "C 2"
_symmetry_group_IT_number 5
_symmetry_cell_setting 'monoclinic'
loop_
_space_group_symop_operation_xyz
x,y,z
-x,y,-z
1/2+x,1/2+y,z
1/2-x,1/2+y,-z
loop_
_atom_site_type_symbol
_atom_site_label
_atom_site_fract_x
_atom_site_fract_y
_atom_site_fract_z
Si Si1 0.365828 0.410440 0.588220
Si Si2 0.216744 0.421192 0.215282
Si Si3 0.662365 0.531545 0.856588
Si Si4 0.000000 0.751778 0.000000
Si Si5 0.409325 0.660526 0.535941
Si Si6 0.842209 0.335186 0.433161
Si Si7 0.073088 0.766655 0.681952
Si Si8 0.971204 0.644327 0.172986
O O1 0.285280 0.435100 0.399069
O O2 0.534511 0.462910 0.789459
O O3 0.210298 0.402557 0.532520
O O4 0.434987 0.321499 0.624713
O O5 0.305102 0.491729 0.228752
O O6 0.283859 0.335912 0.227257
O O7 0.000000 0.424634 0.000000
O O8 0.534902 0.608916 0.729644
O O9 0.862131 0.561124 0.078040
O O10 0.160989 0.804378 0.201724
O O11 0.916469 0.694777 0.015627
O O12 0.500000 0.649891 0.500000
O O13 0.415221 0.755296 0.559124
O O14 0.193738 0.636878 0.359038
O O15 0.000000 0.362552 0.500000
O O16 0.097529 0.694143 0.786561
O O17 0.000000 0.735854 0.500000
#
# Coordination Sequence:
#
# PCOD9122442 Si02
#       8
#     4   4   4   2   4   4   4   4
#     4  10  20  41  59  91 134 161 201 266 313 367
#     4  10  23  36  62  96 125 165 205 252 323 378
#     4  11  23  35  60  95 126 157 200 260 317 371
#     4  10  20  32  58  94 126 148 208 258 304 368
#     4  10  20  34  57  90 128 155 199 254 312 366
#     4  10  20  37  60  91 120 167 206 253 306 369
#     4   9  19  41  62  89 126 165 210 261 301 371
#     4  11  21  37  63  95 125 162 203 261 319 364
#
# _framework density 19.795057
#
# number of rings (size 3 to 8) (size 9 to 14) (size 15 to 20)
#    0.000    1.867    2.667    4.400    4.667    2.133 
#    0.000    0.000    0.000    2.400    0.000    0.000 
#    0.000    0.000    0.000    0.000    0.000    0.000 
#
# Total GULP energy -83539.614100 kJ/mol
# GULP energy per Si atom -5569.307607 kJ/mol
# Density = 1.975000 g / cm^3
# Si number density = 19.795057 Si / 1000 Ang^3
#
#
#
# Elastic Constant Matrix: (Units=GPa)
#
#
# Indices 1 2 3 4 5 6 
#
# 1 116.2629 49.9677 32.0480 0.0000 16.9610 0.0000
# 2 49.9677 56.3100 22.4714 0.0000 -1.4392 0.0000
# 3 32.0480 22.4714 51.0988 0.0000 12.5887 0.0000
# 4 0.0000 0.0000 0.0000 22.6205 0.0000 -0.5439
# 5 16.9610 -1.4392 12.5887 0.0000 27.6769 0.0000
# 6 0.0000 0.0000 0.0000 -0.5439 0.0000 11.3277
#
#
#
# Elastic Compliance Matrix: (Units=1/GPa)
#
#
# Indices 1 2 3 4 5 6 
#
# 1 0.016789 -0.014522 -0.001602 0.000000 -0.010315 0.000000
# 2 -0.014522 0.035060 -0.010081 0.000000 0.015308 0.000000
# 3 -0.001602 -0.010081 0.028037 0.000000 -0.012295 0.000000
# 4 0.000000 0.000000 0.000000 0.044259 0.000000 0.002125
# 5 -0.010315 0.015308 -0.012295 0.000000 0.048841 0.000000
# 6 0.000000 0.000000 0.000000 0.002125 0.000000 0.088381
#
#
# Mechanical properties :
#
#
# Convention : Reuss Voigt Hill
#
# Bulk Modulus (GPa) = 36.39725 48.07177 42.23451
# Shear Modulus (GPa) = 15.48293 20.27067 17.87680
#
# Velocity S-wave (km/s) = 2.79975 3.20351 3.00841
# Velocity P-wave (km/s) = 5.37386 6.16610 5.78356
#
# Compressibility (1/GPa) = 0.02747460
#
# Stress axis : x y z
#
# Youngs Moduli (GPa) = 59.56233 28.52259 35.66714
#
# Poissons Ratio (x) = 0.41422 0.05714
# Poissons Ratio (y) = 0.86499 0.35957
# Poissons Ratio (z) = 0.09542 0.28754
#
# Static dielectric constant tensor:
#      x y z
#    x 1.741910 0.000000 0.026190 
#    y 0.000000 1.717030 0.000000 
#    z 0.026190 0.000000 1.740740 
# 
# From -- ./inp_files/40476.got.cif
#   From: 2010.05.17/outbox.cif.g08.bks.cpg/sg5_21_cif.got.tgz:40476.got - 2010.06.03 18:56:24.
