data_PCOD9122160
_publ_section_title
;
Structure prediction by ZEFSAII (Michael W. Deem and Ramdas Pophale) SiO2 
 PCOD9122160
Probable space group: C 2
;
_chemical_formula_sum "Si O2"
_cell_formula_units_Z 26
_cell_length_a 9.072090
_cell_length_b 12.240418
_cell_length_c 12.068687
_cell_angle_alpha 90.000000
_cell_angle_beta 100.381121
_cell_angle_gamma 90.000000
_cell_volume 1318.243946
_symmetry_space_group_name_H-M "C 2"
_symmetry_group_IT_number 5
_symmetry_cell_setting 'monoclinic'
loop_
_space_group_symop_operation_xyz
x,y,z
-x,y,-z
1/2+x,1/2+y,z
1/2-x,1/2+y,-z
loop_
_atom_site_type_symbol
_atom_site_label
_atom_site_fract_x
_atom_site_fract_y
_atom_site_fract_z
Si Si1 0.500000 0.476440 0.000000
Si Si2 0.307564 0.219676 0.638905
Si Si3 0.935710 0.081378 0.770351
Si Si4 0.929386 0.337913 0.739799
Si Si5 0.000000 0.845727 0.500000
Si Si6 0.301737 0.491739 0.340535
Si Si7 0.750532 0.890049 0.823303
Si Si8 0.500000 0.803090 0.500000
O O1 0.478124 0.554256 0.103050
O O2 0.641009 0.403055 0.056385
O O3 0.447393 0.270220 0.593416
O O4 0.290473 0.286655 0.750978
O O5 0.153268 0.238240 0.548297
O O6 0.311317 0.090672 0.655124
O O7 0.905422 0.208667 0.750869
O O8 0.793151 0.000190 0.759466
O O9 0.048099 0.041596 0.691137
O O10 0.781706 0.404902 0.748247
O O11 0.966854 0.360400 0.613726
O O12 0.076113 0.377561 0.824322
O O13 0.860508 0.923056 0.452468
#
# Coordination Sequence:
#
# PCOD9122160 Si02
#       8
#     2   4   4   4   2   4   4   2
#     4   8  20  44  66  88 112 166 202 258 314 358
#     4  11  22  39  61  92 126 166 204 246 300 364
#     4  10  21  43  64  82 125 159 202 252 316 352
#     4  11  23  40  62  95 126 159 203 250 297 371
#     4  12  23  39  58  90 128 173 201 240 298 364
#     4  12  24  37  62  92 124 162 207 246 302 366
#     4   9  20  42  64  86 122 158 202 256 306 350
#     4  10  19  39  58  86 132 165 185 248 298 346
#
# _framework density 19.723208
#
# number of rings (size 3 to 8) (size 9 to 14) (size 15 to 20)
#    0.923    0.615    6.154    0.462    0.000    1.846 
#    2.769    1.538    0.000    0.000    0.000    0.000 
#    0.000    0.000    0.000    0.000    0.000    0.000 
#
# Total GULP energy -72395.955740 kJ/mol
# GULP energy per Si atom -5568.919672 kJ/mol
# Density = 1.967832 g / cm^3
# Si number density = 19.723208 Si / 1000 Ang^3
#
#
#
# Elastic Constant Matrix: (Units=GPa)
#
#
# Indices 1 2 3 4 5 6 
#
# 1 34.9310 43.8492 -5.8437 0.0000 19.6558 0.0000
# 2 43.8492 147.5075 10.6999 0.0000 15.7625 0.0000
# 3 -5.8437 10.6999 46.4515 0.0000 15.7427 0.0000
# 4 0.0000 0.0000 0.0000 12.1822 0.0000 9.6299
# 5 19.6558 15.7625 15.7427 0.0000 27.8240 0.0000
# 6 0.0000 0.0000 0.0000 9.6299 0.0000 22.3362
#
#
#
# Elastic Compliance Matrix: (Units=1/GPa)
#
#
# Indices 1 2 3 4 5 6 
#
# 1 0.189853 -0.045949 0.087968 0.000000 -0.157859 0.000000
# 2 -0.045949 0.018341 -0.021633 0.000000 0.034309 0.000000
# 3 0.087968 -0.021633 0.067411 0.000000 -0.088029 0.000000
# 4 0.000000 0.000000 0.000000 0.124527 0.000000 -0.053688
# 5 -0.157859 0.034309 -0.088029 0.000000 0.177827 0.000000
# 6 0.000000 0.000000 0.000000 -0.053688 0.000000 0.067917
#
#
# Mechanical properties :
#
#
# Convention : Reuss Voigt Hill
#
# Bulk Modulus (GPa) = 3.16080 36.25561 19.70820
# Shear Modulus (GPa) = 7.03667 24.48079 15.75873
#
# Velocity S-wave (km/s) = 1.89089 3.52691 2.82972
# Velocity P-wave (km/s) = 2.52455 5.91672 4.54868
#
# Compressibility (1/GPa) = 0.31637600
#
# Stress axis : x y z
#
# Youngs Moduli (GPa) = 5.26724 54.52118 14.83437
#
# Poissons Ratio (x) = 2.50521 -1.30495
# Poissons Ratio (y) = 0.24203 0.32091
# Poissons Ratio (z) = -0.46335 1.17946
#
# Static dielectric constant tensor:
#      x y z
#    x 1.730280 0.000000 0.004070 
#    y 0.000000 1.694000 0.000000 
#    z 0.004070 0.000000 1.727320 
# 
# From -- ./inp_files/50164.got.cif
#   From: 2010.05.17/outbox.cif.g08.bks.cpg/sg5_26_cif.got.tgz:50164.got - 2010.06.03 18:56:24.
