data_PCOD9122052
_publ_section_title
;
Structure prediction by ZEFSAII (Michael W. Deem and Ramdas Pophale) SiO2 
 PCOD9122052
Probable space group: C 2
;
_chemical_formula_sum "Si O2"
_cell_formula_units_Z 22
_cell_length_a 17.422885
_cell_length_b 8.002352
_cell_length_c 11.362682
_cell_angle_alpha 90.000000
_cell_angle_beta 138.741200
_cell_angle_gamma 90.000000
_cell_volume 1044.739165
_symmetry_space_group_name_H-M "C 2"
_symmetry_group_IT_number 5
_symmetry_cell_setting 'monoclinic'
loop_
_space_group_symop_operation_xyz
x,y,z
-x,y,-z
1/2+x,1/2+y,z
1/2-x,1/2+y,-z
loop_
_atom_site_type_symbol
_atom_site_label
_atom_site_fract_x
_atom_site_fract_y
_atom_site_fract_z
Si Si1 0.132944 0.806050 0.456593
Si Si2 0.129198 0.762922 0.187607
Si Si3 0.340341 0.821153 0.275964
Si Si4 0.500000 0.521671 0.500000
Si Si5 0.111751 0.361598 0.205727
Si Si6 0.981951 0.455119 0.662970
O O1 0.155016 0.850785 0.343804
O O2 0.262528 0.774403 0.658648
O O3 0.051261 0.644604 0.352328
O O4 0.063839 0.923804 0.467804
O O5 0.210976 0.810779 0.172869
O O6 0.138140 0.560306 0.213892
O O7 0.000000 0.803158 0.000000
O O8 0.399599 0.640004 0.329992
O O9 0.406876 0.900615 0.464466
O O10 0.383185 0.926324 0.213429
O O11 0.063361 0.346925 0.281669
O O12 0.000000 0.311511 0.000000
#
# Coordination Sequence:
#
# PCOD9122052 Si02
#       6
#     4   4   4   2   4   4
#     4  11  20  38  61  86 118 151 204 240 282 348
#     4  10  21  39  62  87 117 159 192 237 296 354
#     4  10  19  38  61  82 120 157 192 235 303 347
#     4  10  20  34  62  86 110 164 194 238 288 348
#     4  10  20  37  62  88 118 157 195 237 292 350
#     4   9  20  34  62  84 117 152 191 244 297 327
#
# _framework density 21.057887999999998
#
# number of rings (size 3 to 8) (size 9 to 14) (size 15 to 20)
#    0.000    2.182    3.636    1.091    0.000    0.000 
#    3.273    0.909    0.000    0.000    0.000    0.000 
#    0.000    0.000    0.000    0.000    0.000    0.000 
#
# Total GULP energy -61287.547641 kJ/mol
# GULP energy per Si atom -5571.595240 kJ/mol
# Density = 2.100996 g / cm^3
# Si number density = 21.057888 Si / 1000 Ang^3
#
#
#
# Elastic Constant Matrix: (Units=GPa)
#
#
# Indices 1 2 3 4 5 6 
#
# 1 196.7621 38.0293 40.6786 0.0000 45.1726 0.0000
# 2 38.0293 29.2555 -0.2776 0.0000 7.1093 0.0000
# 3 40.6786 -0.2776 58.6830 0.0000 24.4736 0.0000
# 4 0.0000 0.0000 0.0000 8.2710 0.0000 -4.4179
# 5 45.1726 7.1093 24.4736 0.0000 36.1007 0.0000
# 6 0.0000 0.0000 0.0000 -4.4179 0.0000 2.8776
#
#
#
# Elastic Compliance Matrix: (Units=1/GPa)
#
#
# Indices 1 2 3 4 5 6 
#
# 1 0.009614 -0.010713 -0.003594 0.000000 -0.007484 0.000000
# 2 -0.010713 0.048650 0.008450 0.000000 -0.001905 0.000000
# 3 -0.003594 0.008450 0.025639 0.000000 -0.014549 0.000000
# 4 0.000000 0.000000 0.000000 0.671837 0.000000 1.031439
# 5 -0.007484 -0.001905 -0.014549 0.000000 0.047303 0.000000
# 6 0.000000 0.000000 0.000000 1.031439 0.000000 1.931029
#
#
# Mechanical properties :
#
#
# Convention : Reuss Voigt Hill
#
# Bulk Modulus (GPa) = 13.85206 49.06234 31.45720
# Shear Modulus (GPa) = 1.80515 23.20121 12.50318
#
# Velocity S-wave (km/s) = 0.92687 3.32291 2.43935
# Velocity P-wave (km/s) = 2.78169 6.17023 4.78589
#
# Compressibility (1/GPa) = 0.07219142
#
# Stress axis : x y z
#
# Youngs Moduli (GPa) = 104.01636 20.55498 39.00234
#
# Poissons Ratio (x) = 0.22020 0.14017
# Poissons Ratio (y) = 1.11428 -0.32959
# Poissons Ratio (z) = 0.37382 -0.17370
#
# Static dielectric constant tensor:
#      x y z
#    x 1.849240 0.000000 0.002720 
#    y 0.000000 1.828020 0.000000 
#    z 0.002720 0.000000 1.750430 
# 
# From -- ./inp_files/44243.got.cif
#   From: 2010.05.17/outbox.cif.g08.bks.cpg/sg5_23_cif.got.tgz:44243.got - 2010.06.03 18:56:24.
