data_PCOD9122124
_publ_section_title
;
Structure prediction by ZEFSAII (Michael W. Deem and Ramdas Pophale) SiO2 
 PCOD9122124
Probable space group: C 2
;
_chemical_formula_sum "Si O2"
_cell_formula_units_Z 28
_cell_length_a 17.900423
_cell_length_b 5.554258
_cell_length_c 14.759181
_cell_angle_alpha 90.000000
_cell_angle_beta 61.015456
_cell_angle_gamma 90.000000
_cell_volume 1283.617944
_symmetry_space_group_name_H-M "C 2"
_symmetry_group_IT_number 5
_symmetry_cell_setting 'monoclinic'
loop_
_space_group_symop_operation_xyz
x,y,z
-x,y,-z
1/2+x,1/2+y,z
1/2-x,1/2+y,-z
loop_
_atom_site_type_symbol
_atom_site_label
_atom_site_fract_x
_atom_site_fract_y
_atom_site_fract_z
Si Si1 0.500000 0.792950 0.000000
Si Si2 0.653692 0.631467 0.463596
Si Si3 0.150072 0.935205 0.104251
Si Si4 0.682142 0.371602 0.626723
Si Si5 0.045236 0.505463 0.642320
Si Si6 0.000000 0.822922 0.500000
Si Si7 0.019929 0.123024 0.790486
Si Si8 0.667034 0.942170 0.980045
O O1 0.511667 0.640601 0.902567
O O2 0.412706 0.941327 0.040707
O O3 0.699011 0.469877 0.514952
O O4 0.729708 0.793460 0.378779
O O5 0.588873 0.800669 0.555706
O O6 0.588693 0.472268 0.444077
O O7 0.157566 0.689350 0.042240
O O8 0.054065 0.941389 0.199501
O O9 0.158115 0.188787 0.042172
O O10 0.235883 0.938245 0.114478
O O11 0.617891 0.557052 0.712340
O O12 0.620080 0.147287 0.648580
O O13 0.002826 0.671126 0.591051
O O14 0.996235 0.366636 0.750486
#
# Coordination Sequence:
#
# PCOD9122124 Si02
#       8
#     2   4   4   4   4   2   4   4
#     4  10  22  42  68  98 134 180 226 290 324 400
#     4  10  19  38  65  95 125 178 217 279 345 412
#     4   9  19  38  64  94 123 177 219 286 335 407
#     4  10  20  36  68  94 131 176 226 270 350 418
#     4  10  21  40  65  96 128 178 218 277 338 423
#     4  10  22  36  70  92 134 178 222 280 350 412
#     4  10  23  38  67 100 133 180 235 273 347 402
#     4   9  19  37  66  90 126 172 234 271 350 386
#
# _framework density 21.813345000000002
#
# number of rings (size 3 to 8) (size 9 to 14) (size 15 to 20)
#    0.000    2.286    1.429    0.429    4.000    2.286 
#    0.000    0.000   25.143    6.857    0.000    0.000 
#    0.000    0.000    0.000    0.000    0.000    0.000 
#
# Total GULP energy -77949.805782 kJ/mol
# GULP energy per Si atom -5567.843270 kJ/mol
# Density = 2.176370 g / cm^3
# Si number density = 21.813345 Si / 1000 Ang^3
#
#
#
# Elastic Constant Matrix: (Units=GPa)
#
#
# Indices 1 2 3 4 5 6 
#
# 1 155.0635 25.7891 37.2456 0.0095 -16.2536 -0.0027
# 2 25.7891 91.5527 12.6313 0.0726 4.8117 -0.0266
# 3 37.2456 12.6313 71.8186 0.0020 -5.6533 -0.0007
# 4 0.0095 0.0726 0.0020 -146.7339 -0.0031 61.1998
# 5 -16.2536 4.8117 -5.6533 -0.0031 23.5631 0.0010
# 6 -0.0027 -0.0266 -0.0007 61.1998 0.0010 5.2978
#
#
#
# Elastic Compliance Matrix: (Units=1/GPa)
#
#
# Indices 1 2 3 4 5 6 
#
# 1 0.008179 -0.002102 -0.003459 -0.000001 0.005241 0.000000
# 2 -0.002102 0.011920 -0.001337 0.000005 -0.004205 -0.000001
# 3 -0.003459 -0.001337 0.016091 -0.000001 0.001747 0.000000
# 4 -0.000001 0.000005 -0.000001 -0.001171 -0.000002 0.013531
# 5 0.005241 -0.004205 0.001747 -0.000002 0.047332 0.000001
# 6 0.000000 -0.000001 0.000000 0.013531 0.000001 0.032443
#
#
# Mechanical properties :
#
#
# Convention : Reuss Voigt Hill
#
# Bulk Modulus (GPa) = 44.65808 52.19632 48.42720
# Shear Modulus (GPa) = 36.74962 -7.39000 14.67981
#
# Velocity S-wave (km/s) = 4.10900 -1.84260 2.59699
# Velocity P-wave (km/s) = 6.55966 4.41063 5.58940
#
# Compressibility (1/GPa) = 0.02239237
#
# Stress axis : x y z
#
# Youngs Moduli (GPa) = 122.26673 83.89052 62.14738
#
# Poissons Ratio (x) = 0.17634 0.21499
# Poissons Ratio (y) = 0.25701 0.08312
# Poissons Ratio (z) = 0.42296 0.11219
#
# Static dielectric constant tensor:
#      x y z
#    x 1.821920 0.000000 -0.045340 
#    y 0.000000 1.898520 0.000000 
#    z -0.045340 0.000000 1.846650 
# 
# From -- ./inp_files/55417.got.cif
#   From: 2010.05.17/outbox.cif.g08.bks.cpg/sg5_28_cif.got.tgz:55417.got - 2010.06.03 18:56:24.
