data_PCOD9122249
_publ_section_title
;
Structure prediction by ZEFSAII (Michael W. Deem and Ramdas Pophale) SiO2 
 PCOD9122249
Probable space group: C 2
;
_chemical_formula_sum "Si O2"
_cell_formula_units_Z 20
_cell_length_a 7.596460
_cell_length_b 17.753919
_cell_length_c 9.200409
_cell_angle_alpha 90.000000
_cell_angle_beta 120.257348
_cell_angle_gamma 90.000000
_cell_volume 1071.793670
_symmetry_space_group_name_H-M "C 2"
_symmetry_group_IT_number 5
_symmetry_cell_setting 'monoclinic'
loop_
_space_group_symop_operation_xyz
x,y,z
-x,y,-z
1/2+x,1/2+y,z
1/2-x,1/2+y,-z
loop_
_atom_site_type_symbol
_atom_site_label
_atom_site_fract_x
_atom_site_fract_y
_atom_site_fract_z
Si Si1 0.500000 0.408340 0.500000
Si Si2 0.500000 0.740975 0.500000
Si Si3 0.428750 0.988360 0.638079
Si Si4 0.077456 0.659368 0.367042
Si Si5 0.668088 0.300992 0.811713
Si Si6 0.914610 0.337648 0.182219
O O1 0.698379 0.458696 0.558116
O O2 0.528463 0.355432 0.653988
O O3 0.308640 0.689256 0.463082
O O4 0.419031 0.794106 0.336478
O O5 0.500000 0.986307 0.500000
O O6 0.557628 0.926358 0.778626
O O7 0.441437 0.074152 0.696714
O O8 0.000000 0.659686 0.500000
O O9 0.935144 0.719655 0.227814
O O10 0.883121 0.305663 0.814683
O O11 0.724422 0.325301 0.997603
#
# Coordination Sequence:
#
# PCOD9122249 Si02
#       6
#     2   2   4   4   4   4
#     4  10  19  40  59  82 116 160 196 230 291 350
#     4  12  21  38  61  90 114 156 206 228 285 362
#     4  10  21  37  60  87 118 151 193 242 293 340
#     4  11  21  38  60  88 121 153 188 247 298 333
#     4  10  20  39  63  85 120 157 193 241 291 341
#     4  10  21  38  63  88 115 157 202 233 284 358
#
# _framework density 18.660308000000001
#
# number of rings (size 3 to 8) (size 9 to 14) (size 15 to 20)
#    0.000    1.600    4.000    1.800    0.000    0.800 
#    0.000   10.000    0.000    0.000    0.000    0.000 
#    0.000    0.000    0.000    0.000    0.000    0.000 
#
# Total GULP energy -55818.618886 kJ/mol
# GULP energy per Si atom -5581.861889 kJ/mol
# Density = 1.861784 g / cm^3
# Si number density = 18.660308 Si / 1000 Ang^3
#
#
#
# Elastic Constant Matrix: (Units=GPa)
#
#
# Indices 1 2 3 4 5 6 
#
# 1 70.6582 56.5640 27.6097 0.0000 -1.6943 0.0000
# 2 56.5640 201.3037 88.2611 0.0000 15.7794 0.0000
# 3 27.6097 88.2611 133.4568 0.0000 2.7426 0.0000
# 4 0.0000 0.0000 0.0000 -1.1807 0.0000 -14.2715
# 5 -1.6943 15.7794 2.7426 0.0000 17.5844 0.0000
# 6 0.0000 0.0000 0.0000 -14.2715 0.0000 18.2598
#
#
#
# Elastic Compliance Matrix: (Units=1/GPa)
#
#
# Indices 1 2 3 4 5 6 
#
# 1 0.019066 -0.005801 -0.000253 0.000000 0.007082 0.000000
# 2 -0.005801 0.009352 -0.004816 0.000000 -0.008200 0.000000
# 3 -0.000253 -0.004816 0.010677 0.000000 0.002632 0.000000
# 4 0.000000 0.000000 0.000000 -0.081070 0.000000 -0.063363
# 5 0.007082 -0.008200 0.002632 0.000000 0.064499 0.000000
# 6 0.000000 0.000000 0.000000 -0.063363 0.000000 0.005242
#
#
# Mechanical properties :
#
#
# Convention : Reuss Voigt Hill
#
# Bulk Modulus (GPa) = 57.62801 83.36538 70.49670
# Shear Modulus (GPa) = 90.43000 22.46495 56.44747
#
# Velocity S-wave (km/s) = 6.96896 3.47348 5.50597
# Velocity P-wave (km/s) = 9.78289 7.80121 8.84771
#
# Compressibility (1/GPa) = 0.01735267
#
# Stress axis : x y z
#
# Youngs Moduli (GPa) = 52.45062 106.92637 93.66268
#
# Poissons Ratio (x) = 0.62032 0.02371
# Poissons Ratio (y) = 0.30429 0.45111
# Poissons Ratio (z) = 0.01328 0.51500
#
# Static dielectric constant tensor:
#      x y z
#    x 1.683270 0.000000 0.000570 
#    y 0.000000 1.638940 0.000000 
#    z 0.000570 0.000000 1.652500 
# 
# From -- ./inp_files/15180.got.cif
#   From: 2010.05.17/outbox.cif.g08.bks.cpg/sg5_8_cif.got.tgz:15180.got - 2010.06.03 18:56:24.
