data_PCOD9122479
_publ_section_title
;
Structure prediction by ZEFSAII (Michael W. Deem and Ramdas Pophale) SiO2 
 PCOD9122479
Probable space group: C 2
;
_chemical_formula_sum "Si O2"
_cell_formula_units_Z 20
_cell_length_a 11.651421
_cell_length_b 15.109813
_cell_length_c 8.213136
_cell_angle_alpha 90.000000
_cell_angle_beta 34.644093
_cell_angle_gamma 90.000000
_cell_volume 821.977490
_symmetry_space_group_name_H-M "C 2"
_symmetry_group_IT_number 5
_symmetry_cell_setting 'monoclinic'
loop_
_space_group_symop_operation_xyz
x,y,z
-x,y,-z
1/2+x,1/2+y,z
1/2-x,1/2+y,-z
loop_
_atom_site_type_symbol
_atom_site_label
_atom_site_fract_x
_atom_site_fract_y
_atom_site_fract_z
Si Si1 0.244021 0.214820 0.198493
Si Si2 0.807884 0.582503 0.633077
Si Si3 0.319286 0.025443 0.956647
Si Si4 0.209962 0.257331 0.592699
Si Si5 0.754063 0.330448 0.115319
O O1 0.308307 0.249642 0.300895
O O2 0.308510 0.277100 0.973677
O O3 0.000000 0.214985 0.500000
O O4 0.299967 0.113662 0.086753
O O5 0.711956 0.539218 0.904453
O O6 0.688484 0.654666 0.673733
O O7 0.000000 0.630639 0.500000
O O8 0.939796 0.516626 0.367770
O O9 0.237821 0.935404 0.121854
O O10 0.993391 0.303722 0.834223
O O11 0.316106 0.303169 0.622447
#
# Coordination Sequence:
#
# PCOD9122479 Si02
#       5
#     4   4   4   4   4
#     4  10  21  37  60  88 125 164 196 253 309 353
#     4   8  19  36  60  84 119 163 195 248 295 353
#     4   9  20  38  61  85 126 159 203 248 298 359
#     4  10  20  33  59  88 119 156 200 242 304 351
#     4  10  20  38  58  92 120 156 211 249 291 369
#
# _framework density 24.331567
#
# number of rings (size 3 to 8) (size 9 to 14) (size 15 to 20)
#    1.200    1.200    2.000    0.000    8.400    4.000 
#    0.000    3.000    0.000    0.000   10.400    0.000 
#    0.000    0.000    0.000    0.000    0.000    0.000 
#
# Total GULP energy -55761.589101 kJ/mol
# GULP energy per Si atom -5576.158910 kJ/mol
# Density = 2.427619 g / cm^3
# Si number density = 24.331567 Si / 1000 Ang^3
#
#
#
# Elastic Constant Matrix: (Units=GPa)
#
#
# Indices 1 2 3 4 5 6 
#
# 1 104.7212 44.9969 54.9761 -0.0033 38.9300 0.0038
# 2 44.9969 153.2591 75.0945 -0.0003 40.6864 0.0020
# 3 54.9761 75.0945 188.5490 -0.0026 53.2087 0.0036
# 4 -0.0033 -0.0003 -0.0026 29.7983 0.0017 0.4062
# 5 38.9300 40.6864 53.2087 0.0017 53.6747 -0.0026
# 6 0.0038 0.0020 0.0036 0.4062 -0.0026 22.5688
#
#
#
# Elastic Compliance Matrix: (Units=1/GPa)
#
#
# Indices 1 2 3 4 5 6 
#
# 1 0.013627 -0.001356 -0.001297 0.000002 -0.007570 -0.000003
# 2 -0.001356 0.008944 -0.002126 0.000000 -0.003689 -0.000001
# 3 -0.001297 -0.002126 0.008064 0.000001 -0.005442 -0.000002
# 4 0.000002 0.000000 0.000001 0.033567 -0.000003 -0.000604
# 5 -0.007570 -0.003689 -0.005442 -0.000003 0.032312 0.000006
# 6 -0.000003 -0.000001 -0.000002 -0.000604 0.000006 0.044320
#
#
# Mechanical properties :
#
#
# Convention : Reuss Voigt Hill
#
# Bulk Modulus (GPa) = 47.44301 88.51824 67.98062
# Shear Modulus (GPa) = 31.76273 39.30583 35.53428
#
# Velocity S-wave (km/s) = 3.61697 4.02360 3.82569
# Velocity P-wave (km/s) = 6.08146 7.61871 6.89307
#
# Compressibility (1/GPa) = 0.02107792
#
# Stress axis : x y z
#
# Youngs Moduli (GPa) = 73.38532 111.80849 124.00372
#
# Poissons Ratio (x) = 0.15157 0.16083
# Poissons Ratio (y) = 0.09948 0.26361
# Poissons Ratio (z) = 0.09518 0.23768
#
# Static dielectric constant tensor:
#      x y z
#    x 2.058890 0.000000 -0.030960 
#    y 0.000000 1.862910 0.000000 
#    z -0.030960 0.000000 2.045220 
# 
# From -- ./inp_files/23248.got.cif
#   From: 2010.05.17/outbox.cif.g08.bks.cpg/sg5_12_cif.got.tgz:23248.got - 2010.06.03 18:56:24.
