data_PCOD9122287
_publ_section_title
;
Structure prediction by ZEFSAII (Michael W. Deem and Ramdas Pophale) SiO2 
 PCOD9122287
Probable space group: C 2
;
_chemical_formula_sum "Si O2"
_cell_formula_units_Z 22
_cell_length_a 12.975109
_cell_length_b 9.880809
_cell_length_c 11.221443
_cell_angle_alpha 90.000000
_cell_angle_beta 50.501698
_cell_angle_gamma 90.000000
_cell_volume 1110.117354
_symmetry_space_group_name_H-M "C 2"
_symmetry_group_IT_number 5
_symmetry_cell_setting 'monoclinic'
loop_
_space_group_symop_operation_xyz
x,y,z
-x,y,-z
1/2+x,1/2+y,z
1/2-x,1/2+y,-z
loop_
_atom_site_type_symbol
_atom_site_label
_atom_site_fract_x
_atom_site_fract_y
_atom_site_fract_z
Si Si1 0.772696 0.895670 0.782705
Si Si2 0.022398 0.667323 0.340956
Si Si3 0.000000 0.240602 0.000000
Si Si4 0.943728 0.099661 0.797680
Si Si5 0.169830 0.898985 0.535918
Si Si6 0.477694 0.878657 0.376515
O O1 0.827736 0.924674 0.608639
O O2 0.853998 0.765387 0.770074
O O3 0.816772 0.017987 0.837338
O O4 0.622442 0.841860 0.879718
O O5 0.893900 0.751173 0.392536
O O6 0.040452 0.517297 0.279804
O O7 0.000000 0.654351 0.500000
O O8 0.047525 0.141327 0.070928
O O9 0.961609 0.244608 0.722890
O O10 0.072749 0.008082 0.667979
O O11 0.320423 0.896556 0.469150
O O12 0.500000 0.870069 0.500000
#
# Coordination Sequence:
#
# PCOD9122287 Si02
#       6
#     4   4   2   4   4   4
#     4  10  22  45  66  91 133 180 227 269 342 402
#     4   8  18  33  60  91 125 162 213 281 326 382
#     4  12  26  44  68  98 144 186 210 278 352 402
#     4  11  24  42  69  95 133 179 229 275 332 407
#     4  10  19  40  66  97 129 175 228 282 331 392
#     4  11  20  32  63 104 130 165 230 287 327 388
#
# _framework density 19.817726
#
# number of rings (size 3 to 8) (size 9 to 14) (size 15 to 20)
#    0.000    1.818    1.818    3.818    5.091    1.455 
#    0.000    0.000    0.000    2.182    0.000    0.000 
#    0.000    0.000    0.000    0.000    0.000    0.000 
#
# Total GULP energy -61363.670750 kJ/mol
# GULP energy per Si atom -5578.515523 kJ/mol
# Density = 1.977262 g / cm^3
# Si number density = 19.817726 Si / 1000 Ang^3
#
#
#
# Elastic Constant Matrix: (Units=GPa)
#
#
# Indices 1 2 3 4 5 6 
#
# 1 89.7141 18.6910 10.9522 0.0000 7.5934 0.0000
# 2 18.6910 139.0490 15.1056 0.0000 10.3831 0.0000
# 3 10.9522 15.1056 47.5049 0.0000 9.7725 0.0000
# 4 0.0000 0.0000 0.0000 -29.2725 0.0000 -20.5328
# 5 7.5934 10.3831 9.7725 0.0000 34.9600 0.0000
# 6 0.0000 0.0000 0.0000 -20.5328 0.0000 14.0960
#
#
#
# Elastic Compliance Matrix: (Units=1/GPa)
#
#
# Indices 1 2 3 4 5 6 
#
# 1 0.011787 -0.001247 -0.001985 0.000000 -0.001635 0.000000
# 2 -0.001247 0.007671 -0.001845 0.000000 -0.001492 0.000000
# 3 -0.001985 -0.001845 0.023229 0.000000 -0.005514 0.000000
# 4 0.000000 0.000000 0.000000 -0.016897 0.000000 -0.024613
# 5 -0.001635 -0.001492 -0.005514 0.000000 0.030944 0.000000
# 6 0.000000 0.000000 0.000000 -0.024613 0.000000 0.035090
#
#
# Mechanical properties :
#
#
# Convention : Reuss Voigt Hill
#
# Bulk Modulus (GPa) = 30.73664 40.64063 35.68863
# Shear Modulus (GPa) = 44.31811 19.39132 31.85472
#
# Velocity S-wave (km/s) = 4.73407 3.13147 4.01357
# Velocity P-wave (km/s) = 6.73982 5.79884 6.28696
#
# Compressibility (1/GPa) = 0.03253447
#
# Stress axis : x y z
#
# Youngs Moduli (GPa) = 84.83970 130.35912 43.04949
#
# Poissons Ratio (x) = 0.16252 0.08544
# Poissons Ratio (y) = 0.10577 0.07942
# Poissons Ratio (z) = 0.16838 0.24051
#
# Static dielectric constant tensor:
#      x y z
#    x 1.837510 0.000000 -0.003740 
#    y 0.000000 1.707730 0.000000 
#    z -0.003740 0.000000 1.711110 
# 
# From -- ./inp_files/41414.got.cif
#   From: 2010.05.17/outbox.cif.g08.bks.cpg/sg5_21_cif.got.tgz:41414.got - 2010.06.03 18:56:24.
