data_PCOD9122637
_publ_section_title
;
Structure prediction by ZEFSAII (Michael W. Deem and Ramdas Pophale) SiO2 
 PCOD9122637
Probable space group: C 2
;
_chemical_formula_sum "Si O2"
_cell_formula_units_Z 28
_cell_length_a 17.711550
_cell_length_b 15.338253
_cell_length_c 7.334590
_cell_angle_alpha 90.000000
_cell_angle_beta 144.100675
_cell_angle_gamma 90.000000
_cell_volume 1168.354750
_symmetry_space_group_name_H-M "C 2"
_symmetry_group_IT_number 5
_symmetry_cell_setting 'monoclinic'
loop_
_space_group_symop_operation_xyz
x,y,z
-x,y,-z
1/2+x,1/2+y,z
1/2-x,1/2+y,-z
loop_
_atom_site_type_symbol
_atom_site_label
_atom_site_fract_x
_atom_site_fract_y
_atom_site_fract_z
Si Si1 0.710091 0.030180 0.501056
Si Si2 0.376457 0.837740 0.640502
Si Si3 0.144598 0.715809 0.261225
Si Si4 0.223271 0.989315 0.782842
Si Si5 0.050270 0.942801 0.893645
Si Si6 0.247438 0.825650 0.042133
Si Si7 0.644696 0.152236 0.840266
O O1 0.659304 0.128342 0.413462
O O2 0.728093 0.012134 0.321943
O O3 0.631488 0.943144 0.401668
O O4 0.847585 0.019127 0.866061
O O5 0.253352 0.790211 0.496759
O O6 0.362501 0.803568 0.406399
O O7 0.500000 0.815806 0.000000
O O8 0.151706 0.682469 0.065674
O O9 0.000000 0.747330 0.000000
O O10 0.072146 0.971969 0.461798
O O11 0.265666 0.068005 0.995635
O O12 0.284513 0.900621 0.975468
O O13 0.000000 0.921505 0.000000
O O14 0.132845 0.869975 0.944332
O O15 0.193553 0.740149 0.839602
O O16 0.500000 0.130913 0.500000
#
# Coordination Sequence:
#
# PCOD9122637 Si02
#       7
#     4   4   4   4   4   4   4
#     4   9  20  36  58  84 115 154 193 241 291 346
#     4  10  22  39  60  87 118 153 196 245 295 347
#     4  10  22  39  61  88 117 154 197 240 291 353
#     4  10  20  35  56  84 118 154 196 243 291 345
#     4   9  18  34  59  88 116 151 197 241 291 347
#     4  10  21  37  59  83 115 156 192 241 295 350
#     4  10  22  36  55  82 114 152 195 243 290 346
#
# _framework density 23.965325
#
# number of rings (size 3 to 8) (size 9 to 14) (size 15 to 20)
#    0.000    2.286    0.000    1.714    0.000   18.286 
#    0.000    0.000    0.000    6.857    0.000    0.000 
#    0.000    0.000    0.000    0.000    0.000    0.000 
#
# Total GULP energy -78199.889874 kJ/mol
# GULP energy per Si atom -5585.706420 kJ/mol
# Density = 2.391078 g / cm^3
# Si number density = 23.965325 Si / 1000 Ang^3
#
#
#
# Elastic Constant Matrix: (Units=GPa)
#
#
# Indices 1 2 3 4 5 6 
#
# 1 47.7225 12.3387 -0.1160 0.0000 -13.6335 0.0000
# 2 12.3387 149.1044 70.3542 0.0000 0.6059 0.0000
# 3 -0.1160 70.3542 187.7959 0.0000 6.6100 0.0000
# 4 0.0000 0.0000 0.0000 77.0615 0.0000 -26.2072
# 5 -13.6335 0.6059 6.6100 0.0000 17.3517 0.0000
# 6 0.0000 0.0000 0.0000 -26.2072 0.0000 44.8782
#
#
#
# Elastic Compliance Matrix: (Units=1/GPa)
#
#
# Indices 1 2 3 4 5 6 
#
# 1 0.027853 -0.002476 0.000174 0.000000 0.021905 0.000000
# 2 -0.002476 0.008380 -0.003104 0.000000 -0.001056 0.000000
# 3 0.000174 -0.003104 0.006567 0.000000 -0.002257 0.000000
# 4 0.000000 0.000000 0.000000 0.016192 0.000000 0.009456
# 5 0.021905 -0.001056 -0.002257 0.000000 0.075739 0.000000
# 6 0.000000 0.000000 0.000000 0.009456 0.000000 0.027804
#
#
# Mechanical properties :
#
#
# Convention : Reuss Voigt Hill
#
# Bulk Modulus (GPa) = 31.26132 61.08630 46.17381
# Shear Modulus (GPa) = 27.17228 47.99466 37.58347
#
# Velocity S-wave (km/s) = 3.37087 4.47998 3.96440
# Velocity P-wave (km/s) = 5.31254 7.23222 6.34540
#
# Compressibility (1/GPa) = 0.03198841
#
# Stress axis : x y z
#
# Youngs Moduli (GPa) = 35.90302 119.32496 152.26918
#
# Poissons Ratio (x) = 0.29543 -0.02646
# Poissons Ratio (y) = 0.08889 0.47264
# Poissons Ratio (z) = -0.00624 0.37038
#
# Static dielectric constant tensor:
#      x y z
#    x 1.984450 0.000000 -0.033520 
#    y 0.000000 1.968110 0.000000 
#    z -0.033520 0.000000 1.889660 
# 
# From -- ./inp_files/29924.got.cif
#   From: 2010.05.17/outbox.cif.g08.bks.cpg/sg5_15_cif.got.tgz:29924.got - 2010.06.03 18:56:24.
