data_PCOD9122596
_publ_section_title
;
Structure prediction by ZEFSAII (Michael W. Deem and Ramdas Pophale) SiO2 
 PCOD9122596
Probable space group: C 2
;
_chemical_formula_sum "Si O2"
_cell_formula_units_Z 32
_cell_length_a 14.671973
_cell_length_b 12.646822
_cell_length_c 17.101800
_cell_angle_alpha 90.000000
_cell_angle_beta 154.345477
_cell_angle_gamma 90.000000
_cell_volume 1373.862328
_symmetry_space_group_name_H-M "C 2"
_symmetry_group_IT_number 5
_symmetry_cell_setting 'monoclinic'
loop_
_space_group_symop_operation_xyz
x,y,z
-x,y,-z
1/2+x,1/2+y,z
1/2-x,1/2+y,-z
loop_
_atom_site_type_symbol
_atom_site_label
_atom_site_fract_x
_atom_site_fract_y
_atom_site_fract_z
Si Si1 0.797019 0.692120 0.886530
Si Si2 0.414561 0.872603 0.350766
Si Si3 0.669209 0.147522 0.826207
Si Si4 0.966333 0.030446 0.601733
Si Si5 0.816268 0.579540 0.473690
Si Si6 0.315368 0.382607 0.110259
Si Si7 0.038084 0.539163 0.191488
Si Si8 0.459305 0.500494 0.862999
O O1 0.635561 0.790114 0.757158
O O2 0.671299 0.600892 0.742305
O O3 0.000000 0.734868 0.000000
O O4 0.913251 0.631221 0.046910
O O5 0.500000 0.824383 0.500000
O O6 0.580571 0.961285 0.452346
O O7 0.198858 0.929592 0.209592
O O8 0.509571 0.159127 0.631027
O O9 0.704512 0.257771 0.896122
O O10 0.534206 0.070790 0.777857
O O11 0.867850 0.074893 0.964267
O O12 0.852933 0.089999 0.587557
O O13 0.789098 0.024546 0.397497
O O14 0.053643 0.926415 0.713397
O O15 0.685621 0.585012 0.294162
O O16 0.431781 0.426667 0.121286
O O17 0.084334 0.435047 0.930668
#
# Coordination Sequence:
#
# PCOD9122596 Si02
#       8
#     4   4   4   4   4   4   4   4
#     4  11  25  36  60  95 125 159 203 248 319 379
#     4  10  23  39  61  95 131 163 194 258 328 370
#     4  10  20  34  62  87 120 166 211 252 303 365
#     4   9  20  40  57  81 123 159 204 255 292 367
#     4   9  20  37  56  85 120 164 204 247 301 369
#     4   9  19  36  59  90 115 162 215 254 302 368
#     4   9  21  38  58  88 124 163 204 254 308 362
#     4   9  20  38  56  89 132 155 203 263 311 372
#
# _framework density 23.292000000000002
#
# number of rings (size 3 to 8) (size 9 to 14) (size 15 to 20)
#    0.000    2.500    0.000    0.750    5.250    8.000 
#    0.000    0.000   11.000    0.000    0.000    0.000 
#    0.000    0.000    0.000    0.000    0.000    0.000 
#
# Total GULP energy -89122.169255 kJ/mol
# GULP energy per Si atom -5570.135578 kJ/mol
# Density = 2.323899 g / cm^3
# Si number density = 23.292000 Si / 1000 Ang^3
#
#
#
# Elastic Constant Matrix: (Units=GPa)
#
#
# Indices 1 2 3 4 5 6 
#
# 1 25.3030 12.5422 23.4012 0.0017 -0.2251 -0.0001
# 2 12.5422 73.3997 37.8480 0.0150 -3.4143 0.0060
# 3 23.4012 37.8480 170.6507 0.0104 3.2395 0.0049
# 4 0.0017 0.0150 0.0104 15.5376 0.0021 -10.6814
# 5 -0.2251 -3.4143 3.2395 0.0021 27.5542 0.0012
# 6 -0.0001 0.0060 0.0049 -10.6814 0.0012 18.7555
#
#
#
# Elastic Compliance Matrix: (Units=1/GPa)
#
#
# Indices 1 2 3 4 5 6 
#
# 1 0.047034 -0.005297 -0.005282 0.000009 0.000349 0.000009
# 2 -0.005297 0.016128 -0.002894 -0.000027 0.002295 -0.000020
# 3 -0.005282 -0.002894 0.007250 -0.000003 -0.001254 -0.000003
# 4 0.000009 -0.000027 -0.000003 0.105771 -0.000013 0.060237
# 5 0.000349 0.002295 -0.001254 -0.000013 0.036727 -0.000010
# 6 0.000009 -0.000020 -0.000003 0.060237 -0.000010 0.087624
#
#
# Mechanical properties :
#
#
# Convention : Reuss Voigt Hill
#
# Bulk Modulus (GPa) = 23.00625 46.32624 34.66625
# Shear Modulus (GPa) = 14.62122 25.40692 20.01407
#
# Velocity S-wave (km/s) = 2.50818 3.30631 2.93451
# Velocity P-wave (km/s) = 4.27630 5.87436 5.13784
#
# Compressibility (1/GPa) = 0.04346645
#
# Stress axis : x y z
#
# Youngs Moduli (GPa) = 21.26102 62.00245 137.93338
#
# Poissons Ratio (x) = 0.32845 0.72850
# Poissons Ratio (y) = 0.11263 0.39921
# Poissons Ratio (z) = 0.11229 0.17945
#
# Static dielectric constant tensor:
#      x y z
#    x 1.939950 0.000000 -0.084300 
#    y 0.000000 1.846150 0.000000 
#    z -0.084300 0.000000 2.148000 
# 
# From -- ./inp_files/67157.got.cif
#   From: 2010.05.17/outbox.cif.g08.bks.cpg/sg5_34_cif.got.tgz:67157.got - 2010.06.03 18:56:24.
