data_PCOD9122923
_publ_section_title
;
Structure prediction by ZEFSAII (Michael W. Deem and Ramdas Pophale) SiO2 
 PCOD9122923
Probable space group: C 2
;
_chemical_formula_sum "Si O2"
_cell_formula_units_Z 30
_cell_length_a 28.376237
_cell_length_b 8.979083
_cell_length_c 10.374596
_cell_angle_alpha 90.000000
_cell_angle_beta 36.301256
_cell_angle_gamma 90.000000
_cell_volume 1564.956669
_symmetry_space_group_name_H-M "C 2"
_symmetry_group_IT_number 5
_symmetry_cell_setting 'monoclinic'
loop_
_space_group_symop_operation_xyz
x,y,z
-x,y,-z
1/2+x,1/2+y,z
1/2-x,1/2+y,-z
loop_
_atom_site_type_symbol
_atom_site_label
_atom_site_fract_x
_atom_site_fract_y
_atom_site_fract_z
Si Si1 0.413661 0.454290 0.050249
Si Si2 0.536649 0.123287 0.099808
Si Si3 0.204190 0.948519 0.927375
Si Si4 0.852344 0.614303 0.905052
Si Si5 0.500000 0.878051 0.000000
Si Si6 0.417655 0.606955 0.307743
Si Si7 0.137781 0.636153 0.412694
Si Si8 0.307254 0.472080 0.751385
O O1 0.429236 0.278074 0.029907
O O2 0.500459 0.524687 0.832476
O O3 0.354606 0.484700 0.061637
O O4 0.387444 0.526219 0.243459
O O5 0.578103 0.104187 0.145843
O O6 0.441503 0.127041 0.328274
O O7 0.552768 0.984476 0.972667
O O8 0.290598 0.022043 0.711904
O O9 0.195360 0.769813 0.964928
O O10 0.178879 0.002920 0.126913
O O11 0.883005 0.609116 0.691782
O O12 0.786430 0.487848 0.065228
O O13 0.444736 0.771264 0.207859
O O14 0.355400 0.587568 0.557970
O O15 0.166973 0.807144 0.347304
#
# Coordination Sequence:
#
# PCOD9122923 Si02
#       8
#     4   4   4   4   2   4   4   4
#     4   9  19  38  61  83 118 148 201 239 287 351
#     4  11  20  38  60  86 112 158 198 238 293 346
#     4   9  20  37  59  91 118 149 195 245 287 352
#     4   9  21  38  58  88 122 149 188 247 289 351
#     4  10  24  36  58  80 122 152 202 248 280 346
#     4  10  21  39  58  83 119 158 194 243 295 343
#     4  10  20  36  64  87 117 151 198 234 297 348
#     4  10  20  37  60  86 120 157 189 240 296 348
#
# _framework density 19.16986
#
# number of rings (size 3 to 8) (size 9 to 14) (size 15 to 20)
#    0.000    2.400    1.333    1.200    1.867    2.667 
#    2.400    0.000    5.867    0.000    0.000    0.000 
#    0.000    0.000    0.000    0.000    0.000    0.000 
#
# Total GULP energy -83662.520744 kJ/mol
# GULP energy per Si atom -5577.501383 kJ/mol
# Density = 1.912623 g / cm^3
# Si number density = 19.169860 Si / 1000 Ang^3
#
#
#
# Elastic Constant Matrix: (Units=GPa)
#
#
# Indices 1 2 3 4 5 6 
#
# 1 109.8183 33.7728 34.9109 0.0000 -7.6440 0.0000
# 2 33.7728 77.4434 24.7170 0.0000 -1.8798 0.0000
# 3 34.9109 24.7170 60.5140 0.0000 3.6317 0.0000
# 4 0.0000 0.0000 0.0000 20.7991 0.0000 -0.0493
# 5 -7.6440 -1.8798 3.6317 0.0000 11.5546 0.0000
# 6 0.0000 0.0000 0.0000 -0.0493 0.0000 24.6050
#
#
#
# Elastic Compliance Matrix: (Units=1/GPa)
#
#
# Indices 1 2 3 4 5 6 
#
# 1 0.012962 -0.003248 -0.006762 0.000000 0.010172 0.000000
# 2 -0.003248 0.015885 -0.004730 0.000000 0.001923 0.000000
# 3 -0.006762 -0.004730 0.023109 0.000000 -0.012506 0.000000
# 4 0.000000 0.000000 0.000000 0.048079 0.000000 0.000096
# 5 0.010172 0.001923 -0.012506 0.000000 0.097519 0.000000
# 6 0.000000 0.000000 0.000000 0.000096 0.000000 0.040642
#
#
# Mechanical properties :
#
#
# Convention : Reuss Voigt Hill
#
# Bulk Modulus (GPa) = 44.49052 48.28632 46.38842
# Shear Modulus (GPa) = 18.17063 21.68341 19.92702
#
# Velocity S-wave (km/s) = 3.08210 3.36686 3.22762
# Velocity P-wave (km/s) = 5.99372 6.35277 6.17586
#
# Compressibility (1/GPa) = 0.02247670
#
# Stress axis : x y z
#
# Youngs Moduli (GPa) = 77.14596 62.95114 43.27367
#
# Poissons Ratio (x) = 0.20445 0.29262
# Poissons Ratio (y) = 0.25055 0.20469
# Poissons Ratio (z) = 0.52166 0.29777
#
# Static dielectric constant tensor:
#      x y z
#    x 1.658480 0.000000 0.016620 
#    y 0.000000 1.685530 0.000000 
#    z 0.016620 0.000000 1.646570 
# 
# From -- ./inp_files/48341.got.cif
#   From: 2010.05.17/outbox.cif.g08.bks.cpg/sg5_25_cif.got.tgz:48341.got - 2010.06.03 18:56:24.
