data_PCOD9122337
_publ_section_title
;
Structure prediction by ZEFSAII (Michael W. Deem and Ramdas Pophale) SiO2 
 PCOD9122337
Probable space group: C 2
;
_chemical_formula_sum "Si O2"
_cell_formula_units_Z 28
_cell_length_a 9.510558
_cell_length_b 10.759175
_cell_length_c 12.378712
_cell_angle_alpha 90.000000
_cell_angle_beta 76.214596
_cell_angle_gamma 90.000000
_cell_volume 1230.174932
_symmetry_space_group_name_H-M "C 2"
_symmetry_group_IT_number 5
_symmetry_cell_setting 'monoclinic'
loop_
_space_group_symop_operation_xyz
x,y,z
-x,y,-z
1/2+x,1/2+y,z
1/2-x,1/2+y,-z
loop_
_atom_site_type_symbol
_atom_site_label
_atom_site_fract_x
_atom_site_fract_y
_atom_site_fract_z
Si Si1 0.922929 0.222240 0.767447
Si Si2 0.840224 0.374913 0.185746
Si Si3 0.500000 0.067138 0.000000
Si Si4 0.716066 0.675487 0.985692
Si Si5 0.500000 0.451811 0.000000
Si Si6 0.828829 0.156103 0.554234
Si Si7 0.842989 0.885670 0.476184
Si Si8 0.507862 0.438336 0.235633
O O1 0.831011 0.239560 0.893501
O O2 0.825323 0.199535 0.679786
O O3 0.045879 0.329023 0.744343
O O4 0.998608 0.087975 0.767807
O O5 0.672502 0.404871 0.243554
O O6 0.831845 0.260677 0.103432
O O7 0.910709 0.485598 0.103192
O O8 0.616216 0.147636 0.041834
O O9 0.636759 0.543121 0.990683
O O10 0.484509 0.388476 0.118924
O O11 0.752493 0.262384 0.498220
O O12 0.000000 0.153175 0.500000
O O13 0.221128 0.015705 0.465595
O O14 0.000000 0.866094 0.500000
O O15 0.886647 0.901655 0.342727
#
# Coordination Sequence:
#
# PCOD9122337 Si02
#       8
#     4   4   2   4   2   4   4   4
#     4  11  21  42  67  95 137 180 226 286 353 408
#     4  12  23  41  67  97 140 185 220 286 346 409
#     4  12  23  37  60  98 138 180 233 281 328 420
#     4  11  22  39  63  98 139 180 230 274 342 417
#     4  10  19  41  66  92 142 184 215 277 352 414
#     4  11  26  47  75 101 139 184 234 298 362 413
#     4  11  26  49  73 105 140 183 237 297 351 422
#     4  11  23  42  71  99 137 182 231 282 347 416
#
# _framework density 22.760991000000001
#
# number of rings (size 3 to 8) (size 9 to 14) (size 15 to 20)
#    0.000    0.857   10.000    0.000    2.000    4.571 
#    0.000    0.000    0.000    0.000    0.000    0.000 
#    0.000    0.000    0.000    0.000    0.000    0.000 
#
# Total GULP energy -78251.314028 kJ/mol
# GULP energy per Si atom -5589.379573 kJ/mol
# Density = 2.270919 g / cm^3
# Si number density = 22.760991 Si / 1000 Ang^3
#
#
#
# Elastic Constant Matrix: (Units=GPa)
#
#
# Indices 1 2 3 4 5 6 
#
# 1 83.0483 42.4722 10.2050 0.0000 13.8021 0.0000
# 2 42.4722 92.8099 30.0634 0.0000 19.2445 0.0000
# 3 10.2050 30.0634 96.8115 0.0000 12.4065 0.0000
# 4 0.0000 0.0000 0.0000 13.6885 0.0000 13.7739
# 5 13.8021 19.2445 12.4065 0.0000 30.5249 0.0000
# 6 0.0000 0.0000 0.0000 13.7739 0.0000 43.0085
#
#
#
# Elastic Compliance Matrix: (Units=1/GPa)
#
#
# Indices 1 2 3 4 5 6 
#
# 1 0.016023 -0.006950 0.000882 0.000000 -0.003222 0.000000
# 2 -0.006950 0.016297 -0.003602 0.000000 -0.005668 0.000000
# 3 0.000882 -0.003602 0.011726 0.000000 -0.002894 0.000000
# 4 0.000000 0.000000 0.000000 0.107790 0.000000 -0.034521
# 5 -0.003222 -0.005668 -0.002894 0.000000 0.038967 0.000000
# 6 0.000000 0.000000 0.000000 -0.034521 0.000000 0.034307
#
#
# Mechanical properties :
#
#
# Convention : Reuss Voigt Hill
#
# Bulk Modulus (GPa) = 40.47607 48.68344 44.57976
# Shear Modulus (GPa) = 19.78756 30.10632 24.94694
#
# Velocity S-wave (km/s) = 2.95169 3.64086 3.31424
# Velocity P-wave (km/s) = 5.42571 6.25379 5.85441
#
# Compressibility (1/GPa) = 0.02470596
#
# Stress axis : x y z
#
# Youngs Moduli (GPa) = 62.41192 61.35984 85.28256
#
# Poissons Ratio (x) = 0.42646 -0.07523
# Poissons Ratio (y) = 0.43377 0.30718
# Poissons Ratio (z) = -0.05506 0.22101
#
# Static dielectric constant tensor:
#      x y z
#    x 1.875240 0.000000 -0.011080 
#    y 0.000000 1.846010 0.000000 
#    z -0.011080 0.000000 1.989320 
# 
# From -- ./inp_files/50141.got.cif
#   From: 2010.05.17/outbox.cif.g08.bks.cpg/sg5_26_cif.got.tgz:50141.got - 2010.06.03 18:56:24.
