data_PCOD9122123
_publ_section_title
;
Structure prediction by ZEFSAII (Michael W. Deem and Ramdas Pophale) SiO2 
 PCOD9122123
Probable space group: C 2
;
_chemical_formula_sum "Si O2"
_cell_formula_units_Z 32
_cell_length_a 16.202728
_cell_length_b 6.767151
_cell_length_c 25.592140
_cell_angle_alpha 90.000000
_cell_angle_beta 151.313421
_cell_angle_gamma 90.000000
_cell_volume 1346.970715
_symmetry_space_group_name_H-M "C 2"
_symmetry_group_IT_number 5
_symmetry_cell_setting 'monoclinic'
loop_
_space_group_symop_operation_xyz
x,y,z
-x,y,-z
1/2+x,1/2+y,z
1/2-x,1/2+y,-z
loop_
_atom_site_type_symbol
_atom_site_label
_atom_site_fract_x
_atom_site_fract_y
_atom_site_fract_z
Si Si1 0.315974 0.770280 0.917228
Si Si2 0.134071 0.708627 0.490962
Si Si3 0.690136 0.035380 0.709304
Si Si4 0.682624 0.831805 0.595743
Si Si5 0.756949 0.182213 0.080608
Si Si6 0.001249 0.283303 0.306789
Si Si7 0.459365 0.308845 0.671498
Si Si8 0.921716 0.037485 0.068280
O O1 0.153600 0.737620 0.789402
O O2 0.325583 0.003944 0.933078
O O3 0.500000 0.696323 0.000000
O O4 0.297691 0.671022 0.963559
O O5 0.145585 0.514239 0.534286
O O6 0.300906 0.835428 0.598938
O O7 0.925337 0.725020 0.373216
O O8 0.150726 0.718293 0.437013
O O9 0.721236 0.908356 0.674512
O O10 0.580676 0.897752 0.689173
O O11 0.880561 0.088899 0.832145
O O12 0.500000 0.718346 0.500000
O O13 0.855469 0.754940 0.665919
O O14 0.874097 0.299922 0.187064
O O15 0.877091 0.084423 0.103173
O O16 0.620088 0.318541 0.975275
O O17 0.022112 0.045347 0.328133
#
# Coordination Sequence:
#
# PCOD9122123 Si02
#       8
#     4   4   4   4   4   4   4   4
#     4  11  25  42  64 100 139 181 234 293 344 419
#     4  10  19  38  65  94 131 171 213 276 341 410
#     4  11  23  39  70  98 127 182 227 280 346 422
#     4   9  19  37  64  92 126 168 218 268 336 410
#     4  11  26  45  69  98 143 187 229 299 349 422
#     4  10  22  39  64  99 132 171 225 278 350 410
#     4  10  21  39  63  92 134 172 220 282 341 406
#     4  12  25  45  68  99 139 186 239 286 357 416
#
# _framework density 23.757013000000001
#
# number of rings (size 3 to 8) (size 9 to 14) (size 15 to 20)
#    0.000    1.500    1.250    5.250    7.000    0.000 
#    0.000    0.000    0.000   17.250    0.000    0.000 
#    0.000    0.000    0.000    0.000    0.000    0.000 
#
# Total GULP energy -89135.290152 kJ/mol
# GULP energy per Si atom -5570.955635 kJ/mol
# Density = 2.370294 g / cm^3
# Si number density = 23.757013 Si / 1000 Ang^3
#
#
#
# Elastic Constant Matrix: (Units=GPa)
#
#
# Indices 1 2 3 4 5 6 
#
# 1 105.2561 9.1894 29.5173 0.0000 1.4939 0.0000
# 2 9.1894 67.6419 -1.1124 -0.0001 -6.9469 0.0002
# 3 29.5173 -1.1124 99.0202 0.0004 -7.6631 0.0001
# 4 0.0000 -0.0001 0.0004 17.6542 0.0000 -7.1930
# 5 1.4939 -6.9469 -7.6631 0.0000 45.0340 0.0000
# 6 0.0000 0.0002 0.0001 -7.1930 0.0000 25.4622
#
#
#
# Elastic Compliance Matrix: (Units=1/GPa)
#
#
# Indices 1 2 3 4 5 6 
#
# 1 0.010571 -0.001608 -0.003259 0.000000 -0.001153 0.000000
# 2 -0.001608 0.015279 0.000849 0.000000 0.002555 0.000000
# 3 -0.003259 0.000849 0.011246 0.000000 0.002153 0.000000
# 4 0.000000 0.000000 0.000000 0.064011 0.000000 0.018083
# 5 -0.001153 0.002555 0.002153 0.000000 0.023004 0.000000
# 6 0.000000 0.000000 0.000000 0.018083 0.000000 0.044382
#
#
# Mechanical properties :
#
#
# Convention : Reuss Voigt Hill
#
# Bulk Modulus (GPa) = 34.41126 38.56742 36.48934
# Shear Modulus (GPa) = 26.85044 33.25168 30.05106
#
# Velocity S-wave (km/s) = 3.36551 3.74526 3.56045
# Velocity P-wave (km/s) = 5.44227 5.91371 5.68288
#
# Compressibility (1/GPa) = 0.02906025
#
# Stress axis : x y z
#
# Youngs Moduli (GPa) = 94.59664 65.45131 88.91708
#
# Poissons Ratio (x) = 0.10526 0.28974
# Poissons Ratio (y) = 0.15213 -0.07547
# Poissons Ratio (z) = 0.30825 -0.05555
#
# Static dielectric constant tensor:
#      x y z
#    x 1.938230 0.000000 0.023130 
#    y 0.000000 1.994770 0.000000 
#    z 0.023130 0.000000 1.920580 
# 
# From -- ./inp_files/68793.got.cif
#   From: 2010.05.17/outbox.cif.g08.bks.cpg/sg5_35_cif.got.tgz:68793.got - 2010.06.03 18:56:24.
