data_PCOD9122755
_publ_section_title
;
Structure prediction by ZEFSAII (Michael W. Deem and Ramdas Pophale) SiO2 
 PCOD9122755
Probable space group: C 2
;
_chemical_formula_sum "Si O2"
_cell_formula_units_Z 26
_cell_length_a 25.491635
_cell_length_b 7.646512
_cell_length_c 11.682816
_cell_angle_alpha 90.000000
_cell_angle_beta 152.757021
_cell_angle_gamma 90.000000
_cell_volume 1042.440222
_symmetry_space_group_name_H-M "C 2"
_symmetry_group_IT_number 5
_symmetry_cell_setting 'monoclinic'
loop_
_space_group_symop_operation_xyz
x,y,z
-x,y,-z
1/2+x,1/2+y,z
1/2-x,1/2+y,-z
loop_
_atom_site_type_symbol
_atom_site_label
_atom_site_fract_x
_atom_site_fract_y
_atom_site_fract_z
Si Si1 0.033756 0.527280 0.190987
Si Si2 0.500000 0.369451 0.000000
Si Si3 0.708739 0.963865 0.249699
Si Si4 0.114581 0.434878 0.677014
Si Si5 0.272486 0.576339 0.616792
Si Si6 0.653074 0.603209 0.891267
Si Si7 0.084496 0.075812 0.507754
O O1 0.165056 0.479113 0.469616
O O2 0.037511 0.735739 0.172923
O O3 0.920537 0.497322 0.046117
O O4 0.000000 0.445769 0.000000
O O5 0.393170 0.480719 0.836447
O O6 0.711415 0.763030 0.294137
O O7 0.817143 0.007347 0.382372
O O8 0.725544 0.085336 0.394910
O O9 0.000000 0.527638 0.500000
O O10 0.149417 0.308203 0.851621
O O11 0.089981 0.286264 0.534734
O O12 0.218219 0.550629 0.835793
O O13 0.617873 0.516168 0.701063
O O14 0.550698 0.545251 0.776687
#
# Coordination Sequence:
#
# PCOD9122755 Si02
#       7
#     4   2   4   4   4   4   4
#     4   8  19  35  53  75 104 145 190 232 278 319
#     4  10  20  36  56  80 102 154 194 226 290 324
#     4  11  20  38  60  80 116 152 195 232 283 331
#     4   8  16  34  58  81 112 147 175 226 284 330
#     4  11  21  35  58  76 113 154 188 238 279 325
#     4   8  16  37  60  78 119 140 177 231 287 323
#     4   8  19  34  61  85 109 148 183 229 282 332
#
# _framework density 24.941479000000001
#
# number of rings (size 3 to 8) (size 9 to 14) (size 15 to 20)
#    1.385    1.538    1.538    0.000    3.231    1.231 
#    2.769    3.077    3.385    0.000    0.000    0.000 
#    0.000    0.000    0.000    0.000    0.000    0.000 
#
# Total GULP energy -72473.801360 kJ/mol
# GULP energy per Si atom -5574.907797 kJ/mol
# Density = 2.488471 g / cm^3
# Si number density = 24.941479 Si / 1000 Ang^3
#
#
#
# Elastic Constant Matrix: (Units=GPa)
#
#
# Indices 1 2 3 4 5 6 
#
# 1 91.0949 28.4476 56.5393 0.0000 37.5505 0.0000
# 2 28.4476 53.5955 54.8517 0.0000 17.5284 0.0000
# 3 56.5393 54.8517 244.2483 0.0000 68.7608 0.0000
# 4 0.0000 0.0000 0.0000 40.9850 0.0000 7.1036
# 5 37.5505 17.5284 68.7608 0.0000 42.9073 0.0000
# 6 0.0000 0.0000 0.0000 7.1036 0.0000 18.2611
#
#
#
# Elastic Compliance Matrix: (Units=1/GPa)
#
#
# Indices 1 2 3 4 5 6 
#
# 1 0.018700 -0.006295 0.001764 0.000000 -0.016620 0.000000
# 2 -0.006295 0.026455 -0.005452 0.000000 0.003439 0.000000
# 3 0.001764 -0.005452 0.008596 0.000000 -0.013092 0.000000
# 4 0.000000 0.000000 0.000000 0.026163 0.000000 -0.010178
# 5 -0.016620 0.003439 -0.013092 0.000000 0.057427 0.000000
# 6 0.000000 0.000000 0.000000 -0.010178 0.000000 0.058720
#
#
# Mechanical properties :
#
#
# Convention : Reuss Voigt Hill
#
# Bulk Modulus (GPa) = 29.59976 74.29066 51.94521
# Shear Modulus (GPa) = 21.99853 37.03736 29.51795
#
# Velocity S-wave (km/s) = 2.97308 3.85771 3.44392
# Velocity P-wave (km/s) = 4.86611 7.04934 6.05691
#
# Compressibility (1/GPa) = 0.03378406
#
# Stress axis : x y z
#
# Youngs Moduli (GPa) = 53.47666 37.80056 116.33594
#
# Poissons Ratio (x) = 0.23796 -0.20522
# Poissons Ratio (y) = 0.33665 0.63426
# Poissons Ratio (z) = -0.09434 0.20609
#
# Static dielectric constant tensor:
#      x y z
#    x 2.095270 0.000000 -0.050150 
#    y 0.000000 1.972190 0.000000 
#    z -0.050150 0.000000 2.043160 
# 
# From -- ./inp_files/63782.got.cif
#   From: 2010.05.17/outbox.cif.g08.bks.cpg/sg5_32_cif.got.tgz:63782.got - 2010.06.03 18:56:24.
