data_PCOD9122797
_publ_section_title
;
Structure prediction by ZEFSAII (Michael W. Deem and Ramdas Pophale) SiO2 
 PCOD9122797
Probable space group: C 2
;
_chemical_formula_sum "Si O2"
_cell_formula_units_Z 18
_cell_length_a 24.876654
_cell_length_b 4.766739
_cell_length_c 8.622407
_cell_angle_alpha 90.000000
_cell_angle_beta 137.786877
_cell_angle_gamma 90.000000
_cell_volume 686.973831
_symmetry_space_group_name_H-M "C 2"
_symmetry_group_IT_number 5
_symmetry_cell_setting 'monoclinic'
loop_
_space_group_symop_operation_xyz
x,y,z
-x,y,-z
1/2+x,1/2+y,z
1/2-x,1/2+y,-z
loop_
_atom_site_type_symbol
_atom_site_label
_atom_site_fract_x
_atom_site_fract_y
_atom_site_fract_z
Si Si1 0.325167 0.173310 0.809899
Si Si2 0.500000 0.057666 0.500000
Si Si3 0.697700 0.192627 0.904095
Si Si4 0.359474 0.673926 0.690542
Si Si5 0.441564 0.524830 0.561978
O O1 0.352989 0.484604 0.830021
O O2 0.229412 0.144451 0.574779
O O3 0.367981 0.985760 0.771934
O O4 0.338552 0.076784 0.013870
O O5 0.509295 0.299701 0.656423
O O6 0.449862 0.821366 0.490238
O O7 0.635595 0.357284 0.666931
O O8 0.759569 0.435430 0.086767
O O9 0.425230 0.586891 0.706200
#
# Coordination Sequence:
#
# PCOD9122797 Si02
#       5
#     4   2   4   4   4
#     4  10  21  34  55  94 130 157 188 238 326 390
#     4  10  24  40  62  88 116 172 228 254 284 354
#     4  12  23  36  62  98 133 158 193 264 330 368
#     4  10  20  36  58  85 130 164 193 239 306 391
#     4  11  22  41  64  88 125 166 215 260 299 362
#
# _framework density 26.201872000000002
#
# number of rings (size 3 to 8) (size 9 to 14) (size 15 to 20)
#    0.000    1.333    2.222    4.000    6.222    0.000 
#    0.000    0.000    0.000   20.000    0.000    0.000 
#    0.000    0.000    0.000    0.000    0.000    0.000 
#
# Total GULP energy -50287.325057 kJ/mol
# GULP energy per Si atom -5587.480562 kJ/mol
# Density = 2.614224 g / cm^3
# Si number density = 26.201872 Si / 1000 Ang^3
#
#
#
# Elastic Constant Matrix: (Units=GPa)
#
#
# Indices 1 2 3 4 5 6 
#
# 1 132.6826 37.1189 21.9530 0.0000 -25.8365 0.0000
# 2 37.1189 150.1237 14.3096 0.0000 -1.8971 0.0000
# 3 21.9530 14.3096 56.6058 0.0000 -14.4846 0.0000
# 4 0.0000 0.0000 0.0000 26.4963 0.0000 -8.1415
# 5 -25.8365 -1.8971 -14.4846 0.0000 37.2422 0.0000
# 6 0.0000 0.0000 0.0000 -8.1415 0.0000 60.2526
#
#
#
# Elastic Compliance Matrix: (Units=1/GPa)
#
#
# Indices 1 2 3 4 5 6 
#
# 1 0.009551 -0.002129 -0.001664 0.000000 0.005870 0.000000
# 2 -0.002129 0.007304 -0.001448 0.000000 -0.001668 0.000000
# 3 -0.001664 -0.001448 0.020392 0.000000 0.006703 0.000000
# 4 0.000000 0.000000 0.000000 0.039376 0.000000 0.005321
# 5 0.005870 -0.001668 0.006703 0.000000 0.033446 0.000000
# 6 0.000000 0.000000 0.000000 0.005321 0.000000 0.017316
#
#
# Mechanical properties :
#
#
# Convention : Reuss Voigt Hill
#
# Bulk Modulus (GPa) = 37.35903 54.01945 45.68924
# Shear Modulus (GPa) = 34.06280 42.53360 38.29820
#
# Velocity S-wave (km/s) = 3.60948 4.03340 3.82731
# Velocity P-wave (km/s) = 5.62674 6.50787 6.08328
#
# Compressibility (1/GPa) = 0.02676729
#
# Stress axis : x y z
#
# Youngs Moduli (GPa) = 104.70513 136.90347 49.03765
#
# Poissons Ratio (x) = 0.29142 0.08159
# Poissons Ratio (y) = 0.22288 0.07099
# Poissons Ratio (z) = 0.17420 0.19820
#
# Static dielectric constant tensor:
#      x y z
#    x 2.150670 0.000000 0.230680 
#    y 0.000000 1.926620 0.000000 
#    z 0.230680 0.000000 2.226310 
# 
# From -- ./inp_files/28073.got.cif
#   From: 2010.05.17/outbox.cif.g08.bks.cpg/sg5_15_cif.got.tgz:28073.got - 2010.06.03 18:56:24.
