data_PCOD9122521
_publ_section_title
;
Structure prediction by ZEFSAII (Michael W. Deem and Ramdas Pophale) SiO2 
 PCOD9122521
Probable space group: C 2
;
_chemical_formula_sum "Si O2"
_cell_formula_units_Z 24
_cell_length_a 12.287627
_cell_length_b 23.228516
_cell_length_c 10.431933
_cell_angle_alpha 90.000000
_cell_angle_beta 155.986469
_cell_angle_gamma 90.000000
_cell_volume 1211.707681
_symmetry_space_group_name_H-M "C 2"
_symmetry_group_IT_number 5
_symmetry_cell_setting 'monoclinic'
loop_
_space_group_symop_operation_xyz
x,y,z
-x,y,-z
1/2+x,1/2+y,z
1/2-x,1/2+y,-z
loop_
_atom_site_type_symbol
_atom_site_label
_atom_site_fract_x
_atom_site_fract_y
_atom_site_fract_z
Si Si1 0.425959 0.598640 0.073778
Si Si2 0.778290 0.045426 0.368597
Si Si3 0.402689 0.416586 0.589892
Si Si4 0.766343 0.982331 0.849699
Si Si5 0.600747 0.846076 0.961175
Si Si6 0.718837 0.722219 0.123583
O O1 0.648166 0.578063 0.417895
O O2 0.500000 0.603175 0.000000
O O3 0.216709 0.545506 0.857068
O O4 0.308043 0.661430 0.978089
O O5 0.000000 0.058809 0.500000
O O6 0.500000 0.059299 0.000000
O O7 0.792398 0.975973 0.408968
O O8 0.149478 0.380361 0.368666
O O9 0.601829 0.439336 0.911867
O O10 0.617581 0.378501 0.744340
O O11 0.500000 0.960559 0.500000
O O12 0.000000 0.991621 0.000000
O O13 0.500000 0.845113 0.000000
O O14 0.655697 0.780481 0.977891
O O15 0.000000 0.726757 0.500000
O O16 0.500000 0.721427 0.000000
#
# Coordination Sequence:
#
# PCOD9122521 Si02
#       6
#     4   4   4   4   4   4
#     4   9  21  39  60  84 112 148 190 233 278 332
#     4  11  23  37  57  85 117 149 183 229 284 336
#     4  11  21  34  55  79 111 148 180 220 282 339
#     4  10  20  35  55  80 107 139 184 235 276 323
#     4  11  20  33  52  80 111 141 177 223 276 331
#     4  10  20  34  55  82 107 137 181 234 279 319
#
# _framework density 19.806757000000001
#
# number of rings (size 3 to 8) (size 9 to 14) (size 15 to 20)
#    0.000    1.667    0.000    6.500    0.000    9.333 
#    0.000    0.000    0.000    6.000    0.000    0.000 
#    0.000    0.000    0.000    0.000    0.000    0.000 
#
# Total GULP energy -66838.622561 kJ/mol
# GULP energy per Si atom -5569.885213 kJ/mol
# Density = 1.976168 g / cm^3
# Si number density = 19.806757 Si / 1000 Ang^3
#
#
#
# Elastic Constant Matrix: (Units=GPa)
#
#
# Indices 1 2 3 4 5 6 
#
# 1 49.4926 31.1986 41.4345 0.0014 3.3204 0.0008
# 2 31.1986 153.5918 64.2675 0.0007 -7.5904 0.0005
# 3 41.4345 64.2675 170.7251 0.0050 2.6966 0.0017
# 4 0.0014 0.0007 0.0050 -8.1315 0.0026 -12.2879
# 5 3.3204 -7.5904 2.6966 0.0026 37.9215 0.0010
# 6 0.0008 0.0005 0.0017 -12.2879 0.0010 7.3669
#
#
#
# Elastic Compliance Matrix: (Units=1/GPa)
#
#
# Indices 1 2 3 4 5 6 
#
# 1 0.026890 -0.003420 -0.005197 0.000001 -0.002669 0.000000
# 2 -0.003420 0.008281 -0.002321 0.000000 0.002122 0.000000
# 3 -0.005197 -0.002321 0.008001 0.000001 -0.000579 0.000001
# 4 0.000001 0.000000 0.000001 -0.034932 0.000004 -0.058265
# 5 -0.002669 0.002122 -0.000579 0.000004 0.027070 0.000003
# 6 0.000000 0.000000 0.000001 -0.058265 0.000003 0.038557
#
#
# Mechanical properties :
#
#
# Convention : Reuss Voigt Hill
#
# Bulk Modulus (GPa) = 46.95170 71.95676 59.45423
# Shear Modulus (GPa) = 48.61773 23.22530 35.92152
#
# Velocity S-wave (km/s) = 4.95977 3.42803 4.26326
# Velocity P-wave (km/s) = 7.52034 7.21643 7.36995
#
# Compressibility (1/GPa) = 0.02129848
#
# Stress axis : x y z
#
# Youngs Moduli (GPa) = 37.18794 120.75185 124.97664
#
# Poissons Ratio (x) = 0.41292 0.64948
# Poissons Ratio (y) = 0.12717 0.29008
# Poissons Ratio (z) = 0.19326 0.28027
#
# Static dielectric constant tensor:
#      x y z
#    x 1.757380 0.000000 -0.023810 
#    y 0.000000 1.810050 0.000000 
#    z -0.023810 0.000000 1.707110 
# 
# From -- ./inp_files/43460.got.cif
#   From: 2010.05.17/outbox.cif.g08.bks.cpg/sg5_22_cif.got.tgz:43460.got - 2010.06.03 18:56:24.
