data_PCOD9122405
_publ_section_title
;
Structure prediction by ZEFSAII (Michael W. Deem and Ramdas Pophale) SiO2 
 PCOD9122405
Probable space group: C 2
;
_chemical_formula_sum "Si O2"
_cell_formula_units_Z 24
_cell_length_a 10.136646
_cell_length_b 10.645803
_cell_length_c 9.052273
_cell_angle_alpha 90.000000
_cell_angle_beta 87.491061
_cell_angle_gamma 90.000000
_cell_volume 975.919140
_symmetry_space_group_name_H-M "C 2"
_symmetry_group_IT_number 5
_symmetry_cell_setting 'monoclinic'
loop_
_space_group_symop_operation_xyz
x,y,z
-x,y,-z
1/2+x,1/2+y,z
1/2-x,1/2+y,-z
loop_
_atom_site_type_symbol
_atom_site_label
_atom_site_fract_x
_atom_site_fract_y
_atom_site_fract_z
Si Si1 0.500000 0.438680 0.000000
Si Si2 0.946211 0.709250 0.826834
Si Si3 0.844658 0.351458 0.244046
Si Si4 0.725998 0.535765 0.469957
Si Si5 0.500000 0.019945 0.000000
Si Si6 0.000000 0.673619 0.500000
Si Si7 0.778108 0.060618 0.202057
Si Si8 0.500000 0.737065 0.500000
O O1 0.420431 0.343191 0.899991
O O2 0.607865 0.518555 0.909510
O O3 0.874239 0.563563 0.848643
O O4 0.074388 0.648158 0.899035
O O5 0.974911 0.738488 0.655721
O O6 0.741100 0.434800 0.342154
O O7 0.782581 0.212607 0.218058
O O8 0.956547 0.319320 0.362676
O O9 0.908783 0.415454 0.099068
O O10 0.701956 0.493286 0.641914
O O11 0.619036 0.644111 0.448497
O O12 0.870150 0.594057 0.478337
#
# Coordination Sequence:
#
# PCOD9122405 Si02
#       8
#     2   4   4   4   2   2   4   2
#     4  11  25  48  64 100 147 173 236 296 346 427
#     4  10  24  44  69 100 135 191 230 288 363 413
#     4  11  23  45  70 102 143 184 237 303 351 429
#     4  10  22  45  72 103 143 183 245 294 348 431
#     4  11  23  42  66 104 137 183 238 288 364 419
#     4  10  19  46  77 102 142 185 247 286 354 436
#     4  10  25  43  68 104 134 187 233 286 365 414
#     4  10  25  44  73 110 136 191 245 290 368 416
#
# _framework density 24.592202
#
# number of rings (size 3 to 8) (size 9 to 14) (size 15 to 20)
#    0.000    1.667    1.667    1.000    4.667    6.667 
#    3.000    4.167    0.000    0.000    0.000    0.000 
#    0.000    0.000    0.000    0.000    0.000    0.000 
#
# Total GULP energy -66810.058991 kJ/mol
# GULP energy per Si atom -5567.504916 kJ/mol
# Density = 2.453623 g / cm^3
# Si number density = 24.592202 Si / 1000 Ang^3
#
#
#
# Elastic Constant Matrix: (Units=GPa)
#
#
# Indices 1 2 3 4 5 6 
#
# 1 70.4917 25.8527 16.3511 0.0000 -29.5614 0.0000
# 2 25.8527 103.0451 74.9419 0.0000 -26.1394 0.0000
# 3 16.3511 74.9419 175.0264 0.0000 -44.2929 0.0000
# 4 0.0000 0.0000 0.0000 67.3857 0.0000 2.7647
# 5 -29.5614 -26.1394 -44.2929 0.0000 39.2985 0.0000
# 6 0.0000 0.0000 0.0000 2.7647 0.0000 41.1139
#
#
#
# Elastic Compliance Matrix: (Units=1/GPa)
#
#
# Indices 1 2 3 4 5 6 
#
# 1 0.022860 -0.004087 0.004586 0.000000 0.019647 0.000000
# 2 -0.004087 0.015197 -0.006079 0.000000 0.000182 0.000000
# 3 0.004586 -0.006079 0.010825 0.000000 0.011607 0.000000
# 4 0.000000 0.000000 0.000000 0.014881 0.000000 -0.001001
# 5 0.019647 0.000182 0.011607 0.000000 0.053429 0.000000
# 6 0.000000 0.000000 0.000000 -0.001001 0.000000 0.024390
#
#
# Mechanical properties :
#
#
# Convention : Reuss Voigt Hill
#
# Bulk Modulus (GPa) = 26.50906 64.76165 45.63535
# Shear Modulus (GPa) = 30.24493 44.98745 37.61619
#
# Velocity S-wave (km/s) = 3.51074 4.28172 3.91525
# Velocity P-wave (km/s) = 5.21887 7.12990 6.24788
#
# Compressibility (1/GPa) = 0.03772295
#
# Stress axis : x y z
#
# Youngs Moduli (GPa) = 43.74421 65.80105 92.37580
#
# Poissons Ratio (x) = 0.26893 -0.42365
# Poissons Ratio (y) = 0.17878 0.56157
# Poissons Ratio (z) = -0.20062 0.40001
#
# Static dielectric constant tensor:
#      x y z
#    x 1.098950 0.000000 -0.040860 
#    y 0.000000 1.945460 0.000000 
#    z -0.040860 0.000000 2.298090 
# 
# From -- ./inp_files/19319.got.cif
#   From: 2010.05.17/outbox.cif.g08.bks.cpg/sg5_10_cif.got.tgz:19319.got - 2010.06.03 18:56:24.
