data_PCOD9122768
_publ_section_title
;
Structure prediction by ZEFSAII (Michael W. Deem and Ramdas Pophale) SiO2 
 PCOD9122768
Probable space group: C 2
;
_chemical_formula_sum "Si O2"
_cell_formula_units_Z 24
_cell_length_a 20.995450
_cell_length_b 6.086701
_cell_length_c 14.211592
_cell_angle_alpha 90.000000
_cell_angle_beta 142.190971
_cell_angle_gamma 90.000000
_cell_volume 1113.352586
_symmetry_space_group_name_H-M "C 2"
_symmetry_group_IT_number 5
_symmetry_cell_setting 'monoclinic'
loop_
_space_group_symop_operation_xyz
x,y,z
-x,y,-z
1/2+x,1/2+y,z
1/2-x,1/2+y,-z
loop_
_atom_site_type_symbol
_atom_site_label
_atom_site_fract_x
_atom_site_fract_y
_atom_site_fract_z
Si Si1 0.500000 0.758910 0.500000
Si Si2 0.000000 0.060029 0.000000
Si Si3 0.765497 0.690051 0.645937
Si Si4 0.183032 0.571330 0.670651
Si Si5 0.847190 0.378693 0.898660
Si Si6 0.565300 0.440308 0.416666
Si Si7 0.991333 0.704999 0.827719
O O1 0.506990 0.610325 0.415366
O O2 0.603106 0.905820 0.625260
O O3 0.906320 0.230909 0.890232
O O4 0.015128 0.896712 0.930930
O O5 0.790856 0.568382 0.774380
O O6 0.662661 0.574633 0.484769
O O7 0.868428 0.660634 0.703435
O O8 0.738382 0.933456 0.650789
O O9 0.261527 0.701812 0.831517
O O10 0.115143 0.756919 0.541262
O O11 0.933005 0.498028 0.063864
O O12 0.498625 0.314252 0.261790
#
# Coordination Sequence:
#
# PCOD9122768 Si02
#       7
#     2   2   4   4   4   4   4
#     4  10  22  48  64 100 126 186 244 300 336 380
#     4  12  20  36  58  92 144 190 204 270 336 432
#     4  10  20  36  56  99 140 174 219 266 348 420
#     4  10  21  41  68  96 128 185 230 288 331 403
#     4  11  20  37  61  98 139 188 214 261 347 422
#     4  10  25  37  66 100 133 179 232 290 338 404
#     4  12  22  36  59 105 144 180 221 277 353 429
#
# _framework density 21.556512000000001
#
# number of rings (size 3 to 8) (size 9 to 14) (size 15 to 20)
#    0.000    1.333    5.000    0.500    2.333    2.667 
#    0.000    0.000    0.000    0.000  195.000    0.000 
#    0.000    0.000    0.000    0.000    0.000    0.000 
#
# Total GULP energy -66936.609967 kJ/mol
# GULP energy per Si atom -5578.050831 kJ/mol
# Density = 2.150745 g / cm^3
# Si number density = 21.556512 Si / 1000 Ang^3
#
#
#
# Elastic Constant Matrix: (Units=GPa)
#
#
# Indices 1 2 3 4 5 6 
#
# 1 73.3862 54.5521 45.0928 0.0000 8.8003 0.0000
# 2 54.5521 135.8244 58.9655 0.0000 12.8602 0.0000
# 3 45.0928 58.9655 82.0867 0.0000 4.9071 0.0000
# 4 0.0000 0.0000 0.0000 43.8215 0.0000 14.7984
# 5 8.8003 12.8602 4.9071 0.0000 13.5176 0.0000
# 6 0.0000 0.0000 0.0000 14.7984 0.0000 31.1383
#
#
#
# Elastic Compliance Matrix: (Units=1/GPa)
#
#
# Indices 1 2 3 4 5 6 
#
# 1 0.023736 -0.004877 -0.009087 0.000000 -0.007515 0.000000
# 2 -0.004877 0.012513 -0.005916 0.000000 -0.006581 0.000000
# 3 -0.009087 -0.005916 0.021193 0.000000 0.003850 0.000000
# 4 0.000000 0.000000 0.000000 0.027182 0.000000 -0.012918
# 5 -0.007515 -0.006581 0.003850 0.000000 0.083734 0.000000
# 6 0.000000 0.000000 0.000000 -0.012918 0.000000 0.038254
#
#
# Mechanical properties :
#
#
# Convention : Reuss Voigt Hill
#
# Bulk Modulus (GPa) = 56.55013 67.61313 62.08163
# Shear Modulus (GPa) = 19.82042 26.54128 23.18085
#
# Velocity S-wave (km/s) = 3.03555 3.51271 3.28281
# Velocity P-wave (km/s) = 6.21100 6.91996 6.57504
#
# Compressibility (1/GPa) = 0.01768343
#
# Stress axis : x y z
#
# Youngs Moduli (GPa) = 42.12924 79.91957 47.18559
#
# Poissons Ratio (x) = 0.38979 0.42875
# Poissons Ratio (y) = 0.20547 0.27913
# Poissons Ratio (z) = 0.38281 0.47277
#
# Static dielectric constant tensor:
#      x y z
#    x 1.806250 0.000000 0.066140 
#    y 0.000000 1.796150 0.000000 
#    z 0.066140 0.000000 1.827840 
# 
# From -- ./inp_files/53783.got.cif
#   From: 2010.05.17/outbox.cif.g08.bks.cpg/sg5_27_cif.got.tgz:53783.got - 2010.06.03 18:56:24.
