data_PCOD9122757
_publ_section_title
;
Structure prediction by ZEFSAII (Michael W. Deem and Ramdas Pophale) SiO2 
 PCOD9122757
Probable space group: C 2
;
_chemical_formula_sum "Si O2"
_cell_formula_units_Z 32
_cell_length_a 14.553894
_cell_length_b 8.311951
_cell_length_c 16.427186
_cell_angle_alpha 90.000000
_cell_angle_beta 123.988328
_cell_angle_gamma 90.000000
_cell_volume 1647.704137
_symmetry_space_group_name_H-M "C 2"
_symmetry_group_IT_number 5
_symmetry_cell_setting 'monoclinic'
loop_
_space_group_symop_operation_xyz
x,y,z
-x,y,-z
1/2+x,1/2+y,z
1/2-x,1/2+y,-z
loop_
_atom_site_type_symbol
_atom_site_label
_atom_site_fract_x
_atom_site_fract_y
_atom_site_fract_z
Si Si1 0.554998 0.323320 0.332892
Si Si2 0.118424 0.603918 0.028589
Si Si3 0.816633 0.053674 0.722333
Si Si4 0.313342 0.804419 0.843875
Si Si5 0.623304 0.247796 0.533056
Si Si6 0.362469 0.500964 0.337428
Si Si7 0.383301 0.101517 0.165949
Si Si8 0.197852 0.304249 0.781883
O O1 0.608905 0.461225 0.305350
O O2 0.632892 0.245362 0.440569
O O3 0.457971 0.405142 0.337550
O O4 0.496115 0.188802 0.249064
O O5 0.124985 0.419500 0.063130
O O6 0.219027 0.704338 0.118609
O O7 0.126410 0.605621 0.935569
O O8 0.000000 0.670802 0.000000
O O9 0.873641 0.181605 0.812277
O O10 0.716185 0.145795 0.626329
O O11 0.767283 0.917862 0.756608
O O12 0.251766 0.930715 0.754355
O O13 0.219047 0.701956 0.844726
O O14 0.500000 0.190240 0.500000
O O15 0.631788 0.434047 0.568250
O O16 0.367165 0.683212 0.310281
O O17 0.375677 0.923012 0.199535
#
# Coordination Sequence:
#
# PCOD9122757 Si02
#       8
#     4   4   4   4   4   4   4   4
#     4  10  20  36  56  81 110 143 183 227 270 319
#     4  11  21  34  54  83 112 141 181 232 274 318
#     4  10  20  36  57  81 108 141 181 231 275 317
#     4   8  18  36  53  73 107 146 179 215 271 329
#     4   9  18  37  57  77 110 149 180 218 274 334
#     4   8  17  34  56  76 104 142 181 218 265 326
#     4  10  20  37  57  78 108 148 184 222 270 331
#     4  10  20  36  57  81 108 144 183 223 273 330
#
# _framework density 19.420961999999999
#
# number of rings (size 3 to 8) (size 9 to 14) (size 15 to 20)
#    0.000    2.500    0.000    3.750    0.000    2.000 
#    0.000   16.875    0.000    0.000    0.000    0.000 
#    0.000    0.000    0.000    0.000    0.000    0.000 
#
# Total GULP energy -89145.284573 kJ/mol
# GULP energy per Si atom -5571.580286 kJ/mol
# Density = 1.937676 g / cm^3
# Si number density = 19.420962 Si / 1000 Ang^3
#
#
#
# Elastic Constant Matrix: (Units=GPa)
#
#
# Indices 1 2 3 4 5 6 
#
# 1 39.6215 18.0009 24.7800 0.0000 -10.0948 0.0000
# 2 18.0009 104.0046 53.7209 0.0000 0.3093 0.0000
# 3 24.7800 53.7209 129.3182 0.0000 -18.0864 0.0000
# 4 0.0000 0.0000 0.0000 29.2167 0.0000 0.7282
# 5 -10.0948 0.3093 -18.0864 0.0000 22.4731 0.0000
# 6 0.0000 0.0000 0.0000 0.7282 0.0000 26.6113
#
#
#
# Elastic Compliance Matrix: (Units=1/GPa)
#
#
# Indices 1 2 3 4 5 6 
#
# 1 0.031930 -0.004186 -0.002665 0.000000 0.012255 0.000000
# 2 -0.004186 0.013268 -0.005632 0.000000 -0.006596 0.000000
# 3 -0.002665 -0.005632 0.011749 0.000000 0.008336 0.000000
# 4 0.000000 0.000000 0.000000 0.034250 0.000000 -0.000937
# 5 0.012255 -0.006596 0.008336 0.000000 0.056802 0.000000
# 6 0.000000 0.000000 0.000000 -0.000937 0.000000 0.037604
#
#
# Mechanical properties :
#
#
# Convention : Reuss Voigt Hill
#
# Bulk Modulus (GPa) = 31.26945 51.77198 41.52071
# Shear Modulus (GPa) = 22.60078 27.42307 25.01193
#
# Velocity S-wave (km/s) = 3.41505 3.76178 3.59260
# Velocity P-wave (km/s) = 5.62903 6.75157 6.21569
#
# Compressibility (1/GPa) = 0.03198010
#
# Stress axis : x y z
#
# Youngs Moduli (GPa) = 31.31843 75.36784 85.11219
#
# Poissons Ratio (x) = 0.31549 0.22686
# Poissons Ratio (y) = 0.13110 0.47937
# Poissons Ratio (z) = 0.08348 0.42449
#
# Static dielectric constant tensor:
#      x y z
#    x 1.687820 0.000000 0.021760 
#    y 0.000000 1.702090 0.000000 
#    z 0.021760 0.000000 1.719120 
# 
# From -- ./inp_files/54152.got.cif
#   From: 2010.05.17/outbox.cif.g08.bks.cpg/sg5_28_cif.got.tgz:54152.got - 2010.06.03 18:56:24.
