data_PCOD9122822
_publ_section_title
;
Structure prediction by ZEFSAII (Michael W. Deem and Ramdas Pophale) SiO2 
 PCOD9122822
Probable space group: C 2
;
_chemical_formula_sum "Si O2"
_cell_formula_units_Z 22
_cell_length_a 7.329044
_cell_length_b 11.978264
_cell_length_c 9.934617
_cell_angle_alpha 90.000000
_cell_angle_beta 91.489677
_cell_angle_gamma 90.000000
_cell_volume 871.857551
_symmetry_space_group_name_H-M "C 2"
_symmetry_group_IT_number 5
_symmetry_cell_setting 'monoclinic'
loop_
_space_group_symop_operation_xyz
x,y,z
-x,y,-z
1/2+x,1/2+y,z
1/2-x,1/2+y,-z
loop_
_atom_site_type_symbol
_atom_site_label
_atom_site_fract_x
_atom_site_fract_y
_atom_site_fract_z
Si Si1 0.909049 0.213900 0.678354
Si Si2 0.705813 0.248330 0.949667
Si Si3 0.214850 0.505161 0.983914
Si Si4 0.715402 0.252282 0.393901
Si Si5 0.331174 0.475639 0.678694
Si Si6 0.500000 0.057361 0.500000
O O1 0.771575 0.224035 0.798897
O O2 0.807116 0.257190 0.543413
O O3 0.951677 0.083322 0.652131
O O4 0.110296 0.263572 0.701704
O O5 0.786290 0.131998 0.022851
O O6 0.500000 0.246547 0.000000
O O7 0.746871 0.381909 0.955874
O O8 0.276126 0.485595 0.831951
O O9 0.000000 0.516245 0.000000
O O10 0.588519 0.356075 0.354951
O O11 0.601212 0.138922 0.395373
O O12 0.152398 0.489919 0.581873
#
# Coordination Sequence:
#
# PCOD9122822 Si02
#       6
#     4   4   4   4   4   2
#     4   9  20  39  58  85 120 152 197 250 296 352
#     4  10  22  42  63  87 121 162 205 249 299 357
#     4  10  22  39  61  89 123 158 203 254 298 353
#     4  10  20  36  59  85 116 154 194 241 300 356
#     4  10  21  38  58  86 120 155 195 245 297 353
#     4  10  22  36  58  88 116 156 196 236 300 362
#
# _framework density 25.233481999999999
#
# number of rings (size 3 to 8) (size 9 to 14) (size 15 to 20)
#    0.000    2.182    0.000    2.182    0.000    9.455 
#    0.000   14.545    0.000    0.000    0.000    0.000 
#    0.000    0.000    0.000    0.000    0.000    0.000 
#
# Total GULP energy -61314.325587 kJ/mol
# GULP energy per Si atom -5574.029599 kJ/mol
# Density = 2.517605 g / cm^3
# Si number density = 25.233482 Si / 1000 Ang^3
#
#
#
# Elastic Constant Matrix: (Units=GPa)
#
#
# Indices 1 2 3 4 5 6 
#
# 1 63.1897 12.1647 -4.0349 0.0000 -26.6731 0.0000
# 2 12.1647 170.0049 13.3135 0.0000 10.1931 0.0000
# 3 -4.0349 13.3135 86.9350 0.0000 -25.6605 0.0000
# 4 0.0000 0.0000 0.0000 43.1667 0.0000 -1.8570
# 5 -26.6731 10.1931 -25.6605 0.0000 32.7641 0.0000
# 6 0.0000 0.0000 0.0000 -1.8570 0.0000 62.1391
#
#
#
# Elastic Compliance Matrix: (Units=1/GPa)
#
#
# Indices 1 2 3 4 5 6 
#
# 1 0.036847 -0.006539 0.015825 0.000000 0.044425 0.000000
# 2 -0.006539 0.007409 -0.004799 0.000000 -0.011387 0.000000
# 3 0.015825 -0.004799 0.022392 0.000000 0.031913 0.000000
# 4 0.000000 0.000000 0.000000 0.023196 0.000000 0.000693
# 5 0.044425 -0.011387 0.031913 0.000000 0.095224 0.000000
# 6 0.000000 0.000000 0.000000 0.000693 0.000000 0.016114
#
#
# Mechanical properties :
#
#
# Convention : Reuss Voigt Hill
#
# Bulk Modulus (GPa) = 13.22411 40.33512 26.77961
# Shear Modulus (GPa) = 22.99734 47.52640 35.26187
#
# Velocity S-wave (km/s) = 3.02219 4.34460 3.74227
# Velocity P-wave (km/s) = 4.17495 6.41770 5.41374
#
# Compressibility (1/GPa) = 0.07561944
#
# Stress axis : x y z
#
# Youngs Moduli (GPa) = 27.13915 134.97597 44.65878
#
# Poissons Ratio (x) = 0.88267 -0.70671
# Poissons Ratio (y) = 0.17748 0.21433
# Poissons Ratio (z) = -0.42947 0.64779
#
# Static dielectric constant tensor:
#      x y z
#    x 1.959360 0.000000 0.046530 
#    y 0.000000 2.065940 0.000000 
#    z 0.046530 0.000000 1.935880 
# 
# From -- ./inp_files/35173.got.cif
#   From: 2010.05.17/outbox.cif.g08.bks.cpg/sg5_18_cif.got.tgz:35173.got - 2010.06.03 18:56:24.
