data_PCOD9122262
_publ_section_title
;
Structure prediction by ZEFSAII (Michael W. Deem and Ramdas Pophale) SiO2 
 PCOD9122262
Probable space group: C 2
;
_chemical_formula_sum "Si O2"
_cell_formula_units_Z 32
_cell_length_a 20.036757
_cell_length_b 13.263347
_cell_length_c 17.359986
_cell_angle_alpha 90.000000
_cell_angle_beta 19.248627
_cell_angle_gamma 90.000000
_cell_volume 1520.921347
_symmetry_space_group_name_H-M "C 2"
_symmetry_group_IT_number 5
_symmetry_cell_setting 'monoclinic'
loop_
_space_group_symop_operation_xyz
x,y,z
-x,y,-z
1/2+x,1/2+y,z
1/2-x,1/2+y,-z
loop_
_atom_site_type_symbol
_atom_site_label
_atom_site_fract_x
_atom_site_fract_y
_atom_site_fract_z
Si Si1 0.712547 0.144040 0.414629
Si Si2 0.129078 0.407019 0.063267
Si Si3 0.020133 0.015698 0.628231
Si Si4 0.662051 0.215540 0.089728
Si Si5 0.840297 0.356819 0.238773
Si Si6 0.970010 0.226097 0.622613
Si Si7 0.420456 0.547330 0.899879
Si Si8 0.478457 0.951973 0.650067
O O1 0.568377 0.184242 0.641983
O O2 0.753739 0.244628 0.321822
O O3 0.922749 0.099772 0.215606
O O4 0.603806 0.050747 0.490499
O O5 0.286537 0.490515 0.860394
O O6 0.274446 0.318165 0.936403
O O7 0.020436 0.449389 0.257775
O O8 0.966080 0.365806 0.181372
O O9 0.164181 0.938203 0.429489
O O10 0.075036 0.131386 0.550675
O O11 0.035666 0.995623 0.703016
O O12 0.750730 0.224808 0.906387
O O13 0.790004 0.131652 0.996922
O O14 0.000000 0.380548 0.000000
O O15 0.046207 0.341001 0.551142
O O16 0.000000 0.204697 0.500000
O O17 0.255882 0.473218 0.116535
#
# Coordination Sequence:
#
# PCOD9122262 Si02
#       8
#     4   4   4   4   4   4   4   4
#     4  11  20  40  65  93 121 157 208 261 297 361
#     4  10  19  40  63  88 123 160 204 257 294 375
#     4  10  22  40  62  88 124 163 201 249 315 362
#     4   9  18  37  67  91 116 156 206 244 306 361
#     4  12  26  38  60  97 126 158 203 254 321 368
#     4  10  22  41  64  89 123 164 200 251 308 367
#     4   9  18  37  65  94 115 155 208 255 291 357
#     4   9  21  40  65  91 116 162 213 247 305 361
#
# _framework density 21.03988
#
# number of rings (size 3 to 8) (size 9 to 14) (size 15 to 20)
#    0.000    2.000    2.500    1.500    1.750    0.000 
#    2.250    1.250    0.000    0.000    0.000    0.000 
#    0.000    0.000    0.000    0.000    0.000    0.000 
#
# Total GULP energy -89202.031983 kJ/mol
# GULP energy per Si atom -5575.126999 kJ/mol
# Density = 2.099199 g / cm^3
# Si number density = 21.039880 Si / 1000 Ang^3
#
#
#
# Elastic Constant Matrix: (Units=GPa)
#
#
# Indices 1 2 3 4 5 6 
#
# 1 22.1803 -2.9545 6.0718 -0.0034 -5.5571 0.0035
# 2 -2.9545 122.8392 9.3021 -0.0035 -15.3178 0.0114
# 3 6.0718 9.3021 43.0449 -0.0105 -7.0103 0.0192
# 4 -0.0034 -0.0035 -0.0105 23.9331 0.0037 -16.8716
# 5 -5.5571 -15.3178 -7.0103 0.0037 15.0182 -0.0023
# 6 0.0035 0.0114 0.0192 -16.8716 -0.0023 10.9842
#
#
#
# Elastic Compliance Matrix: (Units=1/GPa)
#
#
# Indices 1 2 3 4 5 6 
#
# 1 0.052369 0.004308 -0.004813 0.000036 0.021526 0.000047
# 2 0.004308 0.009692 -0.000901 0.000065 0.011058 0.000092
# 3 -0.004813 -0.000901 0.025612 0.000235 0.009256 0.000321
# 4 0.000036 0.000065 0.000235 -0.504711 0.000194 -0.775228
# 5 0.021526 0.011058 0.009256 0.000194 0.090150 0.000282
# 6 0.000047 0.000092 0.000321 -0.775228 0.000282 -1.099697
#
#
# Mechanical properties :
#
#
# Convention : Reuss Voigt Hill
#
# Bulk Modulus (GPa) = 11.78376 23.65591 17.71983
# Shear Modulus (GPa) = -3.58298 21.69675 9.05689
#
# Velocity S-wave (km/s) = -1.30639 3.21475 2.07701
# Velocity P-wave (km/s) = 1.82683 5.00472 3.76726
#
# Compressibility (1/GPa) = 0.08486257
#
# Stress axis : x y z
#
# Youngs Moduli (GPa) = 19.09510 103.18272 39.04352
#
# Poissons Ratio (x) = -0.44453 0.18790
# Poissons Ratio (y) = -0.08227 0.03518
# Poissons Ratio (z) = 0.09190 0.09298
#
# Static dielectric constant tensor:
#      x y z
#    x 1.741520 0.000000 0.016430 
#    y 0.000000 1.822690 0.000010 
#    z 0.016430 0.000010 1.788120 
# 
# From -- ./inp_files/63029.got.cif
#   From: 2010.05.17/outbox.cif.g08.bks.cpg/sg5_32_cif.got.tgz:63029.got - 2010.06.03 18:56:24.
