data_PCOD9122600
_publ_section_title
;
Structure prediction by ZEFSAII (Michael W. Deem and Ramdas Pophale) SiO2 
 PCOD9122600
Probable space group: C 2
;
_chemical_formula_sum "Si O2"
_cell_formula_units_Z 28
_cell_length_a 17.933679
_cell_length_b 13.621594
_cell_length_c 9.419827
_cell_angle_alpha 90.000000
_cell_angle_beta 142.300388
_cell_angle_gamma 90.000000
_cell_volume 1407.187960
_symmetry_space_group_name_H-M "C 2"
_symmetry_group_IT_number 5
_symmetry_cell_setting 'monoclinic'
loop_
_space_group_symop_operation_xyz
x,y,z
-x,y,-z
1/2+x,1/2+y,z
1/2-x,1/2+y,-z
loop_
_atom_site_type_symbol
_atom_site_label
_atom_site_fract_x
_atom_site_fract_y
_atom_site_fract_z
Si Si1 0.399175 0.780800 0.576171
Si Si2 0.305764 0.096696 0.196718
Si Si3 0.874747 0.412184 0.133051
Si Si4 0.312704 0.836237 0.752234
Si Si5 0.555577 0.265754 0.434847
Si Si6 0.934606 0.130309 0.039658
Si Si7 0.293061 0.266375 0.956634
O O1 0.503732 0.848004 0.665101
O O2 0.360864 0.835469 0.664705
O O3 0.283976 0.768752 0.302024
O O4 0.460862 0.674501 0.700817
O O5 0.387108 0.159864 0.430735
O O6 0.176437 0.065503 0.070271
O O7 0.376701 0.011408 0.223990
O O8 0.266979 0.171669 0.014120
O O9 0.759776 0.353356 0.024603
O O10 0.855013 0.416164 0.932185
O O11 0.167465 0.826732 0.542363
O O12 0.368070 0.732891 0.894009
O O13 0.500000 0.304953 0.500000
O O14 0.438589 0.264653 0.157784
O O15 0.000000 0.087561 0.000000
#
# Coordination Sequence:
#
# PCOD9122600 Si02
#       7
#     4   4   4   4   4   4   4
#     4  10  20  34  62  89 120 151 203 258 302 358
#     4  10  20  35  63  91 118 162 208 248 304 372
#     4  11  20  36  65  89 116 159 208 252 304 362
#     4   9  17  36  62  84 114 164 201 244 312 357
#     4   9  17  36  59  82 117 158 200 241 301 370
#     4   8  15  33  59  87 114 156 200 247 306 358
#     4  11  21  35  57  92 121 156 205 250 307 359
#
# _framework density 19.897839999999999
#
# number of rings (size 3 to 8) (size 9 to 14) (size 15 to 20)
#    0.000    2.286    5.714    1.714    0.000    4.000 
#    0.000    2.857   25.143    0.000    0.000    0.000 
#    0.000    0.000    0.000    0.000    0.000    0.000 
#
# Total GULP energy -77994.288444 kJ/mol
# GULP energy per Si atom -5571.020603 kJ/mol
# Density = 1.985255 g / cm^3
# Si number density = 19.897840 Si / 1000 Ang^3
#
#
#
# Elastic Constant Matrix: (Units=GPa)
#
#
# Indices 1 2 3 4 5 6 
#
# 1 98.7188 14.0654 51.3579 0.0000 21.7024 0.0000
# 2 14.0654 40.9042 18.8106 0.0000 -3.2872 0.0000
# 3 51.3579 18.8106 170.8693 0.0000 12.9655 0.0000
# 4 0.0000 0.0000 0.0000 9.0454 0.0000 -3.4565
# 5 21.7024 -3.2872 12.9655 0.0000 30.1467 0.0000
# 6 0.0000 0.0000 0.0000 -3.4565 0.0000 17.8135
#
#
#
# Elastic Compliance Matrix: (Units=1/GPa)
#
#
# Indices 1 2 3 4 5 6 
#
# 1 0.014480 -0.004294 -0.003156 0.000000 -0.009535 0.000000
# 2 -0.004294 0.027540 -0.002278 0.000000 0.007074 0.000000
# 3 -0.003156 -0.002278 0.007131 0.000000 -0.001043 0.000000
# 4 0.000000 0.000000 0.000000 0.119407 0.000000 0.023169
# 5 -0.009535 0.007074 -0.001043 0.000000 0.041255 0.000000
# 6 0.000000 0.000000 0.000000 0.023169 0.000000 0.060633
#
#
# Mechanical properties :
#
#
# Convention : Reuss Voigt Hill
#
# Bulk Modulus (GPa) = 33.67583 53.21778 43.44680
# Shear Modulus (GPa) = 16.67784 26.48502 21.58143
#
# Velocity S-wave (km/s) = 2.89826 3.65231 3.29692
# Velocity P-wave (km/s) = 5.30669 6.67753 6.03119
#
# Compressibility (1/GPa) = 0.02969489
#
# Stress axis : x y z
#
# Youngs Moduli (GPa) = 69.06307 36.31089 140.23416
#
# Poissons Ratio (x) = 0.15592 0.44256
# Poissons Ratio (y) = 0.29655 0.31945
# Poissons Ratio (z) = 0.21796 0.08271
#
# Static dielectric constant tensor:
#      x y z
#    x 1.746080 0.000000 0.008740 
#    y 0.000000 1.730690 0.000000 
#    z 0.008740 0.000000 1.761640 
# 
# From -- ./inp_files/27738.got.cif
#   From: 2010.05.17/outbox.cif.g08.bks.cpg/sg5_14_cif.got.tgz:27738.got - 2010.06.03 18:56:24.
