data_PCOD9122808
_publ_section_title
;
Structure prediction by ZEFSAII (Michael W. Deem and Ramdas Pophale) SiO2 
 PCOD9122808
Probable space group: C 2
;
_chemical_formula_sum "Si O2"
_cell_formula_units_Z 32
_cell_length_a 18.407866
_cell_length_b 16.013281
_cell_length_c 14.032661
_cell_angle_alpha 90.000000
_cell_angle_beta 157.338630
_cell_angle_gamma 90.000000
_cell_volume 1593.693246
_symmetry_space_group_name_H-M "C 2"
_symmetry_group_IT_number 5
_symmetry_cell_setting 'monoclinic'
loop_
_space_group_symop_operation_xyz
x,y,z
-x,y,-z
1/2+x,1/2+y,z
1/2-x,1/2+y,-z
loop_
_atom_site_type_symbol
_atom_site_label
_atom_site_fract_x
_atom_site_fract_y
_atom_site_fract_z
Si Si1 0.099995 0.024510 0.495063
Si Si2 0.172988 0.583868 0.961197
Si Si3 0.894919 0.451555 0.973400
Si Si4 0.928422 0.926817 0.732322
Si Si5 0.338998 0.978675 0.227449
Si Si6 0.031334 0.360183 0.312597
Si Si7 0.723740 0.713781 0.636840
Si Si8 0.586065 0.251623 0.948672
O O1 0.191410 0.116393 0.617103
O O2 0.881547 0.047953 0.229595
O O3 0.133566 0.978916 0.434844
O O4 0.184389 0.965381 0.678675
O O5 0.152907 0.680150 0.959437
O O6 0.057383 0.530317 0.899776
O O7 0.130855 0.560076 0.801892
O O8 0.947629 0.374312 0.105347
O O9 0.000000 0.451789 0.000000
O O10 0.739822 0.906222 0.565594
O O11 0.123169 0.971047 0.004163
O O12 0.010863 0.835024 0.809092
O O13 0.500000 0.974733 0.500000
O O14 0.389023 0.905085 0.212703
O O15 0.066721 0.265735 0.389301
O O16 0.758467 0.761419 0.779386
O O17 0.907768 0.719392 0.793851
#
# Coordination Sequence:
#
# PCOD9122808 Si02
#       8
#     4   4   4   4   4   4   4   4
#     4  11  21  36  61  92 119 156 203 253 296 366
#     4  10  22  35  59  90 118 152 204 255 301 355
#     4  11  19  35  62  88 118 158 198 245 310 355
#     4  10  22  38  60  89 122 157 202 244 308 367
#     4  10  22  39  60  84 121 160 205 244 308 366
#     4  10  22  38  59  91 125 158 193 259 305 360
#     4  10  21  34  60  89 118 150 204 248 302 355
#     4  10  20  36  58  90 118 151 198 257 302 348
#
# _framework density 20.079146999999999
#
# number of rings (size 3 to 8) (size 9 to 14) (size 15 to 20)
#    0.000    1.750    2.500    1.875    3.500    1.500 
#    0.000    0.000    5.500    0.000    0.000    0.000 
#    0.000    0.000    0.000    0.000    0.000    0.000 
#
# Total GULP energy -89153.823508 kJ/mol
# GULP energy per Si atom -5572.113969 kJ/mol
# Density = 2.003345 g / cm^3
# Si number density = 20.079147 Si / 1000 Ang^3
#
#
#
# Elastic Constant Matrix: (Units=GPa)
#
#
# Indices 1 2 3 4 5 6 
#
# 1 44.5552 3.3647 16.6728 0.0000 17.5437 0.0000
# 2 3.3647 60.7825 14.6322 0.0000 0.0800 0.0000
# 3 16.6728 14.6322 85.8372 0.0000 1.2154 0.0000
# 4 0.0000 0.0000 0.0000 33.2580 0.0000 -0.0251
# 5 17.5437 0.0800 1.2154 0.0000 22.8222 0.0000
# 6 0.0000 0.0000 0.0000 -0.0251 0.0000 5.2663
#
#
#
# Elastic Compliance Matrix: (Units=1/GPa)
#
#
# Indices 1 2 3 4 5 6 
#
# 1 0.035493 -0.000377 -0.006448 0.000000 -0.026939 0.000000
# 2 -0.000377 0.017160 -0.002857 0.000000 0.000382 0.000000
# 3 -0.006448 -0.002857 0.013329 0.000000 0.004257 0.000000
# 4 0.000000 0.000000 0.000000 0.030068 0.000000 0.000144
# 5 -0.026939 0.000382 0.004257 0.000000 0.064297 0.000000
# 6 0.000000 0.000000 0.000000 0.000144 0.000000 0.189887
#
#
# Mechanical properties :
#
#
# Convention : Reuss Voigt Hill
#
# Bulk Modulus (GPa) = 21.45141 28.94601 25.19871
# Shear Modulus (GPa) = 12.98233 22.70300 17.84267
#
# Velocity S-wave (km/s) = 2.54551 3.36620 2.98420
# Velocity P-wave (km/s) = 4.39842 5.43651 4.94478
#
# Compressibility (1/GPa) = 0.04661699
#
# Stress axis : x y z
#
# Youngs Moduli (GPa) = 28.17476 58.27398 75.02283
#
# Poissons Ratio (x) = 0.02197 0.48377
# Poissons Ratio (y) = 0.01062 0.21437
# Poissons Ratio (z) = 0.18168 0.16651
#
# Static dielectric constant tensor:
#      x y z
#    x 1.773310 0.000000 0.052160 
#    y 0.000000 1.719270 0.000000 
#    z 0.052160 0.000000 1.787040 
# 
# From -- ./inp_files/29835.got.cif
#   From: 2010.05.17/outbox.cif.g08.bks.cpg/sg5_15_cif.got.tgz:29835.got - 2010.06.03 18:56:24.
