data_PCOD9122406
_publ_section_title
;
Structure prediction by ZEFSAII (Michael W. Deem and Ramdas Pophale) SiO2 
 PCOD9122406
Probable space group: C 2
;
_chemical_formula_sum "Si O2"
_cell_formula_units_Z 28
_cell_length_a 20.882841
_cell_length_b 11.808586
_cell_length_c 5.291934
_cell_angle_alpha 90.000000
_cell_angle_beta 89.248187
_cell_angle_gamma 90.000000
_cell_volume 1304.861775
_symmetry_space_group_name_H-M "C 2"
_symmetry_group_IT_number 5
_symmetry_cell_setting 'monoclinic'
loop_
_space_group_symop_operation_xyz
x,y,z
-x,y,-z
1/2+x,1/2+y,z
1/2-x,1/2+y,-z
loop_
_atom_site_type_symbol
_atom_site_label
_atom_site_fract_x
_atom_site_fract_y
_atom_site_fract_z
Si Si1 0.673650 0.700030 0.603990
Si Si2 0.500000 0.108400 0.500000
Si Si3 0.612047 0.999530 0.719438
Si Si4 0.360777 0.225672 0.971906
Si Si5 0.212315 0.551398 0.340010
Si Si6 0.500000 0.257707 0.000000
Si Si7 0.541202 0.771978 0.753424
Si Si8 0.774124 0.320739 0.897289
O O1 0.715751 0.587051 0.601570
O O2 0.598614 0.689300 0.664533
O O3 0.688735 0.761312 0.337674
O O4 0.700768 0.769344 0.842997
O O5 0.562576 0.032198 0.498039
O O6 0.499195 0.184830 0.254682
O O7 0.618052 0.109180 0.892888
O O8 0.679062 0.990741 0.576227
O O9 0.578113 0.888748 0.831195
O O10 0.425675 0.302458 0.974683
O O11 0.301256 0.287888 0.109677
O O12 0.327733 0.166636 0.725022
O O13 0.214249 0.455033 0.125691
O O14 0.500000 0.789486 0.500000
O O15 0.500000 0.736791 0.000000
#
# Coordination Sequence:
#
# PCOD9122406 Si02
#       8
#     4   2   4   4   4   2   4   4
#     4  11  24  42  61  92 126 162 207 256 310 369
#     4  10  20  28  48  82 112 148 174 230 290 374
#     4  11  20  33  56  89 123 151 194 238 314 361
#     4  10  22  36  56  90 123 160 197 251 308 365
#     4  11  22  39  62  88 122 165 205 254 300 368
#     4  10  20  32  52  76 118 148 186 232 304 348
#     4  12  26  39  61  92 125 162 202 256 318 378
#     4  11  23  39  62  91 124 162 207 255 305 372
#
# _framework density 21.458209
#
# number of rings (size 3 to 8) (size 9 to 14) (size 15 to 20)
#    0.000    1.143    5.000    1.714    6.000    0.000 
#    0.000    0.000    1.571    0.000    7.429    0.000 
#    0.000    0.000    0.000    0.000    0.000    0.000 
#
# Total GULP energy -77973.374681 kJ/mol
# GULP energy per Si atom -5569.526763 kJ/mol
# Density = 2.140937 g / cm^3
# Si number density = 21.458209 Si / 1000 Ang^3
#
#
#
# Elastic Constant Matrix: (Units=GPa)
#
#
# Indices 1 2 3 4 5 6 
#
# 1 158.4816 13.8215 39.1159 0.0000 -25.5201 0.0000
# 2 13.8215 17.6761 9.5082 0.0000 -3.9284 0.0000
# 3 39.1159 9.5082 107.7312 0.0000 -12.9013 0.0000
# 4 0.0000 0.0000 0.0000 11.3093 0.0000 1.9023
# 5 -25.5201 -3.9284 -12.9013 0.0000 36.8070 0.0000
# 6 0.0000 0.0000 0.0000 1.9023 0.0000 30.0694
#
#
#
# Elastic Compliance Matrix: (Units=1/GPa)
#
#
# Indices 1 2 3 4 5 6 
#
# 1 0.007850 -0.004120 -0.001970 0.000000 0.004312 0.000000
# 2 -0.004120 0.062344 -0.003707 0.000000 0.002498 0.000000
# 3 -0.001970 -0.003707 0.010557 0.000000 0.001939 0.000000
# 4 0.000000 0.000000 0.000000 0.089374 0.000000 -0.005654
# 5 0.004312 0.002498 0.001939 0.000000 0.031105 0.000000
# 6 0.000000 0.000000 0.000000 -0.005654 0.000000 0.033614
#
#
# Mechanical properties :
#
#
# Convention : Reuss Voigt Hill
#
# Bulk Modulus (GPa) = 16.35151 45.42002 30.88577
# Shear Modulus (GPa) = 18.19342 30.40003 24.29673
#
# Velocity S-wave (km/s) = 2.91495 3.76800 3.36859
# Velocity P-wave (km/s) = 4.35499 6.33586 5.43641
#
# Compressibility (1/GPa) = 0.06115643
#
# Stress axis : x y z
#
# Youngs Moduli (GPa) = 127.39061 16.03993 94.72321
#
# Poissons Ratio (x) = 0.06608 0.18662
# Poissons Ratio (y) = 0.52484 0.35118
# Poissons Ratio (z) = 0.25098 0.05947
#
# Static dielectric constant tensor:
#      x y z
#    x 1.902940 0.000000 0.023380 
#    y 0.000000 1.785600 0.000000 
#    z 0.023380 0.000000 1.790520 
# 
# From -- ./inp_files/9471.got.cif
#   From: 2010.05.17/outbox.cif.g08.bks.cpg/sg5_5_cif.got.tgz:9471.got - 2010.06.03 18:56:24.
