data_PCOD9122872
_publ_section_title
;
Structure prediction by ZEFSAII (Michael W. Deem and Ramdas Pophale) SiO2 
 PCOD9122872
Probable space group: C 2
;
_chemical_formula_sum "Si O2"
_cell_formula_units_Z 24
_cell_length_a 16.315481
_cell_length_b 8.368117
_cell_length_c 21.659409
_cell_angle_alpha 90.000000
_cell_angle_beta 19.583259
_cell_angle_gamma 90.000000
_cell_volume 991.168588
_symmetry_space_group_name_H-M "C 2"
_symmetry_group_IT_number 5
_symmetry_cell_setting 'monoclinic'
loop_
_space_group_symop_operation_xyz
x,y,z
-x,y,-z
1/2+x,1/2+y,z
1/2-x,1/2+y,-z
loop_
_atom_site_type_symbol
_atom_site_label
_atom_site_fract_x
_atom_site_fract_y
_atom_site_fract_z
Si Si1 0.408216 0.525900 0.202972
Si Si2 0.459031 0.415043 0.769594
Si Si3 0.957036 0.024320 0.425005
Si Si4 0.070142 0.534151 0.204713
Si Si5 0.282744 0.855941 0.777753
Si Si6 0.441343 0.865529 0.114617
O O1 0.368744 0.501043 0.303090
O O2 0.245874 0.429250 0.270066
O O3 0.415463 0.704726 0.172168
O O4 0.689382 0.464538 0.997798
O O5 0.553033 0.443551 0.634709
O O6 0.438456 0.225632 0.793968
O O7 0.174126 0.470734 0.969922
O O8 0.034622 0.206882 0.356551
O O9 0.688719 0.988412 0.640871
O O10 0.185411 0.954332 0.298986
O O11 0.113980 0.479170 0.244496
O O12 0.000000 0.814475 0.000000
O O13 0.500000 0.825400 0.000000
#
# Coordination Sequence:
#
# PCOD9122872 Si02
#       6
#     4   4   4   4   4   4
#     4  10  21  39  62  85 117 161 201 241 293 353
#     4  10  21  39  62  88 118 157 201 245 293 353
#     4  11  21  38  64  92 118 153 198 246 297 355
#     4  10  22  40  62  87 120 158 200 246 293 352
#     4  10  20  36  61  87 118 162 200 231 291 369
#     4   9  19  38  63  87 119 161 198 237 297 370
#
# _framework density 24.213843000000001
#
# number of rings (size 3 to 8) (size 9 to 14) (size 15 to 20)
#    0.000    2.000    0.000    6.000    0.000    8.000 
#    0.000    5.833    0.000   22.000    0.000    0.000 
#    0.000    0.000    0.000    0.000    0.000    0.000 
#
# Total GULP energy -67084.963307 kJ/mol
# GULP energy per Si atom -5590.413609 kJ/mol
# Density = 2.415873 g / cm^3
# Si number density = 24.213843 Si / 1000 Ang^3
#
#
#
# Elastic Constant Matrix: (Units=GPa)
#
#
# Indices 1 2 3 4 5 6 
#
# 1 112.7142 5.4454 2.1136 0.0023 -9.5840 0.0000
# 2 5.4454 36.4947 -9.2252 -0.0117 -4.9819 -0.0013
# 3 2.1136 -9.2252 97.7562 -0.0274 -40.0184 0.0013
# 4 0.0023 -0.0117 -0.0274 10.3201 0.0014 1.7599
# 5 -9.5840 -4.9819 -40.0184 0.0014 29.3145 -0.0014
# 6 0.0000 -0.0013 0.0013 1.7599 -0.0014 17.0362
#
#
#
# Elastic Compliance Matrix: (Units=1/GPa)
#
#
# Indices 1 2 3 4 5 6 
#
# 1 0.009364 0.000082 0.002413 0.000004 0.006369 0.000000
# 2 0.000082 0.033679 0.012537 0.000069 0.022865 -0.000004
# 3 0.002413 0.012537 0.028461 0.000085 0.041772 -0.000006
# 4 0.000004 0.000069 0.000085 0.098636 0.000124 -0.010189
# 5 0.006369 0.022865 0.041772 0.000124 0.097106 -0.000006
# 6 0.000000 -0.000004 -0.000006 -0.010189 -0.000006 0.059751
#
#
# Mechanical properties :
#
#
# Convention : Reuss Voigt Hill
#
# Bulk Modulus (GPa) = 9.84570 27.07031 18.45800
# Shear Modulus (GPa) = 15.11530 27.90958 21.51244
#
# Velocity S-wave (km/s) = 2.50119 3.39872 2.98390
# Velocity P-wave (km/s) = 3.52367 5.15807 4.41712
#
# Compressibility (1/GPa) = 0.10156718
#
# Stress axis : x y z
#
# Youngs Moduli (GPa) = 106.78809 29.69171 35.13606
#
# Poissons Ratio (x) = -0.00243 -0.08477
# Poissons Ratio (y) = -0.00876 -0.44049
# Poissons Ratio (z) = -0.25763 -0.37224
#
# Static dielectric constant tensor:
#      x y z
#    x 1.942180 0.000000 0.014390 
#    y 0.000000 1.899670 0.000010 
#    z 0.014390 0.000010 2.037240 
# 
# From -- ./inp_files/69126.got.cif
#   From: 2010.05.17/outbox.cif.g08.bks.cpg/sg5_35_cif.got.tgz:69126.got - 2010.06.03 18:56:24.
