data_PCOD9122696
_publ_section_title
;
Structure prediction by ZEFSAII (Michael W. Deem and Ramdas Pophale) SiO2 
 PCOD9122696
Probable space group: C 2
;
_chemical_formula_sum "Si O2"
_cell_formula_units_Z 28
_cell_length_a 19.131546
_cell_length_b 7.563767
_cell_length_c 8.356574
_cell_angle_alpha 90.000000
_cell_angle_beta 108.955067
_cell_angle_gamma 90.000000
_cell_volume 1143.677721
_symmetry_space_group_name_H-M "C 2"
_symmetry_group_IT_number 5
_symmetry_cell_setting 'monoclinic'
loop_
_space_group_symop_operation_xyz
x,y,z
-x,y,-z
1/2+x,1/2+y,z
1/2-x,1/2+y,-z
loop_
_atom_site_type_symbol
_atom_site_label
_atom_site_fract_x
_atom_site_fract_y
_atom_site_fract_z
Si Si1 0.795050 0.072080 0.822510
Si Si2 0.790286 0.616392 0.632513
Si Si3 0.164838 0.343527 0.549040
Si Si4 0.500000 0.299694 0.500000
Si Si5 0.421515 0.987520 0.251331
Si Si6 0.500000 0.103511 0.000000
Si Si7 0.091850 0.882505 0.275854
Si Si8 0.226763 0.455514 0.062808
O O1 0.771645 0.271754 0.842341
O O2 0.729645 0.971681 0.675559
O O3 0.874127 0.042415 0.799731
O O4 0.796263 0.984170 0.000170
O O5 0.839992 0.450576 0.618411
O O6 0.704114 0.659975 0.535852
O O7 0.837236 0.778452 0.600994
O O8 0.783083 0.610126 0.817700
O O9 0.094652 0.350029 0.613325
O O10 0.537872 0.409143 0.385166
O O11 0.443476 0.165495 0.365397
O O12 0.475231 0.987697 0.136129
O O13 0.344101 0.972060 0.101969
O O14 0.557967 0.241115 0.124093
#
# Coordination Sequence:
#
# PCOD9122696 Si02
#       8
#     4   4   4   2   4   2   4   4
#     4  10  22  37  61  91 128 156 203 261 316 363
#     4  11  20  38  60  92 126 160 208 255 313 370
#     4  10  21  35  58  90 126 159 204 256 314 363
#     4  10  20  38  66  90 120 168 208 252 300 384
#     4  10  20  35  61  90 116 161 209 251 299 369
#     4  10  20  36  62  86 116 166 208 246 302 372
#     4  10  20  38  61  91 118 165 208 254 301 374
#     4  11  21  38  62  94 126 160 204 263 312 369
#
# _framework density 24.482420999999999
#
# number of rings (size 3 to 8) (size 9 to 14) (size 15 to 20)
#    0.000    1.714    2.857    3.429    2.000    0.000 
#    0.000    0.714    0.000    6.000    0.000    0.000 
#    0.000    0.000    0.000    0.000    0.000    0.000 
#
# Total GULP energy -77939.447547 kJ/mol
# GULP energy per Si atom -5567.103396 kJ/mol
# Density = 2.442670 g / cm^3
# Si number density = 24.482421 Si / 1000 Ang^3
#
#
#
# Elastic Constant Matrix: (Units=GPa)
#
#
# Indices 1 2 3 4 5 6 
#
# 1 95.5676 22.2383 44.9242 0.0000 -41.6368 0.0000
# 2 22.2383 53.0588 21.7368 0.0000 -18.4483 0.0000
# 3 44.9242 21.7368 87.3125 0.0000 -38.3919 0.0000
# 4 0.0000 0.0000 0.0000 15.6335 0.0000 -8.0382
# 5 -41.6368 -18.4483 -38.3919 0.0000 55.4407 0.0000
# 6 0.0000 0.0000 0.0000 -8.0382 0.0000 32.4472
#
#
#
# Elastic Compliance Matrix: (Units=1/GPa)
#
#
# Indices 1 2 3 4 5 6 
#
# 1 0.016880 -0.002224 -0.004145 0.000000 0.009067 0.000000
# 2 -0.002224 0.022224 -0.002690 0.000000 0.003862 0.000000
# 3 -0.004145 -0.002690 0.017962 0.000000 0.008431 0.000000
# 4 0.000000 0.000000 0.000000 0.073302 0.000000 0.018159
# 5 0.009067 0.003862 0.008431 0.000000 0.031970 0.000000
# 6 0.000000 0.000000 0.000000 0.018159 0.000000 0.035318
#
#
# Mechanical properties :
#
#
# Convention : Reuss Voigt Hill
#
# Bulk Modulus (GPa) = 25.67517 45.97082 35.82300
# Shear Modulus (GPa) = 21.85721 30.50693 26.18207
#
# Velocity S-wave (km/s) = 2.99117 3.53381 3.27375
# Velocity P-wave (km/s) = 4.73703 5.95552 5.38088
#
# Compressibility (1/GPa) = 0.03894813
#
# Stress axis : x y z
#
# Youngs Moduli (GPa) = 59.24208 44.99608 55.67161
#
# Poissons Ratio (x) = 0.10009 0.23073
# Poissons Ratio (y) = 0.13178 0.14977
# Poissons Ratio (z) = 0.24553 0.12105
#
# Static dielectric constant tensor:
#      x y z
#    x 2.034650 0.000000 0.004490 
#    y 0.000000 2.007690 0.000000 
#    z 0.004490 0.000000 2.101910 
# 
# From -- ./inp_files/26770.got.cif
#   From: 2010.05.17/outbox.cif.g08.bks.cpg/sg5_14_cif.got.tgz:26770.got - 2010.06.03 18:56:24.
