data_PCOD9122127
_publ_section_title
;
Structure prediction by ZEFSAII (Michael W. Deem and Ramdas Pophale) SiO2 
 PCOD9122127
Probable space group: C 2
;
_chemical_formula_sum "Si O2"
_cell_formula_units_Z 26
_cell_length_a 7.821954
_cell_length_b 20.618496
_cell_length_c 9.144337
_cell_angle_alpha 90.000000
_cell_angle_beta 128.661042
_cell_angle_gamma 90.000000
_cell_volume 1151.582504
_symmetry_space_group_name_H-M "C 2"
_symmetry_group_IT_number 5
_symmetry_cell_setting 'monoclinic'
loop_
_space_group_symop_operation_xyz
x,y,z
-x,y,-z
1/2+x,1/2+y,z
1/2-x,1/2+y,-z
loop_
_atom_site_type_symbol
_atom_site_label
_atom_site_fract_x
_atom_site_fract_y
_atom_site_fract_z
Si Si1 0.500000 0.491760 0.000000
Si Si2 0.825178 0.340622 0.537051
Si Si3 0.050684 0.194445 0.357224
Si Si4 0.083235 0.415764 0.898988
Si Si5 0.213063 0.581948 0.682491
Si Si6 0.758952 0.178301 0.944310
Si Si7 0.573859 0.311936 0.869030
O O1 0.715443 0.451863 0.071699
O O2 0.582114 0.535627 0.178854
O O3 0.862618 0.267922 0.621330
O O4 0.594332 0.345228 0.331926
O O5 0.000000 0.345904 0.500000
O O6 0.888402 0.395121 0.687377
O O7 0.219620 0.141441 0.386331
O O8 0.000000 0.188052 0.500000
O O9 0.825050 0.180867 0.148914
O O10 0.197821 0.348951 0.012009
O O11 0.000000 0.450783 0.000000
O O12 0.170181 0.614142 0.819099
O O13 0.000000 0.549458 0.500000
O O14 0.602356 0.238409 0.833136
O O15 0.000000 0.188408 0.000000
O O16 0.500000 0.313049 0.000000
#
# Coordination Sequence:
#
# PCOD9122127 Si02
#       7
#     2   4   4   4   4   4   4
#     4  12  26  54  72  92 142 188 246 296 346 386
#     4  11  21  39  68 104 145 179 218 283 358 424
#     4  10  19  38  66 105 139 169 222 277 348 428
#     4  12  27  47  70 101 137 186 244 287 341 419
#     4  11  24  45  71  98 132 186 228 288 352 412
#     4  10  20  39  65  99 142 178 222 276 353 419
#     4  12  21  39  68 103 145 181 217 286 355 414
#
# _framework density 22.577628000000001
#
# number of rings (size 3 to 8) (size 9 to 14) (size 15 to 20)
#    0.000    0.923    6.154    2.308    2.154    2.462 
#    2.769    0.769    0.000    0.000    0.000    0.000 
#    0.000    0.000    0.000    0.000    0.000    0.000 
#
# Total GULP energy -72666.333892 kJ/mol
# GULP energy per Si atom -5589.717992 kJ/mol
# Density = 2.252624 g / cm^3
# Si number density = 22.577628 Si / 1000 Ang^3
#
#
#
# Elastic Constant Matrix: (Units=GPa)
#
#
# Indices 1 2 3 4 5 6 
#
# 1 58.0215 11.2683 30.9032 0.0000 -6.9467 0.0000
# 2 11.2683 44.7705 24.4708 0.0000 -8.0156 0.0000
# 3 30.9032 24.4708 176.4532 0.0000 11.7388 0.0000
# 4 0.0000 0.0000 0.0000 11.3713 0.0000 10.5201
# 5 -6.9467 -8.0156 11.7388 0.0000 35.9948 0.0000
# 6 0.0000 0.0000 0.0000 10.5201 0.0000 22.8440
#
#
#
# Elastic Compliance Matrix: (Units=1/GPa)
#
#
# Indices 1 2 3 4 5 6 
#
# 1 0.020088 -0.002343 -0.003492 0.000000 0.004494 0.000000
# 2 -0.002343 0.026089 -0.003643 0.000000 0.006546 0.000000
# 3 -0.003492 -0.003643 0.007036 0.000000 -0.003780 0.000000
# 4 0.000000 0.000000 0.000000 0.153218 0.000000 -0.070559
# 5 0.004494 0.006546 -0.003780 0.000000 0.031339 0.000000
# 6 0.000000 0.000000 0.000000 -0.070559 0.000000 0.076269
#
#
# Mechanical properties :
#
#
# Convention : Reuss Voigt Hill
#
# Bulk Modulus (GPa) = 29.19154 45.83663 37.51409
# Shear Modulus (GPa) = 14.51742 28.21556 21.36649
#
# Velocity S-wave (km/s) = 2.53850 3.53896 3.07963
# Velocity P-wave (km/s) = 4.64214 6.08645 5.41268
#
# Compressibility (1/GPa) = 0.03425650
#
# Stress axis : x y z
#
# Youngs Moduli (GPa) = 49.78097 38.33027 142.13534
#
# Poissons Ratio (x) = 0.08979 0.49637
# Poissons Ratio (y) = 0.11661 0.51784
# Poissons Ratio (z) = 0.17385 0.13965
#
# Static dielectric constant tensor:
#      x y z
#    x 1.874900 0.000000 -0.012590 
#    y 0.000000 1.860080 0.000000 
#    z -0.012590 0.000000 1.906100 
# 
# From -- ./inp_files/17095.got.cif
#   From: 2010.05.17/outbox.cif.g08.bks.cpg/sg5_9_cif.got.tgz:17095.got - 2010.06.03 18:56:24.
