data_PCOD9122267
_publ_section_title
;
Structure prediction by ZEFSAII (Michael W. Deem and Ramdas Pophale) SiO2 
 PCOD9122267
Probable space group: C 2
;
_chemical_formula_sum "Si O2"
_cell_formula_units_Z 26
_cell_length_a 19.643088
_cell_length_b 10.950253
_cell_length_c 5.194895
_cell_angle_alpha 90.000000
_cell_angle_beta 80.900630
_cell_angle_gamma 90.000000
_cell_volume 1103.343269
_symmetry_space_group_name_H-M "C 2"
_symmetry_group_IT_number 5
_symmetry_cell_setting 'monoclinic'
loop_
_space_group_symop_operation_xyz
x,y,z
-x,y,-z
1/2+x,1/2+y,z
1/2-x,1/2+y,-z
loop_
_atom_site_type_symbol
_atom_site_label
_atom_site_fract_x
_atom_site_fract_y
_atom_site_fract_z
Si Si1 0.276204 0.370120 0.999822
Si Si2 0.581874 0.350101 0.818766
Si Si3 0.455573 0.005751 0.787835
Si Si4 0.684569 0.637420 0.084488
Si Si5 0.092172 0.111191 0.639319
Si Si6 0.000000 0.282004 0.000000
Si Si7 0.106793 0.737067 0.307353
O O1 0.267109 0.513713 0.936340
O O2 0.319366 0.301742 0.747580
O O3 0.335196 0.367784 0.184075
O O4 0.218876 0.270229 0.104725
O O5 0.559875 0.479061 0.719687
O O6 0.575277 0.249315 0.605253
O O7 0.562188 0.310415 0.118572
O O8 0.500000 0.996967 0.500000
O O9 0.393210 0.096755 0.775219
O O10 0.500000 0.058063 0.000000
O O11 0.442946 0.870966 0.905347
O O12 0.626534 0.616350 0.339114
O O13 0.650267 0.635275 0.822965
O O14 0.033761 0.206519 0.752603
#
# Coordination Sequence:
#
# PCOD9122267 Si02
#       7
#     4   4   4   4   4   2   4
#     4   9  23  40  65  98 135 165 220 265 338 395
#     4   9  19  39  62  91 124 163 215 269 311 391
#     4  10  23  42  61  92 133 165 214 271 325 385
#     4  11  24  41  67  98 133 174 221 272 334 399
#     4  11  23  44  65  92 131 174 225 271 323 396
#     4  10  28  44  66  92 138 172 232 268 336 390
#     4  10  19  40  64  88 129 164 210 270 320 385
#
# _framework density 23.564743
#
# number of rings (size 3 to 8) (size 9 to 14) (size 15 to 20)
#    1.385    0.615    1.538    0.923    4.308    1.231 
#    4.154    0.000    0.000    0.000    0.000    0.000 
#    0.000    0.000    0.000    0.000    0.000    0.000 
#
# Total GULP energy -72447.519968 kJ/mol
# GULP energy per Si atom -5572.886151 kJ/mol
# Density = 2.351111 g / cm^3
# Si number density = 23.564743 Si / 1000 Ang^3
#
#
#
# Elastic Constant Matrix: (Units=GPa)
#
#
# Indices 1 2 3 4 5 6 
#
# 1 37.6843 33.7689 9.9346 0.0000 -10.0577 0.0000
# 2 33.7689 149.6887 8.0785 0.0000 -9.1597 0.0000
# 3 9.9346 8.0785 119.0425 0.0000 -5.8412 0.0000
# 4 0.0000 0.0000 0.0000 25.3947 0.0000 -12.1631
# 5 -10.0577 -9.1597 -5.8412 0.0000 28.1970 0.0000
# 6 0.0000 0.0000 0.0000 -12.1631 0.0000 28.2347
#
#
#
# Elastic Compliance Matrix: (Units=1/GPa)
#
#
# Indices 1 2 3 4 5 6 
#
# 1 0.036511 -0.007505 -0.002039 0.000000 0.010163 0.000000
# 2 -0.007505 0.008374 0.000061 0.000000 0.000056 0.000000
# 3 -0.002039 0.000061 0.008619 0.000000 0.001078 0.000000
# 4 0.000000 0.000000 0.000000 0.049615 0.000000 0.021374
# 5 0.010163 0.000056 0.001078 0.000000 0.039331 0.000000
# 6 0.000000 0.000000 0.000000 0.021374 0.000000 0.044625
#
#
# Mechanical properties :
#
#
# Convention : Reuss Voigt Hill
#
# Bulk Modulus (GPa) = 28.95346 45.55330 37.25338
# Shear Modulus (GPa) = 22.98272 33.34085 28.16178
#
# Velocity S-wave (km/s) = 3.12637 3.76555 3.46075
# Velocity P-wave (km/s) = 5.03445 6.18699 5.64024
#
# Compressibility (1/GPa) = 0.03453819
#
# Stress axis : x y z
#
# Youngs Moduli (GPa) = 27.38877 119.42140 116.01874
#
# Poissons Ratio (x) = 0.89623 0.23657
# Poissons Ratio (y) = 0.20555 -0.00705
# Poissons Ratio (z) = 0.05585 -0.00726
#
# Static dielectric constant tensor:
#      x y z
#    x 2.026860 0.000000 -0.019910 
#    y 0.000000 1.931180 0.000000 
#    z -0.019910 0.000000 1.852130 
# 
# From -- ./inp_files/10238.got.cif
#   From: 2010.05.17/outbox.cif.g08.bks.cpg/sg5_6_cif.got.tgz:10238.got - 2010.06.03 18:56:24.
