data_PCOD9122229
_publ_section_title
;
Structure prediction by ZEFSAII (Michael W. Deem and Ramdas Pophale) SiO2 
 PCOD9122229
Probable space group: C 2
;
_chemical_formula_sum "Si O2"
_cell_formula_units_Z 32
_cell_length_a 21.155480
_cell_length_b 13.359920
_cell_length_c 17.986965
_cell_angle_alpha 90.000000
_cell_angle_beta 161.876791
_cell_angle_gamma 90.000000
_cell_volume 1581.360181
_symmetry_space_group_name_H-M "C 2"
_symmetry_group_IT_number 5
_symmetry_cell_setting 'monoclinic'
loop_
_space_group_symop_operation_xyz
x,y,z
-x,y,-z
1/2+x,1/2+y,z
1/2-x,1/2+y,-z
loop_
_atom_site_type_symbol
_atom_site_label
_atom_site_fract_x
_atom_site_fract_y
_atom_site_fract_z
Si Si1 0.009737 0.675860 0.923722
Si Si2 0.344937 0.182472 0.274725
Si Si3 0.081031 0.181130 0.363746
Si Si4 0.532031 0.563313 0.158164
Si Si5 0.241005 0.326778 0.028831
Si Si6 0.786497 0.861859 0.916000
Si Si7 0.788813 0.550156 0.982281
Si Si8 0.456667 0.001654 0.582790
O O1 0.782048 0.689809 0.637263
O O2 0.110734 0.596915 0.978875
O O3 0.000000 0.648053 0.000000
O O4 0.141047 0.778082 0.059994
O O5 0.500000 0.241171 0.500000
O O6 0.320604 0.244046 0.172795
O O7 0.467786 0.084565 0.389246
O O8 0.123070 0.143707 0.051827
O O9 0.112667 0.119322 0.322611
O O10 0.992442 0.290782 0.244198
O O11 0.899470 0.120184 0.202670
O O12 0.717976 0.516897 0.321383
O O13 0.400375 0.466738 0.033048
O O14 0.341464 0.322944 0.060032
O O15 0.275218 0.435306 0.101598
O O16 0.550749 0.896635 0.659443
O O17 0.939473 0.532032 0.221751
#
# Coordination Sequence:
#
# PCOD9122229 Si02
#       8
#     4   4   4   4   4   4   4   4
#     4  12  27  42  60  95 137 174 215 259 335 399
#     4  10  21  40  59  95 135 160 201 264 333 388
#     4  11  21  40  69  92 123 169 219 278 318 384
#     4  10  20  38  68  97 115 167 217 268 326 377
#     4  10  20  41  66  93 117 168 220 264 317 381
#     4  10  21  40  63  96 122 160 222 268 317 376
#     4  11  21  42  66  93 122 168 225 274 316 375
#     4  10  19  39  68  93 125 155 217 274 317 382
#
# _framework density 20.235744
#
# number of rings (size 3 to 8) (size 9 to 14) (size 15 to 20)
#    0.000    1.500    7.500    0.000    3.500    1.000 
#    6.750    0.000    0.000    0.000    0.000    0.000 
#    0.000    0.000    0.000    0.000    0.000    0.000 
#
# Total GULP energy -89187.499097 kJ/mol
# GULP energy per Si atom -5574.218694 kJ/mol
# Density = 2.018969 g / cm^3
# Si number density = 20.235744 Si / 1000 Ang^3
#
#
#
# Elastic Constant Matrix: (Units=GPa)
#
#
# Indices 1 2 3 4 5 6 
#
# 1 84.5485 24.7382 34.0235 0.0050 5.3440 -0.0010
# 2 24.7382 79.2923 10.0625 0.0141 9.6072 0.0021
# 3 34.0235 10.0625 98.9601 0.0075 11.8027 0.0004
# 4 0.0050 0.0141 0.0075 12.5483 0.0013 12.9870
# 5 5.3440 9.6072 11.8027 0.0013 31.7394 -0.0003
# 6 -0.0010 0.0021 0.0004 12.9870 -0.0003 21.4420
#
#
#
# Elastic Compliance Matrix: (Units=1/GPa)
#
#
# Indices 1 2 3 4 5 6 
#
# 1 0.014918 -0.004110 -0.004772 0.000000 0.000507 0.000001
# 2 -0.004110 0.014301 0.000411 -0.000034 -0.003790 0.000019
# 3 -0.004772 0.000411 0.012162 -0.000013 -0.003844 0.000007
# 4 0.000000 -0.000034 -0.000013 0.213569 0.000005 -0.129355
# 5 0.000507 -0.003790 -0.003844 0.000005 0.033998 -0.000002
# 6 0.000001 0.000019 0.000007 -0.129355 -0.000002 0.124985
#
#
# Mechanical properties :
#
#
# Convention : Reuss Voigt Hill
#
# Bulk Modulus (GPa) = 40.91683 44.49436 42.70559
# Shear Modulus (GPa) = 11.38898 26.07773 18.73336
#
# Velocity S-wave (km/s) = 2.37495 3.59374 3.04592
# Velocity P-wave (km/s) = 5.27110 6.26543 5.78965
#
# Compressibility (1/GPa) = 0.02443982
#
# Stress axis : x y z
#
# Youngs Moduli (GPa) = 67.03203 69.92566 82.22180
#
# Poissons Ratio (x) = 0.28741 0.39232
# Poissons Ratio (y) = 0.27551 -0.03379
# Poissons Ratio (z) = 0.31985 -0.02874
#
# Static dielectric constant tensor:
#      x y z
#    x 1.745510 0.000000 -0.012370 
#    y 0.000000 1.733280 -0.000010 
#    z -0.012370 -0.000010 1.832210 
# 
# From -- ./inp_files/63038.got.cif
#   From: 2010.05.17/outbox.cif.g08.bks.cpg/sg5_32_cif.got.tgz:63038.got - 2010.06.03 18:56:24.
