data_PCOD9122012
_publ_section_title
;
Structure prediction by ZEFSAII (Michael W. Deem and Ramdas Pophale) SiO2 
 PCOD9122012
Probable space group: C 2
;
_chemical_formula_sum "Si O2"
_cell_formula_units_Z 22
_cell_length_a 12.736129
_cell_length_b 11.549456
_cell_length_c 5.613020
_cell_angle_alpha 90.000000
_cell_angle_beta 91.565692
_cell_angle_gamma 90.000000
_cell_volume 825.340954
_symmetry_space_group_name_H-M "C 2"
_symmetry_group_IT_number 5
_symmetry_cell_setting 'monoclinic'
loop_
_space_group_symop_operation_xyz
x,y,z
-x,y,-z
1/2+x,1/2+y,z
1/2-x,1/2+y,-z
loop_
_atom_site_type_symbol
_atom_site_label
_atom_site_fract_x
_atom_site_fract_y
_atom_site_fract_z
Si Si1 0.602094 0.073750 0.416250
Si Si2 0.387811 0.604630 0.928555
Si Si3 0.000000 0.676084 0.000000
Si Si4 0.787993 0.804643 0.114474
Si Si5 0.685416 0.851880 0.611932
Si Si6 0.345424 0.595753 0.419911
O O1 0.500000 0.144137 0.500000
O O2 0.575208 0.083673 0.140534
O O3 0.720544 0.114117 0.443597
O O4 0.606674 0.957744 0.569056
O O5 0.367082 0.533478 0.169985
O O6 0.500000 0.659633 0.000000
O O7 0.291894 0.693447 0.903489
O O8 0.393927 0.548997 0.666793
O O9 0.907936 0.760754 0.097560
O O10 0.756360 0.856000 0.373223
O O11 0.750365 0.864610 0.862144
O O12 0.623194 0.730881 0.604627
#
# Coordination Sequence:
#
# PCOD9122012 Si02
#       6
#     4   4   2   4   4   4
#     4  12  26  41  77 111 146 185 255 312 364 428
#     4  10  19  37  66  89 131 185 235 272 354 428
#     4  12  24  46  78 104 144 200 250 302 370 440
#     4  10  23  43  68  99 141 192 231 297 367 432
#     4  10  23  42  63  99 145 178 233 293 364 426
#     4  10  22  43  62  99 143 185 225 297 369 428
#
# _framework density 26.655653000000001
#
# number of rings (size 3 to 8) (size 9 to 14) (size 15 to 20)
#    0.000    1.455    3.636    2.727    2.545    5.818 
#    1.636    0.000   12.000    0.000    0.000    0.000 
#    0.000    0.000    0.000    0.000    0.000    0.000 
#
# Total GULP energy -61293.499771 kJ/mol
# GULP energy per Si atom -5572.136343 kJ/mol
# Density = 2.659498 g / cm^3
# Si number density = 26.655653 Si / 1000 Ang^3
#
#
#
# Elastic Constant Matrix: (Units=GPa)
#
#
# Indices 1 2 3 4 5 6 
#
# 1 183.5615 -2.7172 75.3647 0.0000 15.4266 0.0000
# 2 -2.7172 28.4873 45.0101 0.0000 10.5512 0.0000
# 3 75.3647 45.0101 282.1457 0.0000 17.4299 0.0000
# 4 0.0000 0.0000 0.0000 34.2546 0.0000 -0.4096
# 5 15.4266 10.5512 17.4299 0.0000 60.6490 0.0000
# 6 0.0000 0.0000 0.0000 -0.4096 0.0000 25.1707
#
#
#
# Elastic Compliance Matrix: (Units=1/GPa)
#
#
# Indices 1 2 3 4 5 6 
#
# 1 0.006728 0.005352 -0.002533 0.000000 -0.001915 0.000000
# 2 0.005352 0.053536 -0.009479 0.000000 -0.007951 0.000000
# 3 -0.002533 -0.009479 0.005692 0.000000 0.000657 0.000000
# 4 0.000000 0.000000 0.000000 0.029199 0.000000 0.000475
# 5 -0.001915 -0.007951 0.000657 0.000000 0.018170 0.000000
# 6 0.000000 0.000000 0.000000 0.000475 0.000000 0.039737
#
#
# Mechanical properties :
#
#
# Convention : Reuss Voigt Hill
#
# Bulk Modulus (GPa) = 18.99796 81.05665 50.02731
# Shear Modulus (GPa) = 27.18505 49.11730 38.15117
#
# Velocity S-wave (km/s) = 3.19699 4.29728 3.78730
# Velocity P-wave (km/s) = 4.55745 7.42273 6.15903
#
# Compressibility (1/GPa) = 0.05263723
#
# Stress axis : x y z
#
# Youngs Moduli (GPa) = 148.63873 18.67918 175.67538
#
# Poissons Ratio (x) = -0.09998 0.44492
# Poissons Ratio (y) = -0.79558 1.66522
# Poissons Ratio (z) = 0.37645 0.17706
#
# Static dielectric constant tensor:
#      x y z
#    x 2.077120 0.000000 -0.120930 
#    y 0.000000 2.182250 0.000000 
#    z -0.120930 0.000000 2.521100 
# 
# From -- ./inp_files/4814.got.cif
#   From: 2010.05.17/outbox.cif.g08.bks.cpg/sg5_3_cif.got.tgz:4814.got - 2010.06.03 18:56:24.
