data_PCOD9122424
_publ_section_title
;
Structure prediction by ZEFSAII (Michael W. Deem and Ramdas Pophale) SiO2 
 PCOD9122424
Probable space group: C 2
;
_chemical_formula_sum "Si O2"
_cell_formula_units_Z 32
_cell_length_a 23.434817
_cell_length_b 5.269929
_cell_length_c 14.141459
_cell_angle_alpha 90.000000
_cell_angle_beta 118.917414
_cell_angle_gamma 90.000000
_cell_volume 1528.713888
_symmetry_space_group_name_H-M "C 2"
_symmetry_group_IT_number 5
_symmetry_cell_setting 'monoclinic'
loop_
_space_group_symop_operation_xyz
x,y,z
-x,y,-z
1/2+x,1/2+y,z
1/2-x,1/2+y,-z
loop_
_atom_site_type_symbol
_atom_site_label
_atom_site_fract_x
_atom_site_fract_y
_atom_site_fract_z
Si Si1 0.543972 0.088200 0.286179
Si Si2 0.698956 0.349816 0.764656
Si Si3 0.405724 0.712691 0.366558
Si Si4 0.714646 0.842297 0.009001
Si Si5 0.963255 0.079202 0.606655
Si Si6 0.099510 0.576954 0.809560
Si Si7 0.316174 0.079986 0.639117
Si Si8 0.235436 0.578158 0.613292
O O1 0.559566 0.305240 0.377309
O O2 0.608060 0.103970 0.273271
O O3 0.539811 0.794375 0.315520
O O4 0.469031 0.153259 0.198701
O O5 0.666315 0.604666 0.701669
O O6 0.697034 0.147708 0.678194
O O7 0.651178 0.282024 0.814020
O O8 0.770309 0.369163 0.867356
O O9 0.422971 0.712710 0.490177
O O10 0.463474 0.532527 0.372320
O O11 0.416426 0.944065 0.304113
O O12 0.642289 0.894449 0.911731
O O13 0.741163 0.566157 0.001559
O O14 0.274041 0.314081 0.644386
O O15 0.306947 0.083571 0.516929
O O16 0.285805 0.812652 0.645070
#
# Coordination Sequence:
#
# PCOD9122424 Si02
#       8
#     4   4   4   4   4   4   4   4
#     4  11  21  38  57  80 116 156 186 236 289 346
#     4  11  21  36  60  83 117 152 192 240 293 343
#     4  10  20  32  49  82 120 147 184 222 286 346
#     4  10  21  37  56  84 121 150 188 235 291 354
#     4  10  22  31  51  81 118 150 184 223 276 353
#     4  10  22  36  57  89 117 151 189 239 299 349
#     4  10  22  40  54  81 113 155 196 238 276 341
#     4  10  23  37  58  80 114 153 199 234 281 335
#
# _framework density 20.932628000000001
#
# number of rings (size 3 to 8) (size 9 to 14) (size 15 to 20)
#    0.000    1.750    2.500    1.500    5.250    2.000 
#    0.000    0.000    0.000    0.750    0.000    1.750 
#    0.000    0.000    0.000    0.000    0.000    0.000 
#
# Total GULP energy -89129.791021 kJ/mol
# GULP energy per Si atom -5570.611939 kJ/mol
# Density = 2.088498 g / cm^3
# Si number density = 20.932628 Si / 1000 Ang^3
#
#
#
# Elastic Constant Matrix: (Units=GPa)
#
#
# Indices 1 2 3 4 5 6 
#
# 1 84.4434 25.0114 2.3300 0.0000 12.6968 0.0000
# 2 25.0114 76.7731 0.0943 0.0001 5.1109 0.0000
# 3 2.3300 0.0943 53.2002 0.0000 10.6826 0.0000
# 4 0.0000 0.0001 0.0000 19.3258 0.0000 4.1216
# 5 12.6968 5.1109 10.6826 0.0000 18.7370 0.0000
# 6 0.0000 0.0000 0.0000 4.1216 0.0000 24.7521
#
#
#
# Elastic Compliance Matrix: (Units=1/GPa)
#
#
# Indices 1 2 3 4 5 6 
#
# 1 0.014426 -0.004077 0.001259 0.000000 -0.009381 0.000000
# 2 -0.004077 0.014448 0.000440 0.000000 -0.001429 0.000000
# 3 0.001259 0.000440 0.021385 0.000000 -0.013165 0.000000
# 4 0.000000 0.000000 0.000000 0.053650 0.000000 -0.008933
# 5 -0.009381 -0.001429 -0.013165 0.000000 0.067623 0.000000
# 6 0.000000 0.000000 0.000000 -0.008933 0.000000 0.041888
#
#
# Mechanical properties :
#
#
# Convention : Reuss Voigt Hill
#
# Bulk Modulus (GPa) = 21.97648 29.92089 25.94868
# Shear Modulus (GPa) = 21.42778 25.02837 23.22807
#
# Velocity S-wave (km/s) = 3.20293 3.46159 3.33477
# Velocity P-wave (km/s) = 4.91933 5.50470 5.22023
#
# Compressibility (1/GPa) = 0.04550320
#
# Stress axis : x y z
#
# Youngs Moduli (GPa) = 69.32168 69.21321 46.76267
#
# Poissons Ratio (x) = 0.28216 -0.05888
# Poissons Ratio (y) = 0.28260 -0.02057
# Poissons Ratio (z) = -0.08729 -0.03045
#
# Static dielectric constant tensor:
#      x y z
#    x 1.826970 0.000000 0.038920 
#    y 0.000000 1.802880 0.000000 
#    z 0.038920 0.000000 1.838460 
# 
# From -- ./inp_files/56555.got.cif
#   From: 2010.05.17/outbox.cif.g08.bks.cpg/sg5_29_cif.got.tgz:56555.got - 2010.06.03 18:56:24.
