data_PCOD9122505
_publ_section_title
;
Structure prediction by ZEFSAII (Michael W. Deem and Ramdas Pophale) SiO2 
 PCOD9122505
Probable space group: C 2
;
_chemical_formula_sum "Si O2"
_cell_formula_units_Z 30
_cell_length_a 14.662601
_cell_length_b 24.072876
_cell_length_c 14.480220
_cell_angle_alpha 90.000000
_cell_angle_beta 160.408870
_cell_angle_gamma 90.000000
_cell_volume 1713.780214
_symmetry_space_group_name_H-M "C 2"
_symmetry_group_IT_number 5
_symmetry_cell_setting 'monoclinic'
loop_
_space_group_symop_operation_xyz
x,y,z
-x,y,-z
1/2+x,1/2+y,z
1/2-x,1/2+y,-z
loop_
_atom_site_type_symbol
_atom_site_label
_atom_site_fract_x
_atom_site_fract_y
_atom_site_fract_z
Si Si1 0.387964 0.626930 0.750156
Si Si2 0.000000 0.033947 0.000000
Si Si3 0.023094 0.387068 0.832803
Si Si4 0.603975 0.197323 0.705183
Si Si5 0.272854 0.988075 0.711646
Si Si6 0.661904 0.977178 0.838406
Si Si7 0.503664 0.325074 0.391506
Si Si8 0.885863 0.034735 0.620411
O O1 0.492364 0.592289 0.762568
O O2 0.118125 0.657766 0.460459
O O3 0.345233 0.577934 0.785523
O O4 0.603791 0.670711 0.996154
O O5 0.192160 0.995968 0.117868
O O6 0.899365 0.437955 0.773663
O O7 0.797755 0.339178 0.629639
O O8 0.076466 0.413933 0.782389
O O9 0.291776 0.365503 0.139469
O O10 0.500000 0.193926 0.500000
O O11 0.583940 0.261634 0.711419
O O12 0.176758 0.033720 0.546732
O O13 0.000000 0.967649 0.500000
O O14 0.500000 0.007025 0.000000
O O15 0.394883 0.014908 0.598672
O O16 0.883603 0.991175 0.129314
O O17 0.500000 0.331728 0.500000
#
# Coordination Sequence:
#
# PCOD9122505 Si02
#       8
#     4   2   4   4   4   4   4   4
#     4  11  20  33  53  70 110 140 174 210 271 314
#     4  10  20  34  54  78 104 152 170 216 272 318
#     4  11  20  34  49  73 103 145 173 222 259 300
#     4  11  21  34  48  76  99 141 185 217 249 325
#     4  11  20  32  52  74 103 139 180 209 256 318
#     4  10  21  33  51  75 108 137 190 210 257 331
#     4  11  22  33  51  72 105 139 187 220 259 304
#     4  10  21  33  48  77 103 142 175 217 256 322
#
# _framework density 17.505161999999999
#
# number of rings (size 3 to 8) (size 9 to 14) (size 15 to 20)
#    0.000    1.333    1.333    8.000    0.000    3.733 
#    0.000    0.000    0.000    0.000    0.000    0.000 
#   10.000    0.000    0.800    0.000    0.000    0.000 
#
# Total GULP energy -83654.728306 kJ/mol
# GULP energy per Si atom -5576.981887 kJ/mol
# Density = 1.746532 g / cm^3
# Si number density = 17.505162 Si / 1000 Ang^3
#
#
#
# Elastic Constant Matrix: (Units=GPa)
#
#
# Indices 1 2 3 4 5 6 
#
# 1 55.8506 37.6751 18.8154 0.0009 3.7235 -0.0005
# 2 37.6751 81.5686 12.0916 0.0017 -3.8329 -0.0009
# 3 18.8154 12.0916 93.6867 0.0000 3.4284 -0.0026
# 4 0.0009 0.0017 0.0000 27.0348 0.0006 1.3813
# 5 3.7235 -3.8329 3.4284 0.0006 31.3605 -0.0003
# 6 -0.0005 -0.0009 -0.0026 1.3813 -0.0003 19.1692
#
#
#
# Elastic Compliance Matrix: (Units=1/GPa)
#
#
# Indices 1 2 3 4 5 6 
#
# 1 0.027961 -0.012555 -0.003833 0.000000 -0.004435 0.000000
# 2 -0.012555 0.018228 0.000033 -0.000001 0.003715 0.000001
# 3 -0.003833 0.000033 0.011468 0.000000 -0.000795 0.000001
# 4 0.000000 -0.000001 0.000000 0.037126 -0.000001 -0.002675
# 5 -0.004435 0.003715 -0.000795 -0.000001 0.032955 0.000001
# 6 0.000000 0.000001 0.000001 -0.002675 0.000001 0.052360
#
#
# Mechanical properties :
#
#
# Convention : Reuss Voigt Hill
#
# Bulk Modulus (GPa) = 40.08337 40.91888 40.50112
# Shear Modulus (GPa) = 22.61171 26.34780 24.47976
#
# Velocity S-wave (km/s) = 3.59795 3.88383 3.74362
# Velocity P-wave (km/s) = 6.34098 6.59835 6.47094
#
# Compressibility (1/GPa) = 0.02494800
#
# Stress axis : x y z
#
# Youngs Moduli (GPa) = 35.76402 54.85990 87.19564
#
# Poissons Ratio (x) = 0.68877 0.33420
# Poissons Ratio (y) = 0.44902 -0.00287
# Poissons Ratio (z) = 0.13708 -0.00180
#
# Static dielectric constant tensor:
#      x y z
#    x 1.678190 0.000000 0.038710 
#    y 0.000000 1.604990 0.000000 
#    z 0.038710 0.000000 1.651850 
# 
# From -- ./inp_files/55003.got.cif
#   From: 2010.05.17/outbox.cif.g08.bks.cpg/sg5_28_cif.got.tgz:55003.got - 2010.06.03 18:56:24.
