data_PCOD9122842
_publ_section_title
;
Structure prediction by ZEFSAII (Michael W. Deem and Ramdas Pophale) SiO2 
 PCOD9122842
Probable space group: C 2
;
_chemical_formula_sum "Si O2"
_cell_formula_units_Z 24
_cell_length_a 17.596885
_cell_length_b 4.844780
_cell_length_c 22.483033
_cell_angle_alpha 90.000000
_cell_angle_beta 151.598536
_cell_angle_gamma 90.000000
_cell_volume 911.694278
_symmetry_space_group_name_H-M "C 2"
_symmetry_group_IT_number 5
_symmetry_cell_setting 'monoclinic'
loop_
_space_group_symop_operation_xyz
x,y,z
-x,y,-z
1/2+x,1/2+y,z
1/2-x,1/2+y,-z
loop_
_atom_site_type_symbol
_atom_site_label
_atom_site_fract_x
_atom_site_fract_y
_atom_site_fract_z
Si Si1 0.090128 0.916220 0.837715
Si Si2 0.041498 0.983292 0.421782
Si Si3 0.300297 0.410685 0.959733
Si Si4 0.752237 0.698635 0.278682
Si Si5 0.254291 0.012363 0.413374
Si Si6 0.711481 0.167282 0.170897
O O1 0.229913 0.718963 0.908272
O O2 0.917547 0.884279 0.691010
O O3 0.147283 0.229748 0.872666
O O4 0.083468 0.864699 0.904617
O O5 0.175376 0.757081 0.497180
O O6 0.930100 0.818873 0.391884
O O7 0.123995 0.257108 0.503531
O O8 0.894711 0.077906 0.278568
O O9 0.361123 0.291737 0.939302
O O10 0.726491 0.661076 0.330442
O O11 0.736857 0.408828 0.235566
O O12 0.648056 0.908597 0.165813
#
# Coordination Sequence:
#
# PCOD9122842 Si02
#       6
#     4   4   4   4   4   4
#     4  10  23  39  66  86 109 163 201 263 292 342
#     4  10  21  33  57  88 122 163 185 238 305 358
#     4  10  21  44  63  82 114 158 215 241 306 356
#     4  10  21  33  58  90 117 162 185 239 304 358
#     4  12  21  36  58  92 125 145 208 241 290 367
#     4  10  20  36  60  85 115 165 192 236 301 371
#
# _framework density 26.324615999999999
#
# number of rings (size 3 to 8) (size 9 to 14) (size 15 to 20)
#    1.000    0.667    1.667    3.500    2.333    0.000 
#    0.000    4.167    0.000    2.000    0.000    0.000 
#    0.000    0.000    0.000    0.000    0.000    0.000 
#
# Total GULP energy -67081.079937 kJ/mol
# GULP energy per Si atom -5590.089995 kJ/mol
# Density = 2.626470 g / cm^3
# Si number density = 26.324616 Si / 1000 Ang^3
#
#
#
# Elastic Constant Matrix: (Units=GPa)
#
#
# Indices 1 2 3 4 5 6 
#
# 1 89.4057 10.6537 39.0004 0.0009 -17.3552 -0.0015
# 2 10.6537 133.8465 27.1641 0.0020 0.5905 0.0014
# 3 39.0004 27.1641 111.9769 -0.0001 -8.7480 -0.0018
# 4 0.0009 0.0020 -0.0001 41.4438 -0.0010 -3.2963
# 5 -17.3552 0.5905 -8.7480 -0.0010 42.5738 0.0017
# 6 -0.0015 0.0014 -0.0018 -3.2963 0.0017 20.5823
#
#
#
# Elastic Compliance Matrix: (Units=1/GPa)
#
#
# Indices 1 2 3 4 5 6 
#
# 1 0.014104 -0.000235 -0.004478 0.000000 0.004833 0.000000
# 2 -0.000235 0.007873 -0.001874 0.000000 -0.000590 -0.000001
# 3 -0.004478 -0.001874 0.010980 0.000000 0.000457 0.000001
# 4 0.000000 0.000000 0.000000 0.024440 0.000000 0.003914
# 5 0.004833 -0.000590 0.000457 0.000000 0.025561 -0.000002
# 6 0.000000 -0.000001 0.000001 0.003914 -0.000002 0.049212
#
#
# Mechanical properties :
#
#
# Convention : Reuss Voigt Hill
#
# Bulk Modulus (GPa) = 50.54716 54.31838 52.43277
# Shear Modulus (GPa) = 32.90778 38.14736 35.52757
#
# Velocity S-wave (km/s) = 3.53948 3.81085 3.67767
# Velocity P-wave (km/s) = 5.99558 6.32790 6.16398
#
# Compressibility (1/GPa) = 0.01978351
#
# Stress axis : x y z
#
# Youngs Moduli (GPa) = 70.89963 127.01782 91.07215
#
# Poissons Ratio (x) = 0.02988 0.40780
# Poissons Ratio (y) = 0.01668 0.17067
# Poissons Ratio (z) = 0.31748 0.23804
#
# Static dielectric constant tensor:
#      x y z
#    x 2.133170 0.000000 0.036770 
#    y 0.000000 1.968060 0.000000 
#    z 0.036770 0.000000 2.179090 
# 
# From -- ./inp_files/69320.got.cif
#   From: 2010.05.17/outbox.cif.g08.bks.cpg/sg5_35_cif.got.tgz:69320.got - 2010.06.03 18:56:24.
