data_PCOD9122381
_publ_section_title
;
Structure prediction by ZEFSAII (Michael W. Deem and Ramdas Pophale) SiO2 
 PCOD9122381
Probable space group: C 2
;
_chemical_formula_sum "Si O2"
_cell_formula_units_Z 18
_cell_length_a 5.364614
_cell_length_b 26.742932
_cell_length_c 5.107544
_cell_angle_alpha 90.000000
_cell_angle_beta 96.109091
_cell_angle_gamma 90.000000
_cell_volume 728.595120
_symmetry_space_group_name_H-M "C 2"
_symmetry_group_IT_number 5
_symmetry_cell_setting 'monoclinic'
loop_
_space_group_symop_operation_xyz
x,y,z
-x,y,-z
1/2+x,1/2+y,z
1/2-x,1/2+y,-z
loop_
_atom_site_type_symbol
_atom_site_label
_atom_site_fract_x
_atom_site_fract_y
_atom_site_fract_z
Si Si1 0.165418 0.665490 0.278516
Si Si2 0.500000 0.754602 0.500000
Si Si3 0.725920 0.515869 0.341916
Si Si4 0.000000 0.320292 0.000000
Si Si5 0.659813 0.913894 0.781740
Si Si6 0.000000 0.094289 0.000000
O O1 0.278059 0.718132 0.384093
O O2 0.391922 0.630408 0.210391
O O3 0.000000 0.644880 0.500000
O O4 0.000000 0.672125 0.000000
O O5 0.575884 0.787400 0.256548
O O6 0.500000 0.533021 0.500000
O O7 0.654184 0.458363 0.263625
O O8 0.717551 0.556140 0.111045
O O9 0.000000 0.514158 0.500000
O O10 0.209114 0.359550 0.912518
O O11 0.500000 0.904179 0.500000
O O12 0.500000 0.938297 0.000000
#
# Coordination Sequence:
#
# PCOD9122381 Si02
#       6
#     4   2   4   2   4   2
#     4  12  29  51  78 114 164 209 276 347 412 493
#     4  12  24  48  82 114 150 212 264 340 416 482
#     4  11  29  48  78 116 166 219 269 330 402 489
#     4  10  19  42  82 110 158 202 265 330 408 488
#     4   9  20  43  72 110 155 207 257 326 391 484
#     4  12  31  48  80 118 160 222 275 332 416 492
#
# _framework density 24.705078
#
# number of rings (size 3 to 8) (size 9 to 14) (size 15 to 20)
#    0.667    0.444    1.111    3.333   14.000    0.000 
#    0.000    1.111   17.111    0.000    0.000    0.000 
#    0.000    0.000    0.000    0.000    0.000    0.000 
#
# Total GULP energy -50298.370975 kJ/mol
# GULP energy per Si atom -5588.707886 kJ/mol
# Density = 2.464885 g / cm^3
# Si number density = 24.705078 Si / 1000 Ang^3
#
#
#
# Elastic Constant Matrix: (Units=GPa)
#
#
# Indices 1 2 3 4 5 6 
#
# 1 94.5616 33.9060 53.4812 0.0000 -2.6007 0.0000
# 2 33.9060 192.4401 79.0373 0.0000 0.1591 0.0000
# 3 53.4812 79.0373 189.4453 0.0000 -6.6334 0.0000
# 4 0.0000 0.0000 0.0000 74.5810 0.0000 -3.3318
# 5 -2.6007 0.1591 -6.6334 0.0000 50.1073 0.0000
# 6 0.0000 0.0000 0.0000 -3.3318 0.0000 11.3765
#
#
#
# Elastic Compliance Matrix: (Units=1/GPa)
#
#
# Indices 1 2 3 4 5 6 
#
# 1 0.012722 -0.000929 -0.003195 0.000000 0.000240 0.000000
# 2 -0.000929 0.006346 -0.002399 0.000000 -0.000386 0.000000
# 3 -0.003195 -0.002399 0.007209 0.000000 0.000796 0.000000
# 4 0.000000 0.000000 0.000000 0.013586 0.000000 0.003979
# 5 0.000240 -0.000386 0.000796 0.000000 0.020076 0.000000
# 6 0.000000 0.000000 0.000000 0.003979 0.000000 0.089066
#
#
# Mechanical properties :
#
#
# Convention : Reuss Voigt Hill
#
# Bulk Modulus (GPa) = 75.58350 89.92176 82.75263
# Shear Modulus (GPa) = 30.03696 47.88112 38.95904
#
# Velocity S-wave (km/s) = 3.49065 4.40717 3.97541
# Velocity P-wave (km/s) = 6.84886 7.89776 7.39194
#
# Compressibility (1/GPa) = 0.01323040
#
# Stress axis : x y z
#
# Youngs Moduli (GPa) = 78.60298 157.58953 138.71155
#
# Poissons Ratio (x) = 0.14645 0.44324
# Poissons Ratio (y) = 0.07305 0.33271
# Poissons Ratio (z) = 0.25117 0.37799
#
# Static dielectric constant tensor:
#      x y z
#    x 1.997050 0.000000 0.022990 
#    y 0.000000 1.934350 0.000000 
#    z 0.022990 0.000000 2.054860 
# 
# From -- ./inp_files/1183.got.cif
#   From: 2010.05.17/outbox.cif.g08.bks.cpg/sg5_1_cif.got.tgz:1183.got - 2010.06.03 18:56:24.
