data_PCOD9122185
_publ_section_title
;
Structure prediction by ZEFSAII (Michael W. Deem and Ramdas Pophale) SiO2 
 PCOD9122185
Probable space group: C 2
;
_chemical_formula_sum "Si O2"
_cell_formula_units_Z 22
_cell_length_a 7.501541
_cell_length_b 10.730484
_cell_length_c 14.833143
_cell_angle_alpha 90.000000
_cell_angle_beta 128.551710
_cell_angle_gamma 90.000000
_cell_volume 933.760048
_symmetry_space_group_name_H-M "C 2"
_symmetry_group_IT_number 5
_symmetry_cell_setting 'monoclinic'
loop_
_space_group_symop_operation_xyz
x,y,z
-x,y,-z
1/2+x,1/2+y,z
1/2-x,1/2+y,-z
loop_
_atom_site_type_symbol
_atom_site_label
_atom_site_fract_x
_atom_site_fract_y
_atom_site_fract_z
Si Si1 0.345075 0.089550 0.249505
Si Si2 0.500000 0.516981 0.000000
Si Si3 0.993555 0.827715 0.604203
Si Si4 0.251838 0.329471 0.696393
Si Si5 0.226173 0.073329 0.749312
Si Si6 0.249441 0.904056 0.924446
O O1 0.355751 0.212488 0.312650
O O2 0.552880 0.078168 0.245091
O O3 0.120126 0.089137 0.117970
O O4 0.345029 0.963677 0.308448
O O5 0.310424 0.435636 0.991496
O O6 0.000000 0.822021 0.500000
O O7 0.766802 0.808831 0.593631
O O8 0.072045 0.965303 0.658326
O O9 0.136551 0.214320 0.711727
O O10 0.519826 0.335839 0.816093
O O11 0.271257 0.024615 0.864738
O O12 0.500000 0.844232 0.000000
#
# Coordination Sequence:
#
# PCOD9122185 Si02
#       6
#     4   2   4   4   4   4
#     4  10  21  41  63  97 129 168 220 262 322 399
#     4  10  20  38  66 100 136 176 212 258 326 402
#     4  10  23  43  65  90 127 172 221 276 330 381
#     4   9  22  40  61  94 127 162 225 266 317 394
#     4  10  21  42  60  94 129 169 216 268 327 380
#     4  10  19  39  62  93 136 178 211 262 318 385
#
# _framework density 23.560656999999999
#
# number of rings (size 3 to 8) (size 9 to 14) (size 15 to 20)
#    0.000    2.182    1.818    0.000    0.000    7.273 
#   21.273    0.909    0.000    0.000    0.000    0.000 
#    0.000    0.000    0.000    0.000    0.000    0.000 
#
# Total GULP energy -61405.385675 kJ/mol
# GULP energy per Si atom -5582.307789 kJ/mol
# Density = 2.350703 g / cm^3
# Si number density = 23.560657 Si / 1000 Ang^3
#
#
#
# Elastic Constant Matrix: (Units=GPa)
#
#
# Indices 1 2 3 4 5 6 
#
# 1 109.6032 23.6005 21.1416 0.0000 -15.5858 0.0000
# 2 23.6005 162.0772 27.7493 0.0000 -20.3990 0.0000
# 3 21.1416 27.7493 64.9499 0.0000 -38.0481 0.0000
# 4 0.0000 0.0000 0.0000 20.1764 0.0000 -7.0503
# 5 -15.5858 -20.3990 -38.0481 0.0000 42.4378 0.0000
# 6 0.0000 0.0000 0.0000 -7.0503 0.0000 29.4700
#
#
#
# Elastic Compliance Matrix: (Units=1/GPa)
#
#
# Indices 1 2 3 4 5 6 
#
# 1 0.009909 -0.000923 -0.002020 0.000000 0.001384 0.000000
# 2 -0.000923 0.006781 -0.001866 0.000000 0.001248 0.000000
# 3 -0.002020 -0.001866 0.033470 0.000000 0.028369 0.000000
# 4 0.000000 0.000000 0.000000 0.054084 0.000000 0.012939
# 5 0.001384 0.001248 0.028369 0.000000 0.050107 0.000000
# 6 0.000000 0.000000 0.000000 0.012939 0.000000 0.037028
#
#
# Mechanical properties :
#
#
# Convention : Reuss Voigt Hill
#
# Bulk Modulus (GPa) = 24.66543 53.51255 39.08899
# Shear Modulus (GPa) = 23.30885 36.02610 29.66748
#
# Velocity S-wave (km/s) = 3.14875 3.91459 3.55236
# Velocity P-wave (km/s) = 4.86941 6.57221 5.78382
#
# Compressibility (1/GPa) = 0.04054257
#
# Stress axis : x y z
#
# Youngs Moduli (GPa) = 100.91769 147.47659 29.87742
#
# Poissons Ratio (x) = 0.13609 0.06036
# Poissons Ratio (y) = 0.09312 0.05574
# Poissons Ratio (z) = 0.20387 0.27515
#
# Static dielectric constant tensor:
#      x y z
#    x 1.943500 0.000000 0.050950 
#    y 0.000000 1.945740 0.000000 
#    z 0.050950 0.000000 1.923320 
# 
# From -- ./inp_files/50197.got.cif
#   From: 2010.05.17/outbox.cif.g08.bks.cpg/sg5_26_cif.got.tgz:50197.got - 2010.06.03 18:56:24.
