data_PCOD9122700
_publ_section_title
;
Structure prediction by ZEFSAII (Michael W. Deem and Ramdas Pophale) SiO2 
 PCOD9122700
Probable space group: C 2
;
_chemical_formula_sum "Si O2"
_cell_formula_units_Z 28
_cell_length_a 9.456986
_cell_length_b 17.500332
_cell_length_c 15.239558
_cell_angle_alpha 90.000000
_cell_angle_beta 146.184456
_cell_angle_gamma 90.000000
_cell_volume 1403.631125
_symmetry_space_group_name_H-M "C 2"
_symmetry_group_IT_number 5
_symmetry_cell_setting 'monoclinic'
loop_
_space_group_symop_operation_xyz
x,y,z
-x,y,-z
1/2+x,1/2+y,z
1/2-x,1/2+y,-z
loop_
_atom_site_type_symbol
_atom_site_label
_atom_site_fract_x
_atom_site_fract_y
_atom_site_fract_z
Si Si1 0.235897 0.372160 0.402554
Si Si2 0.689730 0.104559 0.180426
Si Si3 0.097101 0.492099 0.849975
Si Si4 0.432054 0.740046 0.564084
Si Si5 0.014365 0.645218 0.607857
Si Si6 0.862123 0.017859 0.803058
Si Si7 0.662254 0.499513 0.400249
O O1 0.500000 0.342122 0.500000
O O2 0.074408 0.307644 0.368179
O O3 0.313166 0.433049 0.517500
O O4 0.085783 0.418930 0.249598
O O5 0.864553 0.176252 0.298583
O O6 0.550585 0.067989 0.194064
O O7 0.500000 0.119498 0.000000
O O8 0.883991 0.037278 0.253457
O O9 0.216825 0.492513 0.814748
O O10 0.346578 0.493790 0.038179
O O11 0.500000 0.763180 0.500000
O O12 0.143761 0.704827 0.416193
O O13 0.842706 0.568798 0.523124
O O14 0.000000 0.671605 0.500000
O O15 0.296424 0.609640 0.767120
O O16 0.769767 0.981165 0.664966
#
# Coordination Sequence:
#
# PCOD9122700 Si02
#       7
#     4   4   4   4   4   4   4
#     4  12  25  42  63  95 134 174 215 268 336 394
#     4  11  22  44  67  97 124 174 229 270 319 388
#     4  11  22  36  64  97 126 166 215 271 320 382
#     4  11  26  41  65  93 134 175 219 269 334 390
#     4   9  18  36  62  90 122 164 212 266 311 378
#     4  10  20  35  61  98 127 155 214 277 315 368
#     4  10  20  36  66  91 122 166 221 268 308 383
#
# _framework density 19.948260999999999
#
# number of rings (size 3 to 8) (size 9 to 14) (size 15 to 20)
#    0.000    1.429    4.286    1.286    4.000    0.000 
#    2.571    0.000    0.000    0.000    3.714    0.000 
#    0.000    0.000    0.000    0.000    0.000    0.000 
#
# Total GULP energy -77994.494304 kJ/mol
# GULP energy per Si atom -5571.035307 kJ/mol
# Density = 1.990286 g / cm^3
# Si number density = 19.948261 Si / 1000 Ang^3
#
#
#
# Elastic Constant Matrix: (Units=GPa)
#
#
# Indices 1 2 3 4 5 6 
#
# 1 91.2135 32.8232 16.2985 -0.0001 2.5218 0.0004
# 2 32.8232 86.0508 32.2102 0.0000 5.9736 0.0005
# 3 16.2985 32.2102 110.3010 -0.0009 12.3704 0.0014
# 4 -0.0001 0.0000 -0.0009 10.5730 -0.0004 -0.8157
# 5 2.5218 5.9736 12.3704 -0.0004 23.7138 0.0006
# 6 0.0004 0.0005 0.0014 -0.8157 0.0006 34.4884
#
#
#
# Elastic Compliance Matrix: (Units=1/GPa)
#
#
# Indices 1 2 3 4 5 6 
#
# 1 0.012734 -0.004666 -0.000530 0.000000 0.000098 0.000000
# 2 -0.004666 0.014799 -0.003473 0.000000 -0.001420 0.000000
# 3 -0.000530 -0.003473 0.010679 0.000001 -0.004639 0.000000
# 4 0.000000 0.000000 0.000001 0.094753 0.000001 0.002241
# 5 0.000098 -0.001420 -0.004639 0.000001 0.044937 -0.000001
# 6 0.000000 0.000000 0.000000 0.002241 -0.000001 0.029048
#
#
# Mechanical properties :
#
#
# Convention : Reuss Voigt Hill
#
# Bulk Modulus (GPa) = 47.90458 50.02546 48.96502
# Shear Modulus (GPa) = 21.62188 27.50393 24.56291
#
# Velocity S-wave (km/s) = 3.29583 3.71720 3.51284
# Velocity P-wave (km/s) = 6.20886 6.59966 6.40724
#
# Compressibility (1/GPa) = 0.02087483
#
# Stress axis : x y z
#
# Youngs Moduli (GPa) = 78.52821 67.57067 93.64215
#
# Poissons Ratio (x) = 0.31526 0.04964
# Poissons Ratio (y) = 0.36639 0.32522
# Poissons Ratio (z) = 0.04163 0.23467
#
# Static dielectric constant tensor:
#      x y z
#    x 1.787720 0.000000 0.052330 
#    y 0.000000 1.714720 0.000000 
#    z 0.052330 0.000000 1.796660 
# 
# From -- ./inp_files/51400.got.cif
#   From: 2010.05.17/outbox.cif.g08.bks.cpg/sg5_26_cif.got.tgz:51400.got - 2010.06.03 18:56:24.
