data_PCOD9122156
_publ_section_title
;
Structure prediction by ZEFSAII (Michael W. Deem and Ramdas Pophale) SiO2 
 PCOD9122156
Probable space group: C 2
;
_chemical_formula_sum "Si O2"
_cell_formula_units_Z 22
_cell_length_a 10.411734
_cell_length_b 15.609821
_cell_length_c 11.789744
_cell_angle_alpha 90.000000
_cell_angle_beta 145.670902
_cell_angle_gamma 90.000000
_cell_volume 1080.593895
_symmetry_space_group_name_H-M "C 2"
_symmetry_group_IT_number 5
_symmetry_cell_setting 'monoclinic'
loop_
_space_group_symop_operation_xyz
x,y,z
-x,y,-z
1/2+x,1/2+y,z
1/2-x,1/2+y,-z
loop_
_atom_site_type_symbol
_atom_site_label
_atom_site_fract_x
_atom_site_fract_y
_atom_site_fract_z
Si Si1 0.263126 0.059390 0.383816
Si Si2 0.225820 0.213140 0.518605
Si Si3 0.890300 0.802847 0.293335
Si Si4 0.746735 0.174815 0.201022
Si Si5 0.000000 0.161676 0.000000
Si Si6 0.918521 0.990663 0.309091
O O1 0.500000 0.028259 0.500000
O O2 0.322125 0.141954 0.503958
O O3 0.128208 0.998331 0.372873
O O4 0.088103 0.098664 0.163582
O O5 0.390318 0.292421 0.627017
O O6 0.231652 0.176065 0.648155
O O7 0.957970 0.225423 0.299789
O O8 0.798648 0.898927 0.210927
O O9 0.000000 0.795502 0.500000
O O10 0.709539 0.728375 0.134242
O O11 0.772788 0.076445 0.180137
O O12 0.500000 0.211440 0.000000
O O13 0.000000 0.995793 0.500000
#
# Coordination Sequence:
#
# PCOD9122156 Si02
#       6
#     4   4   4   4   2   4
#     4  11  21  40  63  90 118 163 205 244 298 366
#     4  10  19  39  56  89 119 154 206 243 300 352
#     4  11  23  39  59  91 120 153 197 257 303 350
#     4  10  21  35  64  87 115 160 208 245 290 366
#     4  12  22  36  66  90 120 158 206 246 294 366
#     4  10  22  42  62  88 123 158 199 254 307 349
#
# _framework density 20.359175
#
# number of rings (size 3 to 8) (size 9 to 14) (size 15 to 20)
#    0.000    1.455    7.273    0.000    6.364    0.000 
#    3.273    0.000    2.000    0.000    0.000    0.000 
#    0.000    0.000    0.000    0.000    0.000    0.000 
#
# Total GULP energy -61262.962918 kJ/mol
# GULP energy per Si atom -5569.360265 kJ/mol
# Density = 2.031284 g / cm^3
# Si number density = 20.359175 Si / 1000 Ang^3
#
#
#
# Elastic Constant Matrix: (Units=GPa)
#
#
# Indices 1 2 3 4 5 6 
#
# 1 121.9222 23.1587 38.9865 0.0000 16.5571 0.0000
# 2 23.1587 62.8156 18.8469 0.0000 3.9657 0.0000
# 3 38.9865 18.8469 91.5818 -0.0001 22.6263 0.0000
# 4 0.0000 0.0000 -0.0001 8.3349 0.0000 9.3466
# 5 16.5571 3.9657 22.6263 0.0000 36.9400 0.0000
# 6 0.0000 0.0000 0.0000 9.3466 0.0000 -4.4098
#
#
#
# Elastic Compliance Matrix: (Units=1/GPa)
#
#
# Indices 1 2 3 4 5 6 
#
# 1 0.010017 -0.002599 -0.003169 0.000000 -0.002270 0.000000
# 2 -0.002599 0.017646 -0.002763 0.000000 0.000963 0.000000
# 3 -0.003169 -0.002763 0.014626 0.000000 -0.007242 0.000000
# 4 0.000000 0.000000 0.000000 0.035530 0.000000 0.075307
# 5 -0.002270 0.000963 -0.007242 0.000000 0.032421 0.000000
# 6 0.000000 0.000000 0.000000 0.075307 0.000000 -0.067156
#
#
# Mechanical properties :
#
#
# Convention : Reuss Voigt Hill
#
# Bulk Modulus (GPa) = 39.63883 48.70044 44.16963
# Shear Modulus (GPa) = 72.93484 21.19487 47.06486
#
# Velocity S-wave (km/s) = 5.99181 3.23003 4.81326
# Velocity P-wave (km/s) = 8.20860 6.15494 7.25481
#
# Compressibility (1/GPa) = 0.02522779
#
# Stress axis : x y z
#
# Youngs Moduli (GPa) = 99.82912 56.67010 68.37243
#
# Poissons Ratio (x) = 0.14729 0.21665
# Poissons Ratio (y) = 0.25946 0.18890
# Poissons Ratio (z) = 0.31632 0.15657
#
# Static dielectric constant tensor:
#      x y z
#    x 1.789200 0.000000 0.011650 
#    y 0.000000 1.721130 0.000000 
#    z 0.011650 0.000000 1.846650 
# 
# From -- ./inp_files/36953.got.cif
#   From: 2010.05.17/outbox.cif.g08.bks.cpg/sg5_19_cif.got.tgz:36953.got - 2010.06.03 18:56:24.
