data_PCOD9122605
_publ_section_title
;
Structure prediction by ZEFSAII (Michael W. Deem and Ramdas Pophale) SiO2 
 PCOD9122605
Probable space group: C 2
;
_chemical_formula_sum "Si O2"
_cell_formula_units_Z 30
_cell_length_a 13.937608
_cell_length_b 17.409207
_cell_length_c 7.172461
_cell_angle_alpha 90.000000
_cell_angle_beta 117.775520
_cell_angle_gamma 90.000000
_cell_volume 1539.823015
_symmetry_space_group_name_H-M "C 2"
_symmetry_group_IT_number 5
_symmetry_cell_setting 'monoclinic'
loop_
_space_group_symop_operation_xyz
x,y,z
-x,y,-z
1/2+x,1/2+y,z
1/2-x,1/2+y,-z
loop_
_atom_site_type_symbol
_atom_site_label
_atom_site_fract_x
_atom_site_fract_y
_atom_site_fract_z
Si Si1 0.092348 0.320650 0.455568
Si Si2 0.180456 0.464092 0.997454
Si Si3 0.128127 0.624390 0.446052
Si Si4 0.108641 0.635485 0.869317
Si Si5 0.500000 0.849048 0.000000
Si Si6 0.226082 0.465348 0.600241
Si Si7 0.876971 0.005953 0.425724
Si Si8 0.206235 0.174668 0.695602
O O1 0.219257 0.460305 0.817502
O O2 0.185720 0.382274 0.501691
O O3 0.132862 0.248806 0.610208
O O4 0.000000 0.360192 0.500000
O O5 0.127507 0.548877 0.960499
O O6 0.092499 0.402930 0.989460
O O7 0.287051 0.461819 0.222059
O O8 0.128352 0.640870 0.665446
O O9 0.143070 0.531714 0.453163
O O10 0.228196 0.663865 0.436980
O O11 0.019844 0.650507 0.240694
O O12 0.200861 0.681872 0.062560
O O13 0.546258 0.799770 0.212138
O O14 0.337869 0.490772 0.603187
O O15 0.000000 0.983124 0.500000
O O16 0.860299 0.095188 0.349517
#
# Coordination Sequence:
#
# PCOD9122605 Si02
#       8
#     4   4   4   4   2   4   4   4
#     4  12  24  38  59  88 126 157 194 250 312 366
#     4  10  20  34  62  95 116 149 201 260 307 341
#     4   9  18  34  60  90 117 151 205 259 296 339
#     4   9  18  32  60  88 118 151 198 256 298 346
#     4  12  22  36  62  94 118 152 198 258 310 352
#     4  10  20  37  61  92 119 150 203 259 301 348
#     4  10  21  39  62  87 121 162 206 244 298 364
#     4  10  22  36  55  86 126 165 197 235 303 373
#
# _framework density 19.482759000000001
#
# number of rings (size 3 to 8) (size 9 to 14) (size 15 to 20)
#    0.000    1.867    2.667    1.600    5.600    1.600 
#    0.000    2.667    8.800    0.000    0.000    0.000 
#    0.000    0.000    0.000    0.000    0.000    0.000 
#
# Total GULP energy -83643.936437 kJ/mol
# GULP energy per Si atom -5576.262429 kJ/mol
# Density = 1.943842 g / cm^3
# Si number density = 19.482759 Si / 1000 Ang^3
#
#
#
# Elastic Constant Matrix: (Units=GPa)
#
#
# Indices 1 2 3 4 5 6 
#
# 1 95.1408 9.6178 44.5079 0.0000 8.2597 0.0000
# 2 9.6178 40.9189 20.5578 0.0000 6.1477 0.0000
# 3 44.5079 20.5578 91.7834 0.0000 -2.0726 0.0000
# 4 0.0000 0.0000 0.0000 23.2414 0.0000 -4.1946
# 5 8.2597 6.1477 -2.0726 0.0000 30.8281 0.0000
# 6 0.0000 0.0000 0.0000 -4.1946 0.0000 9.5023
#
#
#
# Elastic Compliance Matrix: (Units=1/GPa)
#
#
# Indices 1 2 3 4 5 6 
#
# 1 0.014162 0.000950 -0.007181 0.000000 -0.004467 0.000000
# 2 0.000950 0.028722 -0.007040 0.000000 -0.006456 0.000000
# 3 -0.007181 -0.007040 0.016054 0.000000 0.004407 0.000000
# 4 0.000000 0.000000 0.000000 0.046751 0.000000 0.020637
# 5 -0.004467 -0.006456 0.004407 0.000000 0.035218 0.000000
# 6 0.000000 0.000000 0.000000 0.020637 0.000000 0.114348
#
#
# Mechanical properties :
#
#
# Convention : Reuss Voigt Hill
#
# Bulk Modulus (GPa) = 30.86770 41.91223 36.38996
# Shear Modulus (GPa) = 17.08846 22.92500 20.00673
#
# Velocity S-wave (km/s) = 2.96481 3.43400 3.20800
# Velocity P-wave (km/s) = 5.25339 6.10592 5.69563
#
# Compressibility (1/GPa) = 0.03239632
#
# Stress axis : x y z
#
# Youngs Moduli (GPa) = 70.61225 34.81657 62.29064
#
# Poissons Ratio (x) = -0.03308 0.44731
# Poissons Ratio (y) = -0.06710 0.43851
# Poissons Ratio (z) = 0.50707 0.24510
#
# Static dielectric constant tensor:
#      x y z
#    x 1.711520 0.000000 -0.026810 
#    y 0.000000 1.674860 0.000000 
#    z -0.026810 0.000000 1.708370 
# 
# From -- ./inp_files/25110.got.cif
#   From: 2010.05.17/outbox.cif.g08.bks.cpg/sg5_13_cif.got.tgz:25110.got - 2010.06.03 18:56:24.
