data_PCOD9122103
_publ_section_title
;
Structure prediction by ZEFSAII (Michael W. Deem and Ramdas Pophale) SiO2 
 PCOD9122103
Probable space group: C 2
;
_chemical_formula_sum "Si O2"
_cell_formula_units_Z 20
_cell_length_a 13.061756
_cell_length_b 8.191742
_cell_length_c 9.553309
_cell_angle_alpha 90.000000
_cell_angle_beta 51.958375
_cell_angle_gamma 90.000000
_cell_volume 805.039355
_symmetry_space_group_name_H-M "C 2"
_symmetry_group_IT_number 5
_symmetry_cell_setting 'monoclinic'
loop_
_space_group_symop_operation_xyz
x,y,z
-x,y,-z
1/2+x,1/2+y,z
1/2-x,1/2+y,-z
loop_
_atom_site_type_symbol
_atom_site_label
_atom_site_fract_x
_atom_site_fract_y
_atom_site_fract_z
Si Si1 0.044624 0.141890 0.623106
Si Si2 0.294034 0.980140 0.508782
Si Si3 0.894987 0.275512 0.987057
Si Si4 0.501970 0.137103 0.150049
Si Si5 0.130860 0.720390 0.317945
O O1 0.134540 0.305933 0.562011
O O2 0.000000 0.126492 0.500000
O O3 0.915408 0.172709 0.827291
O O4 0.141130 0.000220 0.602205
O O5 0.364246 0.100712 0.337848
O O6 0.334497 0.053875 0.626771
O O7 0.938292 0.457487 0.917557
O O8 0.769373 0.302668 0.189940
O O9 0.000000 0.193881 0.000000
O O10 0.593099 0.215780 0.187827
O O11 0.500000 0.217540 0.000000
O O12 0.000000 0.782461 0.500000
#
# Coordination Sequence:
#
# PCOD9122103 Si02
#       5
#     4   4   4   4   4
#     4  11  23  41  69  99 135 176 223 278 337 396
#     4  10  21  41  64  96 132 176 217 274 337 399
#     4  10  19  38  64  87 123 171 213 266 334 396
#     4   9  20  36  61  88 122 165 216 268 328 384
#     4  10  20  39  64  88 126 171 216 271 336 393
#
# _framework density 24.843506999999999
#
# number of rings (size 3 to 8) (size 9 to 14) (size 15 to 20)
#    0.000    2.000    2.000    3.000    2.800    0.000 
#    0.000    8.000    0.000    0.000    0.000    0.000 
#    0.000    0.000    0.000    0.000    0.000    0.000 
#
# Total GULP energy -55790.072852 kJ/mol
# GULP energy per Si atom -5579.007285 kJ/mol
# Density = 2.478696 g / cm^3
# Si number density = 24.843507 Si / 1000 Ang^3
#
#
#
# Elastic Constant Matrix: (Units=GPa)
#
#
# Indices 1 2 3 4 5 6 
#
# 1 132.0100 17.8851 33.6174 0.0000 22.6223 0.0000
# 2 17.8851 56.6358 -0.3985 0.0000 -6.9446 0.0000
# 3 33.6174 -0.3985 66.8667 0.0000 -11.4238 0.0000
# 4 0.0000 0.0000 0.0000 13.4298 0.0000 1.4831
# 5 22.6223 -6.9446 -11.4238 0.0000 67.7811 0.0000
# 6 0.0000 0.0000 0.0000 1.4831 0.0000 11.6194
#
#
#
# Elastic Compliance Matrix: (Units=1/GPa)
#
#
# Indices 1 2 3 4 5 6 
#
# 1 0.010536 -0.003979 -0.006169 0.000000 -0.004964 0.000000
# 2 -0.003979 0.019396 0.002762 0.000000 0.003781 0.000000
# 3 -0.006169 0.002762 0.019021 0.000000 0.005548 0.000000
# 4 0.000000 0.000000 0.000000 0.075526 0.000000 -0.009640
# 5 -0.004964 0.003781 0.005548 0.000000 0.017732 0.000000
# 6 0.000000 0.000000 0.000000 -0.009640 0.000000 0.087294
#
#
# Mechanical properties :
#
#
# Convention : Reuss Voigt Hill
#
# Bulk Modulus (GPa) = 29.25574 39.74669 34.50121
# Shear Modulus (GPa) = 19.55646 32.19329 25.87487
#
# Velocity S-wave (km/s) = 2.80873 3.60369 3.23075
# Velocity P-wave (km/s) = 4.72442 5.77486 5.27585
#
# Compressibility (1/GPa) = 0.03418133
#
# Stress axis : x y z
#
# Youngs Moduli (GPa) = 94.91428 51.55618 52.57436
#
# Poissons Ratio (x) = 0.20515 0.32431
# Poissons Ratio (y) = 0.37768 -0.14522
# Poissons Ratio (z) = 0.58549 -0.14240
#
# Static dielectric constant tensor:
#      x y z
#    x 2.141410 0.000000 0.077630 
#    y 0.000000 2.001690 0.000000 
#    z 0.077630 0.000000 2.230150 
# 
# From -- ./inp_files/19214.got.cif
#   From: 2010.05.17/outbox.cif.g08.bks.cpg/sg5_10_cif.got.tgz:19214.got - 2010.06.03 18:56:24.
