data_PCOD9122677
_publ_section_title
;
Structure prediction by ZEFSAII (Michael W. Deem and Ramdas Pophale) SiO2 
 PCOD9122677
Probable space group: C 2
;
_chemical_formula_sum "Si O2"
_cell_formula_units_Z 32
_cell_length_a 9.226291
_cell_length_b 23.170610
_cell_length_c 15.803434
_cell_angle_alpha 90.000000
_cell_angle_beta 153.943745
_cell_angle_gamma 90.000000
_cell_volume 1483.990830
_symmetry_space_group_name_H-M "C 2"
_symmetry_group_IT_number 5
_symmetry_cell_setting 'monoclinic'
loop_
_space_group_symop_operation_xyz
x,y,z
-x,y,-z
1/2+x,1/2+y,z
1/2-x,1/2+y,-z
loop_
_atom_site_type_symbol
_atom_site_label
_atom_site_fract_x
_atom_site_fract_y
_atom_site_fract_z
Si Si1 0.643370 0.051040 0.167459
Si Si2 0.403877 0.086984 0.547049
Si Si3 0.862847 0.935426 0.337202
Si Si4 0.603817 0.258781 0.284562
Si Si5 0.196018 0.848300 0.189110
Si Si6 0.376849 0.136134 0.172315
Si Si7 0.964087 0.809696 0.572784
Si Si8 0.554480 0.965786 0.626772
O O1 0.500453 0.089286 0.168956
O O2 0.029515 0.065162 0.358096
O O3 0.607305 0.982828 0.171018
O O4 0.500000 0.063270 0.000000
O O5 0.500000 0.102454 0.500000
O O6 0.439589 0.133145 0.640315
O O7 0.616617 0.030884 0.689670
O O8 0.000000 0.954733 0.500000
O O9 0.801508 0.867066 0.308129
O O10 0.194144 0.941616 0.458562
O O11 0.557160 0.310659 0.193733
O O12 0.443457 0.199523 0.170034
O O13 0.467034 0.275439 0.305460
O O14 0.000000 0.250548 0.500000
O O15 0.578937 0.829040 0.378005
O O16 0.199024 0.916143 0.214883
O O17 0.000000 0.839077 0.000000
O O18 0.000000 0.128498 0.000000
O O19 0.000000 0.779934 0.500000
O O20 0.500000 0.973985 0.500000
#
# Coordination Sequence:
#
# PCOD9122677 Si02
#       8
#     4   4   4   4   4   4   4   4
#     4  11  22  39  63  92 125 164 208 254 308 367
#     4  10  21  40  64  92 126 162 202 253 312 370
#     4   9  17  34  58  85 120 157 192 238 298 362
#     4  10  22  42  64  84 118 165 205 247 306 369
#     4  10  20  35  59  90 121 156 200 248 299 358
#     4  12  26  43  63  89 122 163 214 262 307 365
#     4   9  19  38  61  87 118 158 199 242 303 367
#     4   9  17  33  57  85 120 155 191 236 295 364
#
# _framework density 21.563476000000001
#
# number of rings (size 3 to 8) (size 9 to 14) (size 15 to 20)
#    0.000    2.000    0.000    5.250    0.000    2.500 
#    0.000   19.375    0.000    0.000    0.000    0.000 
#    0.000    0.000    0.000    0.000    0.000    0.000 
#
# Total GULP energy -89231.124716 kJ/mol
# GULP energy per Si atom -5576.945295 kJ/mol
# Density = 2.151440 g / cm^3
# Si number density = 21.563476 Si / 1000 Ang^3
#
#
#
# Elastic Constant Matrix: (Units=GPa)
#
#
# Indices 1 2 3 4 5 6 
#
# 1 106.4613 40.2521 11.7969 0.0103 -10.5761 -0.0022
# 2 40.2521 88.0499 24.8454 -0.0140 -6.3171 0.0023
# 3 11.7969 24.8454 55.7575 -0.0291 -8.7031 0.0117
# 4 0.0103 -0.0140 -0.0291 -16.2280 -0.0106 9.7277
# 5 -10.5761 -6.3171 -8.7031 -0.0106 23.0057 0.0065
# 6 -0.0022 0.0023 0.0117 9.7277 0.0065 24.7438
#
#
#
# Elastic Compliance Matrix: (Units=1/GPa)
#
#
# Indices 1 2 3 4 5 6 
#
# 1 0.011715 -0.005195 0.000483 0.000007 0.004142 -0.000002
# 2 -0.005195 0.015340 -0.005794 -0.000004 -0.000368 0.000003
# 3 0.000483 -0.005794 0.021468 -0.000036 0.006752 0.000003
# 4 0.000007 -0.000004 -0.000036 -0.049869 -0.000040 0.019606
# 5 0.004142 -0.000368 0.006752 -0.000040 0.047825 0.000000
# 6 -0.000002 0.000003 0.000003 0.019606 0.000000 0.032706
#
#
# Mechanical properties :
#
#
# Convention : Reuss Voigt Hill
#
# Bulk Modulus (GPa) = 36.34781 44.89528 40.62155
# Shear Modulus (GPa) = 45.71685 17.86258 31.78971
#
# Velocity S-wave (km/s) = 4.60946 2.88127 3.84375
# Velocity P-wave (km/s) = 6.72475 5.65103 6.21114
#
# Compressibility (1/GPa) = 0.02751197
#
# Stress axis : x y z
#
# Youngs Moduli (GPa) = 85.35989 65.18716 46.57998
#
# Poissons Ratio (x) = 0.33862 -0.02248
# Poissons Ratio (y) = 0.44341 0.26988
# Poissons Ratio (z) = -0.04119 0.37769
#
# Static dielectric constant tensor:
#      x y z
#    x 1.775690 -0.000010 0.012260 
#    y -0.000010 1.841810 -0.000010 
#    z 0.012260 -0.000010 1.783100 
# 
# From -- ./inp_files/51727.got.cif
#   From: 2010.05.17/outbox.cif.g08.bks.cpg/sg5_26_cif.got.tgz:51727.got - 2010.06.03 18:56:24.
