data_PCOD9122343
_publ_section_title
;
Structure prediction by ZEFSAII (Michael W. Deem and Ramdas Pophale) SiO2 
 PCOD9122343
Probable space group: C 2
;
_chemical_formula_sum "Si O2"
_cell_formula_units_Z 24
_cell_length_a 15.162175
_cell_length_b 9.153893
_cell_length_c 14.694715
_cell_angle_alpha 90.000000
_cell_angle_beta 149.254733
_cell_angle_gamma 90.000000
_cell_volume 1042.648966
_symmetry_space_group_name_H-M "C 2"
_symmetry_group_IT_number 5
_symmetry_cell_setting 'monoclinic'
loop_
_space_group_symop_operation_xyz
x,y,z
-x,y,-z
1/2+x,1/2+y,z
1/2-x,1/2+y,-z
loop_
_atom_site_type_symbol
_atom_site_label
_atom_site_fract_x
_atom_site_fract_y
_atom_site_fract_z
Si Si1 0.145196 0.750000 0.190311
Si Si2 0.346811 0.431502 0.124943
Si Si3 0.901692 0.450457 0.510256
Si Si4 0.823686 0.250501 0.163407
Si Si5 0.104006 0.785672 0.495651
Si Si6 0.465879 0.927002 0.865986
O O1 0.232694 0.857354 0.338677
O O2 0.280271 0.702333 0.229233
O O3 0.075004 0.600273 0.169561
O O4 0.000000 0.825251 0.000000
O O5 0.364085 0.606722 0.140540
O O6 0.488553 0.368655 0.319059
O O7 0.334283 0.341081 0.020694
O O8 0.151107 0.403135 0.985686
O O9 0.876460 0.616712 0.515705
O O10 0.000000 0.456927 0.500000
O O11 0.018460 0.361315 0.683600
O O12 0.294755 0.850792 0.676808
O O13 0.000000 0.794374 0.500000
O O14 0.500000 0.880391 0.000000
#
# Coordination Sequence:
#
# PCOD9122343 Si02
#       6
#     4   4   4   4   4   4
#     4  10  19  41  68  92 122 168 223 260 311 392
#     4  12  24  42  66  95 134 169 215 270 329 379
#     4   9  21  38  62  91 124 169 213 259 320 383
#     4  11  22  42  63  92 131 168 209 270 328 373
#     4  11  21  40  65  95 131 169 217 270 319 384
#     4  11  21  41  69  97 120 172 225 260 311 393
#
# _framework density 23.018294000000001
#
# number of rings (size 3 to 8) (size 9 to 14) (size 15 to 20)
#    0.000    1.333    5.000    2.000    0.000    2.000 
#    9.000    0.000    0.000    0.000    0.000    0.000 
#    0.000    0.000    0.000    0.000    0.000    0.000 
#
# Total GULP energy -67107.771080 kJ/mol
# GULP energy per Si atom -5592.314257 kJ/mol
# Density = 2.296590 g / cm^3
# Si number density = 23.018294 Si / 1000 Ang^3
#
#
#
# Elastic Constant Matrix: (Units=GPa)
#
#
# Indices 1 2 3 4 5 6 
#
# 1 71.4688 15.5649 18.9965 0.0000 5.9939 0.0000
# 2 15.5649 160.3757 103.1651 0.0000 -2.9043 0.0000
# 3 18.9965 103.1651 227.6110 0.0000 14.4883 0.0000
# 4 0.0000 0.0000 0.0000 51.9845 0.0000 1.9743
# 5 5.9939 -2.9043 14.4883 0.0000 35.2153 0.0000
# 6 0.0000 0.0000 0.0000 1.9743 0.0000 19.4188
#
#
#
# Elastic Compliance Matrix: (Units=1/GPa)
#
#
# Indices 1 2 3 4 5 6 
#
# 1 0.014578 -0.001087 -0.000575 0.000000 -0.002334 0.000000
# 2 -0.001087 0.009090 -0.004199 0.000000 0.002662 0.000000
# 3 -0.000575 -0.004199 0.006531 0.000000 -0.002936 0.000000
# 4 0.000000 0.000000 0.000000 0.019311 0.000000 -0.001963
# 5 -0.002334 0.002662 -0.002936 0.000000 0.030221 0.000000
# 6 0.000000 0.000000 0.000000 -0.001963 0.000000 0.051696
#
#
# Mechanical properties :
#
#
# Convention : Reuss Voigt Hill
#
# Bulk Modulus (GPa) = 54.12212 81.65649 67.88931
# Shear Modulus (GPa) = 33.48768 42.77233 38.13001
#
# Velocity S-wave (km/s) = 3.81836 4.31535 4.07444
# Velocity P-wave (km/s) = 6.55771 7.77054 7.18974
#
# Compressibility (1/GPa) = 0.01847673
#
# Stress axis : x y z
#
# Youngs Moduli (GPa) = 68.59874 110.01058 153.10495
#
# Poissons Ratio (x) = 0.11957 0.08810
# Poissons Ratio (y) = 0.07456 0.64286
# Poissons Ratio (z) = 0.03947 0.46191
#
# Static dielectric constant tensor:
#      x y z
#    x 1.997670 0.000000 0.006690 
#    y 0.000000 1.807520 0.000000 
#    z 0.006690 0.000000 1.816890 
# 
# From -- ./inp_files/55794.got.cif
#   From: 2010.05.17/outbox.cif.g08.bks.cpg/sg5_28_cif.got.tgz:55794.got - 2010.06.03 18:56:24.
