data_PCOD9122152
_publ_section_title
;
Structure prediction by ZEFSAII (Michael W. Deem and Ramdas Pophale) SiO2 
 PCOD9122152
Probable space group: C 2
;
_chemical_formula_sum "Si O2"
_cell_formula_units_Z 28
_cell_length_a 28.230192
_cell_length_b 5.603029
_cell_length_c 19.879227
_cell_angle_alpha 90.000000
_cell_angle_beta 22.802323
_cell_angle_gamma 90.000000
_cell_volume 1218.617066
_symmetry_space_group_name_H-M "C 2"
_symmetry_group_IT_number 5
_symmetry_cell_setting 'monoclinic'
loop_
_space_group_symop_operation_xyz
x,y,z
-x,y,-z
1/2+x,1/2+y,z
1/2-x,1/2+y,-z
loop_
_atom_site_type_symbol
_atom_site_label
_atom_site_fract_x
_atom_site_fract_y
_atom_site_fract_z
Si Si1 0.193482 0.754820 0.663250
Si Si2 0.873138 0.867632 0.491975
Si Si3 0.521677 0.748898 0.359705
Si Si4 0.749913 0.973292 0.278714
Si Si5 0.408331 0.026815 0.322249
Si Si6 0.752476 0.836360 0.126966
Si Si7 0.360542 0.829946 0.934599
O O1 0.290222 0.555063 0.560207
O O2 0.088508 0.649910 0.754168
O O3 0.167533 0.886421 0.767226
O O4 0.271903 0.929629 0.512841
O O5 0.779459 0.748471 0.667757
O O6 0.924911 0.698430 0.365228
O O7 0.984102 0.979683 0.388974
O O8 0.606493 0.797480 0.312062
O O9 0.389625 0.872600 0.531867
O O10 0.605229 0.835919 0.188428
O O11 0.792390 0.886014 0.151239
O O12 0.509412 0.823296 0.196780
O O13 0.803454 0.583618 0.032334
O O14 0.789468 0.084738 0.042289
#
# Coordination Sequence:
#
# PCOD9122152 Si02
#       7
#     4   4   4   4   4   4   4
#     4  10  20  36  71  97 133 170 243 288 348 399
#     4  10  19  38  72  99 137 161 248 297 338 398
#     4  11  23  44  72 100 129 188 241 292 331 420
#     4  10  24  44  67  99 137 182 240 290 344 426
#     4  11  20  37  69 107 129 183 226 308 344 414
#     4  12  29  45  67 101 148 191 218 291 369 419
#     4  12  26  44  69 101 145 176 238 285 357 425
#
# _framework density 22.976863000000002
#
# number of rings (size 3 to 8) (size 9 to 14) (size 15 to 20)
#    0.000    1.143    5.714    2.143    6.000    0.000 
#    0.000    0.714    0.000    0.000    0.000    0.000 
#    0.000    0.000    0.000    0.000    0.000    0.000 
#
# Total GULP energy -78112.715037 kJ/mol
# GULP energy per Si atom -5579.479646 kJ/mol
# Density = 2.292457 g / cm^3
# Si number density = 22.976863 Si / 1000 Ang^3
#
#
#
# Elastic Constant Matrix: (Units=GPa)
#
#
# Indices 1 2 3 4 5 6 
#
# 1 92.6706 10.6005 -5.5973 -0.0064 -0.6684 -0.0013
# 2 10.6005 96.8448 18.4774 -0.0334 8.0770 0.0377
# 3 -5.5973 18.4774 41.5922 -0.0534 6.3712 -0.0120
# 4 -0.0064 -0.0334 -0.0534 21.8458 -0.0017 -10.1993
# 5 -0.6684 8.0770 6.3712 -0.0017 27.3600 -0.0016
# 6 -0.0013 0.0377 -0.0120 -10.1993 -0.0016 32.6088
#
#
#
# Elastic Compliance Matrix: (Units=1/GPa)
#
#
# Indices 1 2 3 4 5 6 
#
# 1 0.011115 -0.001656 0.002193 0.000009 0.000250 0.000006
# 2 -0.001656 0.011663 -0.005051 -0.000003 -0.002307 -0.000016
# 3 0.002193 -0.005051 0.027320 0.000078 -0.004817 0.000040
# 4 0.000009 -0.000003 0.000078 0.053603 -0.000013 0.016766
# 5 0.000250 -0.002307 -0.004817 -0.000013 0.038359 -0.000001
# 6 0.000006 -0.000016 0.000040 0.016766 -0.000001 0.035911
#
#
# Mechanical properties :
#
#
# Convention : Reuss Voigt Hill
#
# Bulk Modulus (GPa) = 24.34825 30.89654 27.62240
# Shear Modulus (GPa) = 24.91438 30.20472 27.55955
#
# Velocity S-wave (km/s) = 3.29648 3.62963 3.46706
# Velocity P-wave (km/s) = 5.01088 5.57150 5.29861
#
# Compressibility (1/GPa) = 0.04107071
#
# Stress axis : x y z
#
# Youngs Moduli (GPa) = 89.97190 85.74020 36.60334
#
# Poissons Ratio (x) = 0.14197 -0.08028
# Poissons Ratio (y) = 0.14898 0.18487
# Poissons Ratio (z) = -0.19732 0.43305
#
# Static dielectric constant tensor:
#      x y z
#    x 1.847000 -0.000020 -0.003300 
#    y -0.000020 1.990220 0.000020 
#    z -0.003300 0.000020 1.906570 
# 
# From -- ./inp_files/63532.got.cif
#   From: 2010.05.17/outbox.cif.g08.bks.cpg/sg5_32_cif.got.tgz:63532.got - 2010.06.03 18:56:24.
