data_PCOD9122128
_publ_section_title
;
Structure prediction by ZEFSAII (Michael W. Deem and Ramdas Pophale) SiO2 
 PCOD9122128
Probable space group: C 2
;
_chemical_formula_sum "Si O2"
_cell_formula_units_Z 30
_cell_length_a 7.425164
_cell_length_b 14.780442
_cell_length_c 13.120199
_cell_angle_alpha 90.000000
_cell_angle_beta 88.996097
_cell_angle_gamma 90.000000
_cell_volume 1439.684161
_symmetry_space_group_name_H-M "C 2"
_symmetry_group_IT_number 5
_symmetry_cell_setting 'monoclinic'
loop_
_space_group_symop_operation_xyz
x,y,z
-x,y,-z
1/2+x,1/2+y,z
1/2-x,1/2+y,-z
loop_
_atom_site_type_symbol
_atom_site_label
_atom_site_fract_x
_atom_site_fract_y
_atom_site_fract_z
Si Si1 0.500000 0.281150 0.500000
Si Si2 0.531188 0.442779 0.889062
Si Si3 0.123300 0.629350 0.240546
Si Si4 0.961008 0.460193 0.878572
Si Si5 0.958045 0.298080 0.738119
Si Si6 0.516408 0.648677 0.885470
Si Si7 0.051821 0.820079 0.709927
Si Si8 0.837791 0.178266 0.427486
O O1 0.480021 0.340936 0.599544
O O2 0.677197 0.217913 0.498684
O O3 0.745096 0.451129 0.877124
O O4 0.454096 0.544279 0.886276
O O5 0.469635 0.381637 0.797893
O O6 0.500000 0.401533 0.000000
O O7 0.007823 0.549155 0.191227
O O8 0.277556 0.651947 0.155605
O O9 0.240675 0.612651 0.344100
O O10 0.004954 0.716923 0.266696
O O11 0.035795 0.373415 0.815591
O O12 0.000000 0.466003 0.000000
O O13 0.912412 0.211681 0.809015
O O14 0.766339 0.332531 0.701227
O O15 0.080467 0.258746 0.645838
O O16 0.500000 0.683260 0.000000
O O17 0.000000 0.146014 0.500000
#
# Coordination Sequence:
#
# PCOD9122128 Si02
#       8
#     2   4   4   4   4   4   4   4
#     4  10  20  36  62  90 116 158 202 252 302 358
#     4   9  20  35  55  81 120 152 196 250 289 359
#     4   9  21  35  56  86 118 157 202 250 291 366
#     4  10  21  37  57  84 125 162 196 243 302 359
#     4  10  20  35  61  84 116 158 196 243 301 359
#     4   9  18  35  54  80 115 154 195 238 295 358
#     4  10  20  35  57  83 116 151 200 247 299 356
#     4  10  19  38  66  86 120 157 202 255 307 349
#
# _framework density 20.837904000000002
#
# number of rings (size 3 to 8) (size 9 to 14) (size 15 to 20)
#    0.000    2.400    1.333    0.400    0.000    9.067 
#    0.000    0.000   29.333    0.000    0.000    0.000 
#    0.000    0.000    0.000    0.000    0.000    0.000 
#
# Total GULP energy -83564.142151 kJ/mol
# GULP energy per Si atom -5570.942810 kJ/mol
# Density = 2.079048 g / cm^3
# Si number density = 20.837904 Si / 1000 Ang^3
#
#
#
# Elastic Constant Matrix: (Units=GPa)
#
#
# Indices 1 2 3 4 5 6 
#
# 1 57.2240 -2.4048 15.6817 0.0000 8.9586 0.0000
# 2 -2.4048 54.5521 48.0367 0.0000 14.2504 0.0000
# 3 15.6817 48.0367 138.2626 0.0000 1.9691 0.0000
# 4 0.0000 0.0000 0.0000 -17.3092 0.0000 15.3422
# 5 8.9586 14.2504 1.9691 0.0000 33.0774 0.0000
# 6 0.0000 0.0000 0.0000 15.3422 0.0000 8.2620
#
#
#
# Elastic Compliance Matrix: (Units=1/GPa)
#
#
# Indices 1 2 3 4 5 6 
#
# 1 0.020373 0.007216 -0.004699 0.000000 -0.008347 0.000000
# 2 0.007216 0.033522 -0.012242 0.000000 -0.015667 0.000000
# 3 -0.004699 -0.012242 0.011936 0.000000 0.005836 0.000000
# 4 0.000000 0.000000 0.000000 -0.021835 0.000000 0.040546
# 5 -0.008347 -0.015667 0.005836 0.000000 0.038895 0.000000
# 6 0.000000 0.000000 0.000000 0.040546 0.000000 0.045744
#
#
# Mechanical properties :
#
#
# Convention : Reuss Voigt Hill
#
# Bulk Modulus (GPa) = 21.56048 41.40732 31.48390
# Shear Modulus (GPa) = 30.57276 17.38772 23.98024
#
# Velocity S-wave (km/s) = 3.83452 2.89178 3.39602
# Velocity P-wave (km/s) = 5.47485 5.57352 5.52441
#
# Compressibility (1/GPa) = 0.04638116
#
# Stress axis : x y z
#
# Youngs Moduli (GPa) = 49.08489 29.83142 83.78267
#
# Poissons Ratio (x) = -0.21527 0.39369
# Poissons Ratio (y) = -0.35421 1.02565
# Poissons Ratio (z) = 0.23065 0.36519
#
# Static dielectric constant tensor:
#      x y z
#    x 1.793860 0.000000 0.012430 
#    y 0.000000 1.781990 0.000000 
#    z 0.012430 0.000000 1.803780 
# 
# From -- ./inp_files/36160.got.cif
#   From: 2010.05.17/outbox.cif.g08.bks.cpg/sg5_19_cif.got.tgz:36160.got - 2010.06.03 18:56:24.
