data_PCOD9122265
_publ_section_title
;
Structure prediction by ZEFSAII (Michael W. Deem and Ramdas Pophale) SiO2 
 PCOD9122265
Probable space group: C 2
;
_chemical_formula_sum "Si O2"
_cell_formula_units_Z 24
_cell_length_a 17.647105
_cell_length_b 10.752374
_cell_length_c 9.628886
_cell_angle_alpha 90.000000
_cell_angle_beta 42.990188
_cell_angle_gamma 90.000000
_cell_volume 1245.826135
_symmetry_space_group_name_H-M "C 2"
_symmetry_group_IT_number 5
_symmetry_cell_setting 'monoclinic'
loop_
_space_group_symop_operation_xyz
x,y,z
-x,y,-z
1/2+x,1/2+y,z
1/2-x,1/2+y,-z
loop_
_atom_site_type_symbol
_atom_site_label
_atom_site_fract_x
_atom_site_fract_y
_atom_site_fract_z
Si Si1 0.425709 0.897910 0.806116
Si Si2 0.266166 0.793011 0.251798
Si Si3 0.114561 0.024902 0.426555
Si Si4 0.241502 0.246487 0.156103
Si Si5 0.351087 0.755847 0.443874
Si Si6 0.607676 0.172154 0.267806
O O1 0.360556 0.820386 0.775324
O O2 0.551638 0.854360 0.658543
O O3 0.349508 0.259464 0.915903
O O4 0.361477 0.859492 0.032759
O O5 0.310441 0.755794 0.342048
O O6 0.211381 0.681403 0.235899
O O7 0.170437 0.896989 0.394365
O O8 0.200886 0.102284 0.212900
O O9 0.000000 0.009614 0.500000
O O10 0.101895 0.121387 0.570956
O O11 0.246136 0.280428 0.312079
O O12 0.582107 0.039505 0.233211
O O13 0.500000 0.209104 0.500000
#
# Coordination Sequence:
#
# PCOD9122265 Si02
#       6
#     4   4   4   4   4   4
#     4  11  19  39  64  90 119 164 215 247 298 383
#     4  11  24  38  60  98 127 156 206 269 311 354
#     4  10  19  40  64  85 120 169 206 246 302 381
#     4   9  19  38  61  87 115 168 203 249 298 370
#     4  10  20  37  61  92 116 165 205 256 298 360
#     4  11  23  38  61  95 124 162 206 259 310 370
#
# _framework density 19.264324999999999
#
# number of rings (size 3 to 8) (size 9 to 14) (size 15 to 20)
#    1.000    0.667    3.333    2.500    0.000    2.667 
#    0.000    0.833    0.000    2.000    0.000    0.000 
#    0.000    0.000    0.000    0.000    0.000    0.000 
#
# Total GULP energy -66846.098844 kJ/mol
# GULP energy per Si atom -5570.508237 kJ/mol
# Density = 1.922048 g / cm^3
# Si number density = 19.264325 Si / 1000 Ang^3
#
#
#
# Elastic Constant Matrix: (Units=GPa)
#
#
# Indices 1 2 3 4 5 6 
#
# 1 131.1027 41.9603 55.7385 0.0000 29.6904 0.0000
# 2 41.9603 48.9662 19.5777 0.0000 -3.9562 0.0000
# 3 55.7385 19.5777 125.5041 0.0000 14.0285 0.0000
# 4 0.0000 0.0000 0.0000 20.2483 0.0000 -6.0154
# 5 29.6904 -3.9562 14.0285 0.0000 26.3636 0.0000
# 6 0.0000 0.0000 0.0000 -6.0154 0.0000 13.2645
#
#
#
# Elastic Compliance Matrix: (Units=1/GPa)
#
#
# Indices 1 2 3 4 5 6 
#
# 1 0.020101 -0.017697 -0.003551 0.000000 -0.023404 0.000000
# 2 -0.017697 0.038107 -0.001012 0.000000 0.026187 0.000000
# 3 -0.003551 -0.001012 0.009859 0.000000 -0.001399 0.000000
# 4 0.000000 0.000000 0.000000 0.057077 0.000000 0.025884
# 5 -0.023404 0.026187 -0.001399 0.000000 0.068963 0.000000
# 6 0.000000 0.000000 0.000000 0.025884 0.000000 0.087128
#
#
# Mechanical properties :
#
#
# Convention : Reuss Voigt Hill
#
# Bulk Modulus (GPa) = 42.46517 60.01399 51.23958
# Shear Modulus (GPa) = 14.98783 24.52837 19.75810
#
# Velocity S-wave (km/s) = 2.79231 3.57214 3.20602
# Velocity P-wave (km/s) = 5.69976 6.94508 6.35301
#
# Compressibility (1/GPa) = 0.02354871
#
# Stress axis : x y z
#
# Youngs Moduli (GPa) = 49.74765 26.24160 101.42892
#
# Poissons Ratio (x) = 0.46439 0.36015
# Poissons Ratio (y) = 0.88037 0.10266
# Poissons Ratio (z) = 0.17664 0.02656
#
# Static dielectric constant tensor:
#      x y z
#    x 1.627510 0.000000 0.032810 
#    y 0.000000 1.685510 0.000000 
#    z 0.032810 0.000000 1.734080 
# 
# From -- ./inp_files/42387.got.cif
#   From: 2010.05.17/outbox.cif.g08.bks.cpg/sg5_22_cif.got.tgz:42387.got - 2010.06.03 18:56:24.
