data_PCOD9122565
_publ_section_title
;
Structure prediction by ZEFSAII (Michael W. Deem and Ramdas Pophale) SiO2 
 PCOD9122565
Probable space group: C 2
;
_chemical_formula_sum "Si O2"
_cell_formula_units_Z 20
_cell_length_a 17.645757
_cell_length_b 6.164137
_cell_length_c 17.661646
_cell_angle_alpha 90.000000
_cell_angle_beta 34.171092
_cell_angle_gamma 90.000000
_cell_volume 1079.001122
_symmetry_space_group_name_H-M "C 2"
_symmetry_group_IT_number 5
_symmetry_cell_setting 'monoclinic'
loop_
_space_group_symop_operation_xyz
x,y,z
-x,y,-z
1/2+x,1/2+y,z
1/2-x,1/2+y,-z
loop_
_atom_site_type_symbol
_atom_site_label
_atom_site_fract_x
_atom_site_fract_y
_atom_site_fract_z
Si Si1 0.842346 0.863690 0.336041
Si Si2 0.413949 0.155077 0.425188
Si Si3 0.117831 0.105986 0.842072
Si Si4 0.393289 0.863591 0.654122
Si Si5 0.199561 0.982292 0.360442
O O1 0.928978 0.782809 0.334639
O O2 0.757751 0.667017 0.368121
O O3 0.729842 0.032187 0.458368
O O4 0.921089 0.980610 0.202868
O O5 0.394614 0.323139 0.511424
O O6 0.528397 0.971369 0.340836
O O7 0.175793 0.340298 0.772125
O O8 0.250218 0.979922 0.763249
O O9 0.000000 0.111004 0.000000
O O10 0.500000 0.924034 0.500000
O O11 0.365534 0.611530 0.657007
#
# Coordination Sequence:
#
# PCOD9122565 Si02
#       5
#     4   4   4   4   4
#     4  10  20  34  62  91 126 159 200 253 317 366
#     4  11  20  34  60  97 127 155 199 261 317 363
#     4  10  23  41  61  87 126 168 215 248 306 378
#     4  11  21  34  61  96 120 155 208 264 302 363
#     4  10  20  34  58  88 127 158 200 251 311 357
#
# _framework density 18.535661000000001
#
# number of rings (size 3 to 8) (size 9 to 14) (size 15 to 20)
#    0.000    1.600    8.000    0.000    2.800    3.200 
#    0.000    0.000    4.400    0.000    0.000    0.000 
#    0.000    0.000    0.000    0.000    0.000    0.000 
#
# Total GULP energy -55714.485054 kJ/mol
# GULP energy per Si atom -5571.448505 kJ/mol
# Density = 1.849347 g / cm^3
# Si number density = 18.535661 Si / 1000 Ang^3
#
#
#
# Elastic Constant Matrix: (Units=GPa)
#
#
# Indices 1 2 3 4 5 6 
#
# 1 99.3233 48.4348 41.4000 -0.0001 12.0017 0.0000
# 2 48.4348 106.9907 34.7958 -0.0003 10.5077 0.0000
# 3 41.4000 34.7958 111.5159 0.0000 13.1856 0.0000
# 4 -0.0001 -0.0003 0.0000 14.1594 0.0001 -2.5480
# 5 12.0017 10.5077 13.1856 0.0001 19.9197 0.0000
# 6 0.0000 0.0000 0.0000 -2.5480 0.0000 41.5813
#
#
#
# Elastic Compliance Matrix: (Units=1/GPa)
#
#
# Indices 1 2 3 4 5 6 
#
# 1 0.014373 -0.005057 -0.003308 0.000000 -0.003802 0.000000
# 2 -0.005057 0.012428 -0.001720 0.000000 -0.002370 0.000000
# 3 -0.003308 -0.001720 0.011271 0.000000 -0.004560 0.000000
# 4 0.000000 0.000000 0.000000 0.071412 0.000000 0.004376
# 5 -0.003802 -0.002370 -0.004560 0.000000 0.056761 0.000000
# 6 0.000000 0.000000 0.000000 0.004376 0.000000 0.024317
#
#
# Mechanical properties :
#
#
# Convention : Reuss Voigt Hill
#
# Bulk Modulus (GPa) = 55.86277 63.01013 59.43645
# Shear Modulus (GPa) = 23.07325 28.01204 25.54265
#
# Velocity S-wave (km/s) = 3.53200 3.89170 3.71621
# Velocity P-wave (km/s) = 6.84374 7.36624 7.10980
#
# Compressibility (1/GPa) = 0.01790101
#
# Stress axis : x y z
#
# Youngs Moduli (GPa) = 69.57670 80.46189 88.71943
#
# Poissons Ratio (x) = 0.40691 0.29351
# Poissons Ratio (y) = 0.35186 0.15262
# Poissons Ratio (z) = 0.23018 0.13841
#
# Static dielectric constant tensor:
#      x y z
#    x 1.724370 0.000000 -0.001240 
#    y 0.000000 1.697520 0.000000 
#    z -0.001240 0.000000 1.582990 
# 
# From -- ./inp_files/25946.got.cif
#   From: 2010.05.17/outbox.cif.g08.bks.cpg/sg5_13_cif.got.tgz:25946.got - 2010.06.03 18:56:24.
