data_PCOD9122040
_publ_section_title
;
Structure prediction by ZEFSAII (Michael W. Deem and Ramdas Pophale) SiO2 
 PCOD9122040
Probable space group: C 2
;
_chemical_formula_sum "Si O2"
_cell_formula_units_Z 26
_cell_length_a 19.643071
_cell_length_b 9.059877
_cell_length_c 7.968713
_cell_angle_alpha 90.000000
_cell_angle_beta 58.158702
_cell_angle_gamma 90.000000
_cell_volume 1204.729996
_symmetry_space_group_name_H-M "C 2"
_symmetry_group_IT_number 5
_symmetry_cell_setting 'monoclinic'
loop_
_space_group_symop_operation_xyz
x,y,z
-x,y,-z
1/2+x,1/2+y,z
1/2-x,1/2+y,-z
loop_
_atom_site_type_symbol
_atom_site_label
_atom_site_fract_x
_atom_site_fract_y
_atom_site_fract_z
Si Si1 0.722739 0.565310 0.566466
Si Si2 0.174705 0.452027 0.257244
Si Si3 0.944837 0.226597 0.907898
Si Si4 0.790735 0.728445 0.992245
Si Si5 0.500000 0.862051 0.500000
Si Si6 0.718466 0.858625 0.767277
Si Si7 0.089853 0.910427 0.938268
O O1 0.782366 0.510611 0.633887
O O2 0.714866 0.738215 0.617905
O O3 0.759721 0.514102 0.343526
O O4 0.641249 0.473575 0.713148
O O5 0.202337 0.559380 0.070264
O O6 0.080520 0.455950 0.401131
O O7 0.208621 0.287594 0.182300
O O8 0.991865 0.267848 0.679774
O O9 0.914900 0.058033 0.941187
O O10 0.868919 0.332962 0.037363
O O11 0.000000 0.237541 0.000000
O O12 0.784947 0.807763 0.815996
O O13 0.861344 0.789119 0.019484
O O14 0.000000 0.867675 0.000000
#
# Coordination Sequence:
#
# PCOD9122040 Si02
#       7
#     4   4   4   4   2   4   4
#     4   9  20  37  61  86 125 169 211 265 326 392
#     4  10  22  40  64  92 131 169 219 267 328 395
#     4  10  21  40  64  95 132 166 220 277 330 397
#     4  10  21  41  66  89 129 172 217 270 326 395
#     4  12  22  40  66 100 132 178 216 274 340 388
#     4  10  19  38  59  93 123 166 218 263 321 397
#     4   9  20  42  61  91 131 167 218 283 324 391
#
# _framework density 21.581599000000001
#
# number of rings (size 3 to 8) (size 9 to 14) (size 15 to 20)
#    0.000    2.154    1.538    1.846    0.000    2.462 
#   13.846    0.769    0.000    0.000    0.000    0.000 
#    0.000    0.000    0.000    0.000    0.000    0.000 
#
# Total GULP energy -72579.015751 kJ/mol
# GULP energy per Si atom -5583.001212 kJ/mol
# Density = 2.153248 g / cm^3
# Si number density = 21.581599 Si / 1000 Ang^3
#
#
#
# Elastic Constant Matrix: (Units=GPa)
#
#
# Indices 1 2 3 4 5 6 
#
# 1 101.2528 20.6423 26.0854 0.0000 -23.9263 0.0000
# 2 20.6423 81.0085 26.9551 0.0000 -4.5827 0.0000
# 3 26.0854 26.9551 104.2831 0.0000 -3.4175 0.0000
# 4 0.0000 0.0000 0.0000 38.8270 0.0000 7.5468
# 5 -23.9263 -4.5827 -3.4175 0.0000 40.1711 0.0000
# 6 0.0000 0.0000 0.0000 7.5468 0.0000 30.0405
#
#
#
# Elastic Compliance Matrix: (Units=1/GPa)
#
#
# Indices 1 2 3 4 5 6 
#
# 1 0.012569 -0.002007 -0.002394 0.000000 0.007054 0.000000
# 2 -0.002007 0.013889 -0.003084 0.000000 0.000127 0.000000
# 3 -0.002394 -0.003084 0.010958 0.000000 -0.000846 0.000000
# 4 0.000000 0.000000 0.000000 0.027077 0.000000 -0.006802
# 5 0.007054 0.000127 -0.000846 0.000000 0.029037 0.000000
# 6 0.000000 0.000000 0.000000 -0.006802 0.000000 0.034997
#
#
# Mechanical properties :
#
#
# Convention : Reuss Voigt Hill
#
# Bulk Modulus (GPa) = 44.55217 48.21220 46.38219
# Shear Modulus (GPa) = 33.11705 35.99850 34.55777
#
# Velocity S-wave (km/s) = 3.92152 4.08857 4.00592
# Velocity P-wave (km/s) = 6.41817 6.68405 6.55246
#
# Compressibility (1/GPa) = 0.02244560
#
# Stress axis : x y z
#
# Youngs Moduli (GPa) = 79.56074 71.99868 91.26138
#
# Poissons Ratio (x) = 0.14451 0.21848
# Poissons Ratio (y) = 0.15969 0.28144
# Poissons Ratio (z) = 0.19047 0.22203
#
# Static dielectric constant tensor:
#      x y z
#    x 1.794930 0.000000 0.039450 
#    y 0.000000 1.812000 0.000000 
#    z 0.039450 0.000000 1.851340 
# 
# From -- ./inp_files/28892.got.cif
#   From: 2010.05.17/outbox.cif.g08.bks.cpg/sg5_15_cif.got.tgz:28892.got - 2010.06.03 18:56:24.
