data_PCOD9122490
_publ_section_title
;
Structure prediction by ZEFSAII (Michael W. Deem and Ramdas Pophale) SiO2 
 PCOD9122490
Probable space group: C 2
;
_chemical_formula_sum "Si O2"
_cell_formula_units_Z 32
_cell_length_a 24.026225
_cell_length_b 12.729985
_cell_length_c 6.548931
_cell_angle_alpha 90.000000
_cell_angle_beta 70.670817
_cell_angle_gamma 90.000000
_cell_volume 1890.108476
_symmetry_space_group_name_H-M "C 2"
_symmetry_group_IT_number 5
_symmetry_cell_setting 'monoclinic'
loop_
_space_group_symop_operation_xyz
x,y,z
-x,y,-z
1/2+x,1/2+y,z
1/2-x,1/2+y,-z
loop_
_atom_site_type_symbol
_atom_site_label
_atom_site_fract_x
_atom_site_fract_y
_atom_site_fract_z
Si Si1 0.740497 0.243510 0.631151
Si Si2 0.278280 0.592379 0.925962
Si Si3 0.940912 0.552088 0.981507
Si Si4 0.439521 0.240447 0.680829
Si Si5 0.859467 0.604658 0.462529
Si Si6 0.161463 0.468951 0.145912
Si Si7 0.829313 0.865980 0.934574
Si Si8 0.722651 0.786453 0.825216
O O1 0.780127 0.168524 0.727276
O O2 0.696048 0.168280 0.559181
O O3 0.779122 0.303369 0.414087
O O4 0.701246 0.322191 0.819613
O O5 0.317200 0.488313 0.904516
O O6 0.209990 0.553884 0.008984
O O7 0.291152 0.667205 0.101195
O O8 0.955852 0.658764 0.840720
O O9 0.902810 0.485049 0.869936
O O10 0.898562 0.575990 0.221306
O O11 0.000000 0.503336 0.000000
O O12 0.500000 0.276458 0.500000
O O13 0.399417 0.175421 0.566810
O O14 0.396255 0.328589 0.826924
O O15 0.841576 0.500650 0.612934
O O16 0.185834 0.361686 0.020504
O O17 0.789784 0.808054 0.812242
#
# Coordination Sequence:
#
# PCOD9122490 Si02
#       8
#     4   4   4   4   4   4   4   4
#     4  11  18  34  58  74 111 149 175 216 273 323
#     4  10  20  34  49  77 111 139 181 222 258 325
#     4  11  20  32  52  79 105 140 176 212 271 329
#     4  11  20  32  51  80 110 137 173 226 267 318
#     4  11  18  33  53  77 111 136 173 217 267 324
#     4  10  21  32  51  81 108 137 178 226 267 318
#     4  10  21  33  50  82 109 138 183 222 264 325
#     4  10  20  35  51  77 110 142 178 220 270 321
#
# _framework density 16.930246
#
# number of rings (size 3 to 8) (size 9 to 14) (size 15 to 20)
#    0.000    1.500    6.250    1.500    0.000    5.000 
#    0.000    0.000    0.000    0.000    6.500    0.000 
#    0.000    0.000    0.000    0.000    0.000    0.000 
#
# Total GULP energy -89105.620614 kJ/mol
# GULP energy per Si atom -5569.101288 kJ/mol
# Density = 1.689171 g / cm^3
# Si number density = 16.930246 Si / 1000 Ang^3
#
#
#
# Elastic Constant Matrix: (Units=GPa)
#
#
# Indices 1 2 3 4 5 6 
#
# 1 69.7401 26.7258 18.9086 0.0000 -3.6721 0.0000
# 2 26.7258 73.5388 36.5065 0.0000 -8.6620 0.0000
# 3 18.9086 36.5065 103.2971 0.0000 2.4659 0.0000
# 4 0.0000 0.0000 0.0000 19.7905 0.0000 -2.5813
# 5 -3.6721 -8.6620 2.4659 0.0000 25.2955 0.0000
# 6 0.0000 0.0000 0.0000 -2.5813 0.0000 15.5017
#
#
#
# Elastic Compliance Matrix: (Units=1/GPa)
#
#
# Indices 1 2 3 4 5 6 
#
# 1 0.016775 -0.005437 -0.001166 0.000000 0.000687 0.000000
# 2 -0.005437 0.019295 -0.005977 0.000000 0.006401 0.000000
# 3 -0.001166 -0.005977 0.012087 0.000000 -0.003394 0.000000
# 4 0.000000 0.000000 0.000000 0.051651 0.000000 0.008601
# 5 0.000687 0.006401 -0.003394 0.000000 0.042155 0.000000
# 6 0.000000 0.000000 0.000000 0.008601 0.000000 0.065941
#
#
# Mechanical properties :
#
#
# Convention : Reuss Voigt Hill
#
# Bulk Modulus (GPa) = 43.48015 45.65086 44.56551
# Shear Modulus (GPa) = 20.77026 23.07990 21.92508
#
# Velocity S-wave (km/s) = 3.50639 3.69621 3.60255
# Velocity P-wave (km/s) = 6.49082 6.72596 6.60944
#
# Compressibility (1/GPa) = 0.02299900
#
# Stress axis : x y z
#
# Youngs Moduli (GPa) = 59.61390 51.82689 82.73054
#
# Poissons Ratio (x) = 0.28177 0.09643
# Poissons Ratio (y) = 0.32411 0.49445
# Poissons Ratio (z) = 0.06949 0.30975
#
# Static dielectric constant tensor:
#      x y z
#    x 1.575710 0.000000 0.002860 
#    y 0.000000 1.607680 0.000000 
#    z 0.002860 0.000000 1.621870 
# 
# From -- ./inp_files/10368.got.cif
#   From: 2010.05.17/outbox.cif.g08.bks.cpg/sg5_6_cif.got.tgz:10368.got - 2010.06.03 18:56:24.
