data_PCOD9122623
_publ_section_title
;
Structure prediction by ZEFSAII (Michael W. Deem and Ramdas Pophale) SiO2 
 PCOD9122623
Probable space group: C 2
;
_chemical_formula_sum "Si O2"
_cell_formula_units_Z 32
_cell_length_a 7.412102
_cell_length_b 22.652654
_cell_length_c 9.353243
_cell_angle_alpha 90.000000
_cell_angle_beta 45.795964
_cell_angle_gamma 90.000000
_cell_volume 1125.791462
_symmetry_space_group_name_H-M "C 2"
_symmetry_group_IT_number 5
_symmetry_cell_setting 'monoclinic'
loop_
_space_group_symop_operation_xyz
x,y,z
-x,y,-z
1/2+x,1/2+y,z
1/2-x,1/2+y,-z
loop_
_atom_site_type_symbol
_atom_site_label
_atom_site_fract_x
_atom_site_fract_y
_atom_site_fract_z
Si Si1 0.258662 0.081380 0.530014
Si Si2 0.451781 0.455018 0.364913
Si Si3 0.693133 0.207342 0.525255
Si Si4 0.735523 0.988832 0.057882
Si Si5 0.042797 0.363547 0.144516
Si Si6 0.797268 0.114166 0.985172
Si Si7 0.265799 0.331237 0.431799
Si Si8 0.652594 0.740469 0.068323
O O1 0.500000 0.084542 0.500000
O O2 0.286121 0.141564 0.422027
O O3 0.986199 0.095139 0.754072
O O4 0.233718 0.011061 0.520541
O O5 0.500000 0.440834 0.500000
O O6 0.692713 0.477670 0.146338
O O7 0.386026 0.393678 0.323190
O O8 0.500000 0.203813 0.500000
O O9 0.616655 0.266483 0.652813
O O10 0.958702 0.223352 0.303642
O O11 0.632304 0.056140 0.116725
O O12 0.605765 0.927700 0.174436
O O13 0.000000 0.992252 0.000000
O O14 0.231891 0.307942 0.057687
O O15 0.799244 0.339658 0.363450
O O16 0.000000 0.370356 0.000000
O O17 0.688815 0.179774 0.026633
O O18 0.000000 0.121445 0.000000
O O19 0.000000 0.329673 0.500000
O O20 0.500000 0.744889 0.000000
#
# Coordination Sequence:
#
# PCOD9122623 Si02
#       8
#     4   4   4   4   4   4   4   4
#     4   9  18  33  53  77 105 137 173 214 262 315
#     4  11  22  35  53  78 108 140 176 220 264 310
#     4   9  18  33  53  77 105 137 173 214 262 315
#     4  10  20  35  54  75 101 136 173 212 258 311
#     4  10  20  35  54  75 101 136 173 212 258 311
#     4   8  15  29  50  74  97 127 168 208 247 297
#     4  11  22  35  53  78 108 140 176 220 264 310
#     4   8  15  29  50  74  97 127 168 208 247 297
#
# _framework density 28.424447000000001
#
# number of rings (size 3 to 8) (size 9 to 14) (size 15 to 20)
#    0.000    2.500    0.000    2.250    0.000    4.500 
#    0.000    0.000    0.000    0.750    0.000    0.000 
#    0.000    0.000    0.000    0.000    0.000    0.000 
#
# Total GULP energy -89345.464775 kJ/mol
# GULP energy per Si atom -5584.091548 kJ/mol
# Density = 2.835975 g / cm^3
# Si number density = 28.424447 Si / 1000 Ang^3
#
#
#
# Elastic Constant Matrix: (Units=GPa)
#
#
# Indices 1 2 3 4 5 6 
#
# 1 71.7709 47.9064 -6.6129 0.0000 0.1972 0.0000
# 2 47.9064 434.6113 46.5304 0.0000 -29.7283 0.0000
# 3 -6.6129 46.5304 76.2706 0.0000 -0.0228 0.0000
# 4 0.0000 0.0000 0.0000 61.1967 0.0000 -7.7272
# 5 0.1972 -29.7283 -0.0228 0.0000 23.4056 0.0000
# 6 0.0000 0.0000 0.0000 -7.7272 0.0000 25.1866
#
#
#
# Elastic Compliance Matrix: (Units=1/GPa)
#
#
# Indices 1 2 3 4 5 6 
#
# 1 0.015673 -0.002220 0.002712 0.000000 -0.002949 0.000000
# 2 -0.002220 0.003028 -0.002039 0.000000 0.003863 0.000000
# 3 0.002712 -0.002039 0.014589 0.000000 -0.002598 0.000000
# 4 0.000000 0.000000 0.000000 0.016999 0.000000 0.005215
# 5 -0.002949 0.003863 -0.002598 0.000000 0.047653 0.000000
# 6 0.000000 0.000000 0.000000 0.005215 0.000000 0.041304
#
#
# Mechanical properties :
#
#
# Convention : Reuss Voigt Hill
#
# Bulk Modulus (GPa) = 33.11487 84.25560 58.68524
# Shear Modulus (GPa) = 32.80737 54.94637 43.87687
#
# Velocity S-wave (km/s) = 3.40103 4.40144 3.93317
# Velocity P-wave (km/s) = 5.20558 7.45228 6.42785
#
# Compressibility (1/GPa) = 0.03019791
#
# Stress axis : x y z
#
# Youngs Moduli (GPa) = 63.80474 330.24499 68.54344
#
# Poissons Ratio (x) = 0.73303 -0.18590
# Poissons Ratio (y) = 0.14162 0.13973
# Poissons Ratio (z) = -0.17305 0.67324
#
# Static dielectric constant tensor:
#      x y z
#    x 2.226090 0.000000 -0.070870 
#    y 0.000000 2.311960 0.000000 
#    z -0.070870 0.000000 2.543820 
# 
# From -- ./inp_files/37322.got.cif
#   From: 2010.05.17/outbox.cif.g08.bks.cpg/sg5_19_cif.got.tgz:37322.got - 2010.06.03 18:56:24.
