data_PCOD9122687
_publ_section_title
;
Structure prediction by ZEFSAII (Michael W. Deem and Ramdas Pophale) SiO2 
 PCOD9122687
Probable space group: C 2
;
_chemical_formula_sum "Si O2"
_cell_formula_units_Z 28
_cell_length_a 13.980684
_cell_length_b 15.016045
_cell_length_c 8.807624
_cell_angle_alpha 90.000000
_cell_angle_beta 122.949706
_cell_angle_gamma 90.000000
_cell_volume 1551.606105
_symmetry_space_group_name_H-M "C 2"
_symmetry_group_IT_number 5
_symmetry_cell_setting 'monoclinic'
loop_
_space_group_symop_operation_xyz
x,y,z
-x,y,-z
1/2+x,1/2+y,z
1/2-x,1/2+y,-z
loop_
_atom_site_type_symbol
_atom_site_label
_atom_site_fract_x
_atom_site_fract_y
_atom_site_fract_z
Si Si1 0.492921 0.104930 0.663317
Si Si2 0.253229 0.146561 0.607249
Si Si3 0.741795 0.855971 0.067658
Si Si4 0.516655 0.896102 0.687050
Si Si5 0.791690 0.317330 0.633172
Si Si6 0.387163 0.229876 0.996977
Si Si7 0.634825 0.465863 0.588477
O O1 0.500000 0.143941 0.500000
O O2 0.365748 0.110758 0.619123
O O3 0.573425 0.157138 0.847117
O O4 0.526355 0.002303 0.685616
O O5 0.211705 0.229527 0.470888
O O6 0.168656 0.063654 0.558782
O O7 0.295773 0.187263 0.803554
O O8 0.629781 0.865576 0.870314
O O9 0.712703 0.796436 0.191118
O O10 0.836373 0.811872 0.044603
O O11 0.793212 0.943877 0.194827
O O12 0.500000 0.861615 0.500000
O O13 0.406122 0.869824 0.688931
O O14 0.685226 0.386763 0.523216
O O15 0.500000 0.254445 0.000000
O O16 0.500000 0.456970 0.500000
#
# Coordination Sequence:
#
# PCOD9122687 Si02
#       7
#     4   4   4   4   4   4   4
#     4  10  20  35  60  89 123 163 217 264 316 386
#     4  11  21  39  61  94 122 170 218 264 324 384
#     4  10  22  40  61  93 129 168 213 263 329 384
#     4  11  21  39  62  95 124 160 213 271 319 381
#     4  10  23  38  66  88 126 169 211 260 323 389
#     4  10  22  34  60  91 127 167 216 272 311 387
#     4  10  24  40  64  91 132 172 211 261 330 387
#
# _framework density 18.045817
#
# number of rings (size 3 to 8) (size 9 to 14) (size 15 to 20)
#    0.857    0.857    1.429    3.000    4.000    2.857 
#    0.000    0.000    0.000    0.000    0.000    0.000 
#    0.000    0.000    0.000    0.000    0.000    0.000 
#
# Total GULP energy -78030.782899 kJ/mol
# GULP energy per Si atom -5573.627350 kJ/mol
# Density = 1.800474 g / cm^3
# Si number density = 18.045817 Si / 1000 Ang^3
#
#
#
# Elastic Constant Matrix: (Units=GPa)
#
#
# Indices 1 2 3 4 5 6 
#
# 1 69.5728 47.2856 46.6580 0.0000 -4.9059 0.0000
# 2 47.2856 94.0865 45.7105 0.0000 0.3278 0.0000
# 3 46.6580 45.7105 120.2862 0.0000 -6.3690 0.0000
# 4 0.0000 0.0000 0.0000 7.8655 0.0000 -12.6000
# 5 -4.9059 0.3278 -6.3690 0.0000 34.4956 0.0000
# 6 0.0000 0.0000 0.0000 -12.6000 0.0000 22.5654
#
#
#
# Elastic Compliance Matrix: (Units=1/GPa)
#
#
# Indices 1 2 3 4 5 6 
#
# 1 0.025170 -0.009789 -0.005906 0.000000 0.002582 0.000000
# 2 -0.009789 0.016880 -0.002726 0.000000 -0.002056 0.000000
# 3 -0.005906 -0.002726 0.011712 0.000000 0.001348 0.000000
# 4 0.000000 0.000000 0.000000 1.205000 0.000000 0.672845
# 5 0.002582 -0.002056 0.001348 0.000000 0.029625 0.000000
# 6 0.000000 0.000000 0.000000 0.672845 0.000000 0.420017
#
#
# Mechanical properties :
#
#
# Convention : Reuss Voigt Hill
#
# Bulk Modulus (GPa) = 59.10892 62.58376 60.84634
# Shear Modulus (GPa) = 2.85570 22.60473 12.73021
#
# Velocity S-wave (km/s) = 1.25933 3.54309 2.65889
# Velocity P-wave (km/s) = 5.91105 7.17592 6.57398
#
# Compressibility (1/GPa) = 0.01691792
#
# Stress axis : x y z
#
# Youngs Moduli (GPa) = 39.73003 59.24144 85.38244
#
# Poissons Ratio (x) = 0.57993 0.50430
# Poissons Ratio (y) = 0.38893 0.23278
# Poissons Ratio (z) = 0.23466 0.16151
#
# Static dielectric constant tensor:
#      x y z
#    x 1.611430 0.000000 -0.016200 
#    y 0.000000 1.614570 0.000000 
#    z -0.016200 0.000000 1.629440 
# 
# From -- ./inp_files/24675.got.cif
#   From: 2010.05.17/outbox.cif.g08.bks.cpg/sg5_13_cif.got.tgz:24675.got - 2010.06.03 18:56:24.
