data_PCOD9122548
_publ_section_title
;
Structure prediction by ZEFSAII (Michael W. Deem and Ramdas Pophale) SiO2 
 PCOD9122548
Probable space group: C 2
;
_chemical_formula_sum "Si O2"
_cell_formula_units_Z 32
_cell_length_a 11.588756
_cell_length_b 13.301193
_cell_length_c 10.001312
_cell_angle_alpha 90.000000
_cell_angle_beta 110.522404
_cell_angle_gamma 90.000000
_cell_volume 1443.804812
_symmetry_space_group_name_H-M "C 2"
_symmetry_group_IT_number 5
_symmetry_cell_setting 'monoclinic'
loop_
_space_group_symop_operation_xyz
x,y,z
-x,y,-z
1/2+x,1/2+y,z
1/2-x,1/2+y,-z
loop_
_atom_site_type_symbol
_atom_site_label
_atom_site_fract_x
_atom_site_fract_y
_atom_site_fract_z
Si Si1 0.642887 0.453160 0.293635
Si Si2 0.357833 0.396624 0.983775
Si Si3 0.847101 0.972525 0.420819
Si Si4 0.732653 0.574953 0.866258
Si Si5 0.006821 0.161827 0.162074
Si Si6 0.743245 0.752328 0.329971
Si Si7 0.577816 0.239991 0.391443
Si Si8 0.380414 0.181242 0.128728
O O1 0.708575 0.417987 0.184766
O O2 0.712882 0.481416 0.457107
O O3 0.564862 0.553900 0.230190
O O4 0.575359 0.351528 0.322677
O O5 0.500000 0.412794 0.000000
O O6 0.317025 0.477852 0.073853
O O7 0.355970 0.287624 0.046885
O O8 0.806843 0.862290 0.348877
O O9 0.000000 0.984682 0.500000
O O10 0.783300 0.048302 0.293620
O O11 0.633213 0.663485 0.847922
O O12 0.851905 0.603860 0.999765
O O13 0.097230 0.246333 0.255824
O O14 0.000000 0.166281 0.000000
O O15 0.788255 0.717180 0.494892
O O16 0.791845 0.684718 0.224472
O O17 0.500000 0.235099 0.500000
O O18 0.514199 0.174488 0.251368
#
# Coordination Sequence:
#
# PCOD9122548 Si02
#       8
#     4   4   4   4   4   4   4   4
#     4  11  18  33  59  83 114 149 195 251 278 345
#     4  12  19  35  60  86 116 152 206 246 288 347
#     4  11  20  38  61  83 117 156 203 243 298 352
#     4  12  22  36  62  94 117 153 199 253 296 355
#     4  12  20  33  57  91 118 146 203 248 291 350
#     4  10  20  34  57  87 119 161 194 242 301 361
#     4   9  19  34  57  84 115 158 195 238 295 359
#     4  11  20  34  58  91 123 148 200 251 302 347
#
# _framework density 22.163661000000001
#
# number of rings (size 3 to 8) (size 9 to 14) (size 15 to 20)
#    0.000    1.000    7.500    3.000    0.000    0.000 
#    4.500    0.000    0.000    8.250    0.000    6.125 
#    0.000    0.000    0.000    0.000    0.000    0.000 
#
# Total GULP energy -89112.136421 kJ/mol
# GULP energy per Si atom -5569.508526 kJ/mol
# Density = 2.211322 g / cm^3
# Si number density = 22.163661 Si / 1000 Ang^3
#
#
#
# Elastic Constant Matrix: (Units=GPa)
#
#
# Indices 1 2 3 4 5 6 
#
# 1 20.8461 8.7833 38.3137 0.0000 5.7251 0.0000
# 2 8.7833 52.0978 42.0178 0.0000 9.8236 0.0000
# 3 38.3137 42.0178 224.0400 0.0000 3.5078 0.0000
# 4 0.0000 0.0000 0.0000 37.2747 0.0000 8.9416
# 5 5.7251 9.8236 3.5078 0.0000 33.1491 0.0000
# 6 0.0000 0.0000 0.0000 8.9416 0.0000 3.8289
#
#
#
# Elastic Compliance Matrix: (Units=1/GPa)
#
#
# Indices 1 2 3 4 5 6 
#
# 1 0.074077 -0.000317 -0.012430 0.000000 -0.011384 0.000000
# 2 -0.000317 0.023994 -0.004343 0.000000 -0.006596 0.000000
# 3 -0.012430 -0.004343 0.007362 0.000000 0.002655 0.000000
# 4 0.000000 0.000000 0.000000 0.060999 0.000000 -0.142450
# 5 -0.011384 -0.006596 0.002655 0.000000 0.033807 0.000000
# 6 0.000000 0.000000 0.000000 -0.142450 0.000000 0.593830
#
#
# Mechanical properties :
#
#
# Convention : Reuss Voigt Hill
#
# Bulk Modulus (GPa) = 14.03439 52.80149 33.41794
# Shear Modulus (GPa) = 5.86855 28.70849 17.28852
#
# Velocity S-wave (km/s) = 1.62898 3.60293 2.79595
# Velocity P-wave (km/s) = 3.14388 6.41742 5.05308
#
# Compressibility (1/GPa) = 0.07125355
#
# Stress axis : x y z
#
# Youngs Moduli (GPa) = 13.49952 41.67663 135.83066
#
# Poissons Ratio (x) = 0.01320 1.68843
# Poissons Ratio (y) = 0.00428 0.58985
# Poissons Ratio (z) = 0.16780 0.18098
#
# Static dielectric constant tensor:
#      x y z
#    x 1.878710 0.000000 0.018380 
#    y 0.000000 1.862800 0.000000 
#    z 0.018380 0.000000 1.939890 
# 
# From -- ./inp_files/42805.got.cif
#   From: 2010.05.17/outbox.cif.g08.bks.cpg/sg5_22_cif.got.tgz:42805.got - 2010.06.03 18:56:24.
