data_PCOD9122746
_publ_section_title
;
Structure prediction by ZEFSAII (Michael W. Deem and Ramdas Pophale) SiO2 
 PCOD9122746
Probable space group: C 2
;
_chemical_formula_sum "Si O2"
_cell_formula_units_Z 24
_cell_length_a 24.510007
_cell_length_b 10.241485
_cell_length_c 11.586826
_cell_angle_alpha 90.000000
_cell_angle_beta 22.177518
_cell_angle_gamma 90.000000
_cell_volume 1097.897707
_symmetry_space_group_name_H-M "C 2"
_symmetry_group_IT_number 5
_symmetry_cell_setting 'monoclinic'
loop_
_space_group_symop_operation_xyz
x,y,z
-x,y,-z
1/2+x,1/2+y,z
1/2-x,1/2+y,-z
loop_
_atom_site_type_symbol
_atom_site_label
_atom_site_fract_x
_atom_site_fract_y
_atom_site_fract_z
Si Si1 0.040390 0.617540 0.287461
Si Si2 0.537367 0.694045 0.640962
Si Si3 0.311099 0.482995 0.808611
Si Si4 0.713989 0.381370 0.890360
Si Si5 0.200594 0.757847 0.328492
Si Si6 0.466760 0.461041 0.199037
O O1 0.000000 0.608208 0.500000
O O2 0.900337 0.629557 0.481107
O O3 0.158729 0.505273 0.042334
O O4 0.133908 0.746474 0.080643
O O5 0.583902 0.597291 0.443417
O O6 0.627846 0.827063 0.451169
O O7 0.584013 0.603932 0.658454
O O8 0.367738 0.723843 0.986919
O O9 0.354146 0.342396 0.675046
O O10 0.290500 0.469562 0.985348
O O11 0.614307 0.436752 0.983415
O O12 0.148620 0.850564 0.535005
O O13 0.500000 0.455912 0.000000
#
# Coordination Sequence:
#
# PCOD9122746 Si02
#       6
#     4   4   4   4   4   4
#     4  10  20  36  54  87 130 158 192 238 295 368
#     4  10  24  40  64  95 124 162 208 250 303 370
#     4  10  22  37  58  91 130 162 194 239 308 379
#     4  10  22  40  61  87 129 164 200 250 307 367
#     4  10  22  40  62  91 124 160 201 253 310 366
#     4  10  24  44  64  86 119 163 212 265 312 355
#
# _framework density 21.859959
#
# number of rings (size 3 to 8) (size 9 to 14) (size 15 to 20)
#    0.000    2.000    1.667    0.000    4.667    2.667 
#    0.000    0.000    0.000    0.000    0.000    0.000 
#    0.000    0.000    0.000    0.000    0.000    0.000 
#
# Total GULP energy -66983.033929 kJ/mol
# GULP energy per Si atom -5581.919494 kJ/mol
# Density = 2.181021 g / cm^3
# Si number density = 21.859959 Si / 1000 Ang^3
#
#
#
# Elastic Constant Matrix: (Units=GPa)
#
#
# Indices 1 2 3 4 5 6 
#
# 1 96.6032 35.1178 67.1139 0.0000 26.2540 0.0000
# 2 35.1178 98.2494 52.2093 0.0000 2.1652 0.0000
# 3 67.1139 52.2093 173.1504 0.0000 -13.6982 0.0000
# 4 0.0000 0.0000 0.0000 43.1364 0.0000 -1.9426
# 5 26.2540 2.1652 -13.6982 0.0000 49.1984 0.0000
# 6 0.0000 0.0000 0.0000 -1.9426 0.0000 7.9610
#
#
#
# Elastic Compliance Matrix: (Units=1/GPa)
#
#
# Indices 1 2 3 4 5 6 
#
# 1 0.020632 -0.002716 -0.008221 0.000000 -0.013179 0.000000
# 2 -0.002716 0.012600 -0.002736 0.000000 0.000133 0.000000
# 3 -0.008221 -0.002736 0.010372 0.000000 0.007395 0.000000
# 4 0.000000 0.000000 0.000000 0.023440 0.000000 0.005720
# 5 -0.013179 0.000133 0.007395 0.000000 0.029412 0.000000
# 6 0.000000 0.000000 0.000000 0.005720 0.000000 0.127009
#
#
# Mechanical properties :
#
#
# Convention : Reuss Voigt Hill
#
# Bulk Modulus (GPa) = 61.50630 75.20943 68.35786
# Shear Modulus (GPa) = 19.51381 34.29663 26.90522
#
# Velocity S-wave (km/s) = 2.99101 3.96526 3.51208
# Velocity P-wave (km/s) = 6.33449 7.44609 6.91267
#
# Compressibility (1/GPa) = 0.01625850
#
# Stress axis : x y z
#
# Youngs Moduli (GPa) = 48.46857 79.36599 96.41530
#
# Poissons Ratio (x) = 0.21553 0.79261
# Poissons Ratio (y) = 0.13162 0.26380
# Poissons Ratio (z) = 0.39845 0.21715
#
# Static dielectric constant tensor:
#      x y z
#    x 1.752970 0.000000 -0.061200 
#    y 0.000000 1.843550 0.000000 
#    z -0.061200 0.000000 1.892930 
# 
# From -- ./inp_files/35421.got.cif
#   From: 2010.05.17/outbox.cif.g08.bks.cpg/sg5_18_cif.got.tgz:35421.got - 2010.06.03 18:56:24.
