data_PCOD9122019
_publ_section_title
;
Structure prediction by ZEFSAII (Michael W. Deem and Ramdas Pophale) SiO2 
 PCOD9122019
Probable space group: C 2
;
_chemical_formula_sum "Si O2"
_cell_formula_units_Z 26
_cell_length_a 8.490924
_cell_length_b 20.559145
_cell_length_c 8.712250
_cell_angle_alpha 90.000000
_cell_angle_beta 51.159311
_cell_angle_gamma 90.000000
_cell_volume 1184.589861
_symmetry_space_group_name_H-M "C 2"
_symmetry_group_IT_number 5
_symmetry_cell_setting 'monoclinic'
loop_
_space_group_symop_operation_xyz
x,y,z
-x,y,-z
1/2+x,1/2+y,z
1/2-x,1/2+y,-z
loop_
_atom_site_type_symbol
_atom_site_label
_atom_site_fract_x
_atom_site_fract_y
_atom_site_fract_z
Si Si1 0.875424 0.324360 0.430594
Si Si2 0.500000 0.399023 0.500000
Si Si3 0.946419 0.720123 0.351758
Si Si4 0.352466 0.747565 0.948504
Si Si5 0.706935 0.995647 0.804752
Si Si6 0.933528 0.119701 0.720715
Si Si7 0.353582 0.076120 0.456795
O O1 0.684373 0.361584 0.471577
O O2 0.765159 0.256384 0.546378
O O3 0.000000 0.351419 0.500000
O O4 0.042400 0.307840 0.200064
O O5 0.386515 0.444282 0.692727
O O6 0.934655 0.642909 0.327740
O O7 0.000000 0.724842 0.500000
O O8 0.126257 0.754439 0.149392
O O9 0.354896 0.687160 0.830694
O O10 0.500000 0.730802 0.000000
O O11 0.776300 0.061921 0.844621
O O12 0.677353 0.019988 0.647914
O O13 0.500000 0.970076 0.000000
O O14 0.000000 0.120201 0.500000
O O15 0.146430 0.099332 0.664160
O O16 0.500000 0.054312 0.500000
#
# Coordination Sequence:
#
# PCOD9122019 Si02
#       7
#     4   2   4   4   4   4   4
#     4  12  27  46  71 100 136 187 241 289 343 411
#     4  12  26  52  70  92 142 188 246 292 340 390
#     4  11  21  40  64 103 145 177 216 280 351 423
#     4  12  21  38  70 104 143 180 216 280 363 423
#     4  11  24  44  70  97 130 184 231 284 346 414
#     4  10  20  39  63 100 140 175 222 275 348 421
#     4  10  19  37  67 100 141 175 216 279 355 416
#
# _framework density 21.948525
#
# number of rings (size 3 to 8) (size 9 to 14) (size 15 to 20)
#    0.000    0.923    6.154    2.308    2.154    3.077 
#    0.000    0.000    0.000    0.000    0.000    0.000 
#    0.000    0.000    0.000    0.000    0.000    0.000 
#
# Total GULP energy -72651.780903 kJ/mol
# GULP energy per Si atom -5588.598531 kJ/mol
# Density = 2.189857 g / cm^3
# Si number density = 21.948525 Si / 1000 Ang^3
#
#
#
# Elastic Constant Matrix: (Units=GPa)
#
#
# Indices 1 2 3 4 5 6 
#
# 1 101.1610 24.3822 17.6851 0.0000 -9.4315 0.0000
# 2 24.3822 60.4630 22.2550 0.0000 1.1351 0.0000
# 3 17.6851 22.2550 117.0954 0.0000 -33.8441 0.0000
# 4 0.0000 0.0000 0.0000 14.2557 0.0000 -15.0926
# 5 -9.4315 1.1351 -33.8441 0.0000 33.5546 0.0000
# 6 0.0000 0.0000 0.0000 -15.0926 0.0000 34.4392
#
#
#
# Elastic Compliance Matrix: (Units=1/GPa)
#
#
# Indices 1 2 3 4 5 6 
#
# 1 0.011314 -0.004708 0.000213 0.000000 0.003555 0.000000
# 2 -0.004708 0.020538 -0.005329 0.000000 -0.007393 0.000000
# 3 0.000213 -0.005329 0.013536 0.000000 0.013893 0.000000
# 4 0.000000 0.000000 0.000000 0.130864 0.000000 0.057350
# 5 0.003555 -0.007393 0.013893 0.000000 0.045065 0.000000
# 6 0.000000 0.000000 0.000000 0.057350 0.000000 0.054170
#
#
# Mechanical properties :
#
#
# Convention : Reuss Voigt Hill
#
# Bulk Modulus (GPa) = 38.84868 45.26264 42.05566
# Shear Modulus (GPa) = 16.46288 30.74304 23.60296
#
# Velocity S-wave (km/s) = 2.74171 3.74664 3.28285
# Velocity P-wave (km/s) = 5.26887 6.27561 5.79415
#
# Compressibility (1/GPa) = 0.02574090
#
# Stress axis : x y z
#
# Youngs Moduli (GPa) = 88.38598 48.69061 73.87551
#
# Poissons Ratio (x) = 0.22922 -0.01576
# Poissons Ratio (y) = 0.41610 0.39370
# Poissons Ratio (z) = -0.01886 0.25948
#
# Static dielectric constant tensor:
#      x y z
#    x 1.862030 0.000000 -0.002300 
#    y 0.000000 1.856930 0.000000 
#    z -0.002300 0.000000 1.792650 
# 
# From -- ./inp_files/17006.got.cif
#   From: 2010.05.17/outbox.cif.g08.bks.cpg/sg5_9_cif.got.tgz:17006.got - 2010.06.03 18:56:24.
