data_PCOD9122892
_publ_section_title
;
Structure prediction by ZEFSAII (Michael W. Deem and Ramdas Pophale) SiO2 
 PCOD9122892
Probable space group: C 2
;
_chemical_formula_sum "Si O2"
_cell_formula_units_Z 32
_cell_length_a 9.937144
_cell_length_b 22.396309
_cell_length_c 7.495721
_cell_angle_alpha 90.000000
_cell_angle_beta 62.113894
_cell_angle_gamma 90.000000
_cell_volume 1474.498380
_symmetry_space_group_name_H-M "C 2"
_symmetry_group_IT_number 5
_symmetry_cell_setting 'monoclinic'
loop_
_space_group_symop_operation_xyz
x,y,z
-x,y,-z
1/2+x,1/2+y,z
1/2-x,1/2+y,-z
loop_
_atom_site_type_symbol
_atom_site_label
_atom_site_fract_x
_atom_site_fract_y
_atom_site_fract_z
Si Si1 0.431513 0.287240 0.742722
Si Si2 0.326175 0.578185 0.148024
Si Si3 0.643651 0.485946 0.167335
Si Si4 0.210582 0.555928 0.621511
Si Si5 0.533375 0.152256 0.265532
Si Si6 0.306675 0.874970 0.993557
Si Si7 0.629193 0.396581 0.732073
Si Si8 0.918511 0.428189 0.357850
O O1 0.500000 0.286358 0.500000
O O2 0.453372 0.220644 0.801722
O O3 0.534241 0.336731 0.771572
O O4 0.261659 0.314704 0.878667
O O5 0.289108 0.567936 0.380211
O O6 0.197602 0.621437 0.149426
O O7 0.500000 0.597989 0.000000
O O8 0.311079 0.517413 0.044989
O O9 0.332771 0.535567 0.694538
O O10 0.482663 0.452766 0.238165
O O11 0.758911 0.432263 0.139852
O O12 0.098766 0.498458 0.676368
O O13 0.102723 0.612511 0.732833
O O14 0.500000 0.151904 0.500000
O O15 0.211447 0.890156 0.870762
O O16 0.479686 0.884699 0.827023
O O17 0.755457 0.400741 0.503180
O O18 0.000000 0.429069 0.500000
#
# Coordination Sequence:
#
# PCOD9122892 Si02
#       8
#     4   4   4   4   4   4   4   4
#     4  10  21  40  63  90 118 169 223 260 308 383
#     4  11  22  40  62  90 125 168 207 261 322 384
#     4  11  22  37  59  98 128 159 212 250 318 394
#     4  11  23  39  63  93 132 168 198 268 322 382
#     4   9  21  43  64  86 123 170 218 260 317 377
#     4  10  21  40  59  92 128 163 210 261 319 379
#     4  10  22  40  61  93 130 169 202 264 325 386
#     4  10  20  36  62  90 128 161 198 259 333 384
#
# _framework density 21.702296
#
# number of rings (size 3 to 8) (size 9 to 14) (size 15 to 20)
#    0.000    1.750    0.000    6.375    3.500    3.500 
#    4.500    3.750    0.000    0.000    3.250    0.000 
#    0.000    0.000    0.000    0.000    0.000    0.000 
#
# Total GULP energy -89355.585255 kJ/mol
# GULP energy per Si atom -5584.724078 kJ/mol
# Density = 2.165290 g / cm^3
# Si number density = 21.702296 Si / 1000 Ang^3
#
#
#
# Elastic Constant Matrix: (Units=GPa)
#
#
# Indices 1 2 3 4 5 6 
#
# 1 68.9268 51.3866 50.9143 0.0000 -10.9916 0.0000
# 2 51.3866 161.5014 59.3304 0.0000 -23.0671 0.0000
# 3 50.9143 59.3304 131.2119 0.0000 -18.2853 0.0000
# 4 0.0000 0.0000 0.0000 29.8105 0.0000 -6.4395
# 5 -10.9916 -23.0671 -18.2853 0.0000 50.0995 0.0000
# 6 0.0000 0.0000 0.0000 -6.4395 0.0000 24.9237
#
#
#
# Elastic Compliance Matrix: (Units=1/GPa)
#
#
# Indices 1 2 3 4 5 6 
#
# 1 0.023157 -0.004834 -0.006745 0.000000 0.000393 0.000000
# 2 -0.004834 0.008697 -0.001735 0.000000 0.002311 0.000000
# 3 -0.006745 -0.001735 0.011279 0.000000 0.001838 0.000000
# 4 0.000000 0.000000 0.000000 0.035528 0.000000 0.009179
# 5 0.000393 0.002311 0.001838 0.000000 0.021781 0.000000
# 6 0.000000 0.000000 0.000000 0.009179 0.000000 0.042494
#
#
# Mechanical properties :
#
#
# Convention : Reuss Voigt Hill
#
# Bulk Modulus (GPa) = 60.58578 76.10031 68.34305
# Shear Modulus (GPa) = 28.56046 34.30067 31.43057
#
# Velocity S-wave (km/s) = 3.63162 3.97987 3.80973
# Velocity P-wave (km/s) = 6.74998 7.50073 7.13523
#
# Compressibility (1/GPa) = 0.01650552
#
# Stress axis : x y z
#
# Youngs Moduli (GPa) = 43.18322 114.97687 88.65873
#
# Poissons Ratio (x) = 0.55581 0.59801
# Poissons Ratio (y) = 0.20875 0.15382
# Poissons Ratio (z) = 0.29127 0.19948
#
# Static dielectric constant tensor:
#      x y z
#    x 1.886820 0.000000 0.046620 
#    y 0.000000 1.756370 0.000000 
#    z 0.046620 0.000000 1.883050 
# 
# From -- ./inp_files/21964.got.cif
#   From: 2010.05.17/outbox.cif.g08.bks.cpg/sg5_11_cif.got.tgz:21964.got - 2010.06.03 18:56:24.
