data_PCOD9122564
_publ_section_title
;
Structure prediction by ZEFSAII (Michael W. Deem and Ramdas Pophale) SiO2 
 PCOD9122564
Probable space group: C 2
;
_chemical_formula_sum "Si O2"
_cell_formula_units_Z 32
_cell_length_a 28.843895
_cell_length_b 9.835312
_cell_length_c 8.928495
_cell_angle_alpha 90.000000
_cell_angle_beta 45.093457
_cell_angle_gamma 90.000000
_cell_volume 1793.959138
_symmetry_space_group_name_H-M "C 2"
_symmetry_group_IT_number 5
_symmetry_cell_setting 'monoclinic'
loop_
_space_group_symop_operation_xyz
x,y,z
-x,y,-z
1/2+x,1/2+y,z
1/2-x,1/2+y,-z
loop_
_atom_site_type_symbol
_atom_site_label
_atom_site_fract_x
_atom_site_fract_y
_atom_site_fract_z
Si Si1 0.789050 0.871500 0.597370
Si Si2 0.484479 0.813218 0.703756
Si Si3 0.279789 0.079304 0.748996
Si Si4 0.644303 0.824496 0.826267
Si Si5 0.940946 0.014071 0.719982
Si Si6 0.123013 0.357856 0.526399
Si Si7 0.676006 0.594395 0.239272
Si Si8 0.162031 0.997596 0.815522
O O1 0.772089 0.994830 0.234717
O O2 0.711748 0.882754 0.737249
O O3 0.809037 0.967882 0.688153
O O4 0.827051 0.918942 0.362632
O O5 0.500000 0.861817 0.500000
O O6 0.474543 0.649806 0.711445
O O7 0.546694 0.846526 0.662739
O O8 0.417010 0.863315 0.929973
O O9 0.341818 0.984506 0.633354
O O10 0.299934 0.215327 0.616452
O O11 0.238378 0.119525 0.990172
O O12 0.633549 0.867617 0.679999
O O13 0.650531 0.659187 0.813847
O O14 0.000000 0.938932 0.500000
O O15 0.885560 0.063028 0.728669
O O16 0.899357 0.945531 0.946832
O O17 0.157646 0.223406 0.381564
#
# Coordination Sequence:
#
# PCOD9122564 Si02
#       8
#     4   4   4   4   4   4   4   4
#     4  11  21  38  57  88 126 155 190 246 303 354
#     4  10  20  34  58  88 115 148 196 255 285 335
#     4  10  23  35  54  88 126 151 194 242 293 361
#     4  10  21  35  56  88 116 150 200 245 289 349
#     4   9  17  35  56  90 117 141 192 257 285 336
#     4  12  20  36  60  89 116 156 197 243 296 344
#     4  11  21  35  60  89 118 155 196 241 301 345
#     4   9  18  34  56  82 117 153 192 240 291 346
#
# _framework density 17.837641000000001
#
# number of rings (size 3 to 8) (size 9 to 14) (size 15 to 20)
#    0.000    1.750    5.000    1.875    1.750    0.000 
#    0.000    0.625    0.000    3.750    0.000    0.000 
#    0.000    0.000    0.000    0.000    0.000    0.000 
#
# Total GULP energy -89254.404958 kJ/mol
# GULP energy per Si atom -5578.400310 kJ/mol
# Density = 1.779704 g / cm^3
# Si number density = 17.837641 Si / 1000 Ang^3
#
#
#
# Elastic Constant Matrix: (Units=GPa)
#
#
# Indices 1 2 3 4 5 6 
#
# 1 62.8638 20.1001 23.5413 0.0000 -18.3286 0.0000
# 2 20.1001 35.2172 32.4361 0.0000 -11.7654 0.0000
# 3 23.5413 32.4361 148.4723 0.0000 -7.3616 0.0000
# 4 0.0000 0.0000 0.0000 16.6904 0.0000 -6.5078
# 5 -18.3286 -11.7654 -7.3616 0.0000 28.8453 0.0000
# 6 0.0000 0.0000 0.0000 -6.5078 0.0000 16.6987
#
#
#
# Elastic Compliance Matrix: (Units=1/GPa)
#
#
# Indices 1 2 3 4 5 6 
#
# 1 0.021928 -0.007906 -0.001234 0.000000 0.010393 0.000000
# 2 -0.007906 0.043653 -0.007747 0.000000 0.010804 0.000000
# 3 -0.001234 -0.007747 0.008536 0.000000 -0.001766 0.000000
# 4 0.000000 0.000000 0.000000 0.070651 0.000000 0.027534
# 5 0.010393 0.010804 -0.001766 0.000000 0.045228 0.000000
# 6 0.000000 0.000000 0.000000 0.027534 0.000000 0.070615
#
#
# Mechanical properties :
#
#
# Convention : Reuss Voigt Hill
#
# Bulk Modulus (GPa) = 24.78878 44.30091 34.54485
# Shear Modulus (GPa) = 16.24260 23.81192 20.02726
#
# Velocity S-wave (km/s) = 3.02086 3.65763 3.35439
# Velocity P-wave (km/s) = 5.10828 6.53660 5.86608
#
# Compressibility (1/GPa) = 0.04034083
#
# Stress axis : x y z
#
# Youngs Moduli (GPa) = 45.60410 22.90817 117.15177
#
# Poissons Ratio (x) = 0.18112 0.14460
# Poissons Ratio (y) = 0.36055 0.90761
# Poissons Ratio (z) = 0.05629 0.17748
#
# Static dielectric constant tensor:
#      x y z
#    x 1.603570 0.000000 0.007380 
#    y 0.000000 1.578460 0.000000 
#    z 0.007380 0.000000 1.639100 
# 
# From -- ./inp_files/31925.got.cif
#   From: 2010.05.17/outbox.cif.g08.bks.cpg/sg5_16_cif.got.tgz:31925.got - 2010.06.03 18:56:24.
