data_PCOD9122504
_publ_section_title
;
Structure prediction by ZEFSAII (Michael W. Deem and Ramdas Pophale) SiO2 
 PCOD9122504
Probable space group: C 2
;
_chemical_formula_sum "Si O2"
_cell_formula_units_Z 32
_cell_length_a 15.876959
_cell_length_b 20.990623
_cell_length_c 9.186190
_cell_angle_alpha 90.000000
_cell_angle_beta 151.150820
_cell_angle_gamma 90.000000
_cell_volume 1477.170082
_symmetry_space_group_name_H-M "C 2"
_symmetry_group_IT_number 5
_symmetry_cell_setting 'monoclinic'
loop_
_space_group_symop_operation_xyz
x,y,z
-x,y,-z
1/2+x,1/2+y,z
1/2-x,1/2+y,-z
loop_
_atom_site_type_symbol
_atom_site_label
_atom_site_fract_x
_atom_site_fract_y
_atom_site_fract_z
Si Si1 0.963318 0.120270 0.104624
Si Si2 0.546884 0.346830 0.400917
Si Si3 0.310966 0.178326 0.785028
Si Si4 0.304034 0.595832 0.155833
Si Si5 0.044496 0.360481 0.734336
Si Si6 0.682690 0.329384 0.199202
Si Si7 0.200764 0.960682 0.751192
Si Si8 0.657669 0.760025 0.131768
O O1 0.151697 0.142931 0.457168
O O2 0.842318 0.084378 0.041830
O O3 0.000000 0.090691 0.000000
O O4 0.856492 0.185437 0.914407
O O5 0.500000 0.340308 0.500000
O O6 0.664853 0.410967 0.564781
O O7 0.662031 0.286130 0.530359
O O8 0.370454 0.348311 0.044845
O O9 0.308494 0.153345 0.948674
O O10 0.277284 0.254093 0.730882
O O11 0.500000 0.166404 0.000000
O O12 0.500000 0.613359 0.500000
O O13 0.241816 0.533739 0.152129
O O14 0.000000 0.348416 0.500000
O O15 0.849853 0.367258 0.507300
O O16 0.163080 0.421347 0.945839
O O17 0.128538 0.299600 0.940420
O O18 0.500000 0.342732 0.000000
O O19 0.000000 0.967846 0.500000
O O20 0.500000 0.777045 0.000000
#
# Coordination Sequence:
#
# PCOD9122504 Si02
#       8
#     4   4   4   4   4   4   4   4
#     4  10  21  37  61  92 125 163 211 261 316 378
#     4  10  21  35  58  85 117 160 201 246 307 370
#     4  10  22  38  58  90 131 169 204 258 312 380
#     4   9  20  40  67  85 121 169 220 251 319 373
#     4  11  21  34  62  88 119 157 205 250 306 371
#     4  11  22  36  56  92 133 162 197 256 322 379
#     4   9  19  40  61  87 118 163 208 266 302 367
#     4  10  20  34  53  85 124 153 189 243 310 372
#
# _framework density 21.663045
#
# number of rings (size 3 to 8) (size 9 to 14) (size 15 to 20)
#    0.000    2.000    1.250    3.000    8.750    0.000 
#    0.000    5.625    0.000   24.750    0.000    0.000 
#    0.000    0.000    0.000    0.000    0.000    0.000 
#
# Total GULP energy -89102.158307 kJ/mol
# GULP energy per Si atom -5568.884894 kJ/mol
# Density = 2.161374 g / cm^3
# Si number density = 21.663045 Si / 1000 Ang^3
#
#
#
# Elastic Constant Matrix: (Units=GPa)
#
#
# Indices 1 2 3 4 5 6 
#
# 1 88.2407 22.1098 12.4566 0.0000 -4.7173 0.0000
# 2 22.1098 52.0635 14.8481 0.0000 12.6879 0.0000
# 3 12.4566 14.8481 90.3802 0.0000 3.5140 0.0000
# 4 0.0000 0.0000 0.0000 17.0468 0.0000 10.7746
# 5 -4.7173 12.6879 3.5140 0.0000 32.0899 0.0000
# 6 0.0000 0.0000 0.0000 10.7746 0.0000 3.7236
#
#
#
# Elastic Compliance Matrix: (Units=1/GPa)
#
#
# Indices 1 2 3 4 5 6 
#
# 1 0.013352 -0.006533 -0.000948 0.000000 0.004650 0.000000
# 2 -0.006533 0.025402 -0.002857 0.000000 -0.010691 0.000000
# 3 -0.000948 -0.002857 0.011676 0.000000 -0.000288 0.000000
# 4 0.000000 0.000000 0.000000 -0.070770 0.000000 0.204777
# 5 0.004650 -0.010691 -0.000288 0.000000 0.036105 0.000000
# 6 0.000000 0.000000 0.000000 0.204777 0.000000 -0.323983
#
#
# Mechanical properties :
#
#
# Convention : Reuss Voigt Hill
#
# Bulk Modulus (GPa) = 33.60911 36.61259 35.11085
# Shear Modulus (GPa) = -18.00991 22.65672 2.32340
#
# Velocity S-wave (km/s) = -2.88647 3.23750 1.03675
# Velocity P-wave (km/s) = 2.10695 5.55993 4.20429
#
# Compressibility (1/GPa) = 0.02975384
#
# Stress axis : x y z
#
# Youngs Moduli (GPa) = 74.89559 39.36707 85.64891
#
# Poissons Ratio (x) = 0.25718 0.08117
# Poissons Ratio (y) = 0.48929 0.24471
# Poissons Ratio (z) = 0.07098 0.11247
#
# Static dielectric constant tensor:
#      x y z
#    x 2.108130 0.000000 -0.036690 
#    y 0.000000 1.808610 0.000000 
#    z -0.036690 0.000000 1.825200 
# 
# From -- ./inp_files/25655.got.cif
#   From: 2010.05.17/outbox.cif.g08.bks.cpg/sg5_13_cif.got.tgz:25655.got - 2010.06.03 18:56:24.
