data_PCOD9122667
_publ_section_title
;
Structure prediction by ZEFSAII (Michael W. Deem and Ramdas Pophale) SiO2 
 PCOD9122667
Probable space group: C 2
;
_chemical_formula_sum "Si O2"
_cell_formula_units_Z 20
_cell_length_a 5.357149
_cell_length_b 16.871741
_cell_length_c 10.200826
_cell_angle_alpha 90.000000
_cell_angle_beta 99.595434
_cell_angle_gamma 90.000000
_cell_volume 909.096503
_symmetry_space_group_name_H-M "C 2"
_symmetry_group_IT_number 5
_symmetry_cell_setting 'monoclinic'
loop_
_space_group_symop_operation_xyz
x,y,z
-x,y,-z
1/2+x,1/2+y,z
1/2-x,1/2+y,-z
loop_
_atom_site_type_symbol
_atom_site_label
_atom_site_fract_x
_atom_site_fract_y
_atom_site_fract_z
Si Si1 0.000000 0.715860 0.000000
Si Si2 0.500000 0.834714 0.500000
Si Si3 0.000000 0.665077 0.500000
Si Si4 0.224051 0.558522 0.929210
Si Si5 0.500000 0.436411 0.500000
Si Si6 0.233337 0.225621 0.723465
Si Si7 0.083172 0.070825 0.324068
O O1 0.189367 0.653607 0.945351
O O2 0.853186 0.757673 0.868529
O O3 0.751706 0.886070 0.507896
O O4 0.530574 0.780225 0.632111
O O5 0.940469 0.713336 0.626457
O O6 0.756871 0.611523 0.449588
O O7 0.226516 0.545442 0.774934
O O8 0.500000 0.532979 0.000000
O O9 0.000000 0.524370 0.000000
O O10 0.453326 0.494073 0.372244
O O11 0.111798 0.138666 0.740939
#
# Coordination Sequence:
#
# PCOD9122667 Si02
#       7
#     2   2   2   4   2   4   4
#     4  10  22  36  66 108 140 172 224 306 354 404
#     4  12  28  46  65 105 148 198 238 282 358 426
#     4  12  18  36  68 108 136 170 236 300 354 406
#     4  10  20  35  59 105 137 164 214 295 354 407
#     4  12  28  44  69 105 148 188 236 300 350 426
#     4  12  23  41  72 106 142 184 241 301 350 428
#     4  12  22  39  71 105 137 181 243 300 356 410
#
# _framework density 21.999863999999999
#
# number of rings (size 3 to 8) (size 9 to 14) (size 15 to 20)
#    0.600    0.000    8.000    1.200    0.000    0.000 
#    0.000    0.000    2.200    0.000    5.200    0.000 
#    0.000    0.000    0.000    0.000    0.000    0.000 
#
# Total GULP energy -55849.267151 kJ/mol
# GULP energy per Si atom -5584.926715 kJ/mol
# Density = 2.194979 g / cm^3
# Si number density = 21.999864 Si / 1000 Ang^3
#
#
#
# Elastic Constant Matrix: (Units=GPa)
#
#
# Indices 1 2 3 4 5 6 
#
# 1 125.7482 33.8003 25.8634 0.0000 -11.0577 0.0000
# 2 33.8003 64.1589 24.7591 0.0000 -1.7998 0.0000
# 3 25.8634 24.7591 148.4063 0.0000 0.2852 0.0000
# 4 0.0000 0.0000 0.0000 5.1482 0.0000 -2.0315
# 5 -11.0577 -1.7998 0.2852 0.0000 48.7981 0.0000
# 6 0.0000 0.0000 0.0000 -2.0315 0.0000 33.5809
#
#
#
# Elastic Compliance Matrix: (Units=1/GPa)
#
#
# Indices 1 2 3 4 5 6 
#
# 1 0.009558 -0.004633 -0.000897 0.000000 0.002000 0.000000
# 2 -0.004633 0.018924 -0.002349 0.000000 -0.000338 0.000000
# 3 -0.000897 -0.002349 0.007287 0.000000 -0.000332 0.000000
# 4 0.000000 0.000000 0.000000 0.198993 0.000000 0.012038
# 5 0.002000 -0.000338 -0.000332 0.000000 0.020935 0.000000
# 6 0.000000 0.000000 0.000000 0.012038 0.000000 0.030507
#
#
# Mechanical properties :
#
#
# Convention : Reuss Voigt Hill
#
# Bulk Modulus (GPa) = 49.97137 56.35101 53.16119
# Shear Modulus (GPa) = 16.20045 34.43149 25.31597
#
# Velocity S-wave (km/s) = 2.71659 3.96040 3.39593
# Velocity P-wave (km/s) = 5.70995 6.82516 6.29231
#
# Compressibility (1/GPa) = 0.02001146
#
# Stress axis : x y z
#
# Youngs Moduli (GPa) = 104.62324 52.84222 137.22970
#
# Poissons Ratio (x) = 0.24483 0.12304
# Poissons Ratio (y) = 0.48475 0.32236
# Poissons Ratio (z) = 0.09380 0.12413
#
# Static dielectric constant tensor:
#      x y z
#    x 1.841220 0.000000 0.015780 
#    y 0.000000 1.808690 0.000000 
#    z 0.015780 0.000000 1.868950 
# 
# From -- ./inp_files/33174.got.cif
#   From: 2010.05.17/outbox.cif.g08.bks.cpg/sg5_17_cif.got.tgz:33174.got - 2010.06.03 18:56:24.
