data_PCOD9122559
_publ_section_title
;
Structure prediction by ZEFSAII (Michael W. Deem and Ramdas Pophale) SiO2 
 PCOD9122559
Probable space group: C 2
;
_chemical_formula_sum "Si O2"
_cell_formula_units_Z 22
_cell_length_a 16.862498
_cell_length_b 12.585552
_cell_length_c 6.722884
_cell_angle_alpha 90.000000
_cell_angle_beta 128.831638
_cell_angle_gamma 90.000000
_cell_volume 1111.431516
_symmetry_space_group_name_H-M "C 2"
_symmetry_group_IT_number 5
_symmetry_cell_setting 'monoclinic'
loop_
_space_group_symop_operation_xyz
x,y,z
-x,y,-z
1/2+x,1/2+y,z
1/2-x,1/2+y,-z
loop_
_atom_site_type_symbol
_atom_site_label
_atom_site_fract_x
_atom_site_fract_y
_atom_site_fract_z
Si Si1 0.711667 0.860580 0.231822
Si Si2 0.111810 0.961853 0.749960
Si Si3 0.806941 0.817243 0.776736
Si Si4 0.271520 0.662054 0.007323
Si Si5 0.576483 0.022908 0.790024
Si Si6 0.000000 0.682937 0.000000
O O1 0.712493 0.740102 0.152691
O O2 0.728255 0.862307 0.492968
O O3 0.810223 0.916210 0.289675
O O4 0.619116 0.928431 0.995456
O O5 0.000000 0.936768 0.500000
O O6 0.140871 0.905349 0.002260
O O7 0.133099 0.086180 0.807614
O O8 0.750895 0.737095 0.839055
O O9 0.899173 0.754271 0.815424
O O10 0.173243 0.583869 0.842588
O O11 0.500000 0.985124 0.500000
O O12 0.521222 0.109239 0.842937
#
# Coordination Sequence:
#
# PCOD9122559 Si02
#       6
#     4   4   4   4   4   2
#     4  10  21  37  57  82 112 146 182 225 274 322
#     4  10  21  37  58  83 110 144 184 227 272 322
#     4  10  20  36  58  82 110 143 184 229 270 323
#     4   9  21  37  56  80 113 147 181 223 274 325
#     4  10  21  36  57  83 111 144 184 228 270 321
#     4  10  20  34  58  84 106 142 188 226 270 320
#
# _framework density 19.794294000000001
#
# number of rings (size 3 to 8) (size 9 to 14) (size 15 to 20)
#    0.000    2.182    0.000    2.182    0.000   14.545 
#    0.000    0.000    0.000    0.000    0.000    0.000 
#    0.000    0.000    0.000    0.000    0.000    0.000 
#
# Total GULP energy -61437.800089 kJ/mol
# GULP energy per Si atom -5585.254554 kJ/mol
# Density = 1.974924 g / cm^3
# Si number density = 19.794294 Si / 1000 Ang^3
#
#
#
# Elastic Constant Matrix: (Units=GPa)
#
#
# Indices 1 2 3 4 5 6 
#
# 1 33.2769 6.6811 23.0037 0.0000 -2.7312 0.0000
# 2 6.6811 81.1535 49.5899 0.0000 -5.9258 0.0000
# 3 23.0037 49.5899 166.2811 0.0000 -20.9772 0.0000
# 4 0.0000 0.0000 0.0000 25.5567 0.0000 0.8263
# 5 -2.7312 -5.9258 -20.9772 0.0000 15.5832 0.0000
# 6 0.0000 0.0000 0.0000 0.8263 0.0000 7.8604
#
#
#
# Elastic Compliance Matrix: (Units=1/GPa)
#
#
# Indices 1 2 3 4 5 6 
#
# 1 0.033232 0.000092 -0.004680 0.000000 -0.000441 0.000000
# 2 0.000092 0.015071 -0.004556 0.000000 -0.000386 0.000000
# 3 -0.004680 -0.004556 0.009273 0.000000 0.009930 0.000000
# 4 0.000000 0.000000 0.000000 0.039262 0.000000 -0.004127
# 5 -0.000441 -0.000386 0.009930 0.000000 0.077314 0.000000
# 6 0.000000 0.000000 0.000000 -0.004127 0.000000 0.127654
#
#
# Mechanical properties :
#
#
# Convention : Reuss Voigt Hill
#
# Bulk Modulus (GPa) = 25.45412 48.80675 37.13044
# Shear Modulus (GPa) = 15.00648 23.22918 19.11783
#
# Velocity S-wave (km/s) = 2.75639 3.42940 3.11114
# Velocity P-wave (km/s) = 4.79765 6.35543 5.63068
#
# Compressibility (1/GPa) = 0.03928637
#
# Stress axis : x y z
#
# Youngs Moduli (GPa) = 30.09172 66.35476 107.84228
#
# Poissons Ratio (x) = -0.00610 0.50475
# Poissons Ratio (y) = -0.00277 0.49132
# Poissons Ratio (z) = 0.14084 0.30230
#
# Static dielectric constant tensor:
#      x y z
#    x 1.694080 0.000000 -0.000960 
#    y 0.000000 1.705020 0.000000 
#    z -0.000960 0.000000 1.691310 
# 
# From -- ./inp_files/29368.got.cif
#   From: 2010.05.17/outbox.cif.g08.bks.cpg/sg5_15_cif.got.tgz:29368.got - 2010.06.03 18:56:24.
