data_PCOD9122066
_publ_section_title
;
Structure prediction by ZEFSAII (Michael W. Deem and Ramdas Pophale) SiO2 
 PCOD9122066
Probable space group: C 2
;
_chemical_formula_sum "Si O2"
_cell_formula_units_Z 30
_cell_length_a 16.332974
_cell_length_b 18.781420
_cell_length_c 16.298926
_cell_angle_alpha 90.000000
_cell_angle_beta 161.912889
_cell_angle_gamma 90.000000
_cell_volume 1552.251081
_symmetry_space_group_name_H-M "C 2"
_symmetry_group_IT_number 5
_symmetry_cell_setting 'monoclinic'
loop_
_space_group_symop_operation_xyz
x,y,z
-x,y,-z
1/2+x,1/2+y,z
1/2-x,1/2+y,-z
loop_
_atom_site_type_symbol
_atom_site_label
_atom_site_fract_x
_atom_site_fract_y
_atom_site_fract_z
Si Si1 0.000000 0.592921 0.500000
Si Si2 0.200701 0.715344 0.797880
Si Si3 0.056552 0.372656 0.287545
Si Si4 0.143132 0.215405 0.351477
Si Si5 0.609303 0.374178 0.724246
Si Si6 0.078021 0.512058 0.405716
Si Si7 0.774774 0.023728 0.225771
Si Si8 0.883121 0.071823 0.146417
O O1 0.804181 0.650930 0.271333
O O2 0.920745 0.541462 0.499956
O O3 0.147356 0.796699 0.719882
O O4 0.948079 0.702872 0.618176
O O5 0.476085 0.718179 0.107865
O O6 0.106432 0.290966 0.360556
O O7 0.310410 0.387787 0.470615
O O8 0.030178 0.429530 0.335643
O O9 0.796216 0.375183 0.983079
O O10 0.998615 0.151334 0.259139
O O11 0.703748 0.438112 0.757710
O O12 0.367120 0.527301 0.646414
O O13 0.856251 0.556070 0.143816
O O14 0.000000 0.051212 0.500000
O O15 0.802241 0.048306 0.159166
O O16 0.500000 0.046309 0.000000
#
# Coordination Sequence:
#
# PCOD9122066 Si02
#       8
#     2   4   4   4   4   4   4   4
#     4  12  24  38  58  94 132 158 210 246 314 368
#     4  10  22  35  55  89 121 155 192 247 298 368
#     4  10  19  38  62  85 110 163 205 243 294 373
#     4  10  20  39  61  82 113 158 208 243 305 368
#     4  10  20  38  58  84 123 151 195 242 306 370
#     4  12  23  38  62  90 125 165 205 256 301 378
#     4  12  24  37  59  89 116 153 200 256 314 367
#     4  12  22  42  60  87 120 161 204 257 317 374
#
# _framework density 19.326768999999999
#
# number of rings (size 3 to 8) (size 9 to 14) (size 15 to 20)
#    0.000    1.067    5.333    1.600    0.933    2.133 
#    0.000    0.000    1.467    0.000    0.000    0.000 
#    0.000    0.000    0.000    0.000    0.000    0.000 
#
# Total GULP energy -83742.889606 kJ/mol
# GULP energy per Si atom -5582.859307 kJ/mol
# Density = 1.928278 g / cm^3
# Si number density = 19.326769 Si / 1000 Ang^3
#
#
#
# Elastic Constant Matrix: (Units=GPa)
#
#
# Indices 1 2 3 4 5 6 
#
# 1 115.4261 49.6475 34.0858 -0.0021 -0.8774 -0.0039
# 2 49.6475 112.3377 19.5678 -0.0106 -13.6607 -0.0105
# 3 34.0858 19.5678 73.7871 -0.0182 14.3020 -0.0263
# 4 -0.0021 -0.0106 -0.0182 23.5908 -0.0044 -8.5830
# 5 -0.8774 -13.6607 14.3020 -0.0044 24.6875 -0.0057
# 6 -0.0039 -0.0105 -0.0263 -8.5830 -0.0057 13.0213
#
#
#
# Elastic Compliance Matrix: (Units=1/GPa)
#
#
# Indices 1 2 3 4 5 6 
#
# 1 0.011869 -0.004410 -0.004418 -0.000010 0.000541 -0.000015
# 2 -0.004410 0.012363 -0.002858 0.000009 0.008340 0.000012
# 3 -0.004418 -0.002858 0.018799 0.000028 -0.012629 0.000047
# 4 -0.000010 0.000009 0.000028 0.055762 0.000007 0.036756
# 5 0.000541 0.008340 -0.012629 0.000007 0.052457 0.000009
# 6 -0.000015 0.000012 0.000047 0.036756 0.000009 0.101025
#
#
# Mechanical properties :
#
#
# Convention : Reuss Voigt Hill
#
# Bulk Modulus (GPa) = 50.86757 56.46145 53.66451
# Shear Modulus (GPa) = 17.71789 25.47657 21.59723
#
# Velocity S-wave (km/s) = 3.03108 3.63464 3.34650
# Velocity P-wave (km/s) = 6.21505 6.84775 6.53906
#
# Compressibility (1/GPa) = 0.01965889
#
# Stress axis : x y z
#
# Youngs Moduli (GPa) = 84.25043 80.88830 53.19354
#
# Poissons Ratio (x) = 0.35674 0.23503
# Poissons Ratio (y) = 0.37156 0.15201
# Poissons Ratio (z) = 0.37225 0.23115
#
# Static dielectric constant tensor:
#      x y z
#    x 1.648080 0.000000 -0.010500 
#    y 0.000000 1.734220 0.000000 
#    z -0.010500 0.000000 1.702880 
# 
# From -- ./inp_files/54993.got.cif
#   From: 2010.05.17/outbox.cif.g08.bks.cpg/sg5_28_cif.got.tgz:54993.got - 2010.06.03 18:56:24.
