data_PCOD9122395
_publ_section_title
;
Structure prediction by ZEFSAII (Michael W. Deem and Ramdas Pophale) SiO2 
 PCOD9122395
Probable space group: C 2
;
_chemical_formula_sum "Si O2"
_cell_formula_units_Z 24
_cell_length_a 11.554410
_cell_length_b 14.198144
_cell_length_c 14.369865
_cell_angle_alpha 90.000000
_cell_angle_beta 150.353714
_cell_angle_gamma 90.000000
_cell_volume 1166.070720
_symmetry_space_group_name_H-M "C 2"
_symmetry_group_IT_number 5
_symmetry_cell_setting 'monoclinic'
loop_
_space_group_symop_operation_xyz
x,y,z
-x,y,-z
1/2+x,1/2+y,z
1/2-x,1/2+y,-z
loop_
_atom_site_type_symbol
_atom_site_label
_atom_site_fract_x
_atom_site_fract_y
_atom_site_fract_z
Si Si1 0.390647 0.218630 0.636152
Si Si2 0.187294 0.573900 0.270694
Si Si3 0.815968 0.030648 0.154823
Si Si4 0.153210 0.319751 0.020846
Si Si5 0.867130 0.537107 0.502350
Si Si6 0.151754 0.390783 0.359826
O O1 0.257023 0.163109 0.625329
O O2 0.632237 0.252846 0.847947
O O3 0.432338 0.138060 0.589394
O O4 0.286298 0.308741 0.509363
O O5 0.287744 0.577229 0.236782
O O6 0.262637 0.476178 0.374817
O O7 0.902843 0.566699 0.060032
O O8 0.080504 0.036517 0.300923
O O9 0.754422 0.920613 0.124506
O O10 0.000000 0.283539 0.000000
O O11 0.009621 0.338271 0.827233
O O12 0.953857 0.455426 0.632642
O O13 0.000000 0.523000 0.500000
#
# Coordination Sequence:
#
# PCOD9122395 Si02
#       6
#     4   4   4   4   4   4
#     4  11  25  39  66 101 134 174 226 272 337 397
#     4   9  21  41  67 102 125 174 227 283 330 387
#     4  10  19  44  71  91 135 175 230 280 330 393
#     4  11  22  40  73 101 129 174 231 281 328 394
#     4  11  26  43  64  98 141 182 217 273 343 400
#     4  10  22  44  65  97 133 174 222 274 337 390
#
# _framework density 20.581942000000002
#
# number of rings (size 3 to 8) (size 9 to 14) (size 15 to 20)
#    0.000    1.667    5.000    0.000    4.667    4.000 
#    3.000    6.667    0.000    0.000    0.000    0.000 
#    0.000    0.000    0.000    0.000    0.000    0.000 
#
# Total GULP energy -66907.379043 kJ/mol
# GULP energy per Si atom -5575.614920 kJ/mol
# Density = 2.053510 g / cm^3
# Si number density = 20.581942 Si / 1000 Ang^3
#
#
#
# Elastic Constant Matrix: (Units=GPa)
#
#
# Indices 1 2 3 4 5 6 
#
# 1 144.4807 30.2840 55.4181 0.0075 -12.5733 0.0042
# 2 30.2840 107.7722 40.4593 0.0163 -12.5957 0.0089
# 3 55.4181 40.4593 105.2469 0.0263 1.9093 0.0190
# 4 0.0075 0.0163 0.0263 28.9924 0.0129 -8.3320
# 5 -12.5733 -12.5957 1.9093 0.0129 30.9382 0.0075
# 6 0.0042 0.0089 0.0190 -8.3320 0.0075 2.3594
#
#
#
# Elastic Compliance Matrix: (Units=1/GPa)
#
#
# Indices 1 2 3 4 5 6 
#
# 1 0.009156 -0.000331 -0.004764 -0.000236 0.003881 -0.000824
# 2 -0.000331 0.011576 -0.004365 0.000765 0.004847 0.002678
# 3 -0.004764 -0.004365 0.013769 0.001825 -0.004565 0.006374
# 4 -0.000236 0.000765 0.001825 -2.315407 0.003051 -8.176779
# 5 0.003881 0.004847 -0.004565 0.003051 0.036151 0.010670
# 6 -0.000824 0.002678 0.006374 -8.176779 0.010670-28.452171
#
#
# Mechanical properties :
#
#
# Convention : Reuss Voigt Hill
#
# Bulk Modulus (GPa) = 64.17489 67.75808 65.96648
# Shear Modulus (GPa) = -0.16301 27.88054 13.85877
#
# Velocity S-wave (km/s) = -0.28173 3.68450 2.59771
# Velocity P-wave (km/s) = 5.58051 7.14796 6.41231
#
# Compressibility (1/GPa) = 0.01558242
#
# Stress axis : x y z
#
# Youngs Moduli (GPa) = 109.22124 86.38190 72.62613
#
# Poissons Ratio (x) = 0.02856 0.34600
# Poissons Ratio (y) = 0.03611 0.31700
# Poissons Ratio (z) = 0.52034 0.37704
#
# Static dielectric constant tensor:
#      x y z
#    x 1.731800 0.000000 0.018900 
#    y 0.000000 1.745900 0.000000 
#    z 0.018900 0.000000 1.814300 
# 
# From -- ./inp_files/53223.got.cif
#   From: 2010.05.17/outbox.cif.g08.bks.cpg/sg5_27_cif.got.tgz:53223.got - 2010.06.03 18:56:24.
