data_PCOD9122974
_publ_section_title
;
Structure prediction by ZEFSAII (Michael W. Deem and Ramdas Pophale) SiO2 
 PCOD9122974
Probable space group: C 2
;
_chemical_formula_sum "Si O2"
_cell_formula_units_Z 26
_cell_length_a 10.984275
_cell_length_b 10.149863
_cell_length_c 21.820281
_cell_angle_alpha 90.000000
_cell_angle_beta 28.423061
_cell_angle_gamma 90.000000
_cell_volume 1157.921180
_symmetry_space_group_name_H-M "C 2"
_symmetry_group_IT_number 5
_symmetry_cell_setting 'monoclinic'
loop_
_space_group_symop_operation_xyz
x,y,z
-x,y,-z
1/2+x,1/2+y,z
1/2-x,1/2+y,-z
loop_
_atom_site_type_symbol
_atom_site_label
_atom_site_fract_x
_atom_site_fract_y
_atom_site_fract_z
Si Si1 0.378082 0.775260 0.427079
Si Si2 0.988497 0.999269 0.590826
Si Si3 0.000000 0.976055 0.000000
Si Si4 0.000000 0.543837 0.000000
Si Si5 0.505401 0.147711 0.765740
Si Si6 0.049392 0.919732 0.261275
Si Si7 0.000000 0.425229 0.500000
Si Si8 0.578274 0.261556 0.866967
O O1 0.334326 0.624216 0.467801
O O2 0.473906 0.845200 0.447779
O O3 0.612302 0.773511 0.275080
O O4 0.151713 0.869334 0.503068
O O5 0.853227 0.959156 0.714928
O O6 0.762502 0.058594 0.649035
O O7 0.028621 0.885672 0.048206
O O8 0.748097 0.061732 0.122803
O O9 0.751745 0.457222 0.120834
O O10 0.012550 0.638896 0.052474
O O11 0.501845 0.263788 0.717714
O O12 0.506956 0.227717 0.829220
O O13 0.776853 0.991723 0.371482
#
# Coordination Sequence:
#
# PCOD9122974 Si02
#       8
#     4   4   2   2   4   4   2   4
#     4  10  20  43  66 101 138 187 230 290 359 413
#     4  10  22  42  71 101 139 185 234 293 356 417
#     4  11  27  42  64 102 139 179 246 278 358 425
#     4  11  21  40  72  98 139 179 234 280 348 431
#     4  11  23  44  66 100 137 181 234 294 346 414
#     4  11  21  39  72 103 131 189 234 281 359 420
#     4  10  20  36  68  98 132 178 226 284 346 406
#     4  10  23  44  64  95 141 181 223 297 340 415
#
# _framework density 22.454032999999999
#
# number of rings (size 3 to 8) (size 9 to 14) (size 15 to 20)
#    0.000    1.538    6.154    0.462    2.154    3.692 
#    0.000    6.154    0.000    0.000    0.000    0.000 
#    0.000    0.000    0.000    0.000    0.000    0.000 
#
# Total GULP energy -72548.702614 kJ/mol
# GULP energy per Si atom -5580.669432 kJ/mol
# Density = 2.240293 g / cm^3
# Si number density = 22.454033 Si / 1000 Ang^3
#
#
#
# Elastic Constant Matrix: (Units=GPa)
#
#
# Indices 1 2 3 4 5 6 
#
# 1 41.5029 26.8558 4.0394 0.0005 -0.6199 0.0002
# 2 26.8558 106.7518 39.7450 -0.0029 -19.4618 -0.0004
# 3 4.0394 39.7450 136.6539 -0.0048 -10.4124 0.0009
# 4 0.0005 -0.0029 -0.0048 -14.6346 0.0024 -12.9179
# 5 -0.6199 -19.4618 -10.4124 0.0024 39.0227 0.0004
# 6 0.0002 -0.0004 0.0009 -12.9179 0.0004 27.7254
#
#
#
# Elastic Compliance Matrix: (Units=1/GPa)
#
#
# Indices 1 2 3 4 5 6 
#
# 1 0.029433 -0.008532 0.001350 0.000001 -0.003427 0.000000
# 2 -0.008532 0.013820 -0.003320 -0.000001 0.005871 0.000000
# 3 0.001350 -0.003320 0.008287 -0.000001 0.000577 -0.000001
# 4 0.000001 -0.000001 -0.000001 -0.048418 0.000003 -0.022559
# 5 -0.003427 0.005871 0.000577 0.000003 0.028654 0.000001
# 6 0.000000 0.000000 -0.000001 -0.022559 0.000001 0.025557
#
#
# Mechanical properties :
#
#
# Convention : Reuss Voigt Hill
#
# Bulk Modulus (GPa) = 32.74683 47.35434 40.05059
# Shear Modulus (GPa) = 56.48673 24.70727 40.59700
#
# Velocity S-wave (km/s) = 5.02108 3.32075 4.25668
# Velocity P-wave (km/s) = 6.94482 5.98652 6.48340
#
# Compressibility (1/GPa) = 0.03053731
#
# Stress axis : x y z
#
# Youngs Moduli (GPa) = 33.97537 72.35662 120.66490
#
# Poissons Ratio (x) = 0.61736 -0.16294
# Poissons Ratio (y) = 0.28988 0.40061
# Poissons Ratio (z) = -0.04588 0.24023
#
# Static dielectric constant tensor:
#      x y z
#    x 1.856880 0.000000 -0.002320 
#    y 0.000000 1.857000 0.000000 
#    z -0.002320 0.000000 1.897040 
# 
# From -- ./inp_files/68272.got.cif
#   From: 2010.05.17/outbox.cif.g08.bks.cpg/sg5_35_cif.got.tgz:68272.got - 2010.06.03 18:56:24.
