data_PCOD9122329
_publ_section_title
;
Structure prediction by ZEFSAII (Michael W. Deem and Ramdas Pophale) SiO2 
 PCOD9122329
Probable space group: C 2
;
_chemical_formula_sum "Si O2"
_cell_formula_units_Z 26
_cell_length_a 12.349367
_cell_length_b 12.125037
_cell_length_c 9.973952
_cell_angle_alpha 90.000000
_cell_angle_beta 50.890040
_cell_angle_gamma 90.000000
_cell_volume 1158.834381
_symmetry_space_group_name_H-M "C 2"
_symmetry_group_IT_number 5
_symmetry_cell_setting 'monoclinic'
loop_
_space_group_symop_operation_xyz
x,y,z
-x,y,-z
1/2+x,1/2+y,z
1/2-x,1/2+y,-z
loop_
_atom_site_type_symbol
_atom_site_label
_atom_site_fract_x
_atom_site_fract_y
_atom_site_fract_z
Si Si1 0.121601 0.918690 0.501565
Si Si2 0.807204 0.589717 0.646882
Si Si3 0.468460 0.103447 0.760398
Si Si4 0.000000 0.745747 0.000000
Si Si5 0.406771 0.669770 0.387928
Si Si6 0.545749 0.868067 0.810801
Si Si7 0.767628 0.843221 0.314882
O O1 0.283337 0.893588 0.329393
O O2 0.124666 0.866894 0.646843
O O3 0.000000 0.873695 0.500000
O O4 0.083541 0.048234 0.554412
O O5 0.915671 0.622657 0.445271
O O6 0.667945 0.637047 0.693595
O O7 0.813263 0.456956 0.639905
O O8 0.832203 0.627339 0.778498
O O9 0.478097 0.978009 0.802164
O O10 0.494708 0.172198 0.871984
O O11 0.860490 0.816740 0.115327
O O12 0.500846 0.767809 0.251637
O O13 0.323457 0.740422 0.565108
O O14 0.500000 0.852719 0.000000
#
# Coordination Sequence:
#
# PCOD9122329 Si02
#       7
#     4   4   4   2   4   4   4
#     4  10  22  42  68  91 128 174 218 254 322 390
#     4  10  21  41  62  90 120 172 212 254 319 387
#     4  11  21  38  67  88 123 163 220 261 306 381
#     4  12  22  38  62  92 124 166 212 270 310 366
#     4  10  19  41  64  91 125 173 209 259 323 384
#     4  11  22  42  65  93 129 166 215 270 314 370
#     4  10  21  40  61  89 129 165 207 266 316 378
#
# _framework density 22.436337000000002
#
# number of rings (size 3 to 8) (size 9 to 14) (size 15 to 20)
#    0.000    1.538    6.923    0.000    0.000    3.692 
#   11.077    0.000    0.000    0.000    0.000    0.000 
#    0.000    0.000    0.000    0.000    0.000    0.000 
#
# Total GULP energy -72422.705716 kJ/mol
# GULP energy per Si atom -5570.977363 kJ/mol
# Density = 2.238527 g / cm^3
# Si number density = 22.436337 Si / 1000 Ang^3
#
#
#
# Elastic Constant Matrix: (Units=GPa)
#
#
# Indices 1 2 3 4 5 6 
#
# 1 52.4036 -8.4630 13.4695 0.0000 18.3611 0.0000
# 2 -8.4630 107.0493 32.3065 0.0000 0.2123 0.0000
# 3 13.4695 32.3065 111.7834 0.0000 10.1693 0.0000
# 4 0.0000 0.0000 0.0000 15.9391 0.0000 -8.5665
# 5 18.3611 0.2123 10.1693 0.0000 21.0624 0.0000
# 6 0.0000 0.0000 0.0000 -8.5665 0.0000 0.0382
#
#
#
# Elastic Compliance Matrix: (Units=1/GPa)
#
#
# Indices 1 2 3 4 5 6 
#
# 1 0.028438 0.002932 -0.002109 0.000000 -0.023802 0.000000
# 2 0.002932 0.010575 -0.003313 0.000000 -0.001063 0.000000
# 3 -0.002109 -0.003313 0.010446 0.000000 -0.003172 0.000000
# 4 0.000000 0.000000 0.000000 -0.000525 0.000000 -0.117710
# 5 -0.023802 -0.001063 -0.003172 0.000000 0.069769 0.000000
# 6 0.000000 0.000000 0.000000 -0.117710 0.000000 -0.219016
#
#
# Mechanical properties :
#
#
# Convention : Reuss Voigt Hill
#
# Bulk Modulus (GPa) = 22.48229 38.42915 30.45572
# Shear Modulus (GPa) = -62.10670 23.00282 -19.55194
#
# Velocity S-wave (km/s) = -5.26701 3.20542 -2.95522
# Velocity P-wave (km/s) = 5.19098 5.55562 1.39976
#
# Compressibility (1/GPa) = 0.04447946
#
# Stress axis : x y z
#
# Youngs Moduli (GPa) = 35.16443 94.56098 95.73060
#
# Poissons Ratio (x) = -0.27723 0.20186
# Poissons Ratio (y) = -0.10309 0.31715
# Poissons Ratio (z) = 0.07415 0.31327
#
# Static dielectric constant tensor:
#      x y z
#    x 1.986190 0.000000 -0.059830 
#    y 0.000000 1.895040 0.000000 
#    z -0.059830 0.000000 1.815880 
# 
# From -- ./inp_files/23515.got.cif
#   From: 2010.05.17/outbox.cif.g08.bks.cpg/sg5_12_cif.got.tgz:23515.got - 2010.06.03 18:56:24.
