data_PCOD9122540
_publ_section_title
;
Structure prediction by ZEFSAII (Michael W. Deem and Ramdas Pophale) SiO2 
 PCOD9122540
Probable space group: C 2
;
_chemical_formula_sum "Si O2"
_cell_formula_units_Z 24
_cell_length_a 5.612349
_cell_length_b 21.532588
_cell_length_c 9.727376
_cell_angle_alpha 90.000000
_cell_angle_beta 79.845229
_cell_angle_gamma 90.000000
_cell_volume 1157.123121
_symmetry_space_group_name_H-M "C 2"
_symmetry_group_IT_number 5
_symmetry_cell_setting 'monoclinic'
loop_
_space_group_symop_operation_xyz
x,y,z
-x,y,-z
1/2+x,1/2+y,z
1/2-x,1/2+y,-z
loop_
_atom_site_type_symbol
_atom_site_label
_atom_site_fract_x
_atom_site_fract_y
_atom_site_fract_z
Si Si1 0.844207 0.880660 0.894773
Si Si2 0.500000 0.023456 0.500000
Si Si3 0.792517 0.568984 0.255745
Si Si4 0.925513 0.964384 0.347184
Si Si5 0.410598 0.208416 0.167626
Si Si6 0.000000 0.488705 0.000000
Si Si7 0.080693 0.259990 0.840784
O O1 0.652393 0.831922 0.854934
O O2 0.998810 0.907259 0.753451
O O3 0.722867 0.940908 0.976759
O O4 0.000000 0.849506 0.000000
O O5 0.351153 0.065354 0.411372
O O6 0.645025 0.978278 0.384832
O O7 0.549618 0.527185 0.274422
O O8 0.810485 0.639663 0.208813
O O9 0.973400 0.531972 0.135456
O O10 0.000000 0.956369 0.500000
O O11 0.660972 0.227152 0.221945
O O12 0.169534 0.250495 0.216892
O O13 0.500000 0.210274 0.000000
O O14 0.000000 0.235707 0.000000
#
# Coordination Sequence:
#
# PCOD9122540 Si02
#       7
#     4   2   4   4   4   2   4
#     4  11  20  35  61  91 123 154 208 258 307 371
#     4  10  20  38  58  86 122 166 202 250 322 376
#     4  10  20  36  59  89 121 157 205 254 316 368
#     4   9  21  38  58  86 122 164 200 251 319 372
#     4  10  21  38  59  90 123 163 203 253 306 374
#     4  10  20  34  56  96 122 150 198 262 308 372
#     4  10  21  37  59  89 125 163 200 251 315 359
#
# _framework density 20.741094
#
# number of rings (size 3 to 8) (size 9 to 14) (size 15 to 20)
#    0.000    2.000    1.667    2.500    2.333    0.000 
#    0.000    0.000    1.833    0.000    0.000    0.000 
#    0.000    0.000    0.000    0.000    0.000    0.000 
#
# Total GULP energy -66816.924248 kJ/mol
# GULP energy per Si atom -5568.077021 kJ/mol
# Density = 2.069389 g / cm^3
# Si number density = 20.741094 Si / 1000 Ang^3
#
#
#
# Elastic Constant Matrix: (Units=GPa)
#
#
# Indices 1 2 3 4 5 6 
#
# 1 91.8501 42.0973 30.8056 0.0000 -23.5404 0.0000
# 2 42.0973 123.6345 39.4212 0.0000 -16.7162 0.0000
# 3 30.8056 39.4212 83.0727 0.0000 -18.9879 0.0000
# 4 0.0000 0.0000 0.0000 19.3808 0.0000 -4.0693
# 5 -23.5404 -16.7162 -18.9879 0.0000 23.7460 0.0000
# 6 0.0000 0.0000 0.0000 -4.0693 0.0000 9.2177
#
#
#
# Elastic Compliance Matrix: (Units=1/GPa)
#
#
# Indices 1 2 3 4 5 6 
#
# 1 0.016103 -0.003308 -0.001573 0.000000 0.012378 0.000000
# 2 -0.003308 0.010496 -0.003444 0.000000 0.001355 0.000000
# 3 -0.001573 -0.003444 0.016329 0.000000 0.009074 0.000000
# 4 0.000000 0.000000 0.000000 0.056869 0.000000 0.025106
# 5 0.012378 0.001355 0.009074 0.000000 0.062592 0.000000
# 6 0.000000 0.000000 0.000000 0.025106 0.000000 0.119570
#
#
# Mechanical properties :
#
#
# Convention : Reuss Voigt Hill
#
# Bulk Modulus (GPa) = 38.05385 58.13397 48.09391
# Shear Modulus (GPa) = 16.26706 22.88446 19.57576
#
# Velocity S-wave (km/s) = 2.80356 3.32526 3.07549
# Velocity P-wave (km/s) = 5.37279 6.54464 5.98745
#
# Compressibility (1/GPa) = 0.02627855
#
# Stress axis : x y z
#
# Youngs Moduli (GPa) = 62.09949 95.27201 61.23990
#
# Poissons Ratio (x) = 0.31518 0.09630
# Poissons Ratio (y) = 0.20544 0.21093
# Poissons Ratio (z) = 0.09765 0.32815
#
# Static dielectric constant tensor:
#      x y z
#    x 1.897100 0.000000 -0.016220 
#    y 0.000000 1.746540 0.000000 
#    z -0.016220 0.000000 1.724090 
# 
# From -- ./inp_files/33720.got.cif
#   From: 2010.05.17/outbox.cif.g08.bks.cpg/sg5_17_cif.got.tgz:33720.got - 2010.06.03 18:56:24.
