data_PCOD9122072
_publ_section_title
;
Structure prediction by ZEFSAII (Michael W. Deem and Ramdas Pophale) SiO2 
 PCOD9122072
Probable space group: C 2
;
_chemical_formula_sum "Si O2"
_cell_formula_units_Z 32
_cell_length_a 10.756045
_cell_length_b 13.554322
_cell_length_c 10.756802
_cell_angle_alpha 90.000000
_cell_angle_beta 103.556350
_cell_angle_gamma 90.000000
_cell_volume 1524.552322
_symmetry_space_group_name_H-M "C 2"
_symmetry_group_IT_number 5
_symmetry_cell_setting 'monoclinic'
loop_
_space_group_symop_operation_xyz
x,y,z
-x,y,-z
1/2+x,1/2+y,z
1/2-x,1/2+y,-z
loop_
_atom_site_type_symbol
_atom_site_label
_atom_site_fract_x
_atom_site_fract_y
_atom_site_fract_z
Si Si1 0.361395 0.788540 0.125937
Si Si2 0.188999 0.481939 0.020812
Si Si3 0.932957 0.071349 0.168204
Si Si4 0.138657 0.121775 0.568048
Si Si5 0.014150 0.572232 0.195848
Si Si6 0.046498 0.420335 0.642687
Si Si7 0.836639 0.977154 0.657929
Si Si8 0.649167 0.261889 0.281564
O O1 0.412588 0.680508 0.108349
O O2 0.454505 0.838545 0.250192
O O3 0.228166 0.779150 0.171585
O O4 0.344204 0.867929 0.013119
O O5 0.338917 0.499484 0.071709
O O6 0.115945 0.527539 0.122285
O O7 0.123095 0.542690 0.892801
O O8 0.879019 0.078126 0.297609
O O9 0.077184 0.035471 0.221590
O O10 0.161299 0.037963 0.469878
O O11 0.249831 0.203001 0.606892
O O12 0.000000 0.165203 0.500000
O O13 0.036665 0.686646 0.222792
O O14 0.033471 0.513209 0.327737
O O15 0.191196 0.458286 0.662048
O O16 0.000000 0.385055 0.500000
O O17 0.890997 0.865263 0.668056
#
# Coordination Sequence:
#
# PCOD9122072 Si02
#       8
#     4   4   4   4   4   4   4   4
#     4   9  20  37  63  92 113 162 213 248 307 365
#     4  10  20  37  66  88 118 158 216 254 289 379
#     4  10  20  39  62  88 125 158 203 259 316 355
#     4   9  18  36  61  87 125 166 203 243 304 371
#     4  10  20  38  64  88 120 163 207 248 303 364
#     4  10  21  37  62  90 125 159 207 250 298 368
#     4  10  22  36  59  94 124 158 204 259 298 366
#     4  10  19  38  62  89 119 161 210 243 315 364
#
# _framework density 20.989768999999999
#
# number of rings (size 3 to 8) (size 9 to 14) (size 15 to 20)
#    0.000    2.250    2.500    0.750    0.000    8.500 
#    0.000   10.625   41.250    0.000    0.000    0.000 
#    0.000    0.000    0.000    0.000    0.000    0.000 
#
# Total GULP energy -89282.619517 kJ/mol
# GULP energy per Si atom -5580.163720 kJ/mol
# Density = 2.094200 g / cm^3
# Si number density = 20.989769 Si / 1000 Ang^3
#
#
#
# Elastic Constant Matrix: (Units=GPa)
#
#
# Indices 1 2 3 4 5 6 
#
# 1 40.0016 21.5296 23.3994 0.0000 19.9825 0.0000
# 2 21.5296 140.1989 35.9235 0.0000 2.6070 0.0000
# 3 23.3994 35.9235 75.5195 0.0000 12.1121 0.0000
# 4 0.0000 0.0000 0.0000 32.3021 0.0000 3.7150
# 5 19.9825 2.6070 12.1121 0.0000 35.2383 0.0000
# 6 0.0000 0.0000 0.0000 3.7150 0.0000 26.8370
#
#
#
# Elastic Compliance Matrix: (Units=1/GPa)
#
#
# Indices 1 2 3 4 5 6 
#
# 1 0.042229 -0.004104 -0.007768 0.000000 -0.020973 0.000000
# 2 -0.004104 0.008541 -0.003242 0.000000 0.002810 0.000000
# 3 -0.007768 -0.003242 0.017405 0.000000 -0.001338 0.000000
# 4 0.000000 0.000000 0.000000 0.031459 0.000000 -0.004355
# 5 -0.020973 0.002810 -0.001338 0.000000 0.040523 0.000000
# 6 0.000000 0.000000 0.000000 -0.004355 0.000000 0.037865
#
#
# Mechanical properties :
#
#
# Convention : Reuss Voigt Hill
#
# Bulk Modulus (GPa) = 26.35297 46.38055 36.36676
# Shear Modulus (GPa) = 22.63461 30.53333 26.58397
#
# Velocity S-wave (km/s) = 3.28741 3.81816 3.56268
# Velocity P-wave (km/s) = 5.19536 6.44845 5.85552
#
# Compressibility (1/GPa) = 0.03794639
#
# Stress axis : x y z
#
# Youngs Moduli (GPa) = 23.68034 117.07597 57.45389
#
# Poissons Ratio (x) = 0.48053 0.44632
# Poissons Ratio (y) = 0.09719 0.18626
# Poissons Ratio (z) = 0.18396 0.37956
#
# Static dielectric constant tensor:
#      x y z
#    x 1.798070 0.000000 0.003110 
#    y 0.000000 1.779740 0.000000 
#    z 0.003110 0.000000 1.787580 
# 
# From -- ./inp_files/39448.got.cif
#   From: 2010.05.17/outbox.cif.g08.bks.cpg/sg5_20_cif.got.tgz:39448.got - 2010.06.03 18:56:24.
