data_PCOD9122508
_publ_section_title
;
Structure prediction by ZEFSAII (Michael W. Deem and Ramdas Pophale) SiO2 
 PCOD9122508
Probable space group: C 2
;
_chemical_formula_sum "Si O2"
_cell_formula_units_Z 30
_cell_length_a 13.318673
_cell_length_b 24.039286
_cell_length_c 12.781740
_cell_angle_alpha 90.000000
_cell_angle_beta 157.633869
_cell_angle_gamma 90.000000
_cell_volume 1557.235551
_symmetry_space_group_name_H-M "C 2"
_symmetry_group_IT_number 5
_symmetry_cell_setting 'monoclinic'
loop_
_space_group_symop_operation_xyz
x,y,z
-x,y,-z
1/2+x,1/2+y,z
1/2-x,1/2+y,-z
loop_
_atom_site_type_symbol
_atom_site_label
_atom_site_fract_x
_atom_site_fract_y
_atom_site_fract_z
Si Si1 0.218205 0.771970 0.781042
Si Si2 0.000000 0.205645 0.500000
Si Si3 0.380061 0.279590 0.750133
Si Si4 0.028905 0.008592 0.646139
Si Si5 0.871420 0.333319 0.143018
Si Si6 0.474047 0.932747 0.854364
Si Si7 0.064391 0.681864 0.775445
Si Si8 0.951427 0.127615 0.659597
O O1 0.071293 0.716029 0.675910
O O2 0.000000 0.803166 0.500000
O O3 0.500000 0.762639 0.000000
O O4 0.285533 0.802406 0.953734
O O5 0.757142 0.248635 0.283210
O O6 0.998721 0.164750 0.599330
O O7 0.502904 0.227962 0.804838
O O8 0.127494 0.305001 0.443222
O O9 0.615005 0.325764 0.971820
O O10 0.989431 0.062636 0.677628
O O11 0.000000 0.030082 0.500000
O O12 0.812454 0.959330 0.442465
O O13 0.314335 0.982390 0.938625
O O14 0.951893 0.392380 0.170169
O O15 0.500000 0.908199 0.000000
O O16 0.836677 0.637884 0.573064
O O17 0.342094 0.653601 0.061665
#
# Coordination Sequence:
#
# PCOD9122508 Si02
#       8
#     4   2   4   4   4   4   4   4
#     4  11  20  32  51  73 105 139 178 211 256 315
#     4  10  20  34  54  80 108 154 166 220 268 326
#     4  10  21  34  51  76 111 138 189 209 257 330
#     4  10  20  35  50  80 104 140 181 217 251 333
#     4  11  21  36  51  76 108 148 177 223 258 307
#     4  10  21  34  53  74 109 138 183 223 261 303
#     4  10  21  33  48  76 106 141 169 217 250 326
#     4  11  20  34  53  74 113 143 172 204 279 317
#
# _framework density 19.264907999999998
#
# number of rings (size 3 to 8) (size 9 to 14) (size 15 to 20)
#    0.000    1.600    0.667    7.600    0.000    6.400 
#    0.000    0.000    0.000    0.000    0.000    0.000 
#   70.000    0.000    0.000    0.000    0.000    0.000 
#
# Total GULP energy -83617.072210 kJ/mol
# GULP energy per Si atom -5574.471481 kJ/mol
# Density = 1.922106 g / cm^3
# Si number density = 19.264908 Si / 1000 Ang^3
#
#
#
# Elastic Constant Matrix: (Units=GPa)
#
#
# Indices 1 2 3 4 5 6 
#
# 1 46.6332 -0.6145 -21.1559 0.0017 5.5753 0.0003
# 2 -0.6145 30.7428 -41.3214 0.0009 -11.8985 0.0016
# 3 -21.1559 -41.3214 -28.3689 0.0067 -29.2770 0.0050
# 4 0.0017 0.0009 0.0067 16.5892 0.0032 10.5682
# 5 5.5753 -11.8985 -29.2770 0.0032 18.8154 0.0018
# 6 0.0003 0.0016 0.0050 10.5682 0.0018 17.1650
#
#
#
# Elastic Compliance Matrix: (Units=1/GPa)
#
#
# Indices 1 2 3 4 5 6 
#
# 1 0.022359 -0.004061 -0.000488 -0.000001 -0.009953 0.000002
# 2 -0.004061 0.014694 -0.011208 0.000006 -0.006944 -0.000001
# 3 -0.000488 -0.011208 -0.004373 0.000005 -0.013748 0.000001
# 4 -0.000001 0.000006 0.000005 0.099181 0.000000 -0.061064
# 5 -0.009953 -0.006944 -0.013748 0.000000 0.030314 0.000002
# 6 0.000002 -0.000001 0.000001 -0.061064 0.000002 0.095854
#
#
# Mechanical properties :
#
#
# Convention : Reuss Voigt Hill
#
# Bulk Modulus (GPa) = 857.36598 -8.57516 424.39541
# Shear Modulus (GPa) = 17.24542 17.98720 17.61631
#
# Velocity S-wave (km/s) = 2.99519 3.05893 3.02723
# Velocity P-wave (km/s) = 21.40019 2.83111 15.26406
#
# Compressibility (1/GPa) = 0.00116636
#
# Stress axis : x y z
#
# Youngs Moduli (GPa) = 44.72477 68.05412 -228.68061
#
# Poissons Ratio (x) = 0.27636 -0.11158
# Poissons Ratio (y) = 0.18162 -2.56309
# Poissons Ratio (z) = 0.02182 0.76276
#
# Static dielectric constant tensor:
#      x y z
#    x 1.734720 0.000000 -0.018390 
#    y 0.000000 1.672850 0.000000 
#    z -0.018390 0.000000 1.719390 
# 
# From -- ./inp_files/54994.got.cif
#   From: 2010.05.17/outbox.cif.g08.bks.cpg/sg5_28_cif.got.tgz:54994.got - 2010.06.03 18:56:24.
