data_PCOD9122299
_publ_section_title
;
Structure prediction by ZEFSAII (Michael W. Deem and Ramdas Pophale) SiO2 
 PCOD9122299
Probable space group: C 2
;
_chemical_formula_sum "Si O2"
_cell_formula_units_Z 24
_cell_length_a 12.985365
_cell_length_b 9.157603
_cell_length_c 8.134996
_cell_angle_alpha 90.000000
_cell_angle_beta 77.482345
_cell_angle_gamma 90.000000
_cell_volume 944.376434
_symmetry_space_group_name_H-M "C 2"
_symmetry_group_IT_number 5
_symmetry_cell_setting 'monoclinic'
loop_
_space_group_symop_operation_xyz
x,y,z
-x,y,-z
1/2+x,1/2+y,z
1/2-x,1/2+y,-z
loop_
_atom_site_type_symbol
_atom_site_label
_atom_site_fract_x
_atom_site_fract_y
_atom_site_fract_z
Si Si1 0.416665 0.578390 0.159295
Si Si2 0.718826 0.226508 0.299466
Si Si3 0.759249 0.398497 0.976855
Si Si4 0.912569 0.594685 0.144549
Si Si5 0.426688 0.936524 0.676002
Si Si6 0.589360 0.335323 0.595915
O O1 0.341792 0.692637 0.275092
O O2 0.456362 0.470185 0.286939
O O3 0.500000 0.636684 0.000000
O O4 0.333642 0.483962 0.080936
O O5 0.709257 0.280614 0.115783
O O6 0.647350 0.079246 0.345156
O O7 0.686581 0.352161 0.438429
O O8 0.826226 0.507145 0.071541
O O9 0.841657 0.341478 0.809161
O O10 0.874503 0.713642 0.287370
O O11 0.986660 0.485701 0.221238
O O12 0.000000 0.673006 0.000000
O O13 0.500000 0.884760 0.500000
O O14 0.500000 0.284500 0.500000
#
# Coordination Sequence:
#
# PCOD9122299 Si02
#       6
#     4   4   4   4   4   4
#     4  11  27  44  64  96 139 181 221 267 338 401
#     4  11  23  43  65 102 135 174 221 276 338 393
#     4  10  25  39  68  97 140 175 221 273 341 389
#     4  10  20  37  70 101 125 172 226 279 325 388
#     4  10  19  40  69 101 128 169 231 275 324 394
#     4  12  23  41  74  97 133 170 233 280 328 383
#
# _framework density 25.413595000000001
#
# number of rings (size 3 to 8) (size 9 to 14) (size 15 to 20)
#    0.000    1.333    3.333    1.500    9.333    2.000 
#    0.000    0.000    0.000    2.000    0.000    0.000 
#    0.000    0.000    0.000    0.000    0.000    0.000 
#
# Total GULP energy -67070.281426 kJ/mol
# GULP energy per Si atom -5589.190119 kJ/mol
# Density = 2.535575 g / cm^3
# Si number density = 25.413595 Si / 1000 Ang^3
#
#
#
# Elastic Constant Matrix: (Units=GPa)
#
#
# Indices 1 2 3 4 5 6 
#
# 1 88.3278 12.7873 27.4321 0.0000 -1.9551 0.0000
# 2 12.7873 33.1297 15.7127 0.0000 -0.7412 0.0000
# 3 27.4321 15.7127 159.6841 0.0000 -29.6822 0.0000
# 4 0.0000 0.0000 0.0000 20.2522 0.0000 11.6650
# 5 -1.9551 -0.7412 -29.6822 0.0000 42.7723 0.0000
# 6 0.0000 0.0000 0.0000 11.6650 0.0000 10.6628
#
#
#
# Elastic Compliance Matrix: (Units=1/GPa)
#
#
# Indices 1 2 3 4 5 6 
#
# 1 0.012464 -0.003924 -0.001908 0.000000 -0.000822 0.000000
# 2 -0.003924 0.033026 -0.002873 0.000000 -0.001601 0.000000
# 3 -0.001908 -0.002873 0.007861 0.000000 0.005319 0.000000
# 4 0.000000 0.000000 0.000000 0.133499 0.000000 -0.146047
# 5 -0.000822 -0.001601 0.005319 0.000000 0.027005 0.000000
# 6 0.000000 0.000000 0.000000 -0.146047 0.000000 0.253559
#
#
# Mechanical properties :
#
#
# Convention : Reuss Voigt Hill
#
# Bulk Modulus (GPa) = 27.82364 43.66732 35.74548
# Shear Modulus (GPa) = 10.06431 29.75140 19.90786
#
# Velocity S-wave (km/s) = 1.99219 3.42524 2.80188
# Velocity P-wave (km/s) = 4.03284 5.73263 4.95615
#
# Compressibility (1/GPa) = 0.03594066
#
# Stress axis : x y z
#
# Youngs Moduli (GPa) = 80.23151 30.27923 127.20321
#
# Poissons Ratio (x) = 0.11883 0.24269
# Poissons Ratio (y) = 0.31485 0.36547
# Poissons Ratio (z) = 0.15307 0.08700
#
# Static dielectric constant tensor:
#      x y z
#    x 2.030260 0.000000 -0.061040 
#    y 0.000000 2.128300 0.000000 
#    z -0.061040 0.000000 2.081030 
# 
# From -- ./inp_files/23315.got.cif
#   From: 2010.05.17/outbox.cif.g08.bks.cpg/sg5_12_cif.got.tgz:23315.got - 2010.06.03 18:56:24.
