data_PCOD9122309
_publ_section_title
;
Structure prediction by ZEFSAII (Michael W. Deem and Ramdas Pophale) SiO2 
 PCOD9122309
Probable space group: C 2
;
_chemical_formula_sum "Si O2"
_cell_formula_units_Z 26
_cell_length_a 9.828370
_cell_length_b 11.295829
_cell_length_c 9.491967
_cell_angle_alpha 90.000000
_cell_angle_beta 92.942700
_cell_angle_gamma 90.000000
_cell_volume 1052.404696
_symmetry_space_group_name_H-M "C 2"
_symmetry_group_IT_number 5
_symmetry_cell_setting 'monoclinic'
loop_
_space_group_symop_operation_xyz
x,y,z
-x,y,-z
1/2+x,1/2+y,z
1/2-x,1/2+y,-z
loop_
_atom_site_type_symbol
_atom_site_label
_atom_site_fract_x
_atom_site_fract_y
_atom_site_fract_z
Si Si1 0.440514 0.574090 0.741800
Si Si2 0.869976 0.715575 0.902198
Si Si3 0.300126 0.778580 0.856121
Si Si4 0.260000 0.505458 0.256704
Si Si5 0.047644 0.719490 0.651813
Si Si6 0.500000 0.763459 0.500000
Si Si7 0.816654 0.483061 0.423844
O O1 0.393348 0.662244 0.865471
O O2 0.576465 0.495472 0.757070
O O3 0.465538 0.675034 0.624422
O O4 0.312231 0.496732 0.685159
O O5 0.770641 0.616193 0.842050
O O6 0.938073 0.754733 0.761299
O O7 0.783548 0.795417 0.003893
O O8 0.000000 0.671968 0.000000
O O9 0.346425 0.906842 0.807901
O O10 0.191678 0.757230 0.723174
O O11 0.231898 0.521761 0.421390
O O12 0.073391 0.578178 0.630032
O O13 0.000000 0.769212 0.500000
O O14 0.380654 0.853179 0.444424
#
# Coordination Sequence:
#
# PCOD9122309 Si02
#       7
#     4   4   4   4   4   2   4
#     4  11  25  43  66 112 144 178 245 289 348 437
#     4  10  23  47  68  98 136 182 240 282 349 433
#     4  10  25  45  65  99 147 183 230 291 353 423
#     4  12  22  45  72  96 146 188 228 294 358 415
#     4  10  19  40  73  99 130 176 235 287 344 414
#     4  12  20  40  68 102 154 180 226 294 372 406
#     4  11  21  39  70 110 141 177 228 301 353 414
#
# _framework density 24.705325999999999
#
# number of rings (size 3 to 8) (size 9 to 14) (size 15 to 20)
#    0.000    1.231    5.385    0.000    0.000    1.846 
#   16.615    0.000    0.000    0.000    0.000    0.000 
#    0.000    0.000    0.000    0.000    0.000    0.000 
#
# Total GULP energy -72598.321078 kJ/mol
# GULP energy per Si atom -5584.486237 kJ/mol
# Density = 2.464910 g / cm^3
# Si number density = 24.705326 Si / 1000 Ang^3
#
#
#
# Elastic Constant Matrix: (Units=GPa)
#
#
# Indices 1 2 3 4 5 6 
#
# 1 83.3120 29.6735 26.1026 0.0000 -9.3724 0.0000
# 2 29.6735 86.2898 12.9439 0.0000 3.0988 0.0000
# 3 26.1026 12.9439 123.8972 0.0000 -19.1783 0.0000
# 4 0.0000 0.0000 0.0000 8.3332 0.0000 -5.6794
# 5 -9.3724 3.0988 -19.1783 0.0000 35.4538 0.0000
# 6 0.0000 0.0000 0.0000 -5.6794 0.0000 32.6899
#
#
#
# Elastic Compliance Matrix: (Units=1/GPa)
#
#
# Indices 1 2 3 4 5 6 
#
# 1 0.014757 -0.004873 -0.002107 0.000000 0.003188 0.000000
# 2 -0.004873 0.013495 -0.000835 0.000000 -0.002919 0.000000
# 3 -0.002107 -0.000835 0.009307 0.000000 0.004550 0.000000
# 4 0.000000 0.000000 0.000000 0.136119 0.000000 0.023649
# 5 0.003188 -0.002919 0.004550 0.000000 0.031765 0.000000
# 6 0.000000 0.000000 0.000000 0.023649 0.000000 0.034699
#
#
# Mechanical properties :
#
#
# Convention : Reuss Voigt Hill
#
# Bulk Modulus (GPa) = 45.60155 47.88211 46.74183
# Shear Modulus (GPa) = 19.00549 30.28065 24.64307
#
# Velocity S-wave (km/s) = 2.77661 3.50476 3.16172
# Velocity P-wave (km/s) = 5.36448 5.98341 5.68238
#
# Compressibility (1/GPa) = 0.02192908
#
# Stress axis : x y z
#
# Youngs Moduli (GPa) = 67.76255 74.10262 107.45037
#
# Poissons Ratio (x) = 0.36112 0.22635
# Poissons Ratio (y) = 0.33023 0.08973
# Poissons Ratio (z) = 0.14274 0.06188
#
# Static dielectric constant tensor:
#      x y z
#    x 2.033820 0.000000 -0.041170 
#    y 0.000000 2.048390 0.000000 
#    z -0.041170 0.000000 1.954490 
# 
# From -- ./inp_files/19386.got.cif
#   From: 2010.05.17/outbox.cif.g08.bks.cpg/sg5_10_cif.got.tgz:19386.got - 2010.06.03 18:56:24.
