data_PCOD9122819
_publ_section_title
;
Structure prediction by ZEFSAII (Michael W. Deem and Ramdas Pophale) SiO2 
 PCOD9122819
Probable space group: C 2
;
_chemical_formula_sum "Si O2"
_cell_formula_units_Z 28
_cell_length_a 13.413867
_cell_length_b 13.853893
_cell_length_c 8.084086
_cell_angle_alpha 90.000000
_cell_angle_beta 56.063283
_cell_angle_gamma 90.000000
_cell_volume 1246.390483
_symmetry_space_group_name_H-M "C 2"
_symmetry_group_IT_number 5
_symmetry_cell_setting 'monoclinic'
loop_
_space_group_symop_operation_xyz
x,y,z
-x,y,-z
1/2+x,1/2+y,z
1/2-x,1/2+y,-z
loop_
_atom_site_type_symbol
_atom_site_label
_atom_site_fract_x
_atom_site_fract_y
_atom_site_fract_z
Si Si1 0.230386 0.791820 0.577718
Si Si2 0.736118 0.996410 0.557195
Si Si3 0.630661 0.895512 0.969539
Si Si4 0.969385 0.650601 0.334279
Si Si5 0.785403 0.570061 0.932248
Si Si6 0.363933 0.645262 0.636961
Si Si7 0.861149 0.195008 0.145344
O O1 0.236100 0.906596 0.585917
O O2 0.101446 0.747346 0.648865
O O3 0.277473 0.736032 0.692945
O O4 0.321357 0.750503 0.349676
O O5 0.714140 0.941076 0.750966
O O6 0.618977 0.061002 0.626691
O O7 0.840243 0.071531 0.505678
O O8 0.654229 0.782686 0.972641
O O9 0.500000 0.902312 0.000000
O O10 0.659904 0.962791 0.099246
O O11 0.000000 0.650870 0.500000
O O12 0.097501 0.633867 0.129587
O O13 0.729717 0.608514 0.812372
O O14 0.677828 0.590959 0.159458
O O15 0.500000 0.676196 0.500000
O O16 0.000000 0.165867 0.000000
#
# Coordination Sequence:
#
# PCOD9122819 Si02
#       7
#     4   4   4   4   4   4   4
#     4  10  21  38  57  87 116 152 195 241 292 348
#     4   9  20  36  58  82 119 153 190 235 295 350
#     4   9  17  34  59  83 109 152 197 234 285 347
#     4  11  21  37  62  89 116 154 200 247 296 338
#     4  11  21  38  62  89 118 151 203 250 284 352
#     4  10  22  39  60  85 118 157 194 239 300 345
#     4  10  20  36  59  84 117 156 196 239 292 348
#
# _framework density 22.464869
#
# number of rings (size 3 to 8) (size 9 to 14) (size 15 to 20)
#    0.000    2.000    2.857    0.857    0.000    1.143 
#    5.143    0.000    0.000    2.571    0.000    0.000 
#    0.000    0.000    0.000    0.000    0.000    0.000 
#
# Total GULP energy -78079.934726 kJ/mol
# GULP energy per Si atom -5577.138195 kJ/mol
# Density = 2.241374 g / cm^3
# Si number density = 22.464869 Si / 1000 Ang^3
#
#
#
# Elastic Constant Matrix: (Units=GPa)
#
#
# Indices 1 2 3 4 5 6 
#
# 1 85.8078 29.0075 2.6646 0.0000 -6.8978 0.0000
# 2 29.0075 120.9944 -9.8088 0.0000 2.1427 0.0000
# 3 2.6646 -9.8088 40.4584 0.0000 -12.7896 0.0000
# 4 0.0000 0.0000 0.0000 26.5205 0.0000 2.8993
# 5 -6.8978 2.1427 -12.7896 0.0000 31.6042 0.0000
# 6 0.0000 0.0000 0.0000 2.8993 0.0000 20.1863
#
#
#
# Elastic Compliance Matrix: (Units=1/GPa)
#
#
# Indices 1 2 3 4 5 6 
#
# 1 0.012988 -0.003225 -0.000771 0.000000 0.002742 0.000000
# 2 -0.003225 0.009234 0.002328 0.000000 -0.000388 0.000000
# 3 -0.000771 0.002328 0.028930 0.000000 0.011381 0.000000
# 4 0.000000 0.000000 0.000000 0.038308 0.000000 -0.005502
# 5 0.002742 -0.000388 0.011381 0.000000 0.036872 0.000000
# 6 0.000000 0.000000 0.000000 -0.005502 0.000000 0.050329
#
#
# Mechanical properties :
#
#
# Convention : Reuss Voigt Hill
#
# Bulk Modulus (GPa) = 20.91272 32.33194 26.62233
# Shear Modulus (GPa) = 25.51878 30.68867 28.10372
#
# Velocity S-wave (km/s) = 3.37403 3.70005 3.54080
# Velocity P-wave (km/s) = 4.95056 5.71641 5.34721
#
# Compressibility (1/GPa) = 0.04781779
#
# Stress axis : x y z
#
# Youngs Moduli (GPa) = 76.99143 108.29984 34.56641
#
# Poissons Ratio (x) = 0.34926 0.02664
# Poissons Ratio (y) = 0.24829 -0.08049
# Poissons Ratio (z) = 0.05933 -0.25217
#
# Static dielectric constant tensor:
#      x y z
#    x 1.844060 0.000000 0.073890 
#    y 0.000000 1.880480 0.000000 
#    z 0.073890 0.000000 1.891820 
# 
# From -- ./inp_files/20535.got.cif
#   From: 2010.05.17/outbox.cif.g08.bks.cpg/sg5_11_cif.got.tgz:20535.got - 2010.06.03 18:56:24.
