data_PCOD9122798
_publ_section_title
;
Structure prediction by ZEFSAII (Michael W. Deem and Ramdas Pophale) SiO2 
 PCOD9122798
Probable space group: C 2
;
_chemical_formula_sum "Si O2"
_cell_formula_units_Z 28
_cell_length_a 16.991759
_cell_length_b 14.373241
_cell_length_c 6.221922
_cell_angle_alpha 90.000000
_cell_angle_beta 116.462933
_cell_angle_gamma 90.000000
_cell_volume 1360.344054
_symmetry_space_group_name_H-M "C 2"
_symmetry_group_IT_number 5
_symmetry_cell_setting 'monoclinic'
loop_
_space_group_symop_operation_xyz
x,y,z
-x,y,-z
1/2+x,1/2+y,z
1/2-x,1/2+y,-z
loop_
_atom_site_type_symbol
_atom_site_label
_atom_site_fract_x
_atom_site_fract_y
_atom_site_fract_z
Si Si1 0.789165 0.449290 0.559299
Si Si2 0.367081 0.737106 0.171150
Si Si3 0.149147 0.101069 0.477014
Si Si4 0.500000 0.655418 0.000000
Si Si5 0.261023 0.253899 0.357306
Si Si6 0.107643 0.603939 0.608453
Si Si7 0.074167 0.506300 0.946371
Si Si8 0.500000 0.870958 0.500000
O O1 0.705701 0.509127 0.529908
O O2 0.749934 0.344882 0.506616
O O3 0.842801 0.515573 0.451011
O O4 0.860945 0.445979 0.834350
O O5 0.356816 0.641824 0.290884
O O6 0.440057 0.720152 0.077072
O O7 0.412845 0.807307 0.397317
O O8 0.281274 0.767798 0.933719
O O9 0.057561 0.095903 0.237461
O O10 0.202798 0.176871 0.405265
O O11 0.353390 0.199581 0.435057
O O12 0.129932 0.581359 0.883237
O O13 0.000000 0.605955 0.500000
O O14 0.021848 0.436178 0.727607
O O15 0.000000 0.554394 0.000000
#
# Coordination Sequence:
#
# PCOD9122798 Si02
#       8
#     4   4   4   2   4   4   4   2
#     4  11  23  41  62  92 128 167 212 269 323 379
#     4  11  21  36  57  90 127 163 201 265 330 384
#     4  10  22  37  60  88 124 162 209 263 324 380
#     4  10  20  36  58  86 120 162 212 256 312 384
#     4  10  24  40  63  92 128 164 209 265 328 381
#     4  11  23  43  65  95 129 170 219 266 315 389
#     4  12  23  36  62  95 125 163 211 266 323 380
#     4  12  22  30  60  96 124 156 208 262 324 382
#
# _framework density 20.583029
#
# number of rings (size 3 to 8) (size 9 to 14) (size 15 to 20)
#    0.000    1.143    5.000    0.857    5.000    0.000 
#    0.000    1.429    0.000    3.429    1.857    0.000 
#    0.000    0.000    0.000    0.000    0.000    0.000 
#
# Total GULP energy -77937.588563 kJ/mol
# GULP energy per Si atom -5566.970612 kJ/mol
# Density = 2.053618 g / cm^3
# Si number density = 20.583029 Si / 1000 Ang^3
#
#
#
# Elastic Constant Matrix: (Units=GPa)
#
#
# Indices 1 2 3 4 5 6 
#
# 1 106.7268 46.3873 19.7880 0.0000 -0.0068 0.0000
# 2 46.3873 102.8369 14.5904 0.0000 6.9066 0.0000
# 3 19.7880 14.5904 53.0114 0.0000 -1.8107 0.0000
# 4 0.0000 0.0000 0.0000 16.1857 0.0000 1.8129
# 5 -0.0068 6.9066 -1.8107 0.0000 27.6096 0.0000
# 6 0.0000 0.0000 0.0000 1.8129 0.0000 15.1730
#
#
#
# Elastic Compliance Matrix: (Units=1/GPa)
#
#
# Indices 1 2 3 4 5 6 
#
# 1 0.012171 -0.005123 -0.003096 0.000000 0.001082 0.000000
# 2 -0.005123 0.012484 -0.001634 0.000000 -0.003231 0.000000
# 3 -0.003096 -0.001634 0.020529 0.000000 0.001754 0.000000
# 4 0.000000 0.000000 0.000000 0.062621 0.000000 -0.007482
# 5 0.001082 -0.003231 0.001754 0.000000 0.037143 0.000000
# 6 0.000000 0.000000 0.000000 -0.007482 0.000000 0.066800
#
#
# Mechanical properties :
#
#
# Convention : Reuss Voigt Hill
#
# Bulk Modulus (GPa) = 39.25060 47.12296 43.18678
# Shear Modulus (GPa) = 20.83795 23.91428 22.37612
#
# Velocity S-wave (km/s) = 3.18525 3.41228 3.30072
# Velocity P-wave (km/s) = 5.71302 6.20231 5.96269
#
# Compressibility (1/GPa) = 0.02547732
#
# Stress axis : x y z
#
# Youngs Moduli (GPa) = 82.16564 80.10296 48.71115
#
# Poissons Ratio (x) = 0.41038 0.15081
# Poissons Ratio (y) = 0.42095 0.07959
# Poissons Ratio (z) = 0.25438 0.13089
#
# Static dielectric constant tensor:
#      x y z
#    x 1.796050 0.000000 -0.009820 
#    y 0.000000 1.763090 0.000000 
#    z -0.009820 0.000000 1.846300 
# 
# From -- ./inp_files/8580.got.cif
#   From: 2010.05.17/outbox.cif.g08.bks.cpg/sg5_5_cif.got.tgz:8580.got - 2010.06.03 18:56:24.
