data_PCOD9122680
_publ_section_title
;
Structure prediction by ZEFSAII (Michael W. Deem and Ramdas Pophale) SiO2 
 PCOD9122680
Probable space group: C 2
;
_chemical_formula_sum "Si O2"
_cell_formula_units_Z 32
_cell_length_a 13.903160
_cell_length_b 20.994156
_cell_length_c 14.159054
_cell_angle_alpha 90.000000
_cell_angle_beta 159.456691
_cell_angle_gamma 90.000000
_cell_volume 1450.268718
_symmetry_space_group_name_H-M "C 2"
_symmetry_group_IT_number 5
_symmetry_cell_setting 'monoclinic'
loop_
_space_group_symop_operation_xyz
x,y,z
-x,y,-z
1/2+x,1/2+y,z
1/2-x,1/2+y,-z
loop_
_atom_site_type_symbol
_atom_site_label
_atom_site_fract_x
_atom_site_fract_y
_atom_site_fract_z
Si Si1 0.556076 0.625000 0.778966
Si Si2 0.222111 0.370777 0.789543
Si Si3 0.784074 0.193054 0.883331
Si Si4 0.466863 0.037658 0.743673
Si Si5 0.280345 0.725934 0.217461
Si Si6 0.192469 0.557709 0.753765
Si Si7 0.013743 0.827849 0.627481
Si Si8 0.535327 0.895922 0.829383
O O1 0.308318 0.575707 0.536473
O O2 0.568539 0.682549 0.718416
O O3 0.565466 0.660829 0.888639
O O4 0.835321 0.585275 0.018648
O O5 0.290137 0.297167 0.879813
O O6 0.128614 0.395894 0.805540
O O7 0.000000 0.373478 0.500000
O O8 0.500000 0.399449 0.000000
O O9 0.610427 0.131972 0.690765
O O10 0.605318 0.255605 0.736690
O O11 0.000000 0.210023 0.000000
O O12 0.642440 0.028782 0.809136
O O13 0.432489 0.968003 0.756073
O O14 0.500000 0.734594 0.500000
O O15 0.000000 0.696855 0.000000
O O16 0.000000 0.526085 0.500000
O O17 0.500000 0.556730 0.000000
O O18 0.714684 0.846721 0.389437
O O19 0.000000 0.833929 0.500000
O O20 0.229767 0.873494 0.881098
#
# Coordination Sequence:
#
# PCOD9122680 Si02
#       8
#     4   4   4   4   4   4   4   4
#     4  11  23  41  66  94 126 166 208 268 332 386
#     4  10  22  40  66 100 131 163 210 267 336 410
#     4  10  21  39  66  99 131 160 204 266 340 406
#     4  11  24  41  61  90 127 170 223 261 308 391
#     4  10  21  39  62  91 122 154 204 266 325 382
#     4  10  20  35  59  92 126 159 197 257 329 393
#     4  12  26  44  67  96 132 180 232 280 330 388
#     4  12  26  45  66  92 135 184 225 275 325 384
#
# _framework density 22.064876000000002
#
# number of rings (size 3 to 8) (size 9 to 14) (size 15 to 20)
#    0.000    1.250    0.000    6.750    0.000    9.000 
#    0.000    6.250    0.000    0.000    0.000    0.000 
#    0.000    0.000    0.000    0.000    0.000    0.000 
#
# Total GULP energy -89363.605113 kJ/mol
# GULP energy per Si atom -5585.225320 kJ/mol
# Density = 2.201466 g / cm^3
# Si number density = 22.064876 Si / 1000 Ang^3
#
#
#
# Elastic Constant Matrix: (Units=GPa)
#
#
# Indices 1 2 3 4 5 6 
#
# 1 71.4125 49.3862 31.0054 0.0028 3.9735 -0.0045
# 2 49.3862 128.0220 31.0147 0.0028 -6.9140 -0.0057
# 3 31.0054 31.0147 121.4855 0.0057 1.3416 -0.0042
# 4 0.0028 0.0028 0.0057 -11.6067 0.0042 55.1623
# 5 3.9735 -6.9140 1.3416 0.0042 28.0982 -0.0080
# 6 -0.0045 -0.0057 -0.0042 55.1623 -0.0080 -91.1223
#
#
#
# Elastic Compliance Matrix: (Units=1/GPa)
#
#
# Indices 1 2 3 4 5 6 
#
# 1 0.020913 -0.007501 -0.003371 0.000000 -0.004642 0.000000
# 2 -0.007501 0.011149 -0.000974 0.000001 0.003851 0.000000
# 3 -0.003371 -0.000974 0.009343 -0.000001 -0.000209 -0.000001
# 4 0.000000 0.000001 -0.000001 0.045899 0.000001 0.027786
# 5 -0.004642 0.003851 -0.000209 0.000001 0.037204 -0.000002
# 6 0.000000 0.000000 -0.000001 0.027786 -0.000002 0.005846
#
#
# Mechanical properties :
#
#
# Convention : Reuss Voigt Hill
#
# Bulk Modulus (GPa) = 56.46180 60.41473 58.43826
# Shear Modulus (GPa) = 31.25959 -0.95857 15.15051
#
# Velocity S-wave (km/s) = 3.76801 -0.65983 2.62321
# Velocity P-wave (km/s) = 6.67646 5.18261 5.97639
#
# Compressibility (1/GPa) = 0.01771109
#
# Stress axis : x y z
#
# Youngs Moduli (GPa) = 47.81778 89.69477 107.03414
#
# Poissons Ratio (x) = 0.67284 0.36081
# Poissons Ratio (y) = 0.35870 0.10428
# Poissons Ratio (z) = 0.16119 0.08739
#
# Static dielectric constant tensor:
#      x y z
#    x 1.890160 0.000000 -0.151350 
#    y 0.000000 1.842670 0.000000 
#    z -0.151350 0.000000 2.042890 
# 
# From -- ./inp_files/55045.got.cif
#   From: 2010.05.17/outbox.cif.g08.bks.cpg/sg5_28_cif.got.tgz:55045.got - 2010.06.03 18:56:24.
