data_PCOD9122480
_publ_section_title
;
Structure prediction by ZEFSAII (Michael W. Deem and Ramdas Pophale) SiO2 
 PCOD9122480
Probable space group: C 2
;
_chemical_formula_sum "Si O2"
_cell_formula_units_Z 32
_cell_length_a 11.506400
_cell_length_b 14.949450
_cell_length_c 14.443617
_cell_angle_alpha 90.000000
_cell_angle_beta 139.979491
_cell_angle_gamma 90.000000
_cell_volume 1597.693029
_symmetry_space_group_name_H-M "C 2"
_symmetry_group_IT_number 5
_symmetry_cell_setting 'monoclinic'
loop_
_space_group_symop_operation_xyz
x,y,z
-x,y,-z
1/2+x,1/2+y,z
1/2-x,1/2+y,-z
loop_
_atom_site_type_symbol
_atom_site_label
_atom_site_fract_x
_atom_site_fract_y
_atom_site_fract_z
Si Si1 0.767593 0.240390 0.090027
Si Si2 0.611566 0.630326 0.331529
Si Si3 0.854820 0.531803 0.831630
Si Si4 0.025566 0.967485 0.404097
Si Si5 0.661459 0.211697 0.669890
Si Si6 0.646878 0.271964 0.415510
Si Si7 0.648931 0.227573 0.215436
Si Si8 0.974391 0.356074 0.873631
O O1 0.739399 0.268979 0.179422
O O2 0.863716 0.310772 0.082278
O O3 0.905265 0.155905 0.179807
O O4 0.566975 0.223770 0.930930
O O5 0.626838 0.546431 0.409669
O O6 0.727908 0.628792 0.306645
O O7 0.697601 0.715929 0.437607
O O8 0.678417 0.479176 0.759639
O O9 0.793591 0.623279 0.747312
O O10 0.944775 0.457159 0.821630
O O11 0.000000 0.554087 0.000000
O O12 0.108155 0.870674 0.431770
O O13 0.000000 0.978214 0.500000
O O14 0.500000 0.229687 0.500000
O O15 0.542312 0.214677 0.690140
O O16 0.801716 0.292650 0.755059
O O17 0.694456 0.276630 0.337152
O O18 0.000000 0.359734 0.000000
#
# Coordination Sequence:
#
# PCOD9122480 Si02
#       8
#     4   4   4   4   4   4   4   4
#     4  10  21  37  60  85 125 158 197 251 313 363
#     4  10  21  38  62  88 122 157 204 257 307 360
#     4  11  21  37  62  94 116 153 213 257 302 369
#     4  12  23  39  64  93 122 161 211 262 304 368
#     4   9  18  36  56  83 118 153 194 250 298 351
#     4  11  23  38  61  89 123 165 208 249 313 370
#     4  11  21  40  58  89 124 163 196 253 315 371
#     4  10  20  33  59  92 113 153 205 254 296 363
#
# _framework density 20.028880000000001
#
# number of rings (size 3 to 8) (size 9 to 14) (size 15 to 20)
#    0.000    1.500    3.750    2.625    3.500    0.000 
#    0.000    1.250    5.500    0.000    0.000    0.000 
#    0.000    0.000    0.000    0.000    0.000    0.000 
#
# Total GULP energy -89150.820232 kJ/mol
# GULP energy per Si atom -5571.926264 kJ/mol
# Density = 1.998329 g / cm^3
# Si number density = 20.028880 Si / 1000 Ang^3
#
#
#
# Elastic Constant Matrix: (Units=GPa)
#
#
# Indices 1 2 3 4 5 6 
#
# 1 87.6924 31.3369 10.0250 0.0001 -11.1001 0.0000
# 2 31.3369 94.0072 -2.6677 0.0001 -5.8463 0.0001
# 3 10.0250 -2.6677 44.9481 0.0003 5.4180 0.0003
# 4 0.0001 0.0001 0.0003 20.8784 0.0002 -3.5483
# 5 -11.1001 -5.8463 5.4180 0.0002 37.1584 0.0002
# 6 0.0000 0.0001 0.0003 -3.5483 0.0002 35.2609
#
#
#
# Elastic Compliance Matrix: (Units=1/GPa)
#
#
# Indices 1 2 3 4 5 6 
#
# 1 0.013969 -0.004516 -0.003869 0.000000 0.004027 0.000000
# 2 -0.004516 0.012211 0.001693 0.000000 0.000325 0.000000
# 3 -0.003869 0.001693 0.023736 0.000000 -0.004350 0.000000
# 4 0.000000 0.000000 0.000000 0.048730 0.000000 0.004904
# 5 0.004027 0.000325 -0.004350 0.000000 0.028800 0.000000
# 6 0.000000 0.000000 0.000000 0.004904 0.000000 0.028853
#
#
# Mechanical properties :
#
#
# Convention : Reuss Voigt Hill
#
# Bulk Modulus (GPa) = 27.37360 33.78178 30.57769
# Shear Modulus (GPa) = 27.49352 31.18978 29.34165
#
# Velocity S-wave (km/s) = 3.70901 3.95047 3.83164
# Velocity P-wave (km/s) = 5.66031 6.14096 5.90553
#
# Compressibility (1/GPa) = 0.03653154
#
# Stress axis : x y z
#
# Youngs Moduli (GPa) = 71.58569 81.89250 42.13074
#
# Poissons Ratio (x) = 0.36982 0.16300
# Poissons Ratio (y) = 0.32328 -0.07132
# Poissons Ratio (z) = 0.27697 -0.13862
#
# Static dielectric constant tensor:
#      x y z
#    x 1.799540 0.000000 -0.004530 
#    y 0.000000 1.730900 0.000000 
#    z -0.004530 0.000000 1.755420 
# 
# From -- ./inp_files/53195.got.cif
#   From: 2010.05.17/outbox.cif.g08.bks.cpg/sg5_27_cif.got.tgz:53195.got - 2010.06.03 18:56:24.
