data_PCOD9122163
_publ_section_title
;
Structure prediction by ZEFSAII (Michael W. Deem and Ramdas Pophale) SiO2 
 PCOD9122163
Probable space group: C 2
;
_chemical_formula_sum "Si O2"
_cell_formula_units_Z 30
_cell_length_a 14.500854
_cell_length_b 8.210542
_cell_length_c 28.416398
_cell_angle_alpha 90.000000
_cell_angle_beta 157.199974
_cell_angle_gamma 90.000000
_cell_volume 1311.064560
_symmetry_space_group_name_H-M "C 2"
_symmetry_group_IT_number 5
_symmetry_cell_setting 'monoclinic'
loop_
_space_group_symop_operation_xyz
x,y,z
-x,y,-z
1/2+x,1/2+y,z
1/2-x,1/2+y,-z
loop_
_atom_site_type_symbol
_atom_site_label
_atom_site_fract_x
_atom_site_fract_y
_atom_site_fract_z
Si Si1 0.015748 0.240120 0.951357
Si Si2 0.343667 0.719330 0.509853
Si Si3 0.000000 0.689136 0.500000
Si Si4 0.008604 0.599564 0.060147
Si Si5 0.565421 0.424400 0.129936
Si Si6 0.051867 0.901652 0.725824
Si Si7 0.261373 0.419556 0.681921
Si Si8 0.104048 0.379300 0.366986
O O1 0.115424 0.422926 0.989443
O O2 0.744327 0.262411 0.806331
O O3 0.091323 0.074164 0.962891
O O4 0.000000 0.220806 0.000000
O O5 0.169483 0.863157 0.410211
O O6 0.228149 0.549074 0.441303
O O7 0.378792 0.755098 0.581015
O O8 0.596818 0.758329 0.605022
O O9 0.901076 0.570253 0.412299
O O10 0.774269 0.798557 0.408201
O O11 0.936713 0.755208 0.056090
O O12 0.284014 0.559127 0.202485
O O13 0.000000 0.630578 0.000000
O O14 0.639923 0.443472 0.219330
O O15 0.825052 0.411818 0.225525
O O16 0.962125 0.898744 0.737079
#
# Coordination Sequence:
#
# PCOD9122163 Si02
#       8
#     4   4   2   4   4   4   4   4
#     4   9  20  38  65  83 111 150 201 245 290 345
#     4  11  22  37  58  83 119 155 199 229 291 352
#     4  12  24  36  54  82 130 146 200 236 282 344
#     4   9  20  37  65  85 109 152 205 241 293 348
#     4  11  21  38  61  86 117 154 197 235 302 344
#     4  10  19  39  59  78 120 152 189 241 291 336
#     4  11  24  37  56  88 121 158 183 242 289 348
#     4  11  24  36  56  88 113 161 191 240 284 359
#
# _framework density 22.882168
#
# number of rings (size 3 to 8) (size 9 to 14) (size 15 to 20)
#    0.800    0.800    2.667    2.800    5.600    0.000 
#    0.000    1.333    0.000    0.000    0.000    0.000 
#    0.000    0.000    0.000    0.000    0.000    0.000 
#
# Total GULP energy -83692.741201 kJ/mol
# GULP energy per Si atom -5579.516080 kJ/mol
# Density = 2.283009 g / cm^3
# Si number density = 22.882168 Si / 1000 Ang^3
#
#
#
# Elastic Constant Matrix: (Units=GPa)
#
#
# Indices 1 2 3 4 5 6 
#
# 1 45.4261 27.1295 8.5109 0.0001 4.3781 0.0000
# 2 27.1295 168.1379 32.9040 -0.0002 -18.0055 -0.0002
# 3 8.5109 32.9040 66.3894 0.0006 -17.2474 0.0016
# 4 0.0001 -0.0002 0.0006 20.3567 0.0007 -28.8977
# 5 4.3781 -18.0055 -17.2474 0.0007 45.5258 0.0007
# 6 0.0000 -0.0002 0.0016 -28.8977 0.0007 -15.0383
#
#
#
# Elastic Compliance Matrix: (Units=1/GPa)
#
#
# Indices 1 2 3 4 5 6 
#
# 1 0.025452 -0.004155 -0.002514 0.000000 -0.005043 0.000000
# 2 -0.004155 0.007360 -0.002501 0.000000 0.002363 0.000000
# 3 -0.002514 -0.002501 0.018224 0.000001 0.006157 0.000001
# 4 0.000000 0.000000 0.000001 0.013178 0.000000 -0.025322
# 5 -0.005043 0.002363 0.006157 0.000000 0.025718 0.000001
# 6 0.000000 0.000000 0.000001 -0.025322 0.000001 -0.017838
#
#
# Mechanical properties :
#
#
# Convention : Reuss Voigt Hill
#
# Bulk Modulus (GPa) = 30.58442 46.33800 38.46121
# Shear Modulus (GPa) = 49.34218 24.26279 36.80248
#
# Velocity S-wave (km/s) = 4.64870 3.25981 4.01477
# Velocity P-wave (km/s) = 6.49684 5.87053 6.19161
#
# Compressibility (1/GPa) = 0.03269639
#
# Stress axis : x y z
#
# Youngs Moduli (GPa) = 39.28934 135.86077 54.87238
#
# Poissons Ratio (x) = 0.56449 0.13794
# Poissons Ratio (y) = 0.16324 0.13726
# Poissons Ratio (z) = 0.09877 0.33985
#
# Static dielectric constant tensor:
#      x y z
#    x 1.855770 0.000000 0.030510 
#    y 0.000000 1.900160 0.000000 
#    z 0.030510 0.000000 1.841230 
# 
# From -- ./inp_files/70574.got.cif
#   From: 2010.05.17/outbox.cif.g08.bks.cpg/sg5_36_cif.got.tgz:70574.got - 2010.06.03 18:56:24.
