data_PCOD9122435
_publ_section_title
;
Structure prediction by ZEFSAII (Michael W. Deem and Ramdas Pophale) SiO2 
 PCOD9122435
Probable space group: C 2
;
_chemical_formula_sum "Si O2"
_cell_formula_units_Z 28
_cell_length_a 23.410202
_cell_length_b 11.808324
_cell_length_c 22.696765
_cell_angle_alpha 90.000000
_cell_angle_beta 168.338084
_cell_angle_gamma 90.000000
_cell_volume 1268.241163
_symmetry_space_group_name_H-M "C 2"
_symmetry_group_IT_number 5
_symmetry_cell_setting 'monoclinic'
loop_
_space_group_symop_operation_xyz
x,y,z
-x,y,-z
1/2+x,1/2+y,z
1/2-x,1/2+y,-z
loop_
_atom_site_type_symbol
_atom_site_label
_atom_site_fract_x
_atom_site_fract_y
_atom_site_fract_z
Si Si1 0.899726 0.340430 0.558398
Si Si2 0.825398 0.526473 0.078278
Si Si3 0.662334 0.450900 0.054708
Si Si4 0.069086 0.842126 0.504134
Si Si5 0.830758 0.179124 0.590736
Si Si6 0.645994 0.082200 0.586739
Si Si7 0.972586 0.373590 0.119858
O O1 0.581793 0.383172 0.228201
O O2 0.893735 0.226197 0.589321
O O3 0.063777 0.427761 0.767355
O O4 0.095078 0.351238 0.697349
O O5 0.864003 0.473236 0.052800
O O6 0.009762 0.639849 0.270420
O O7 0.514420 0.565355 0.782562
O O8 0.433410 0.515257 0.865041
O O9 0.899813 0.553004 0.290488
O O10 0.198287 0.715890 0.641591
O O11 0.285645 0.910227 0.681855
O O12 0.000000 0.885055 0.500000
O O13 0.784828 0.831063 0.179574
O O14 0.906069 0.273119 0.715577
O O15 0.500000 0.046167 0.500000
#
# Coordination Sequence:
#
# PCOD9122435 Si02
#       7
#     4   4   4   4   4   4   4
#     4  10  22  36  52  88 112 147 206 220 284 363
#     4  11  23  37  58  85 116 157 194 237 287 349
#     4  10  20  32  55  76 113 149 182 233 270 344
#     4  11  23  38  58  86 121 156 197 244 293 352
#     4  11  23  38  60  84 124 155 188 247 286 342
#     4  10  21  34  53  86 115 150 193 231 294 358
#     4  11  24  39  59  91 120 158 198 238 294 354
#
# _framework density 22.077819999999999
#
# number of rings (size 3 to 8) (size 9 to 14) (size 15 to 20)
#    0.000    1.429    0.000    5.143   12.000    6.857 
#    0.000    0.000    0.000    0.000    0.000   70.000 
#    0.000    0.000    0.000    0.000    0.000    0.000 
#
# Total GULP energy -77976.141734 kJ/mol
# GULP energy per Si atom -5569.724410 kJ/mol
# Density = 2.202757 g / cm^3
# Si number density = 22.077820 Si / 1000 Ang^3
#
#
#
# Elastic Constant Matrix: (Units=GPa)
#
#
# Indices 1 2 3 4 5 6 
#
# 1 86.4755 11.4372 22.2481 0.1458 10.7775 -0.0388
# 2 11.4372 27.4921 3.8131 0.1648 -4.5753 0.0530
# 3 22.2481 3.8131 117.7272 0.1323 16.4229 0.1425
# 4 0.1458 0.1648 0.1323 3.1603 0.2313 4.5031
# 5 10.7775 -4.5753 16.4229 0.2313 34.2785 -0.1079
# 6 -0.0388 0.0530 0.1425 4.5031 -0.1079 29.7565
#
#
#
# Elastic Compliance Matrix: (Units=1/GPa)
#
#
# Indices 1 2 3 4 5 6 
#
# 1 0.013323 -0.005992 -0.001744 0.000057 -0.004153 0.000013
# 2 -0.005992 0.040376 -0.001275 -0.002919 0.007905 0.000397
# 3 -0.001744 -0.001275 0.009444 0.000180 -0.004148 -0.000087
# 4 0.000057 -0.002919 0.000180 0.403926 -0.003412 -0.061134
# 5 -0.004153 0.007905 -0.004148 -0.003412 0.033546 0.000638
# 6 0.000013 0.000397 -0.000087 -0.061134 0.000638 0.042860
#
#
# Mechanical properties :
#
#
# Convention : Reuss Voigt Hill
#
# Bulk Modulus (GPa) = 22.16364 34.07683 28.12023
# Shear Modulus (GPa) = 8.67247 26.38550 17.52898
#
# Velocity S-wave (km/s) = 1.98410 3.46079 2.82079
# Velocity P-wave (km/s) = 3.91274 5.60694 4.83463
#
# Compressibility (1/GPa) = 0.04511895
#
# Stress axis : x y z
#
# Youngs Moduli (GPa) = 75.05929 24.76713 105.89085
#
# Poissons Ratio (x) = 0.14841 0.18471
# Poissons Ratio (y) = 0.44977 0.13504
# Poissons Ratio (z) = 0.13093 0.03159
#
# Static dielectric constant tensor:
#      x y z
#    x 2.113000 0.000400 0.006300 
#    y 0.000400 1.813480 -0.000420 
#    z 0.006300 -0.000420 1.838240 
# 
# From -- ./inp_files/69767.got.cif
#   From: 2010.05.17/outbox.cif.g08.bks.cpg/sg5_35_cif.got.tgz:69767.got - 2010.06.03 18:56:24.
