data_PCOD9122279
_publ_section_title
;
Structure prediction by ZEFSAII (Michael W. Deem and Ramdas Pophale) SiO2 
 PCOD9122279
Probable space group: C 2
;
_chemical_formula_sum "Si O2"
_cell_formula_units_Z 32
_cell_length_a 18.869092
_cell_length_b 9.650938
_cell_length_c 21.869147
_cell_angle_alpha 90.000000
_cell_angle_beta 160.658281
_cell_angle_gamma 90.000000
_cell_volume 1318.999682
_symmetry_space_group_name_H-M "C 2"
_symmetry_group_IT_number 5
_symmetry_cell_setting 'monoclinic'
loop_
_space_group_symop_operation_xyz
x,y,z
-x,y,-z
1/2+x,1/2+y,z
1/2-x,1/2+y,-z
loop_
_atom_site_type_symbol
_atom_site_label
_atom_site_fract_x
_atom_site_fract_y
_atom_site_fract_z
Si Si1 0.273062 0.471310 0.153539
Si Si2 0.271277 0.950828 0.737522
Si Si3 0.413508 0.764623 0.279684
Si Si4 0.780351 0.171789 0.783659
Si Si5 0.570395 0.239166 0.402444
Si Si6 0.245775 0.361047 0.724726
Si Si7 0.579915 0.978414 0.330211
Si Si8 0.684101 0.170057 0.317344
O O1 0.297978 0.466310 0.248224
O O2 0.368311 0.617765 0.212425
O O3 0.389119 0.335795 0.221286
O O4 0.023585 0.475020 0.940125
O O5 0.245348 0.788495 0.703979
O O6 0.187630 0.057415 0.619541
O O7 0.260642 0.793650 0.213226
O O8 0.408878 0.890252 0.228610
O O9 0.651456 0.749080 0.503613
O O10 0.571857 0.180633 0.657179
O O11 0.807227 0.019665 0.779980
O O12 0.000000 0.206291 0.000000
O O13 0.752722 0.359030 0.556088
O O14 0.652793 0.099559 0.436939
O O15 0.389632 0.278616 0.793451
O O16 0.000000 0.354522 0.500000
O O17 0.526255 0.076066 0.228921
#
# Coordination Sequence:
#
# PCOD9122279 Si02
#       8
#     4   4   4   4   4   4   4   4
#     4  10  19  40  65  93 128 175 223 271 342 411
#     4  10  21  38  64  96 130 170 221 284 337 396
#     4  11  21  40  65  94 127 176 225 274 337 410
#     4  11  22  41  67  96 132 175 224 279 344 411
#     4  11  21  39  66  93 127 177 228 272 329 421
#     4  10  23  38  61  98 133 164 223 296 335 386
#     4  12  23  40  66  96 135 179 226 270 346 415
#     4  11  23  40  61  96 136 166 225 287 332 399
#
# _framework density 24.260811
#
# number of rings (size 3 to 8) (size 9 to 14) (size 15 to 20)
#    0.000    1.250    7.500    0.000    0.000    2.000 
#    0.000    1.250    0.000    0.000    0.000    0.000 
#    0.000    0.000    0.000    0.000    0.000    0.000 
#
# Total GULP energy -89291.345631 kJ/mol
# GULP energy per Si atom -5580.709102 kJ/mol
# Density = 2.420559 g / cm^3
# Si number density = 24.260811 Si / 1000 Ang^3
#
#
#
# Elastic Constant Matrix: (Units=GPa)
#
#
# Indices 1 2 3 4 5 6 
#
# 1 95.8627 51.4434 12.8218 -0.0053 9.4167 0.0002
# 2 51.4434 203.6047 3.2118 -0.0131 6.7949 0.0030
# 3 12.8218 3.2118 74.8601 -0.0165 2.0667 0.0063
# 4 -0.0053 -0.0131 -0.0165 28.7336 0.0021 7.5171
# 5 9.4167 6.7949 2.0667 0.0021 18.5110 0.0002
# 6 0.0002 0.0030 0.0063 7.5171 0.0002 60.1018
#
#
#
# Elastic Compliance Matrix: (Units=1/GPa)
#
#
# Indices 1 2 3 4 5 6 
#
# 1 0.012830 -0.003038 -0.001924 0.000000 -0.005197 0.000000
# 2 -0.003038 0.005694 0.000292 0.000002 -0.000577 -0.000001
# 3 -0.001924 0.000292 0.013693 0.000008 -0.000657 -0.000002
# 4 0.000000 0.000002 0.000008 0.035980 -0.000006 -0.004500
# 5 -0.005197 -0.000577 -0.000657 -0.000006 0.056951 0.000001
# 6 0.000000 -0.000001 -0.000002 -0.004500 0.000001 0.017201
#
#
# Mechanical properties :
#
#
# Convention : Reuss Voigt Hill
#
# Bulk Modulus (GPa) = 43.71067 56.58682 50.14875
# Shear Modulus (GPa) = 31.38473 41.92597 36.65535
#
# Velocity S-wave (km/s) = 3.60062 4.16159 3.89123
# Velocity P-wave (km/s) = 5.94492 6.81666 6.39566
#
# Compressibility (1/GPa) = 0.02287771
#
# Stress axis : x y z
#
# Youngs Moduli (GPa) = 77.94530 175.63363 73.02814
#
# Poissons Ratio (x) = 0.53353 0.14048
# Poissons Ratio (y) = 0.23678 -0.02132
# Poissons Ratio (z) = 0.14994 -0.05128
#
# Static dielectric constant tensor:
#      x y z
#    x 1.995040 0.000000 -0.009850 
#    y 0.000000 1.959900 0.000000 
#    z -0.009850 0.000000 1.944290 
# 
# From -- ./inp_files/71100.got.cif
#   From: 2010.05.17/outbox.cif.g08.bks.cpg/sg5_36_cif.got.tgz:71100.got - 2010.06.03 18:56:24.
