data_PCOD9122383
_publ_section_title
;
Structure prediction by ZEFSAII (Michael W. Deem and Ramdas Pophale) SiO2 
 PCOD9122383
Probable space group: C 2
;
_chemical_formula_sum "Si O2"
_cell_formula_units_Z 28
_cell_length_a 14.495254
_cell_length_b 7.889178
_cell_length_c 22.581186
_cell_angle_alpha 90.000000
_cell_angle_beta 26.166723
_cell_angle_gamma 90.000000
_cell_volume 1138.748485
_symmetry_space_group_name_H-M "C 2"
_symmetry_group_IT_number 5
_symmetry_cell_setting 'monoclinic'
loop_
_space_group_symop_operation_xyz
x,y,z
-x,y,-z
1/2+x,1/2+y,z
1/2-x,1/2+y,-z
loop_
_atom_site_type_symbol
_atom_site_label
_atom_site_fract_x
_atom_site_fract_y
_atom_site_fract_z
Si Si1 0.494583 0.862620 0.100657
Si Si2 0.000000 0.045990 0.500000
Si Si3 0.538421 0.578699 0.782772
Si Si4 0.891431 0.713275 0.201871
Si Si5 0.475590 0.822032 0.642931
Si Si6 0.311725 0.093323 0.410512
Si Si7 0.500000 0.006186 0.500000
Si Si8 0.658124 0.373935 0.195222
O O1 0.513631 0.727864 0.142171
O O2 0.268829 0.869455 0.196112
O O3 0.530929 0.050865 0.107116
O O4 0.661336 0.817524 0.954356
O O5 0.800280 0.141636 0.646332
O O6 0.856780 0.980262 0.529754
O O7 0.522418 0.391296 0.823554
O O8 0.415083 0.551920 0.792462
O O9 0.784638 0.604458 0.628689
O O10 0.760886 0.761697 0.218816
O O11 0.650701 0.679484 0.548511
O O12 0.518578 0.968704 0.662811
O O13 0.514750 0.901552 0.553605
O O14 0.456517 0.251219 0.306465
#
# Coordination Sequence:
#
# PCOD9122383 Si02
#       8
#     4   2   4   4   4   4   2   4
#     4  11  28  45  66 101 137 187 237 286 336 426
#     4  10  21  39  66  99 145 172 215 305 342 411
#     4  11  22  44  74  94 136 185 224 286 358 411
#     4  10  21  45  63  99 137 172 231 282 342 418
#     4  10  21  37  68  98 138 177 218 293 356 413
#     4  11  21  41  66 101 140 185 223 285 364 414
#     4  10  19  43  64  99 131 174 221 291 356 407
#     4  11  24  46  68  97 144 179 235 294 338 410
#
# _framework density 24.588398000000002
#
# number of rings (size 3 to 8) (size 9 to 14) (size 15 to 20)
#    0.000    1.429    2.857    4.714    6.000    0.571 
#    5.143    5.714    0.000    0.000    0.000    0.000 
#    0.000    0.000    0.000    0.000    0.000    0.000 
#
# Total GULP energy -78003.671569 kJ/mol
# GULP energy per Si atom -5571.690826 kJ/mol
# Density = 2.453243 g / cm^3
# Si number density = 24.588398 Si / 1000 Ang^3
#
#
#
# Elastic Constant Matrix: (Units=GPa)
#
#
# Indices 1 2 3 4 5 6 
#
# 1 105.2180 46.2695 19.5430 0.0002 -23.5142 -0.0001
# 2 46.2695 110.8419 9.6323 0.0010 5.5861 -0.0001
# 3 19.5430 9.6323 61.9212 0.0000 -7.8215 0.0006
# 4 0.0002 0.0010 0.0000 18.8881 0.0004 1.6464
# 5 -23.5142 5.5861 -7.8215 0.0004 31.5740 0.0000
# 6 -0.0001 -0.0001 0.0006 1.6464 0.0000 47.1260
#
#
#
# Elastic Compliance Matrix: (Units=1/GPa)
#
#
# Indices 1 2 3 4 5 6 
#
# 1 0.015802 -0.007021 -0.002324 0.000000 0.012435 0.000000
# 2 -0.007021 0.012393 -0.000670 0.000000 -0.007588 0.000000
# 3 -0.002324 -0.000670 0.017326 0.000000 0.002679 0.000000
# 4 0.000000 0.000000 0.000000 0.053105 -0.000001 -0.001855
# 5 0.012435 -0.007588 0.002679 -0.000001 0.042938 0.000000
# 6 0.000000 0.000000 0.000000 -0.001855 0.000000 0.021285
#
#
# Mechanical properties :
#
#
# Convention : Reuss Voigt Hill
#
# Bulk Modulus (GPa) = 39.23159 47.65230 43.44195
# Shear Modulus (GPa) = 26.12626 33.02004 29.57315
#
# Velocity S-wave (km/s) = 3.26321 3.66855 3.47180
# Velocity P-wave (km/s) = 5.49436 6.11281 5.81182
#
# Compressibility (1/GPa) = 0.02548966
#
# Stress axis : x y z
#
# Youngs Moduli (GPa) = 63.28175 80.68814 57.71695
#
# Poissons Ratio (x) = 0.56652 0.13416
# Poissons Ratio (y) = 0.44431 0.03869
# Poissons Ratio (z) = 0.14710 0.05409
#
# Static dielectric constant tensor:
#      x y z
#    x 2.196270 0.000000 0.021660 
#    y 0.000000 2.034590 0.000000 
#    z 0.021660 0.000000 1.943270 
# 
# From -- ./inp_files/68642.got.cif
#   From: 2010.05.17/outbox.cif.g08.bks.cpg/sg5_35_cif.got.tgz:68642.got - 2010.06.03 18:56:24.
