data_PCOD9122429
_publ_section_title
;
Structure prediction by ZEFSAII (Michael W. Deem and Ramdas Pophale) SiO2 
 PCOD9122429
Probable space group: C 2
;
_chemical_formula_sum "Si O2"
_cell_formula_units_Z 28
_cell_length_a 23.691112
_cell_length_b 5.229737
_cell_length_c 22.803591
_cell_angle_alpha 90.000000
_cell_angle_beta 153.716968
_cell_angle_gamma 90.000000
_cell_volume 1251.070317
_symmetry_space_group_name_H-M "C 2"
_symmetry_group_IT_number 5
_symmetry_cell_setting 'monoclinic'
loop_
_space_group_symop_operation_xyz
x,y,z
-x,y,-z
1/2+x,1/2+y,z
1/2-x,1/2+y,-z
loop_
_atom_site_type_symbol
_atom_site_label
_atom_site_fract_x
_atom_site_fract_y
_atom_site_fract_z
Si Si1 0.295917 0.444430 0.355702
Si Si2 0.778196 0.440149 0.850024
Si Si3 0.000000 0.693989 0.000000
Si Si4 0.847544 0.936365 0.755365
Si Si5 0.000000 0.637799 0.500000
Si Si6 0.366003 0.938593 0.266623
Si Si7 0.894262 0.985122 0.676413
Si Si8 0.087171 0.486626 0.378692
O O1 0.268635 0.443871 0.261156
O O2 0.261094 0.715562 0.349951
O O3 0.436381 0.327649 0.488470
O O4 0.207269 0.220839 0.297870
O O5 0.925308 0.514767 0.976799
O O6 0.732835 0.173044 0.834069
O O7 0.706462 0.675933 0.812672
O O8 0.912049 0.873477 0.877742
O O9 0.937233 0.919970 0.782351
O O10 0.908922 0.462761 0.375378
O O11 0.491046 0.953591 0.343028
O O12 0.933167 0.257949 0.686818
O O13 0.738489 0.978929 0.534235
O O14 0.935741 0.761629 0.671601
#
# Coordination Sequence:
#
# PCOD9122429 Si02
#       8
#     4   4   2   4   2   4   4   4
#     4  10  21  33  51  83 117 147 180 225 284 351
#     4  10  22  36  54  83 113 148 188 229 288 343
#     4  10  22  40  62  86 114 148 190 246 290 334
#     4  11  22  37  58  84 114 146 193 241 282 331
#     4  10  20  32  52  82 118 152 180 222 288 356
#     4  11  22  36  56  84 118 152 187 232 287 344
#     4  10  21  37  58  86 114 156 197 227 275 336
#     4  10  21  37  58  83 120 155 188 231 277 336
#
# _framework density 22.380835999999999
#
# number of rings (size 3 to 8) (size 9 to 14) (size 15 to 20)
#    0.000    1.714    0.000    6.000    0.000   14.857 
#    0.000    0.000    0.000    3.429    0.000    0.000 
#    0.000    0.000    0.000    0.000    0.000    0.000 
#
# Total GULP energy -78224.773408 kJ/mol
# GULP energy per Si atom -5587.483815 kJ/mol
# Density = 2.232990 g / cm^3
# Si number density = 22.380836 Si / 1000 Ang^3
#
#
#
# Elastic Constant Matrix: (Units=GPa)
#
#
# Indices 1 2 3 4 5 6 
#
# 1 77.7229 18.1768 12.1482 0.0003 17.1482 -0.0004
# 2 18.1768 91.1142 10.6884 0.0032 5.2591 0.0024
# 3 12.1482 10.6884 29.3225 0.0005 10.1721 -0.0005
# 4 0.0003 0.0032 0.0005 13.4023 0.0006 12.2066
# 5 17.1482 5.2591 10.1721 0.0006 29.1500 -0.0004
# 6 -0.0004 0.0024 -0.0005 12.2066 -0.0004 33.9569
#
#
#
# Elastic Compliance Matrix: (Units=1/GPa)
#
#
# Indices 1 2 3 4 5 6 
#
# 1 0.015569 -0.002317 -0.002928 0.000001 -0.007719 0.000000
# 2 -0.002317 0.011823 -0.003507 -0.000003 0.000454 0.000000
# 3 -0.002928 -0.003507 0.040705 -0.000001 -0.011849 0.000001
# 4 0.000001 -0.000003 -0.000001 0.110934 -0.000003 -0.039878
# 5 -0.007719 0.000454 -0.011849 -0.000003 0.042899 0.000001
# 6 0.000000 0.000000 0.000001 -0.039878 0.000001 0.043784
#
#
# Mechanical properties :
#
#
# Convention : Reuss Voigt Hill
#
# Bulk Modulus (GPa) = 19.76540 31.13182 25.44861
# Shear Modulus (GPa) = 16.66209 25.77824 21.22017
#
# Velocity S-wave (km/s) = 2.73148 3.39750 3.08253
# Velocity P-wave (km/s) = 4.33573 5.41580 4.90558
#
# Compressibility (1/GPa) = 0.05059346
#
# Stress axis : x y z
#
# Youngs Moduli (GPa) = 64.23123 84.58334 24.56671
#
# Poissons Ratio (x) = 0.19597 0.07193
# Poissons Ratio (y) = 0.14882 0.08616
# Poissons Ratio (z) = 0.18806 0.29664
#
# Static dielectric constant tensor:
#      x y z
#    x 1.849130 0.000000 0.031830 
#    y 0.000000 1.859330 0.000000 
#    z 0.031830 0.000000 1.971050 
# 
# From -- ./inp_files/69357.got.cif
#   From: 2010.05.17/outbox.cif.g08.bks.cpg/sg5_35_cif.got.tgz:69357.got - 2010.06.03 18:56:24.
