data_PCOD9122848
_publ_section_title
;
Structure prediction by ZEFSAII (Michael W. Deem and Ramdas Pophale) SiO2 
 PCOD9122848
Probable space group: C 2
;
_chemical_formula_sum "Si O2"
_cell_formula_units_Z 30
_cell_length_a 20.824870
_cell_length_b 14.077543
_cell_length_c 15.703532
_cell_angle_alpha 90.000000
_cell_angle_beta 17.554356
_cell_angle_gamma 90.000000
_cell_volume 1388.522385
_symmetry_space_group_name_H-M "C 2"
_symmetry_group_IT_number 5
_symmetry_cell_setting 'monoclinic'
loop_
_space_group_symop_operation_xyz
x,y,z
-x,y,-z
1/2+x,1/2+y,z
1/2-x,1/2+y,-z
loop_
_atom_site_type_symbol
_atom_site_label
_atom_site_fract_x
_atom_site_fract_y
_atom_site_fract_z
Si Si1 0.629477 0.017980 0.186450
Si Si2 0.214584 0.008475 0.597796
Si Si3 0.656579 0.605349 0.230800
Si Si4 0.929377 0.813684 0.182448
Si Si5 0.752559 0.803996 0.063825
Si Si6 0.416270 0.101762 0.196597
Si Si7 0.473919 0.212676 0.437948
Si Si8 0.000000 0.135937 0.000000
O O1 0.417155 0.030349 0.399474
O O2 0.598118 0.109826 0.286295
O O3 0.649330 0.908372 0.187771
O O4 0.821114 0.040494 0.879657
O O5 0.243245 0.042649 0.465813
O O6 0.212812 0.895600 0.600198
O O7 0.029674 0.065947 0.880575
O O8 0.500000 0.569289 0.500000
O O9 0.602256 0.712287 0.268637
O O10 0.881886 0.607569 0.995359
O O11 0.836028 0.709469 0.288639
O O12 0.000000 0.846813 0.000000
O O13 0.117370 0.808654 0.012700
O O14 0.905792 0.772135 0.790129
O O15 0.500000 0.066919 0.000000
O O16 0.500000 0.255523 0.500000
O O17 0.221996 0.194941 0.732722
#
# Coordination Sequence:
#
# PCOD9122848 Si02
#       8
#     4   4   4   4   4   4   4   2
#     4   9  21  38  60  85 122 157 201 259 304 367
#     4  10  20  38  62  91 120 161 210 254 312 375
#     4   9  19  37  57  79 113 156 195 239 302 362
#     4  10  20  36  60  88 117 155 202 252 305 363
#     4  10  22  40  58  92 124 155 205 262 305 372
#     4   9  20  38  57  83 120 154 199 251 301 365
#     4  10  23  43  65  92 127 169 213 254 323 379
#     4  10  20  40  66  92 126 168 206 270 310 378
#
# _framework density 21.605702000000001
#
# number of rings (size 3 to 8) (size 9 to 14) (size 15 to 20)
#    0.000    2.400    0.667    2.400    1.867    5.333 
#    7.200    1.333    1.467    0.000    0.000    0.000 
#    0.000    0.000    0.000    0.000    0.000    0.000 
#
# Total GULP energy -83542.774368 kJ/mol
# GULP energy per Si atom -5569.518291 kJ/mol
# Density = 2.155653 g / cm^3
# Si number density = 21.605702 Si / 1000 Ang^3
#
#
#
# Elastic Constant Matrix: (Units=GPa)
#
#
# Indices 1 2 3 4 5 6 
#
# 1 106.4506 7.7597 29.8061 0.0273 23.7487 -0.0332
# 2 7.7597 35.9818 5.5255 -0.0262 10.1205 0.0281
# 3 29.8061 5.5255 68.6752 0.0151 25.6610 -0.0245
# 4 0.0273 -0.0262 0.0151 9.9395 -0.0041 20.5041
# 5 23.7487 10.1205 25.6610 -0.0041 51.4945 0.0061
# 6 -0.0332 0.0281 -0.0245 20.5041 0.0061 -4.3952
#
#
#
# Elastic Compliance Matrix: (Units=1/GPa)
#
#
# Indices 1 2 3 4 5 6 
#
# 1 0.011178 -0.000966 -0.003586 0.000012 -0.003178 -0.000020
# 2 -0.000966 0.029505 0.000056 -0.000029 -0.005381 0.000052
# 3 -0.003586 0.000056 0.019046 0.000015 -0.007848 -0.000018
# 4 0.000012 -0.000029 0.000015 0.009470 -0.000012 0.044180
# 5 -0.003178 -0.005381 -0.007848 -0.000012 0.025854 0.000014
# 6 -0.000020 0.000052 -0.000018 0.044180 0.000014 -0.021416
#
#
# Mechanical properties :
#
#
# Convention : Reuss Voigt Hill
#
# Bulk Modulus (GPa) = 19.70966 33.03226 26.37096
# Shear Modulus (GPa) = 50.23116 22.60885 36.42000
#
# Velocity S-wave (km/s) = 4.82696 3.23837 4.11014
# Velocity P-wave (km/s) = 6.34100 5.41337 5.89546
#
# Compressibility (1/GPa) = 0.05073653
#
# Stress axis : x y z
#
# Youngs Moduli (GPa) = 89.46523 33.89255 52.50541
#
# Poissons Ratio (x) = 0.03274 0.18828
# Poissons Ratio (y) = 0.08641 -0.00294
# Poissons Ratio (z) = 0.32082 -0.00190
#
# Static dielectric constant tensor:
#      x y z
#    x 2.352400 0.000320 -0.423040 
#    y 0.000320 1.799280 -0.000230 
#    z -0.423040 -0.000230 2.160930 
# 
# From -- ./inp_files/57135.got.cif
#   From: 2010.05.17/outbox.cif.g08.bks.cpg/sg5_29_cif.got.tgz:57135.got - 2010.06.03 18:56:24.
