data_PCOD9122507
_publ_section_title
;
Structure prediction by ZEFSAII (Michael W. Deem and Ramdas Pophale) SiO2 
 PCOD9122507
Probable space group: C 2
;
_chemical_formula_sum "Si O2"
_cell_formula_units_Z 28
_cell_length_a 14.446356
_cell_length_b 21.415021
_cell_length_c 15.031502
_cell_angle_alpha 90.000000
_cell_angle_beta 20.482778
_cell_angle_gamma 90.000000
_cell_volume 1627.253392
_symmetry_space_group_name_H-M "C 2"
_symmetry_group_IT_number 5
_symmetry_cell_setting 'monoclinic'
loop_
_space_group_symop_operation_xyz
x,y,z
-x,y,-z
1/2+x,1/2+y,z
1/2-x,1/2+y,-z
loop_
_atom_site_type_symbol
_atom_site_label
_atom_site_fract_x
_atom_site_fract_y
_atom_site_fract_z
Si Si1 0.298999 0.695460 0.260659
Si Si2 0.585859 0.281277 0.155539
Si Si3 0.107068 0.165853 0.146250
Si Si4 0.329086 0.715264 0.567825
Si Si5 0.515245 0.088163 0.878753
Si Si6 0.700922 0.956885 0.736309
Si Si7 0.151061 0.325302 0.685759
O O1 0.383269 0.657360 0.273753
O O2 0.331345 0.768836 0.258451
O O3 0.000000 0.684353 0.500000
O O4 0.500000 0.681286 0.000000
O O5 0.403495 0.265856 0.234753
O O6 0.389722 0.311006 0.403598
O O7 0.678222 0.210337 0.096675
O O8 0.857322 0.319600 0.907744
O O9 0.996820 0.208845 0.326161
O O10 0.248952 0.108053 0.066398
O O11 0.500000 0.729116 0.500000
O O12 0.209041 0.645923 0.685995
O O13 0.616122 0.019954 0.761428
O O14 0.500000 0.086805 0.000000
O O15 0.686149 0.893142 0.695293
O O16 0.000000 0.966336 0.500000
O O17 0.500000 0.950195 0.000000
#
# Coordination Sequence:
#
# PCOD9122507 Si02
#       7
#     4   4   4   4   4   4   4
#     4  11  21  33  53  78 109 145 183 228 281 329
#     4  10  20  34  54  79 109 144 189 225 279 340
#     4  10  21  36  54  81 116 149 187 237 283 344
#     4  11  19  34  58  82 118 148 181 237 294 338
#     4  10  21  34  56  84 119 155 187 228 282 349
#     4  11  23  37  55  84 116 155 198 223 276 352
#     4  11  20  37  54  77 115 150 181 234 270 335
#
# _framework density 17.206907000000001
#
# number of rings (size 3 to 8) (size 9 to 14) (size 15 to 20)
#    0.000    1.429    4.286    3.857    4.000    0.000 
#    0.000    0.000    0.000    0.000    0.000    3.000 
#    0.000    0.000    0.000    0.000    0.000    0.000 
#
# Total GULP energy -78019.389041 kJ/mol
# GULP energy per Si atom -5572.813503 kJ/mol
# Density = 1.716774 g / cm^3
# Si number density = 17.206907 Si / 1000 Ang^3
#
#
#
# Elastic Constant Matrix: (Units=GPa)
#
#
# Indices 1 2 3 4 5 6 
#
# 1 129.4352 36.0646 49.0897 -0.1603 -30.5618 0.0516
# 2 36.0646 85.8881 25.6252 -0.2104 -10.3857 0.2492
# 3 49.0897 25.6252 113.3292 -0.3013 -14.2572 0.4056
# 4 -0.1603 -0.2104 -0.3013 24.0529 0.1172 -1.2717
# 5 -30.5618 -10.3857 -14.2572 0.1172 37.1008 -0.0592
# 6 0.0516 0.2492 0.4056 -1.2717 -0.0592 35.0105
#
#
#
# Elastic Compliance Matrix: (Units=1/GPa)
#
#
# Indices 1 2 3 4 5 6 
#
# 1 0.011597 -0.002952 -0.003424 -0.000025 0.007411 0.000055
# 2 -0.002952 0.013468 -0.001679 0.000070 0.000693 -0.000068
# 3 -0.003424 -0.001679 0.010795 0.000088 0.000858 -0.000103
# 4 -0.000025 0.000070 0.000088 0.041657 -0.000096 0.001512
# 5 0.007411 0.000693 0.000858 -0.000096 0.033582 0.000027
# 6 0.000055 -0.000068 -0.000103 0.001512 0.000027 0.028619
#
#
# Mechanical properties :
#
#
# Convention : Reuss Voigt Hill
#
# Bulk Modulus (GPa) = 50.63289 61.13463 55.88376
# Shear Modulus (GPa) = 30.78618 33.75770 32.27194
#
# Velocity S-wave (km/s) = 4.23445 4.43410 4.33543
# Velocity P-wave (km/s) = 7.30734 7.86265 7.59008
#
# Compressibility (1/GPa) = 0.01975001
#
# Stress axis : x y z
#
# Youngs Moduli (GPa) = 86.23182 74.25176 92.63573
#
# Poissons Ratio (x) = 0.21920 0.31715
# Poissons Ratio (y) = 0.25456 0.15553
# Poissons Ratio (z) = 0.29523 0.12466
#
# Static dielectric constant tensor:
#      x y z
#    x 1.633790 0.000190 -0.010070 
#    y 0.000190 1.567950 0.000350 
#    z -0.010070 0.000350 1.657560 
# 
# From -- ./inp_files/54958.got.cif
#   From: 2010.05.17/outbox.cif.g08.bks.cpg/sg5_28_cif.got.tgz:54958.got - 2010.06.03 18:56:24.
