data_PCOD9122867
_publ_section_title
;
Structure prediction by ZEFSAII (Michael W. Deem and Ramdas Pophale) SiO2 
 PCOD9122867
Probable space group: C 2
;
_chemical_formula_sum "Si O2"
_cell_formula_units_Z 28
_cell_length_a 18.070058
_cell_length_b 9.053698
_cell_length_c 29.207205
_cell_angle_alpha 90.000000
_cell_angle_beta 162.384068
_cell_angle_gamma 90.000000
_cell_volume 1446.087594
_symmetry_space_group_name_H-M "C 2"
_symmetry_group_IT_number 5
_symmetry_cell_setting 'monoclinic'
loop_
_space_group_symop_operation_xyz
x,y,z
-x,y,-z
1/2+x,1/2+y,z
1/2-x,1/2+y,-z
loop_
_atom_site_type_symbol
_atom_site_label
_atom_site_fract_x
_atom_site_fract_y
_atom_site_fract_z
Si Si1 0.905958 0.079810 0.710521
Si Si2 0.714268 0.327003 0.287567
Si Si3 0.705047 0.882236 0.518259
Si Si4 0.306364 0.324529 0.972205
Si Si5 0.500000 0.287228 0.500000
Si Si6 0.633613 0.017621 0.283557
Si Si7 0.000000 0.992968 0.000000
Si Si8 0.544860 0.068004 0.336000
O O1 0.666923 0.184324 0.567389
O O2 0.133190 0.187355 0.855588
O O3 0.861583 0.966555 0.726205
O O4 0.898761 0.984616 0.660045
O O5 0.713359 0.181027 0.318076
O O6 0.970445 0.358266 0.413339
O O7 0.506014 0.291735 0.127786
O O8 0.828512 0.725104 0.581691
O O9 0.614421 0.959962 0.418457
O O10 0.443550 0.388066 0.009271
O O11 0.133997 0.459848 0.887592
O O12 0.313953 0.399902 0.366583
O O13 0.635067 0.006522 0.339826
O O14 0.750127 0.081205 0.842490
#
# Coordination Sequence:
#
# PCOD9122867 Si02
#       8
#     4   4   4   4   2   4   2   4
#     4  11  23  40  66  97 136 168 225 284 323 395
#     4  12  21  43  67 100 131 177 223 279 337 390
#     4  12  25  41  69 100 132 175 227 273 342 393
#     4  10  23  40  68  94 134 180 220 269 339 402
#     4  10  20  36  60  96 122 174 208 268 330 382
#     4  10  22  39  65  95 136 168 220 276 334 391
#     4  10  22  48  64  92 140 182 216 270 340 398
#     4  11  25  43  68  95 134 181 217 275 336 405
#
# _framework density 19.362587000000001
#
# number of rings (size 3 to 8) (size 9 to 14) (size 15 to 20)
#    0.000    1.143    4.286    1.714    6.000    0.000 
#    0.000    2.143    0.000    0.000    0.000    0.000 
#    0.000    0.000    0.000    0.000    0.000    0.000 
#
# Total GULP energy -78147.616093 kJ/mol
# GULP energy per Si atom -5581.972578 kJ/mol
# Density = 1.931852 g / cm^3
# Si number density = 19.362587 Si / 1000 Ang^3
#
#
#
# Elastic Constant Matrix: (Units=GPa)
#
#
# Indices 1 2 3 4 5 6 
#
# 1 69.2050 29.7754 42.3376 -0.0046 -4.0209 0.0429
# 2 29.7754 107.5824 34.4474 -0.0097 6.1946 0.0287
# 3 42.3376 34.4474 105.8318 0.0031 -7.3558 0.0628
# 4 -0.0046 -0.0097 0.0031 24.1641 0.0276 -2.6487
# 5 -4.0209 6.1946 -7.3558 0.0276 26.8497 -0.0028
# 6 0.0429 0.0287 0.0628 -2.6487 -0.0028 30.2002
#
#
#
# Elastic Compliance Matrix: (Units=1/GPa)
#
#
# Indices 1 2 3 4 5 6 
#
# 1 0.020256 -0.003539 -0.006814 0.000000 0.001983 -0.000011
# 2 -0.003539 0.011305 -0.002531 0.000009 -0.003832 0.000000
# 3 -0.006814 -0.002531 0.013220 -0.000009 0.003185 -0.000016
# 4 0.000000 0.000009 -0.000009 0.041785 -0.000047 0.003665
# 5 0.001983 -0.003832 0.003185 -0.000047 0.039298 -0.000006
# 6 -0.000011 0.000000 -0.000016 0.003665 -0.000006 0.033434
#
#
# Mechanical properties :
#
#
# Convention : Reuss Voigt Hill
#
# Bulk Modulus (GPa) = 52.58867 55.08224 53.83545
# Shear Modulus (GPa) = 26.12293 27.98006 27.05149
#
# Velocity S-wave (km/s) = 3.67705 3.80552 3.74184
# Velocity P-wave (km/s) = 6.72656 6.91511 6.82149
#
# Compressibility (1/GPa) = 0.01901550
#
# Stress axis : x y z
#
# Youngs Moduli (GPa) = 49.36815 88.45272 75.64416
#
# Poissons Ratio (x) = 0.31301 0.51541
# Poissons Ratio (y) = 0.17470 0.19142
# Poissons Ratio (z) = 0.33638 0.22383
#
# Static dielectric constant tensor:
#      x y z
#    x 1.671030 0.000000 0.004050 
#    y 0.000000 1.678710 -0.000020 
#    z 0.004050 -0.000020 1.716570 
# 
# From -- ./inp_files/72097.got.cif
#   From: 2010.05.17/outbox.cif.g08.bks.cpg/sg5_37_cif.got.tgz:72097.got - 2010.06.03 18:56:24.
