data_PCOD9122217
_publ_section_title
;
Structure prediction by ZEFSAII (Michael W. Deem and Ramdas Pophale) SiO2 
 PCOD9122217
Probable space group: C 2
;
_chemical_formula_sum "Si O2"
_cell_formula_units_Z 30
_cell_length_a 11.619163
_cell_length_b 14.508523
_cell_length_c 12.181426
_cell_angle_alpha 90.000000
_cell_angle_beta 133.000904
_cell_angle_gamma 90.000000
_cell_volume 1501.817816
_symmetry_space_group_name_H-M "C 2"
_symmetry_group_IT_number 5
_symmetry_cell_setting 'monoclinic'
loop_
_space_group_symop_operation_xyz
x,y,z
-x,y,-z
1/2+x,1/2+y,z
1/2-x,1/2+y,-z
loop_
_atom_site_type_symbol
_atom_site_label
_atom_site_fract_x
_atom_site_fract_y
_atom_site_fract_z
Si Si1 0.381017 0.135950 0.836689
Si Si2 0.081229 0.863091 0.810381
Si Si3 0.384926 0.712912 0.588995
Si Si4 0.000000 0.536964 0.500000
Si Si5 0.423981 0.528045 0.348366
Si Si6 0.197155 0.297185 0.850993
Si Si7 0.219051 0.375773 0.640950
Si Si8 0.527009 0.185767 0.349229
O O1 0.239590 0.069101 0.718424
O O2 0.303637 0.220101 0.856614
O O3 0.457634 0.164160 0.771293
O O4 0.500000 0.091789 0.000000
O O5 0.905333 0.871124 0.745996
O O6 0.065819 0.781802 0.710210
O O7 0.108696 0.961311 0.773310
O O8 0.209251 0.833703 0.983705
O O9 0.463156 0.615506 0.605176
O O10 0.521324 0.757255 0.753838
O O11 0.354379 0.786656 0.469621
O O12 0.206144 0.696966 0.511234
O O13 0.138467 0.469364 0.548140
O O14 0.951482 0.603852 0.368967
O O15 0.500000 0.475212 0.500000
O O16 0.181911 0.372755 0.745778
#
# Coordination Sequence:
#
# PCOD9122217 Si02
#       8
#     4   4   4   2   4   4   4   4
#     4  11  20  39  65  92 122 163 210 262 305 372
#     4  11  24  38  63  93 126 166 201 258 325 371
#     4  10  19  39  66  92 115 161 213 262 302 369
#     4  12  26  38  62  98 130 158 218 260 324 368
#     4  11  22  37  63  93 124 156 214 255 309 372
#     4  11  18  37  65  94 120 156 214 260 304 372
#     4  11  20  38  64  92 121 159 208 257 311 373
#     4  11  23  41  62  88 130 168 208 259 317 373
#
# _framework density 19.975791999999998
#
# number of rings (size 3 to 8) (size 9 to 14) (size 15 to 20)
#    0.000    1.067    6.667    2.000    0.933    1.067 
#    0.000    0.000    0.000    0.000    0.000    0.000 
#    0.000    0.000    0.000    0.000    0.000    0.000 
#
# Total GULP energy -83647.485810 kJ/mol
# GULP energy per Si atom -5576.499054 kJ/mol
# Density = 1.993033 g / cm^3
# Si number density = 19.975792 Si / 1000 Ang^3
#
#
#
# Elastic Constant Matrix: (Units=GPa)
#
#
# Indices 1 2 3 4 5 6 
#
# 1 14.8526 13.9065 14.4824 0.0000 -3.0729 0.0000
# 2 13.9065 92.5999 39.8868 0.0000 -10.8016 0.0000
# 3 14.4824 39.8868 131.7381 0.0000 7.6780 0.0000
# 4 0.0000 0.0000 0.0000 26.0155 0.0000 -7.6143
# 5 -3.0729 -10.8016 7.6780 0.0000 22.4581 0.0000
# 6 0.0000 0.0000 0.0000 -7.6143 0.0000 19.1021
#
#
#
# Elastic Compliance Matrix: (Units=1/GPa)
#
#
# Indices 1 2 3 4 5 6 
#
# 1 0.084365 -0.008339 -0.007335 0.000000 0.010040 0.000000
# 2 -0.008339 0.014580 -0.003918 0.000000 0.007211 0.000000
# 3 -0.007335 -0.003918 0.009950 0.000000 -0.006290 0.000000
# 4 0.000000 0.000000 0.000000 0.043515 0.000000 0.017346
# 5 0.010040 0.007211 -0.006290 0.000000 0.051520 0.000000
# 6 0.000000 0.000000 0.000000 0.017346 0.000000 0.059264
#
#
# Mechanical properties :
#
#
# Convention : Reuss Voigt Hill
#
# Bulk Modulus (GPa) = 14.34484 41.74912 28.04698
# Shear Modulus (GPa) = 15.35547 24.90947 20.13247
#
# Velocity S-wave (km/s) = 2.77556 3.53510 3.17810
# Velocity P-wave (km/s) = 4.17951 6.13252 5.24767
#
# Compressibility (1/GPa) = 0.06971150
#
# Stress axis : x y z
#
# Youngs Moduli (GPa) = 11.85320 68.58535 100.50218
#
# Poissons Ratio (x) = 0.57195 0.73717
# Poissons Ratio (y) = 0.09885 0.39377
# Poissons Ratio (z) = 0.08694 0.26872
#
# Static dielectric constant tensor:
#      x y z
#    x 1.725530 0.000000 0.011480 
#    y 0.000000 1.750480 0.000000 
#    z 0.011480 0.000000 1.720900 
# 
# From -- ./inp_files/40073.got.cif
#   From: 2010.05.17/outbox.cif.g08.bks.cpg/sg5_21_cif.got.tgz:40073.got - 2010.06.03 18:56:24.
