data_PCOD9122802
_publ_section_title
;
Structure prediction by ZEFSAII (Michael W. Deem and Ramdas Pophale) SiO2 
 PCOD9122802
Probable space group: C 2
;
_chemical_formula_sum "Si O2"
_cell_formula_units_Z 26
_cell_length_a 27.198569
_cell_length_b 5.130221
_cell_length_c 22.298660
_cell_angle_alpha 90.000000
_cell_angle_beta 160.009728
_cell_angle_gamma 90.000000
_cell_volume 1063.677408
_symmetry_space_group_name_H-M "C 2"
_symmetry_group_IT_number 5
_symmetry_cell_setting 'monoclinic'
loop_
_space_group_symop_operation_xyz
x,y,z
-x,y,-z
1/2+x,1/2+y,z
1/2-x,1/2+y,-z
loop_
_atom_site_type_symbol
_atom_site_label
_atom_site_fract_x
_atom_site_fract_y
_atom_site_fract_z
Si Si1 0.290055 0.479910 0.512367
Si Si2 0.879137 0.070200 0.956822
Si Si3 0.934178 0.577030 0.845940
Si Si4 0.159239 0.392569 0.798579
Si Si5 0.705572 0.371799 0.672127
Si Si6 0.964585 0.878865 0.292199
Si Si7 0.500000 0.753553 0.500000
O O1 0.272359 0.694526 0.543791
O O2 0.190366 0.599367 0.346348
O O3 0.451078 0.447050 0.671753
O O4 0.755942 0.116484 0.765366
O O5 0.806226 0.970512 0.934346
O O6 0.957797 0.348705 0.051549
O O7 0.989386 0.852765 0.062090
O O8 0.849223 0.489533 0.807714
O O9 0.117442 0.606595 0.799774
O O10 0.044891 0.400936 0.611845
O O11 0.138924 0.108473 0.803469
O O12 0.591813 0.349194 0.487905
O O13 0.632560 0.561597 0.636571
#
# Coordination Sequence:
#
# PCOD9122802 Si02
#       7
#     4   4   4   4   4   4   2
#     4  11  23  45  73  93 115 154 209 276 326 357
#     4  12  23  39  60  89 134 175 199 239 306 381
#     4  11  26  41  61  93 127 163 210 255 309 381
#     4  11  21  36  58  87 126 166 203 247 295 352
#     4  10  22  38  58  89 128 169 207 246 292 356
#     4  10  22  39  63  93 120 155 213 260 296 353
#     4  10  20  36  58  88 124 174 224 248 280 352
#
# _framework density 24.443498999999999
#
# number of rings (size 3 to 8) (size 9 to 14) (size 15 to 20)
#    0.000    1.231    0.000    6.923    0.000   12.923 
#    0.000    0.000    0.000   18.462    0.000    0.000 
#    0.000    0.000    0.000    0.000    0.000    0.000 
#
# Total GULP energy -72840.753941 kJ/mol
# GULP energy per Si atom -5603.134919 kJ/mol
# Density = 2.438786 g / cm^3
# Si number density = 24.443499 Si / 1000 Ang^3
#
#
#
# Elastic Constant Matrix: (Units=GPa)
#
#
# Indices 1 2 3 4 5 6 
#
# 1 84.6296 18.5243 24.6104 0.0000 29.6204 0.0000
# 2 18.5243 111.7056 14.9813 0.0006 10.6665 -0.0004
# 3 24.6104 14.9813 63.7390 0.0000 11.0032 -0.0001
# 4 0.0000 0.0006 0.0000 37.2358 0.0000 9.1459
# 5 29.6204 10.6665 11.0032 0.0000 43.1525 -0.0002
# 6 0.0000 -0.0004 -0.0001 9.1459 -0.0002 28.3932
#
#
#
# Elastic Compliance Matrix: (Units=1/GPa)
#
#
# Indices 1 2 3 4 5 6 
#
# 1 0.016962 -0.001236 -0.004499 0.000000 -0.010190 0.000000
# 2 -0.001236 0.009471 -0.001560 0.000000 -0.001095 0.000000
# 3 -0.004499 -0.001560 0.017985 0.000000 -0.001112 0.000000
# 4 0.000000 0.000000 0.000000 0.029163 0.000000 -0.009394
# 5 -0.010190 -0.001095 -0.001112 0.000000 0.030722 0.000000
# 6 0.000000 0.000000 0.000000 -0.009394 0.000000 0.038246
#
#
# Mechanical properties :
#
#
# Convention : Reuss Voigt Hill
#
# Bulk Modulus (GPa) = 33.52745 41.81182 37.66963
# Shear Modulus (GPa) = 29.92551 35.22017 32.57284
#
# Velocity S-wave (km/s) = 3.50276 3.80001 3.65441
# Velocity P-wave (km/s) = 5.48682 6.03292 5.76634
#
# Compressibility (1/GPa) = 0.02982631
#
# Stress axis : x y z
#
# Youngs Moduli (GPa) = 58.95631 105.58734 55.60246
#
# Poissons Ratio (x) = 0.13054 0.25018
# Poissons Ratio (y) = 0.07289 0.08672
# Poissons Ratio (z) = 0.26527 0.16469
#
# Static dielectric constant tensor:
#      x y z
#    x 1.944530 0.000000 -0.037750 
#    y 0.000000 1.873040 0.000000 
#    z -0.037750 0.000000 1.986040 
# 
# From -- ./inp_files/69885.got.cif
#   From: 2010.05.17/outbox.cif.g08.bks.cpg/sg5_35_cif.got.tgz:69885.got - 2010.06.03 18:56:24.
