data_PCOD9122863
_publ_section_title
;
Structure prediction by ZEFSAII (Michael W. Deem and Ramdas Pophale) SiO2 
 PCOD9122863
Probable space group: C 2
;
_chemical_formula_sum "Si O2"
_cell_formula_units_Z 24
_cell_length_a 21.892122
_cell_length_b 5.028938
_cell_length_c 9.208853
_cell_angle_alpha 90.000000
_cell_angle_beta 119.999652
_cell_angle_gamma 90.000000
_cell_volume 878.014799
_symmetry_space_group_name_H-M "C 2"
_symmetry_group_IT_number 5
_symmetry_cell_setting 'monoclinic'
loop_
_space_group_symop_operation_xyz
x,y,z
-x,y,-z
1/2+x,1/2+y,z
1/2-x,1/2+y,-z
loop_
_atom_site_type_symbol
_atom_site_label
_atom_site_fract_x
_atom_site_fract_y
_atom_site_fract_z
Si Si1 0.500000 0.647161 0.500000
Si Si2 0.215381 0.278200 0.645415
Si Si3 0.640295 0.622275 0.848490
Si Si4 0.034322 0.433739 0.284603
Si Si5 0.335014 0.278172 0.586355
Si Si6 0.610098 0.134167 0.954786
Si Si7 0.500000 0.502073 0.000000
O O1 0.561175 0.548452 0.685966
O O2 0.552501 0.804070 0.457539
O O3 0.297619 0.232930 0.698167
O O4 0.177586 0.071836 0.488088
O O5 0.188606 0.218096 0.773584
O O6 0.199934 0.575823 0.571729
O O7 0.661504 0.338610 0.938228
O O8 0.642995 0.835653 0.986347
O O9 0.085942 0.674724 0.316467
O O10 0.956904 0.542682 0.222293
O O11 0.030436 0.213778 0.154063
O O12 0.561793 0.313667 0.008245
#
# Coordination Sequence:
#
# PCOD9122863 Si02
#       7
#     2   4   4   4   4   4   2
#     4  10  20  36  60  94 130 160 200 266 322 376
#     4  10  21  39  59  96 133 169 207 269 329 385
#     4  11  22  36  60  93 130 163 209 258 329 378
#     4  11  24  41  64  97 134 168 217 263 329 384
#     4  10  22  37  62  92 133 172 212 262 327 391
#     4  11  24  38  60  93 122 174 205 265 317 392
#     4  12  24  46  60  96 136 180 218 262 332 388
#
# _framework density 27.334392000000001
#
# number of rings (size 3 to 8) (size 9 to 14) (size 15 to 20)
#    0.000    1.333    5.000    1.500    7.000    0.667 
#    0.000    0.000    0.000    0.000    8.667    0.000 
#    0.000    0.000    0.000    0.000    0.000    0.000 
#
# Total GULP energy -66935.750199 kJ/mol
# GULP energy per Si atom -5577.979183 kJ/mol
# Density = 2.727218 g / cm^3
# Si number density = 27.334392 Si / 1000 Ang^3
#
#
#
# Elastic Constant Matrix: (Units=GPa)
#
#
# Indices 1 2 3 4 5 6 
#
# 1 95.8713 -1.9329 0.5288 0.0000 -12.0638 0.0000
# 2 -1.9329 130.3440 24.7134 0.0000 -9.2490 0.0000
# 3 0.5288 24.7134 65.0868 0.0000 -21.2937 0.0000
# 4 0.0000 0.0000 0.0000 24.9184 0.0000 -7.6393
# 5 -12.0638 -9.2490 -21.2937 0.0000 46.7865 0.0000
# 6 0.0000 0.0000 0.0000 -7.6393 0.0000 28.3145
#
#
#
# Elastic Compliance Matrix: (Units=1/GPa)
#
#
# Indices 1 2 3 4 5 6 
#
# 1 0.010838 0.000222 0.000888 0.000000 0.003243 0.000000
# 2 0.000222 0.008274 -0.003043 0.000000 0.000308 0.000000
# 3 0.000888 -0.003043 0.019258 0.000000 0.008392 0.000000
# 4 0.000000 0.000000 0.000000 0.043750 0.000000 0.011804
# 5 0.003243 0.000308 0.008392 0.000000 0.026090 0.000000
# 6 0.000000 0.000000 0.000000 0.011804 0.000000 0.038502
#
#
# Mechanical properties :
#
#
# Convention : Reuss Voigt Hill
#
# Bulk Modulus (GPa) = 28.97996 37.54676 33.26336
# Shear Modulus (GPa) = 30.84932 37.87006 34.35969
#
# Velocity S-wave (km/s) = 3.36309 3.72618 3.54928
# Velocity P-wave (km/s) = 5.07007 5.68142 5.38442
#
# Compressibility (1/GPa) = 0.03450660
#
# Stress axis : x y z
#
# Youngs Moduli (GPa) = 92.26530 120.85961 51.92706
#
# Poissons Ratio (x) = -0.02688 -0.04614
# Poissons Ratio (y) = -0.02052 0.15799
# Poissons Ratio (z) = -0.08197 0.36773
#
# Static dielectric constant tensor:
#      x y z
#    x 2.201620 0.000000 0.046860 
#    y 0.000000 2.125090 0.000000 
#    z 0.046860 0.000000 2.240810 
# 
# From -- ./inp_files/30351.got.cif
#   From: 2010.05.17/outbox.cif.g08.bks.cpg/sg5_16_cif.got.tgz:30351.got - 2010.06.03 18:56:24.
