data_PCOD9122672
_publ_section_title
;
Structure prediction by ZEFSAII (Michael W. Deem and Ramdas Pophale) SiO2 
 PCOD9122672
Probable space group: C 2
;
_chemical_formula_sum "Si O2"
_cell_formula_units_Z 28
_cell_length_a 17.144455
_cell_length_b 5.828648
_cell_length_c 14.344334
_cell_angle_alpha 90.000000
_cell_angle_beta 69.078243
_cell_angle_gamma 90.000000
_cell_volume 1338.908299
_symmetry_space_group_name_H-M "C 2"
_symmetry_group_IT_number 5
_symmetry_cell_setting 'monoclinic'
loop_
_space_group_symop_operation_xyz
x,y,z
-x,y,-z
1/2+x,1/2+y,z
1/2-x,1/2+y,-z
loop_
_atom_site_type_symbol
_atom_site_label
_atom_site_fract_x
_atom_site_fract_y
_atom_site_fract_z
Si Si1 0.676778 0.313690 0.829601
Si Si2 0.546796 0.180150 0.238699
Si Si3 0.000796 0.289507 0.609876
Si Si4 0.970344 0.447360 0.111367
Si Si5 0.151264 0.051713 0.217810
Si Si6 0.705628 0.580449 0.001643
Si Si7 0.092326 0.066268 0.719930
O O1 0.669346 0.430731 0.731213
O O2 0.596388 0.150544 0.879321
O O3 0.758842 0.156945 0.800891
O O4 0.678580 0.506102 0.909968
O O5 0.635406 0.279636 0.232559
O O6 0.483278 0.385860 0.246596
O O7 0.506870 0.036686 0.339133
O O8 0.546431 0.045949 0.141583
O O9 0.000000 0.288288 0.500000
O O10 0.082740 0.172029 0.621161
O O11 0.917549 0.167775 0.686917
O O12 0.927439 0.266804 0.198327
O O13 0.000000 0.353600 0.000000
O O14 0.137423 0.094408 0.113059
O O15 0.745562 0.839189 0.987965
#
# Coordination Sequence:
#
# PCOD9122672 Si02
#       7
#     4   4   4   4   4   4   4
#     4  10  22  37  62  94 136 179 212 270 329 401
#     4   9  20  37  57  88 120 163 220 271 328 394
#     4  10  22  42  69  92 118 166 226 288 350 407
#     4  10  20  35  59  87 130 179 218 259 323 398
#     4  10  22  38  63  94 131 169 221 275 329 396
#     4  10  23  37  58  95 141 185 222 262 329 401
#     4   9  21  38  60  88 124 161 215 265 337 400
#
# _framework density 20.912558000000001
#
# number of rings (size 3 to 8) (size 9 to 14) (size 15 to 20)
#    0.000    2.286    0.000    0.857    8.000    8.000 
#    7.714    0.000    9.429    0.000    0.000    0.000 
#    0.000    0.000    0.000    0.000    0.000    0.000 
#
# Total GULP energy -77984.527840 kJ/mol
# GULP energy per Si atom -5570.323417 kJ/mol
# Density = 2.086496 g / cm^3
# Si number density = 20.912558 Si / 1000 Ang^3
#
#
#
# Elastic Constant Matrix: (Units=GPa)
#
#
# Indices 1 2 3 4 5 6 
#
# 1 94.4628 44.7000 43.7973 0.0000 24.0314 0.0000
# 2 44.7000 82.0834 28.2014 0.0000 17.5987 0.0000
# 3 43.7973 28.2014 122.3706 0.0000 29.7744 0.0000
# 4 0.0000 0.0000 0.0000 10.2200 0.0000 -0.3537
# 5 24.0314 17.5987 29.7744 0.0000 34.1633 0.0000
# 6 0.0000 0.0000 0.0000 -0.3537 0.0000 40.5253
#
#
#
# Elastic Compliance Matrix: (Units=1/GPa)
#
#
# Indices 1 2 3 4 5 6 
#
# 1 0.016632 -0.006828 -0.003031 0.000000 -0.005540 0.000000
# 2 -0.006828 0.016828 -0.000627 0.000000 -0.003320 0.000000
# 3 -0.003031 -0.000627 0.011173 0.000000 -0.007283 0.000000
# 4 0.000000 0.000000 0.000000 0.097877 0.000000 0.000854
# 5 -0.005540 -0.003320 -0.007283 0.000000 0.041226 0.000000
# 6 0.000000 0.000000 0.000000 0.000854 0.000000 0.024683
#
#
# Mechanical properties :
#
#
# Convention : Reuss Voigt Hill
#
# Bulk Modulus (GPa) = 42.26249 59.14601 50.70425
# Shear Modulus (GPa) = 21.07236 29.12961 25.10098
#
# Velocity S-wave (km/s) = 3.17778 3.73624 3.46827
# Velocity P-wave (km/s) = 5.80667 6.85249 6.35114
#
# Compressibility (1/GPa) = 0.02366165
#
# Stress axis : x y z
#
# Youngs Moduli (GPa) = 60.12493 59.42455 89.50015
#
# Poissons Ratio (x) = 0.40575 0.27128
# Poissons Ratio (y) = 0.41053 0.05609
# Poissons Ratio (z) = 0.18224 0.03724
#
# Static dielectric constant tensor:
#      x y z
#    x 1.823830 0.000000 0.019810 
#    y 0.000000 1.903720 0.000000 
#    z 0.019810 0.000000 1.709880 
# 
# From -- ./inp_files/55216.got.cif
#   From: 2010.05.17/outbox.cif.g08.bks.cpg/sg5_28_cif.got.tgz:55216.got - 2010.06.03 18:56:24.
