data_PCOD9122749
_publ_section_title
;
Structure prediction by ZEFSAII (Michael W. Deem and Ramdas Pophale) SiO2 
 PCOD9122749
Probable space group: C 2
;
_chemical_formula_sum "Si O2"
_cell_formula_units_Z 32
_cell_length_a 10.942155
_cell_length_b 8.902653
_cell_length_c 16.460450
_cell_angle_alpha 90.000000
_cell_angle_beta 89.176518
_cell_angle_gamma 90.000000
_cell_volume 1603.316106
_symmetry_space_group_name_H-M "C 2"
_symmetry_group_IT_number 5
_symmetry_cell_setting 'monoclinic'
loop_
_space_group_symop_operation_xyz
x,y,z
-x,y,-z
1/2+x,1/2+y,z
1/2-x,1/2+y,-z
loop_
_atom_site_type_symbol
_atom_site_label
_atom_site_fract_x
_atom_site_fract_y
_atom_site_fract_z
Si Si1 0.375077 0.072230 0.460135
Si Si2 0.813243 0.167148 0.213535
Si Si3 0.368947 0.933124 0.828804
Si Si4 0.036232 0.371860 0.685669
Si Si5 0.227567 0.890916 0.087246
Si Si6 0.376196 0.758289 0.549811
Si Si7 0.540527 0.649359 0.090128
Si Si8 0.133299 0.624113 0.006151
O O1 0.500000 0.141586 0.500000
O O2 0.249409 0.165753 0.456510
O O3 0.412258 0.002353 0.372381
O O4 0.351079 0.922818 0.513180
O O5 0.738187 0.013367 0.221412
O O6 0.737239 0.301694 0.171048
O O7 0.866950 0.241534 0.293859
O O8 0.921501 0.137714 0.147886
O O9 0.368697 0.030239 0.910652
O O10 0.487481 0.939565 0.770364
O O11 0.370909 0.763301 0.861694
O O12 0.924564 0.289472 0.640286
O O13 0.107134 0.990924 0.082227
O O14 0.224582 0.761245 0.018982
O O15 0.333478 0.009033 0.065175
O O16 0.500000 0.702355 0.500000
O O17 0.500000 0.700258 0.000000
O O18 0.000000 0.690361 0.000000
#
# Coordination Sequence:
#
# PCOD9122749 Si02
#       8
#     4   4   4   4   4   4   4   4
#     4   9  20  39  63  91 120 150 187 232 277 333
#     4  10  22  38  54  78 113 148 185 233 284 340
#     4  10  20  36  55  76 109 149 185 229 285 340
#     4   9  20  36  57  84 118 150 183 227 279 338
#     4  11  23  35  54  79 103 139 190 241 288 338
#     4   9  20  39  63  90 119 151 189 231 278 333
#     4  11  21  36  55  76 104 143 191 244 294 338
#     4  11  21  35  54  76 102 138 185 237 286 332
#
# _framework density 19.958634
#
# number of rings (size 3 to 8) (size 9 to 14) (size 15 to 20)
#    0.000    2.250    0.000    5.250    0.000    7.500 
#    0.000    3.750    0.000    0.000    0.000    0.000 
#    0.000    0.000    0.000    0.000    0.000    0.000 
#
# Total GULP energy -89130.466191 kJ/mol
# GULP energy per Si atom -5570.654137 kJ/mol
# Density = 1.991321 g / cm^3
# Si number density = 19.958634 Si / 1000 Ang^3
#
#
#
# Elastic Constant Matrix: (Units=GPa)
#
#
# Indices 1 2 3 4 5 6 
#
# 1 106.2640 48.2178 2.6091 0.0000 9.1645 0.0000
# 2 48.2178 91.6334 14.1734 0.0000 8.6777 0.0000
# 3 2.6091 14.1734 37.8020 0.0000 6.4165 0.0000
# 4 0.0000 0.0000 0.0000 12.7316 0.0000 7.1434
# 5 9.1645 8.6777 6.4165 0.0000 16.5946 0.0000
# 6 0.0000 0.0000 0.0000 7.1434 0.0000 54.6689
#
#
#
# Elastic Compliance Matrix: (Units=1/GPa)
#
#
# Indices 1 2 3 4 5 6 
#
# 1 0.012760 -0.006657 0.002376 0.000000 -0.004484 0.000000
# 2 -0.006657 0.015409 -0.004896 0.000000 -0.002488 0.000000
# 3 0.002376 -0.004896 0.029874 0.000000 -0.010304 0.000000
# 4 0.000000 0.000000 0.000000 0.084758 0.000000 -0.011075
# 5 -0.004484 -0.002488 -0.010304 0.000000 0.068022 0.000000
# 6 0.000000 0.000000 0.000000 -0.011075 0.000000 0.019739
#
#
# Mechanical properties :
#
#
# Convention : Reuss Voigt Hill
#
# Bulk Modulus (GPa) = 25.19507 40.63334 32.91420
# Shear Modulus (GPa) = 19.07344 28.17897 23.62621
#
# Velocity S-wave (km/s) = 3.09471 3.76156 3.44431
# Velocity P-wave (km/s) = 5.04189 6.26648 5.68724
#
# Compressibility (1/GPa) = 0.03969030
#
# Stress axis : x y z
#
# Youngs Moduli (GPa) = 78.37251 64.89761 33.47389
#
# Poissons Ratio (x) = 0.43203 -0.07955
# Poissons Ratio (y) = 0.52173 0.16387
# Poissons Ratio (z) = -0.18625 0.31771
#
# Static dielectric constant tensor:
#      x y z
#    x 1.778190 0.000000 0.020660 
#    y 0.000000 1.689650 0.000000 
#    z 0.020660 0.000000 1.732910 
# 
# From -- ./inp_files/60213.got.cif
#   From: 2010.05.17/outbox.cif.g08.bks.cpg/sg5_31_cif.got.tgz:60213.got - 2010.06.03 18:56:24.
