data_PCOD9122855
_publ_section_title
;
Structure prediction by ZEFSAII (Michael W. Deem and Ramdas Pophale) SiO2 
 PCOD9122855
Probable space group: C 2
;
_chemical_formula_sum "Si O2"
_cell_formula_units_Z 30
_cell_length_a 5.144707
_cell_length_b 30.686938
_cell_length_c 10.098349
_cell_angle_alpha 90.000000
_cell_angle_beta 109.916043
_cell_angle_gamma 90.000000
_cell_volume 1498.930480
_symmetry_space_group_name_H-M "C 2"
_symmetry_group_IT_number 5
_symmetry_cell_setting 'monoclinic'
loop_
_space_group_symop_operation_xyz
x,y,z
-x,y,-z
1/2+x,1/2+y,z
1/2-x,1/2+y,-z
loop_
_atom_site_type_symbol
_atom_site_label
_atom_site_fract_x
_atom_site_fract_y
_atom_site_fract_z
Si Si1 0.748110 0.021050 0.741520
Si Si2 0.728326 0.641931 0.652339
Si Si3 0.206645 0.565758 0.152107
Si Si4 0.581127 0.227536 0.164521
Si Si5 0.384037 0.922049 0.330075
Si Si6 0.500000 0.079371 0.500000
Si Si7 0.915801 0.285427 0.835913
Si Si8 0.617599 0.369646 0.669765
O O1 0.485076 0.038536 0.778700
O O2 0.728946 0.045486 0.594332
O O3 0.040182 0.035965 0.850126
O O4 0.725461 0.969497 0.725020
O O5 0.500000 0.649269 0.500000
O O6 0.659129 0.608687 0.758735
O O7 0.819985 0.686780 0.732832
O O8 0.948852 0.612853 0.610443
O O9 0.000000 0.579120 0.000000
O O10 0.310683 0.247663 0.184749
O O11 0.818477 0.264583 0.190496
O O12 0.500000 0.214549 0.000000
O O13 0.500000 0.924532 0.500000
O O14 0.643726 0.906254 0.289725
O O15 0.139153 0.886335 0.287411
O O16 0.765614 0.325391 0.739058
O O17 0.000000 0.298820 0.000000
O O18 0.500000 0.364853 0.500000
#
# Coordination Sequence:
#
# PCOD9122855 Si02
#       8
#     4   4   4   4   4   2   4   4
#     4  11  21  39  63  86 124 161 208 245 298 367
#     4  11  23  39  61  91 123 153 209 251 300 357
#     4  11  24  40  59  85 124 167 202 251 302 359
#     4  10  23  40  63  87 119 161 200 245 301 364
#     4  10  20  36  60  91 119 156 195 250 304 358
#     4  10  22  38  60  94 122 158 206 246 306 344
#     4  10  22  42  62  86 118 161 200 239 305 368
#     4  10  21  37  61  90 120 149 199 247 304 355
#
# _framework density 20.01427
#
# number of rings (size 3 to 8) (size 9 to 14) (size 15 to 20)
#    0.000    1.600    2.000    2.400    1.867    1.067 
#    0.000    6.667    0.000    0.000    0.000    0.000 
#    0.000    0.000    0.000    0.000    0.000    0.000 
#
# Total GULP energy -83687.412782 kJ/mol
# GULP energy per Si atom -5579.160852 kJ/mol
# Density = 1.996872 g / cm^3
# Si number density = 20.014270 Si / 1000 Ang^3
#
#
#
# Elastic Constant Matrix: (Units=GPa)
#
#
# Indices 1 2 3 4 5 6 
#
# 1 65.2877 1.2827 18.2182 0.0000 18.9649 0.0000
# 2 1.2827 96.9792 61.6226 0.0000 16.3021 0.0000
# 3 18.2182 61.6226 89.2876 0.0000 27.0235 0.0000
# 4 0.0000 0.0000 0.0000 28.8292 0.0000 9.3847
# 5 18.9649 16.3021 27.0235 0.0000 27.4430 0.0000
# 6 0.0000 0.0000 0.0000 9.3847 0.0000 21.9576
#
#
#
# Elastic Compliance Matrix: (Units=1/GPa)
#
#
# Indices 1 2 3 4 5 6 
#
# 1 0.019818 0.003531 -0.002423 0.000000 -0.013407 0.000000
# 2 0.003531 0.019092 -0.013855 0.000000 -0.000138 0.000000
# 3 -0.002423 -0.013855 0.026011 0.000000 -0.015708 0.000000
# 4 0.000000 0.000000 0.000000 0.040293 0.000000 -0.017221
# 5 -0.013407 -0.000138 -0.015708 0.000000 0.061255 0.000000
# 6 0.000000 0.000000 0.000000 -0.017221 0.000000 0.052903
#
#
# Mechanical properties :
#
#
# Convention : Reuss Voigt Hill
#
# Bulk Modulus (GPa) = 25.36334 45.97795 35.67065
# Shear Modulus (GPa) = 19.37932 27.00801 23.19367
#
# Velocity S-wave (km/s) = 3.11509 3.67745 3.40789
# Velocity P-wave (km/s) = 5.06345 6.40734 5.77462
#
# Compressibility (1/GPa) = 0.03942699
#
# Stress axis : x y z
#
# Youngs Moduli (GPa) = 50.45871 52.37839 38.44594
#
# Poissons Ratio (x) = -0.18496 0.09315
# Poissons Ratio (y) = -0.17818 0.53267
# Poissons Ratio (z) = 0.12226 0.72571
#
# Static dielectric constant tensor:
#      x y z
#    x 1.744210 0.000000 -0.012050 
#    y 0.000000 1.657690 0.000000 
#    z -0.012050 0.000000 1.739250 
# 
# From -- ./inp_files/34408.got.cif
#   From: 2010.05.17/outbox.cif.g08.bks.cpg/sg5_18_cif.got.tgz:34408.got - 2010.06.03 18:56:24.
