data_PCOD9122650
_publ_section_title
;
Structure prediction by ZEFSAII (Michael W. Deem and Ramdas Pophale) SiO2 
 PCOD9122650
Probable space group: C 2
;
_chemical_formula_sum "Si O2"
_cell_formula_units_Z 32
_cell_length_a 13.761609
_cell_length_b 22.115598
_cell_length_c 14.413781
_cell_angle_alpha 90.000000
_cell_angle_beta 160.190784
_cell_angle_gamma 90.000000
_cell_volume 1486.632494
_symmetry_space_group_name_H-M "C 2"
_symmetry_group_IT_number 5
_symmetry_cell_setting 'monoclinic'
loop_
_space_group_symop_operation_xyz
x,y,z
-x,y,-z
1/2+x,1/2+y,z
1/2-x,1/2+y,-z
loop_
_atom_site_type_symbol
_atom_site_label
_atom_site_fract_x
_atom_site_fract_y
_atom_site_fract_z
Si Si1 0.385969 0.041410 0.034163
Si Si2 0.932561 0.201376 0.652648
Si Si3 0.318755 0.489732 0.756167
Si Si4 0.732390 0.569114 0.467674
Si Si5 0.907952 0.860591 0.021333
Si Si6 0.321231 0.914628 0.753409
Si Si7 0.051053 0.674835 0.148440
Si Si8 0.293876 0.833747 0.541305
O O1 0.475810 0.048430 0.221978
O O2 0.544692 0.101461 0.137905
O O3 0.509063 0.977529 0.112532
O O4 0.044701 0.049437 0.718571
O O5 0.791224 0.140808 0.565724
O O6 0.827349 0.198394 0.450452
O O7 0.836401 0.264205 0.609044
O O8 0.273534 0.193500 0.959011
O O9 0.292572 0.534155 0.648547
O O10 0.495592 0.430135 0.889327
O O11 0.000000 0.471081 0.500000
O O12 0.500000 0.520154 0.000000
O O13 0.042204 0.834967 0.238019
O O14 0.571075 0.852645 0.730433
O O15 0.000000 0.838841 0.000000
O O16 0.289365 0.876549 0.628601
O O17 0.000000 0.927072 0.500000
O O18 0.500000 0.884797 0.000000
O O19 0.000000 0.698263 0.000000
#
# Coordination Sequence:
#
# PCOD9122650 Si02
#       8
#     4   4   4   4   4   4   4   4
#     4  10  20  36  60  85 115 149 186 240 298 354
#     4  10  23  37  56  81 113 154 196 229 279 350
#     4  11  21  36  58  87 115 144 188 243 294 351
#     4  10  20  38  58  84 115 151 188 236 297 349
#     4  11  23  39  63  92 121 156 196 242 302 365
#     4  12  25  41  62  90 119 159 206 249 296 350
#     4  10  20  35  57  85 115 145 182 234 292 351
#     4  12  24  42  61  86 124 164 200 247 291 344
#
# _framework density 21.525157
#
# number of rings (size 3 to 8) (size 9 to 14) (size 15 to 20)
#    0.000    1.250    0.000    7.125    0.000    5.000 
#    0.000    1.250    0.000    0.000    0.000    0.000 
#    0.000    0.000    0.000    0.000    0.000    0.000 
#
# Total GULP energy -89388.713310 kJ/mol
# GULP energy per Si atom -5586.794582 kJ/mol
# Density = 2.147617 g / cm^3
# Si number density = 21.525157 Si / 1000 Ang^3
#
#
#
# Elastic Constant Matrix: (Units=GPa)
#
#
# Indices 1 2 3 4 5 6 
#
# 1 47.0120 34.3732 -2.2505 -0.0002 -12.4179 0.0061
# 2 34.3732 121.8803 -2.1489 -0.0033 -10.5376 0.0036
# 3 -2.2505 -2.1489 85.1742 -0.0096 -5.9119 0.0072
# 4 -0.0002 -0.0033 -0.0096 -11.8855 -0.0012 4.7736
# 5 -12.4179 -10.5376 -5.9119 -0.0012 36.7502 0.0026
# 6 0.0061 0.0036 0.0072 4.7736 0.0026 -13.4245
#
#
#
# Elastic Compliance Matrix: (Units=1/GPa)
#
#
# Indices 1 2 3 4 5 6 
#
# 1 0.028816 -0.007434 0.001114 0.000006 0.007785 0.000015
# 2 -0.007434 0.010344 0.000097 -0.000004 0.000470 -0.000002
# 3 0.001114 0.000097 0.011934 -0.000008 0.002324 0.000005
# 4 0.000006 -0.000004 -0.000008 -0.098154 -0.000001 -0.034902
# 5 0.007785 0.000470 0.002324 -0.000001 0.030350 0.000010
# 6 0.000015 -0.000002 0.000005 -0.034902 0.000010 -0.086902
#
#
# Mechanical properties :
#
#
# Convention : Reuss Voigt Hill
#
# Bulk Modulus (GPa) = 25.87454 34.89046 30.38250
# Shear Modulus (GPa) = -63.87047 17.22756 -23.32145
#
# Velocity S-wave (km/s) = -5.45315 2.83211 -3.29515
# Velocity P-wave (km/s) = 5.25381 5.19026 0.57607
#
# Compressibility (1/GPa) = 0.03864802
#
# Stress axis : x y z
#
# Youngs Moduli (GPa) = 34.70254 96.67716 83.79532
#
# Poissons Ratio (x) = 0.71872 -0.09336
# Poissons Ratio (y) = 0.25799 -0.00814
# Poissons Ratio (z) = -0.03866 -0.00939
#
# Static dielectric constant tensor:
#      x y z
#    x 1.853980 0.000000 -0.033590 
#    y 0.000000 1.792380 0.000000 
#    z -0.033590 0.000000 1.798260 
# 
# From -- ./inp_files/55028.got.cif
#   From: 2010.05.17/outbox.cif.g08.bks.cpg/sg5_28_cif.got.tgz:55028.got - 2010.06.03 18:56:24.
