data_PCOD9122172
_publ_section_title
;
Structure prediction by ZEFSAII (Michael W. Deem and Ramdas Pophale) SiO2 
 PCOD9122172
Probable space group: C 2
;
_chemical_formula_sum "Si O2"
_cell_formula_units_Z 24
_cell_length_a 6.291179
_cell_length_b 13.406780
_cell_length_c 16.505503
_cell_angle_alpha 90.000000
_cell_angle_beta 60.779392
_cell_angle_gamma 90.000000
_cell_volume 1214.992029
_symmetry_space_group_name_H-M "C 2"
_symmetry_group_IT_number 5
_symmetry_cell_setting 'monoclinic'
loop_
_space_group_symop_operation_xyz
x,y,z
-x,y,-z
1/2+x,1/2+y,z
1/2-x,1/2+y,-z
loop_
_atom_site_type_symbol
_atom_site_label
_atom_site_fract_x
_atom_site_fract_y
_atom_site_fract_z
Si Si1 0.012921 0.657600 0.585803
Si Si2 0.763993 0.254461 0.090651
Si Si3 0.981666 0.283121 0.327276
Si Si4 0.000000 0.873368 0.000000
Si Si5 0.098066 0.616881 0.746094
Si Si6 0.000000 0.290439 0.500000
Si Si7 0.496856 0.914417 0.835357
O O1 0.028728 0.595469 0.665421
O O2 0.259959 0.722034 0.539630
O O3 0.000000 0.605691 0.500000
O O4 0.784894 0.733631 0.633294
O O5 0.623817 0.175378 0.170929
O O6 0.858277 0.343800 0.130148
O O7 0.588444 0.302309 0.056255
O O8 0.000000 0.212814 0.000000
O O9 0.036491 0.353450 0.241633
O O10 0.172493 0.191317 0.293656
O O11 0.004545 0.339147 0.410028
O O12 0.233509 0.933759 0.924921
O O13 0.135455 0.515471 0.787910
#
# Coordination Sequence:
#
# PCOD9122172 Si02
#       7
#     4   4   4   2   4   2   4
#     4   9  18  37  65  89 124 162 194 249 305 353
#     4  10  22  42  59  86 124 156 205 260 300 358
#     4  10  19  39  61  89 126 157 202 253 299 356
#     4  10  22  44  60  84 130 158 198 264 300 352
#     4  11  22  38  64  90 120 164 203 247 305 359
#     4   8  18  34  66  88 118 166 194 246 310 354
#     4  11  23  39  62  92 120 161 209 247 299 366
#
# _framework density 19.753216999999999
#
# number of rings (size 3 to 8) (size 9 to 14) (size 15 to 20)
#    0.000    2.000    3.333    0.000    1.167    1.333 
#    6.000    0.000   29.333    0.000    0.000    0.000 
#    0.000    0.000    0.000    0.000    0.000    0.000 
#
# Total GULP energy -66926.478298 kJ/mol
# GULP energy per Si atom -5577.206525 kJ/mol
# Density = 1.970826 g / cm^3
# Si number density = 19.753217 Si / 1000 Ang^3
#
#
#
# Elastic Constant Matrix: (Units=GPa)
#
#
# Indices 1 2 3 4 5 6 
#
# 1 88.1952 19.1838 43.8688 0.0000 4.7367 0.0000
# 2 19.1838 51.4195 34.2438 0.0000 0.1418 0.0000
# 3 43.8688 34.2438 130.5911 0.0000 13.7335 0.0000
# 4 0.0000 0.0000 0.0000 7.0801 0.0000 1.1128
# 5 4.7367 0.1418 13.7335 0.0000 42.7401 0.0000
# 6 0.0000 0.0000 0.0000 1.1128 0.0000 11.4721
#
#
#
# Elastic Compliance Matrix: (Units=1/GPa)
#
#
# Indices 1 2 3 4 5 6 
#
# 1 0.013878 -0.002532 -0.003971 0.000000 -0.000254 0.000000
# 2 -0.002532 0.024187 -0.005706 0.000000 0.002034 0.000000
# 3 -0.003971 -0.005706 0.010805 0.000000 -0.003013 0.000000
# 4 0.000000 0.000000 0.000000 0.143428 0.000000 -0.013912
# 5 -0.000254 0.002034 -0.003013 0.000000 0.024387 0.000000
# 6 0.000000 0.000000 0.000000 -0.013912 0.000000 0.088518
#
#
# Mechanical properties :
#
#
# Convention : Reuss Voigt Hill
#
# Bulk Modulus (GPa) = 40.89774 51.64429 46.27102
# Shear Modulus (GPa) = 14.80293 23.78574 19.29433
#
# Velocity S-wave (km/s) = 2.74047 3.47384 3.12872
# Velocity P-wave (km/s) = 5.54643 6.50320 6.04378
#
# Compressibility (1/GPa) = 0.02445123
#
# Stress axis : x y z
#
# Youngs Moduli (GPa) = 72.05499 41.34503 92.55395
#
# Poissons Ratio (x) = 0.10470 0.36757
# Poissons Ratio (y) = 0.18246 0.52807
# Poissons Ratio (z) = 0.28616 0.23589
#
# Static dielectric constant tensor:
#      x y z
#    x 1.683440 0.000000 0.014640 
#    y 0.000000 1.632480 0.000000 
#    z 0.014640 0.000000 1.736450 
# 
# From -- ./inp_files/48824.got.cif
#   From: 2010.05.17/outbox.cif.g08.bks.cpg/sg5_25_cif.got.tgz:48824.got - 2010.06.03 18:56:24.
