data_PCOD9122259
_publ_section_title
;
Structure prediction by ZEFSAII (Michael W. Deem and Ramdas Pophale) SiO2 
 PCOD9122259
Probable space group: C 2
;
_chemical_formula_sum "Si O2"
_cell_formula_units_Z 20
_cell_length_a 11.501750
_cell_length_b 6.877530
_cell_length_c 13.214086
_cell_angle_alpha 90.000000
_cell_angle_beta 118.639007
_cell_angle_gamma 90.000000
_cell_volume 917.399094
_symmetry_space_group_name_H-M "C 2"
_symmetry_group_IT_number 5
_symmetry_cell_setting 'monoclinic'
loop_
_space_group_symop_operation_xyz
x,y,z
-x,y,-z
1/2+x,1/2+y,z
1/2-x,1/2+y,-z
loop_
_atom_site_type_symbol
_atom_site_label
_atom_site_fract_x
_atom_site_fract_y
_atom_site_fract_z
Si Si1 0.114817 0.947920 0.341713
Si Si2 0.611768 0.091280 0.471870
Si Si3 0.598535 0.183317 0.958110
Si Si4 0.873117 0.538374 0.746789
Si Si5 0.167809 0.993953 0.821872
O O1 0.085385 0.813827 0.427921
O O2 0.144378 0.776002 0.271695
O O3 0.245934 0.066054 0.418350
O O4 0.981955 0.063426 0.259757
O O5 0.500000 0.018088 0.500000
O O6 0.610250 0.982480 0.362846
O O7 0.503709 0.015234 0.870922
O O8 0.643577 0.306020 0.880811
O O9 0.500000 0.281093 0.000000
O O10 0.729879 0.123098 0.072149
O O11 0.746270 0.454152 0.750719
#
# Coordination Sequence:
#
# PCOD9122259 Si02
#       5
#     4   4   4   4   4
#     4   9  22  38  59  88 117 155 190 238 289 337
#     4  10  22  39  60  86 121 153 195 238 284 346
#     4   9  19  40  59  87 121 150 188 242 290 340
#     4   8  20  38  61  83 120 152 188 238 291 333
#     4  10  19  40  63  84 119 154 190 242 289 344
#
# _framework density 21.80076
#
# number of rings (size 3 to 8) (size 9 to 14) (size 15 to 20)
#    1.200    1.600    0.000    0.000    2.800    1.600 
#   14.400    5.000    0.000    0.000    0.000    0.000 
#    0.000    0.000    0.000    0.000    0.000    0.000 
#
# Total GULP energy -55672.819066 kJ/mol
# GULP energy per Si atom -5567.281907 kJ/mol
# Density = 2.175114 g / cm^3
# Si number density = 21.800760 Si / 1000 Ang^3
#
#
#
# Elastic Constant Matrix: (Units=GPa)
#
#
# Indices 1 2 3 4 5 6 
#
# 1 189.6150 25.1596 82.2323 0.0000 -2.5233 0.0000
# 2 25.1596 29.9396 17.2123 0.0000 5.6557 0.0000
# 3 82.2323 17.2123 148.2328 0.0000 35.0711 0.0000
# 4 0.0000 0.0000 0.0000 26.5666 0.0000 -2.2915
# 5 -2.5233 5.6557 35.0711 0.0000 36.2347 0.0000
# 6 0.0000 0.0000 0.0000 -2.2915 0.0000 21.1172
#
#
#
# Elastic Compliance Matrix: (Units=1/GPa)
#
#
# Indices 1 2 3 4 5 6 
#
# 1 0.008584 -0.005195 -0.005826 0.000000 0.007047 0.000000
# 2 -0.005195 0.039049 -0.000162 0.000000 -0.006300 0.000000
# 3 -0.005826 -0.000162 0.013083 0.000000 -0.013043 0.000000
# 4 0.000000 0.000000 0.000000 0.037997 0.000000 0.004123
# 5 0.007047 -0.006300 -0.013043 0.000000 0.041696 0.000000
# 6 0.000000 0.000000 0.000000 0.004123 0.000000 0.047802
#
#
# Mechanical properties :
#
#
# Convention : Reuss Voigt Hill
#
# Bulk Modulus (GPa) = 26.07535 68.55506 47.31521
# Shear Modulus (GPa) = 22.38541 32.99590 27.69066
#
# Velocity S-wave (km/s) = 3.20788 3.89462 3.56781
# Velocity P-wave (km/s) = 5.07024 7.19295 6.22278
#
# Compressibility (1/GPa) = 0.03835040
#
# Stress axis : x y z
#
# Youngs Moduli (GPa) = 116.50253 25.60859 76.43668
#
# Poissons Ratio (x) = 0.13304 0.44531
# Poissons Ratio (y) = 0.60524 0.01236
# Poissons Ratio (z) = 0.67872 0.00414
#
# Static dielectric constant tensor:
#      x y z
#    x 1.778600 0.000000 -0.015480 
#    y 0.000000 1.835170 0.000000 
#    z -0.015480 0.000000 1.849030 
# 
# From -- ./inp_files/52164.got.cif
#   From: 2010.05.17/outbox.cif.g08.bks.cpg/sg5_27_cif.got.tgz:52164.got - 2010.06.03 18:56:24.
