data_PCOD9122679
_publ_section_title
;
Structure prediction by ZEFSAII (Michael W. Deem and Ramdas Pophale) SiO2 
 PCOD9122679
Probable space group: C 2
;
_chemical_formula_sum "Si O2"
_cell_formula_units_Z 30
_cell_length_a 13.981911
_cell_length_b 5.630098
_cell_length_c 13.878865
_cell_angle_alpha 90.000000
_cell_angle_beta 81.317900
_cell_angle_gamma 90.000000
_cell_volume 1080.018432
_symmetry_space_group_name_H-M "C 2"
_symmetry_group_IT_number 5
_symmetry_cell_setting 'monoclinic'
loop_
_space_group_symop_operation_xyz
x,y,z
-x,y,-z
1/2+x,1/2+y,z
1/2-x,1/2+y,-z
loop_
_atom_site_type_symbol
_atom_site_label
_atom_site_fract_x
_atom_site_fract_y
_atom_site_fract_z
Si Si1 0.500000 0.035470 0.500000
Si Si2 0.411939 0.570487 0.216586
Si Si3 0.744741 0.522966 0.380902
Si Si4 0.608389 0.075560 0.797196
Si Si5 0.086844 0.066734 0.063483
Si Si6 0.881640 0.566470 0.888941
Si Si7 0.408172 0.583992 0.447295
Si Si8 0.158786 0.530134 0.325584
O O1 0.556963 0.098499 0.392292
O O2 0.417362 0.860652 0.469393
O O3 0.361608 0.339992 0.178460
O O4 0.525859 0.574802 0.173010
O O5 0.415008 0.552500 0.332563
O O6 0.365512 0.807621 0.179625
O O7 0.850287 0.574902 0.319245
O O8 0.694028 0.499622 0.494208
O O9 0.722444 0.256892 0.347077
O O10 0.687267 0.756783 0.347933
O O11 0.497682 0.078699 0.849608
O O12 0.136962 0.322860 0.050800
O O13 0.142494 0.817360 0.057517
O O14 0.000000 0.055064 0.000000
O O15 0.842482 0.544016 0.788185
O O16 0.500000 0.480890 0.500000
#
# Coordination Sequence:
#
# PCOD9122679 Si02
#       8
#     2   4   4   4   4   4   4   4
#     4   8  18  32  52  78 114 146 186 230 288 318
#     4  10  21  38  58  81 118 155 187 239 290 339
#     4  11  24  36  55  87 118 160 194 232 275 347
#     4  10  22  37  57  82 119 159 190 230 288 343
#     4  10  20  35  59  92 117 142 190 244 294 337
#     4  10  21  36  62  85 117 150 188 242 292 333
#     4   9  21  36  55  85 119 149 194 236 287 324
#     4  11  22  36  58  82 116 150 199 235 282 329
#
# _framework density 27.777304000000001
#
# number of rings (size 3 to 8) (size 9 to 14) (size 15 to 20)
#    0.400    1.600    0.000    3.600    4.667    3.200 
#    0.000    0.000    0.000    0.000    0.000   74.667 
#    0.000    0.000    0.000    0.000    0.000    0.000 
#
# Total GULP energy -83503.445133 kJ/mol
# GULP energy per Si atom -5566.896342 kJ/mol
# Density = 2.771408 g / cm^3
# Si number density = 27.777304 Si / 1000 Ang^3
#
#
#
# Elastic Constant Matrix: (Units=GPa)
#
#
# Indices 1 2 3 4 5 6 
#
# 1 64.3609 27.0390 37.8010 0.0000 -25.4597 0.0000
# 2 27.0390 254.2411 28.2764 0.0000 39.5917 0.0000
# 3 37.8010 28.2764 124.2935 0.0000 10.4046 0.0000
# 4 0.0000 0.0000 0.0000 -151.3708 0.0000 150.1084
# 5 -25.4597 39.5917 10.4046 0.0000 56.0077 0.0000
# 6 0.0000 0.0000 0.0000 150.1084 0.0000 -94.2687
#
#
#
# Elastic Compliance Matrix: (Units=1/GPa)
#
#
# Indices 1 2 3 4 5 6 
#
# 1 0.031646 -0.005367 -0.010082 0.000000 0.020052 0.000000
# 2 -0.005367 0.005401 0.000942 0.000000 -0.006433 0.000000
# 3 -0.010082 0.000942 0.011516 0.000000 -0.007388 0.000000
# 4 0.000000 0.000000 0.000000 0.011409 0.000000 0.018166
# 5 0.020052 -0.006433 -0.007388 0.000000 0.032890 0.000000
# 6 0.000000 0.000000 0.000000 0.018166 0.000000 0.018319
#
#
# Mechanical properties :
#
#
# Convention : Reuss Voigt Hill
#
# Bulk Modulus (GPa) = 51.15393 69.90313 60.52853
# Shear Modulus (GPa) = 34.08096 -14.60775 9.73660
#
# Velocity S-wave (km/s) = 3.50656 -2.29571 1.87426
# Velocity P-wave (km/s) = 5.90342 4.26534 5.14993
#
# Compressibility (1/GPa) = 0.01954884
#
# Stress axis : x y z
#
# Youngs Moduli (GPa) = 31.59993 185.15076 86.83707
#
# Poissons Ratio (x) = 0.99368 0.87548
# Poissons Ratio (y) = 0.16959 -0.08180
# Poissons Ratio (z) = 0.31859 -0.17441
#
# Static dielectric constant tensor:
#      x y z
#    x 2.230280 0.000000 0.007750 
#    y 0.000000 2.385470 0.000000 
#    z 0.007750 0.000000 2.224600 
# 
# From -- ./inp_files/55439.got.cif
#   From: 2010.05.17/outbox.cif.g08.bks.cpg/sg5_28_cif.got.tgz:55439.got - 2010.06.03 18:56:24.
