data_PCOD9122471
_publ_section_title
;
Structure prediction by ZEFSAII (Michael W. Deem and Ramdas Pophale) SiO2 
 PCOD9122471
Probable space group: C 2
;
_chemical_formula_sum "Si O2"
_cell_formula_units_Z 24
_cell_length_a 22.110650
_cell_length_b 8.423299
_cell_length_c 5.287007
_cell_angle_alpha 90.000000
_cell_angle_beta 104.562221
_cell_angle_gamma 90.000000
_cell_volume 953.044017
_symmetry_space_group_name_H-M "C 2"
_symmetry_group_IT_number 5
_symmetry_cell_setting 'monoclinic'
loop_
_space_group_symop_operation_xyz
x,y,z
-x,y,-z
1/2+x,1/2+y,z
1/2-x,1/2+y,-z
loop_
_atom_site_type_symbol
_atom_site_label
_atom_site_fract_x
_atom_site_fract_y
_atom_site_fract_z
Si Si1 0.831844 0.155490 0.981984
Si Si2 0.650697 0.364755 0.638414
Si Si3 0.694212 0.073531 0.921107
Si Si4 0.531553 0.748894 0.782472
Si Si5 0.711684 0.875574 0.434645
Si Si6 0.477743 0.387415 0.725990
O O1 0.701679 0.949341 0.697702
O O2 0.759924 0.172059 0.002574
O O3 0.893603 0.251883 0.132107
O O4 0.845560 0.985887 0.122602
O O5 0.714695 0.359568 0.545507
O O6 0.595443 0.408833 0.390253
O O7 0.643213 0.195757 0.767755
O O8 0.687171 0.993576 0.186212
O O9 0.821963 0.209027 0.676929
O O10 0.500000 0.817293 0.500000
O O11 0.511850 0.560367 0.763336
O O12 0.500000 0.817152 0.000000
O O13 0.500000 0.300502 0.500000
O O14 0.500000 0.304217 0.000000
#
# Coordination Sequence:
#
# PCOD9122471 Si02
#       6
#     4   4   4   4   4   4
#     4  10  21  40  66  91 126 163 219 258 311 379
#     4  10  21  40  66  91 126 163 219 258 311 379
#     4  10  24  40  60  92 128 169 200 262 323 377
#     4  10  20  33  55  93 117 150 197 273 307 342
#     4  10  24  40  60  92 128 169 200 262 323 377
#     4  10  20  33  55  93 117 150 197 273 307 342
#
# _framework density 25.182469000000001
#
# number of rings (size 3 to 8) (size 9 to 14) (size 15 to 20)
#    0.000    2.000    3.333    0.000    4.667   13.333 
#    0.000    0.000    0.000    6.000    0.000    0.000 
#    0.000    0.000    0.000    0.000    0.000    0.000 
#
# Total GULP energy -67009.968474 kJ/mol
# GULP energy per Si atom -5584.164039 kJ/mol
# Density = 2.512515 g / cm^3
# Si number density = 25.182469 Si / 1000 Ang^3
#
#
#
# Elastic Constant Matrix: (Units=GPa)
#
#
# Indices 1 2 3 4 5 6 
#
# 1 95.4302 32.6460 73.2391 0.0000 19.5101 0.0000
# 2 32.6460 59.5261 45.3568 0.0000 0.3801 0.0000
# 3 73.2391 45.3568 186.0443 0.0000 -4.3877 0.0000
# 4 0.0000 0.0000 0.0000 29.5466 0.0000 -8.9462
# 5 19.5101 0.3801 -4.3877 0.0000 59.7623 0.0000
# 6 0.0000 0.0000 0.0000 -8.9462 0.0000 5.8835
#
#
#
# Elastic Compliance Matrix: (Units=1/GPa)
#
#
# Indices 1 2 3 4 5 6 
#
# 1 0.018238 -0.005375 -0.006019 0.000000 -0.006362 0.000000
# 2 -0.005375 0.022231 -0.003272 0.000000 0.001373 0.000000
# 3 -0.006019 -0.003272 0.008604 0.000000 0.002618 0.000000
# 4 0.000000 0.000000 0.000000 0.062722 0.000000 0.095373
# 5 -0.006362 0.001373 0.002618 0.000000 0.018993 0.000000
# 6 0.000000 0.000000 0.000000 0.095373 0.000000 0.314988
#
#
# Mechanical properties :
#
#
# Convention : Reuss Voigt Hill
#
# Bulk Modulus (GPa) = 50.65518 71.49825 61.07671
# Shear Modulus (GPa) = 10.38016 31.68905 21.03461
#
# Velocity S-wave (km/s) = 2.03247 3.55121 2.89327
# Velocity P-wave (km/s) = 5.06624 6.72819 5.95547
#
# Compressibility (1/GPa) = 0.01974132
#
# Stress axis : x y z
#
# Youngs Moduli (GPa) = 54.83145 44.98173 116.22631
#
# Poissons Ratio (x) = 0.24178 0.69958
# Poissons Ratio (y) = 0.29473 0.38023
# Poissons Ratio (z) = 0.33004 0.14716
#
# Static dielectric constant tensor:
#      x y z
#    x 2.050550 0.000000 -0.114970 
#    y 0.000000 2.049830 0.000000 
#    z -0.114970 0.000000 2.362670 
# 
# From -- ./inp_files/11331.got.cif
#   From: 2010.05.17/outbox.cif.g08.bks.cpg/sg5_6_cif.got.tgz:11331.got - 2010.06.03 18:56:24.
