data_PCOD9122425
_publ_section_title
;
Structure prediction by ZEFSAII (Michael W. Deem and Ramdas Pophale) SiO2 
 PCOD9122425
Probable space group: C 2
;
_chemical_formula_sum "Si O2"
_cell_formula_units_Z 32
_cell_length_a 8.141144
_cell_length_b 19.971426
_cell_length_c 9.515803
_cell_angle_alpha 90.000000
_cell_angle_beta 72.136176
_cell_angle_gamma 90.000000
_cell_volume 1472.584774
_symmetry_space_group_name_H-M "C 2"
_symmetry_group_IT_number 5
_symmetry_cell_setting 'monoclinic'
loop_
_space_group_symop_operation_xyz
x,y,z
-x,y,-z
1/2+x,1/2+y,z
1/2-x,1/2+y,-z
loop_
_atom_site_type_symbol
_atom_site_label
_atom_site_fract_x
_atom_site_fract_y
_atom_site_fract_z
Si Si1 0.845926 0.312520 0.923220
Si Si2 0.497367 0.462881 0.332034
Si Si3 0.110089 0.250052 0.652524
Si Si4 0.759838 0.603627 0.952614
Si Si5 0.604678 0.229128 0.173196
Si Si6 0.296351 0.953854 0.024739
Si Si7 0.631574 0.322641 0.601199
Si Si8 0.490606 0.613403 0.241458
O O1 0.947942 0.288452 0.761079
O O2 0.701683 0.262281 0.016380
O O3 0.766744 0.386595 0.944582
O O4 0.000000 0.312627 0.000000
O O5 0.500000 0.465796 0.500000
O O6 0.675460 0.449904 0.196398
O O7 0.376436 0.398155 0.336997
O O8 0.450631 0.538448 0.301148
O O9 0.261546 0.241963 0.731521
O O10 0.193754 0.293026 0.507582
O O11 0.054148 0.173313 0.642324
O O12 0.916701 0.651183 0.863454
O O13 0.624989 0.623028 0.866987
O O14 0.766522 0.523426 0.952435
O O15 0.682802 0.619257 0.126889
O O16 0.440707 0.270669 0.265787
O O17 0.500000 0.955388 0.000000
O O18 0.500000 0.323960 0.500000
#
# Coordination Sequence:
#
# PCOD9122425 Si02
#       8
#     4   4   4   4   4   4   4   4
#     4   9  15  25  46  70  92 118 161 210 237 276
#     4  10  20  33  50  73 103 134 162 200 249 298
#     4   9  16  27  47  72  93 121 164 203 245 283
#     4   9  17  31  53  75  98 127 165 208 244 289
#     4   9  14  27  45  69  96 117 158 208 243 272
#     4  10  20  32  50  76 101 131 166 202 246 293
#     4   9  17  27  44  71  98 124 158 203 245 283
#     4   9  17  32  53  74  97 130 166 200 247 298
#
# _framework density 21.730498999999998
#
# number of rings (size 3 to 8) (size 9 to 14) (size 15 to 20)
#    0.000    2.750    2.500    0.000    5.250    0.000 
#    2.250    0.000    0.000    3.000    0.000    0.000 
#    0.000    0.000    0.000    0.000    0.000    0.000 
#
# Total GULP energy -89156.265805 kJ/mol
# GULP energy per Si atom -5572.266613 kJ/mol
# Density = 2.168104 g / cm^3
# Si number density = 21.730499 Si / 1000 Ang^3
#
#
#
# Elastic Constant Matrix: (Units=GPa)
#
#
# Indices 1 2 3 4 5 6 
#
# 1 34.8954 7.4868 36.4136 0.0000 1.3860 0.0000
# 2 7.4868 188.0331 88.6539 0.0000 -27.5959 0.0000
# 3 36.4136 88.6539 150.5474 0.0000 -22.1780 0.0000
# 4 0.0000 0.0000 0.0000 26.1643 0.0000 0.3210
# 5 1.3860 -27.5959 -22.1780 0.0000 33.3180 0.0000
# 6 0.0000 0.0000 0.0000 0.3210 0.0000 10.1068
#
#
#
# Elastic Compliance Matrix: (Units=1/GPa)
#
#
# Indices 1 2 3 4 5 6 
#
# 1 0.042223 0.003505 -0.013424 0.000000 -0.007789 0.000000
# 2 0.003505 0.008055 -0.005133 0.000000 0.003109 0.000000
# 3 -0.013424 -0.005133 0.013713 0.000000 0.005435 0.000000
# 4 0.000000 0.000000 0.000000 0.038235 0.000000 -0.001214
# 5 -0.007789 0.003109 0.005435 0.000000 0.036531 0.000000
# 6 0.000000 0.000000 0.000000 -0.001214 0.000000 0.098982
#
#
# Mechanical properties :
#
#
# Convention : Reuss Voigt Hill
#
# Bulk Modulus (GPa) = 29.51087 70.95385 50.23236
# Shear Modulus (GPa) = 17.91228 29.97924 23.94576
#
# Velocity S-wave (km/s) = 2.87416 3.71832 3.32315
# Velocity P-wave (km/s) = 4.96229 7.15242 6.15554
#
# Compressibility (1/GPa) = 0.03388581
#
# Stress axis : x y z
#
# Youngs Moduli (GPa) = 23.68405 124.14394 72.92461
#
# Poissons Ratio (x) = -0.43510 0.97894
# Poissons Ratio (y) = -0.08301 0.37434
# Poissons Ratio (z) = 0.31793 0.63726
#
# Static dielectric constant tensor:
#      x y z
#    x 1.881000 0.000000 0.019320 
#    y 0.000000 1.837890 0.000000 
#    z 0.019320 0.000000 1.779590 
# 
# From -- ./inp_files/21803.got.cif
#   From: 2010.05.17/outbox.cif.g08.bks.cpg/sg5_11_cif.got.tgz:21803.got - 2010.06.03 18:56:24.
