data_PCOD9122533
_publ_section_title
;
Structure prediction by ZEFSAII (Michael W. Deem and Ramdas Pophale) SiO2 
 PCOD9122533
Probable space group: C 2
;
_chemical_formula_sum "Si O2"
_cell_formula_units_Z 32
_cell_length_a 14.641097
_cell_length_b 15.083084
_cell_length_c 8.170952
_cell_angle_alpha 90.000000
_cell_angle_beta 63.565376
_cell_angle_gamma 90.000000
_cell_volume 1615.750598
_symmetry_space_group_name_H-M "C 2"
_symmetry_group_IT_number 5
_symmetry_cell_setting 'monoclinic'
loop_
_space_group_symop_operation_xyz
x,y,z
-x,y,-z
1/2+x,1/2+y,z
1/2-x,1/2+y,-z
loop_
_atom_site_type_symbol
_atom_site_label
_atom_site_fract_x
_atom_site_fract_y
_atom_site_fract_z
Si Si1 0.013180 0.082730 0.683558
Si Si2 0.272541 0.218927 0.540588
Si Si3 0.601613 0.441827 0.024465
Si Si4 0.407675 0.306099 0.684924
Si Si5 0.975591 0.661439 0.206627
Si Si6 0.946672 0.470562 0.363444
Si Si7 0.550842 0.775413 0.638210
Si Si8 0.725810 0.523075 0.647724
O O1 0.011631 0.184104 0.749354
O O2 0.121159 0.033745 0.629106
O O3 0.000000 0.085070 0.500000
O O4 0.929096 0.028246 0.847373
O O5 0.316050 0.288077 0.635485
O O6 0.362129 0.195418 0.341980
O O7 0.171804 0.255474 0.535013
O O8 0.252780 0.126658 0.652610
O O9 0.621453 0.366418 0.140005
O O10 0.500000 0.418334 0.000000
O O11 0.693156 0.466842 0.831362
O O12 0.500000 0.345016 0.500000
O O13 0.451841 0.214854 0.726223
O O14 0.981923 0.556489 0.235234
O O15 0.000000 0.681573 0.000000
O O16 0.967908 0.372920 0.274120
O O17 0.824586 0.480666 0.485690
O O18 0.000000 0.476623 0.500000
O O19 0.500000 0.779190 0.500000
#
# Coordination Sequence:
#
# PCOD9122533 Si02
#       8
#     4   4   4   4   4   4   4   4
#     4   9  18  35  56  83 111 138 179 230 282 329
#     4   9  19  38  58  80 113 150 183 226 283 329
#     4  10  20  34  56  85 114 144 181 227 280 334
#     4  10  20  35  58  85 115 145 178 230 286 333
#     4  10  20  36  59  86 112 141 184 233 279 332
#     4  10  20  38  57  76 110 151 187 224 272 326
#     4   9  19  36  58  79 104 147 190 221 264 326
#     4   9  19  36  56  78 110 148 181 223 278 331
#
# _framework density 19.805036999999999
#
# number of rings (size 3 to 8) (size 9 to 14) (size 15 to 20)
#    0.000    2.500    0.000    2.625    0.000    6.000 
#    0.000   19.375    0.000    0.000    0.000    0.000 
#    0.000    0.000    0.000    0.000    0.000    0.000 
#
# Total GULP energy -89228.320178 kJ/mol
# GULP energy per Si atom -5576.770011 kJ/mol
# Density = 1.975996 g / cm^3
# Si number density = 19.805037 Si / 1000 Ang^3
#
#
#
# Elastic Constant Matrix: (Units=GPa)
#
#
# Indices 1 2 3 4 5 6 
#
# 1 72.4630 29.5433 21.8699 0.0000 3.9255 0.0000
# 2 29.5433 113.6816 28.5393 0.0000 1.8814 0.0000
# 3 21.8699 28.5393 71.3596 0.0000 10.7987 0.0000
# 4 0.0000 0.0000 0.0000 2.9305 0.0000 14.4355
# 5 3.9255 1.8814 10.7987 0.0000 17.1646 0.0000
# 6 0.0000 0.0000 0.0000 14.4355 0.0000 18.7684
#
#
#
# Elastic Compliance Matrix: (Units=1/GPa)
#
#
# Indices 1 2 3 4 5 6 
#
# 1 0.016273 -0.003337 -0.003476 0.000000 -0.001169 0.000000
# 2 -0.003337 0.010499 -0.003446 0.000000 0.001780 0.000000
# 3 -0.003476 -0.003446 0.017992 0.000000 -0.010147 0.000000
# 4 0.000000 0.000000 0.000000 -0.122361 0.000000 0.094113
# 5 -0.001169 0.001780 -0.010147 0.000000 0.064715 0.000000
# 6 0.000000 0.000000 0.000000 0.094113 0.000000 -0.019105
#
#
# Mechanical properties :
#
#
# Convention : Reuss Voigt Hill
#
# Bulk Modulus (GPa) = 41.24116 46.37883 43.80999
# Shear Modulus (GPa) = -1476.26232 19.60947 -728.32643
#
# Velocity S-wave (km/s) = -27.33159 3.15004 -19.19756
# Velocity P-wave (km/s) = 31.22742 6.05796 21.66164
#
# Compressibility (1/GPa) = 0.02424762
#
# Stress axis : x y z
#
# Youngs Moduli (GPa) = 61.45137 95.24443 55.57924
#
# Poissons Ratio (x) = 0.31784 0.19318
# Poissons Ratio (y) = 0.20507 0.19151
# Poissons Ratio (z) = 0.21359 0.32818
#
# Static dielectric constant tensor:
#      x y z
#    x 1.696330 0.000000 -0.005030 
#    y 0.000000 1.745330 0.000000 
#    z -0.005030 0.000000 1.695810 
# 
# From -- ./inp_files/24636.got.cif
#   From: 2010.05.17/outbox.cif.g08.bks.cpg/sg5_13_cif.got.tgz:24636.got - 2010.06.03 18:56:24.
