data_PCOD9122985
_publ_section_title
;
Structure prediction by ZEFSAII (Michael W. Deem and Ramdas Pophale) SiO2 
 PCOD9122985
Probable space group: C 2
;
_chemical_formula_sum "Si O2"
_cell_formula_units_Z 28
_cell_length_a 18.161434
_cell_length_b 5.059104
_cell_length_c 17.255437
_cell_angle_alpha 90.000000
_cell_angle_beta 118.532873
_cell_angle_gamma 90.000000
_cell_volume 1392.877199
_symmetry_space_group_name_H-M "C 2"
_symmetry_group_IT_number 5
_symmetry_cell_setting 'monoclinic'
loop_
_space_group_symop_operation_xyz
x,y,z
-x,y,-z
1/2+x,1/2+y,z
1/2-x,1/2+y,-z
loop_
_atom_site_type_symbol
_atom_site_label
_atom_site_fract_x
_atom_site_fract_y
_atom_site_fract_z
Si Si1 0.238011 0.310780 0.808213
Si Si2 0.431490 0.924342 0.787188
Si Si3 0.003092 0.932414 0.908935
Si Si4 0.747287 0.312239 0.713282
Si Si5 0.062312 0.912256 0.602209
Si Si6 0.552563 0.912770 0.704983
Si Si7 0.698040 0.457384 0.001133
O O1 0.250030 0.508706 0.741989
O O2 0.143894 0.372225 0.788929
O O3 0.243606 0.007038 0.786269
O O4 0.300079 0.384986 0.907207
O O5 0.457496 0.703040 0.862657
O O6 0.333812 0.893646 0.718094
O O7 0.484107 0.880843 0.736060
O O8 0.456102 0.200955 0.838764
O O9 0.100323 0.949156 0.929620
O O10 0.000000 0.890349 0.000000
O O11 0.659723 0.373018 0.627049
O O12 0.047871 0.696762 0.662150
O O13 0.000000 0.873184 0.500000
O O14 0.049091 0.196282 0.635005
O O15 0.744131 0.735943 0.010716
#
# Coordination Sequence:
#
# PCOD9122985 Si02
#       7
#     4   4   4   4   4   4   4
#     4  10  20  37  54  77 107 148 193 227 275 342
#     4  12  23  40  57  85 118 152 196 237 284 343
#     4  12  25  39  57  83 119 159 196 243 287 325
#     4  10  21  37  60  79 109 150 184 224 280 345
#     4  10  21  40  63  89 114 144 186 231 285 352
#     4  10  21  37  61  85 114 150 184 234 288 337
#     4  12  23  36  55  80 109 147 194 244 282 318
#
# _framework density 20.102274000000001
#
# number of rings (size 3 to 8) (size 9 to 14) (size 15 to 20)
#    0.000    1.143    0.000    7.714    0.000    2.286 
#    0.000    1.429    0.000    0.000    0.000    0.000 
#    0.000    0.000    0.000    0.000    0.000    0.000 
#
# Total GULP energy -78278.712808 kJ/mol
# GULP energy per Si atom -5591.336629 kJ/mol
# Density = 2.005652 g / cm^3
# Si number density = 20.102274 Si / 1000 Ang^3
#
#
#
# Elastic Constant Matrix: (Units=GPa)
#
#
# Indices 1 2 3 4 5 6 
#
# 1 141.5854 -2.9897 24.7054 0.0000 21.8356 0.0001
# 2 -2.9897 71.5098 -5.4914 -0.0001 5.9144 0.0006
# 3 24.7054 -5.4914 52.5127 0.0000 20.6276 0.0000
# 4 0.0000 -0.0001 0.0000 17.5024 0.0000 1.6802
# 5 21.8356 5.9144 20.6276 0.0000 23.0130 0.0000
# 6 0.0001 0.0006 0.0000 1.6802 0.0000 22.9204
#
#
#
# Elastic Compliance Matrix: (Units=1/GPa)
#
#
# Indices 1 2 3 4 5 6 
#
# 1 0.008378 0.000878 -0.000986 0.000000 -0.007291 0.000000
# 2 0.000878 0.015115 0.004662 0.000000 -0.008896 0.000000
# 3 -0.000986 0.004662 0.031019 0.000000 -0.028067 0.000000
# 4 0.000000 0.000000 0.000000 0.057540 0.000000 -0.004218
# 5 -0.007291 -0.008896 -0.028067 0.000000 0.077816 0.000000
# 6 0.000000 0.000000 0.000000 -0.004218 0.000000 0.043938
#
#
# Mechanical properties :
#
#
# Convention : Reuss Voigt Hill
#
# Bulk Modulus (GPa) = 15.71830 33.11739 24.41784
# Shear Modulus (GPa) = 20.33309 29.31273 24.82291
#
# Velocity S-wave (km/s) = 3.18383 3.82275 3.51783
# Velocity P-wave (km/s) = 4.62081 5.99957 5.35475
#
# Compressibility (1/GPa) = 0.06362012
#
# Stress axis : x y z
#
# Youngs Moduli (GPa) = 119.36208 66.16129 32.23800
#
# Poissons Ratio (x) = -0.05806 0.03177
# Poissons Ratio (y) = -0.10476 -0.15030
# Poissons Ratio (z) = 0.11764 -0.30846
#
# Static dielectric constant tensor:
#      x y z
#    x 1.750090 0.000000 0.033550 
#    y 0.000000 1.694690 0.000000 
#    z 0.033550 0.000000 1.677220 
# 
# From -- ./inp_files/55495.got.cif
#   From: 2010.05.17/outbox.cif.g08.bks.cpg/sg5_28_cif.got.tgz:55495.got - 2010.06.03 18:56:24.
