data_PCOD9122526
_publ_section_title
;
Structure prediction by ZEFSAII (Michael W. Deem and Ramdas Pophale) SiO2 
 PCOD9122526
Probable space group: C 2
;
_chemical_formula_sum "Si O2"
_cell_formula_units_Z 24
_cell_length_a 17.005001
_cell_length_b 10.412362
_cell_length_c 10.197869
_cell_angle_alpha 90.000000
_cell_angle_beta 31.846759
_cell_angle_gamma 90.000000
_cell_volume 952.753705
_symmetry_space_group_name_H-M "C 2"
_symmetry_group_IT_number 5
_symmetry_cell_setting 'monoclinic'
loop_
_space_group_symop_operation_xyz
x,y,z
-x,y,-z
1/2+x,1/2+y,z
1/2-x,1/2+y,-z
loop_
_atom_site_type_symbol
_atom_site_label
_atom_site_fract_x
_atom_site_fract_y
_atom_site_fract_z
Si Si1 0.779501 0.318920 0.600023
Si Si2 0.361831 0.563283 0.111748
Si Si3 0.000000 0.779186 0.500000
Si Si4 0.860015 0.763303 0.452271
Si Si5 0.605747 0.093473 0.956292
Si Si6 0.757904 0.122017 0.983981
Si Si7 0.000000 0.296839 0.500000
O O1 0.657748 0.415638 0.827317
O O2 0.758743 0.331603 0.473993
O O3 0.924479 0.359629 0.478258
O O4 0.733590 0.172160 0.696902
O O5 0.222760 0.642630 0.364825
O O6 0.500000 0.613631 0.000000
O O7 0.358683 0.569960 0.959312
O O8 0.919794 0.846659 0.490449
O O9 0.877135 0.693535 0.750033
O O10 0.993760 0.701499 0.177615
O O11 0.500000 0.023532 0.000000
O O12 0.683636 0.033697 0.975432
O O13 0.863537 0.218556 0.755481
#
# Coordination Sequence:
#
# PCOD9122526 Si02
#       7
#     4   4   2   4   4   4   2
#     4  10  20  34  56  81 109 149 191 231 283 345
#     4  11  21  33  55  83 111 148 195 237 283 341
#     4   8  16  31  56  83 112 150 186 221 282 343
#     4   9  17  32  54  78 108 144 185 231 274 328
#     4   8  15  31  54  75 103 143 182 220 272 334
#     4   9  18  32  54  85 115 151 188 231 281 333
#     4  10  20  35  56  83 118 152 190 237 284 329
#
# _framework density 25.190142000000002
#
# number of rings (size 3 to 8) (size 9 to 14) (size 15 to 20)
#    0.000    2.667    0.000    2.500    0.000    4.000 
#    0.000    0.000    0.000   76.000    0.000    0.000 
#    0.000    0.000    0.000    0.000    0.000    0.000 
#
# Total GULP energy -66851.293702 kJ/mol
# GULP energy per Si atom -5570.941142 kJ/mol
# Density = 2.513281 g / cm^3
# Si number density = 25.190142 Si / 1000 Ang^3
#
#
#
# Elastic Constant Matrix: (Units=GPa)
#
#
# Indices 1 2 3 4 5 6 
#
# 1 334.7905 7.8633 9.2836 0.0000 -16.5621 0.0000
# 2 7.8633 19.8418 14.4136 0.0000 1.9095 0.0000
# 3 9.2836 14.4136 99.1914 0.0000 -3.1800 0.0000
# 4 0.0000 0.0000 0.0000 44.7634 0.0000 4.4830
# 5 -16.5621 1.9095 -3.1800 0.0000 33.5233 0.0000
# 6 0.0000 0.0000 0.0000 4.4830 0.0000 -61.3005
#
#
#
# Elastic Compliance Matrix: (Units=1/GPa)
#
#
# Indices 1 2 3 4 5 6 
#
# 1 0.003099 -0.001352 -0.000042 0.000000 0.001604 0.000000
# 2 -0.001352 0.057475 -0.008377 0.000000 -0.004736 0.000000
# 3 -0.000042 -0.008377 0.011352 0.000000 0.001533 0.000000
# 4 0.000000 0.000000 0.000000 0.022177 0.000000 0.001622
# 5 0.001604 -0.004736 0.001533 0.000000 0.031038 0.000000
# 6 0.000000 0.000000 0.000000 0.001622 0.000000 -0.016194
#
#
# Mechanical properties :
#
#
# Convention : Reuss Voigt Hill
#
# Bulk Modulus (GPa) = 19.08977 57.43832 38.26404
# Shear Modulus (GPa) = 34.25810 31.54814 32.90312
#
# Velocity S-wave (km/s) = 3.69179 3.54277 3.61805
# Velocity P-wave (km/s) = 5.07614 6.29177 5.71636
#
# Compressibility (1/GPa) = 0.05238407
#
# Stress axis : x y z
#
# Youngs Moduli (GPa) = 322.66140 17.39874 88.09100
#
# Poissons Ratio (x) = 0.02352 0.00372
# Poissons Ratio (y) = 0.43623 0.73795
# Poissons Ratio (z) = 0.01361 0.14575
#
# Static dielectric constant tensor:
#      x y z
#    x 2.225240 0.000000 -0.083420 
#    y 0.000000 1.918200 0.000000 
#    z -0.083420 0.000000 1.959040 
# 
# From -- ./inp_files/39108.got.cif
#   From: 2010.05.17/outbox.cif.g08.bks.cpg/sg5_20_cif.got.tgz:39108.got - 2010.06.03 18:56:24.
