data_PCOD9122664
_publ_section_title
;
Structure prediction by ZEFSAII (Michael W. Deem and Ramdas Pophale) SiO2 
 PCOD9122664
Probable space group: C 2
;
_chemical_formula_sum "Si O2"
_cell_formula_units_Z 24
_cell_length_a 7.809799
_cell_length_b 14.715138
_cell_length_c 16.074648
_cell_angle_alpha 90.000000
_cell_angle_beta 31.326894
_cell_angle_gamma 90.000000
_cell_volume 960.466670
_symmetry_space_group_name_H-M "C 2"
_symmetry_group_IT_number 5
_symmetry_cell_setting 'monoclinic'
loop_
_space_group_symop_operation_xyz
x,y,z
-x,y,-z
1/2+x,1/2+y,z
1/2-x,1/2+y,-z
loop_
_atom_site_type_symbol
_atom_site_label
_atom_site_fract_x
_atom_site_fract_y
_atom_site_fract_z
Si Si1 0.526665 0.608660 0.795019
Si Si2 0.585725 0.224476 0.666613
Si Si3 0.841101 0.442826 0.310460
Si Si4 0.159884 0.920309 0.192206
Si Si5 0.332922 0.106602 0.891573
Si Si6 0.379708 0.757667 0.373907
O O1 0.829309 0.660380 0.717263
O O2 0.565885 0.505250 0.744935
O O3 0.465160 0.675216 0.742654
O O4 0.229043 0.601451 0.985292
O O5 0.469730 0.317784 0.757574
O O6 0.633409 0.158975 0.725912
O O7 0.838169 0.253803 0.490203
O O8 0.500000 0.470024 0.500000
O O9 0.725435 0.429222 0.263566
O O10 0.994862 0.355292 0.292077
O O11 0.135405 0.513324 0.172538
O O12 0.500000 0.924537 0.000000
O O13 0.000000 0.156249 0.000000
O O14 0.000000 0.759613 0.500000
#
# Coordination Sequence:
#
# PCOD9122664 Si02
#       6
#     4   4   4   4   4   4
#     4  10  20  35  58  92 117 153 215 253 310 376
#     4  10  21  39  62  87 119 170 209 257 314 387
#     4  11  21  39  61  90 122 163 214 259 315 386
#     4  12  21  36  64  88 121 164 209 263 314 383
#     4  10  22  38  61  88 126 165 208 264 321 380
#     4   9  18  36  58  84 120 160 208 254 306 378
#
# _framework density 24.987852
#
# number of rings (size 3 to 8) (size 9 to 14) (size 15 to 20)
#    0.000    1.667    6.667    1.500    2.333    0.000 
#    0.000    0.833    7.333    3.000    0.000    0.000 
#    0.000    0.000    0.000    0.000    0.000    0.000 
#
# Total GULP energy -66852.297301 kJ/mol
# GULP energy per Si atom -5571.024775 kJ/mol
# Density = 2.493098 g / cm^3
# Si number density = 24.987852 Si / 1000 Ang^3
#
#
#
# Elastic Constant Matrix: (Units=GPa)
#
#
# Indices 1 2 3 4 5 6 
#
# 1 65.2977 22.8649 33.0166 -0.0036 23.8566 -0.0253
# 2 22.8649 197.7153 80.1191 -0.0814 10.5897 0.0470
# 3 33.0166 80.1191 161.3849 -0.2288 45.7528 0.0809
# 4 -0.0036 -0.0814 -0.2288 56.0849 0.0584 -0.9482
# 5 23.8566 10.5897 45.7528 0.0584 59.6067 0.0008
# 6 -0.0253 0.0470 0.0809 -0.9482 0.0008 25.1349
#
#
#
# Elastic Compliance Matrix: (Units=1/GPa)
#
#
# Indices 1 2 3 4 5 6 
#
# 1 0.018741 -0.001240 -0.001476 0.000000 -0.006148 0.000026
# 2 -0.001240 0.006542 -0.003586 -0.000007 0.002086 -0.000002
# 3 -0.001476 -0.003586 0.010136 0.000042 -0.006553 -0.000026
# 4 0.000000 -0.000007 0.000042 0.017842 -0.000049 0.000673
# 5 -0.006148 0.002086 -0.006553 -0.000049 0.023896 0.000008
# 6 0.000026 -0.000002 -0.000026 0.000673 0.000008 0.039811
#
#
# Mechanical properties :
#
#
# Convention : Reuss Voigt Hill
#
# Bulk Modulus (GPa) = 43.82744 77.37768 60.60256
# Shear Modulus (GPa) = 36.44927 47.39177 41.92052
#
# Velocity S-wave (km/s) = 3.82341 4.35971 4.10034
# Velocity P-wave (km/s) = 6.08842 7.50840 6.83539
#
# Compressibility (1/GPa) = 0.02281675
#
# Stress axis : x y z
#
# Youngs Moduli (GPa) = 53.35914 152.84685 98.65652
#
# Poissons Ratio (x) = 0.18955 0.14557
# Poissons Ratio (y) = 0.06617 0.35376
# Poissons Ratio (z) = 0.07873 0.54808
#
# Static dielectric constant tensor:
#      x y z
#    x 2.209030 0.000040 -0.053840 
#    y 0.000040 2.108500 0.000000 
#    z -0.053840 0.000000 1.957720 
# 
# From -- ./inp_files/60449.got.cif
#   From: 2010.05.17/outbox.cif.g08.bks.cpg/sg5_31_cif.got.tgz:60449.got - 2010.06.03 18:56:24.
