data_PCOD9122204
_publ_section_title
;
Structure prediction by ZEFSAII (Michael W. Deem and Ramdas Pophale) SiO2 
 PCOD9122204
Probable space group: C 2
;
_chemical_formula_sum "Si O2"
_cell_formula_units_Z 22
_cell_length_a 7.658789
_cell_length_b 18.174395
_cell_length_c 13.409482
_cell_angle_alpha 90.000000
_cell_angle_beta 144.867303
_cell_angle_gamma 90.000000
_cell_volume 1074.128664
_symmetry_space_group_name_H-M "C 2"
_symmetry_group_IT_number 5
_symmetry_cell_setting 'monoclinic'
loop_
_space_group_symop_operation_xyz
x,y,z
-x,y,-z
1/2+x,1/2+y,z
1/2-x,1/2+y,-z
loop_
_atom_site_type_symbol
_atom_site_label
_atom_site_fract_x
_atom_site_fract_y
_atom_site_fract_z
Si Si1 0.545852 0.437400 0.777024
Si Si2 0.189248 0.370760 0.895733
Si Si3 0.000000 0.545078 0.500000
Si Si4 0.680591 0.000672 0.291915
Si Si5 0.161765 0.640618 0.382905
Si Si6 0.270285 0.286367 0.208490
O O1 0.741420 0.481448 0.785615
O O2 0.510659 0.356275 0.710686
O O3 0.261111 0.489918 0.660413
O O4 0.707334 0.412779 0.954375
O O5 0.033612 0.437259 0.764075
O O6 0.929548 0.310387 0.789826
O O7 0.500000 0.338895 0.000000
O O8 0.861545 0.596181 0.523181
O O9 0.000000 0.998968 0.500000
O O10 0.543590 0.080792 0.246900
O O11 0.500000 0.659087 0.500000
O O12 0.958821 0.712523 0.298411
O O13 0.000000 0.281281 0.000000
#
# Coordination Sequence:
#
# PCOD9122204 Si02
#       6
#     4   4   2   4   4   4
#     4  10  21  40  67  92 127 166 224 260 319 384
#     4  10  21  40  65  99 128 172 220 272 319 381
#     4  12  22  40  64 102 122 172 220 270 314 394
#     4  10  19  39  64  94 129 165 212 271 320 381
#     4  11  23  42  61  95 135 167 211 266 330 379
#     4   9  22  44  62  88 130 170 214 263 327 388
#
# _framework density 20.481718000000001
#
# number of rings (size 3 to 8) (size 9 to 14) (size 15 to 20)
#    0.000    1.818    3.636    2.727    1.273    2.182 
#   13.091    0.000    0.000    0.000    0.000    0.000 
#    0.000    0.000    0.000    0.000    0.000    0.000 
#
# Total GULP energy -61244.702984 kJ/mol
# GULP energy per Si atom -5567.700271 kJ/mol
# Density = 2.043510 g / cm^3
# Si number density = 20.481718 Si / 1000 Ang^3
#
#
#
# Elastic Constant Matrix: (Units=GPa)
#
#
# Indices 1 2 3 4 5 6 
#
# 1 120.6856 65.2813 36.6597 -0.0008 14.4774 -0.0010
# 2 65.2813 180.2240 44.1051 0.0044 27.9115 0.0047
# 3 36.6597 44.1051 40.8964 0.0187 17.3382 0.0175
# 4 -0.0008 0.0044 0.0187 -27.3046 0.0060 -48.1665
# 5 14.4774 27.9115 17.3382 0.0060 36.1789 0.0056
# 6 -0.0010 0.0047 0.0175 -48.1665 0.0056 -39.0754
#
#
#
# Elastic Compliance Matrix: (Units=1/GPa)
#
#
# Indices 1 2 3 4 5 6 
#
# 1 0.012116 -0.002436 -0.008753 -0.000001 0.001226 -0.000003
# 2 -0.002436 0.008199 -0.005509 0.000000 -0.002710 -0.000002
# 3 -0.008753 -0.005509 0.043865 0.000003 -0.013269 0.000013
# 4 -0.000001 0.000000 0.000003 0.031184 0.000000 -0.038439
# 5 0.001226 -0.002710 -0.013269 0.000000 0.035600 -0.000001
# 6 -0.000003 -0.000002 0.000013 -0.038439 -0.000001 0.021790
#
#
# Mechanical properties :
#
#
# Convention : Reuss Voigt Hill
#
# Bulk Modulus (GPa) = 32.48580 70.43314 51.45947
# Shear Modulus (GPa) = 25.45686 7.01045 16.23365
#
# Velocity S-wave (km/s) = 3.52931 1.85208 2.81836
# Velocity P-wave (km/s) = 5.70117 6.24793 5.98080
#
# Compressibility (1/GPa) = 0.03078268
#
# Stress axis : x y z
#
# Youngs Moduli (GPa) = 82.53866 121.96280 22.79729
#
# Poissons Ratio (x) = 0.29716 0.19954
# Poissons Ratio (y) = 0.20110 0.12560
# Poissons Ratio (z) = 0.72243 0.67195
#
# Static dielectric constant tensor:
#      x y z
#    x 1.860660 0.000000 -0.008020 
#    y 0.000000 1.735750 0.000000 
#    z -0.008020 0.000000 1.772620 
# 
# From -- ./inp_files/51303.got.cif
#   From: 2010.05.17/outbox.cif.g08.bks.cpg/sg5_26_cif.got.tgz:51303.got - 2010.06.03 18:56:24.
