data_PCOD9122520
_publ_section_title
;
Structure prediction by ZEFSAII (Michael W. Deem and Ramdas Pophale) SiO2 
 PCOD9122520
Probable space group: C 2
;
_chemical_formula_sum "Si O2"
_cell_formula_units_Z 24
_cell_length_a 14.479473
_cell_length_b 12.036393
_cell_length_c 6.437673
_cell_angle_alpha 90.000000
_cell_angle_beta 91.264025
_cell_angle_gamma 90.000000
_cell_volume 1121.688669
_symmetry_space_group_name_H-M "C 2"
_symmetry_group_IT_number 5
_symmetry_cell_setting 'monoclinic'
loop_
_space_group_symop_operation_xyz
x,y,z
-x,y,-z
1/2+x,1/2+y,z
1/2-x,1/2+y,-z
loop_
_atom_site_type_symbol
_atom_site_label
_atom_site_fract_x
_atom_site_fract_y
_atom_site_fract_z
Si Si1 0.869989 0.692720 0.341214
Si Si2 0.916809 0.373014 0.113123
Si Si3 0.089927 0.909693 0.384040
Si Si4 0.000000 0.237530 0.500000
Si Si5 0.334670 0.756718 0.727596
Si Si6 0.297541 0.970279 0.433629
Si Si7 0.500000 0.290413 0.000000
O O1 0.890911 0.792820 0.497992
O O2 0.765373 0.704956 0.254862
O O3 0.860960 0.578949 0.472153
O O4 0.939513 0.713932 0.153407
O O5 0.832242 0.439190 0.203724
O O6 0.962835 0.313115 0.310887
O O7 0.877513 0.283425 0.951710
O O8 0.000000 0.435719 0.000000
O O9 0.186644 0.973985 0.416131
O O10 0.061726 0.872224 0.149566
O O11 0.000000 0.958028 0.500000
O O12 0.091360 0.186342 0.402437
O O13 0.321197 0.873404 0.600791
#
# Coordination Sequence:
#
# PCOD9122520 Si02
#       7
#     4   4   4   2   4   4   2
#     4  10  21  35  56  84 109 142 189 231 271 329
#     4   9  17  31  52  76 106 142 172 217 280 325
#     4   9  20  40  58  78 112 152 184 229 281 334
#     4   8  16  32  52  74 102 140 174 216 268 326
#     4   9  18  35  53  76 111 146 176 223 279 324
#     4  10  20  34  55  81 109 142 188 228 271 327
#     4  10  20  38  58  78 114 148 186 230 284 330
#
# _framework density 21.396311000000001
#
# number of rings (size 3 to 8) (size 9 to 14) (size 15 to 20)
#    0.000    2.667    0.000    1.000    1.167    1.333 
#   25.500    0.000    5.500    0.000    0.000    0.000 
#    0.000    0.000    0.000    0.000    0.000    0.000 
#
# Total GULP energy -66810.230354 kJ/mol
# GULP energy per Si atom -5567.519196 kJ/mol
# Density = 2.134761 g / cm^3
# Si number density = 21.396311 Si / 1000 Ang^3
#
#
#
# Elastic Constant Matrix: (Units=GPa)
#
#
# Indices 1 2 3 4 5 6 
#
# 1 122.5673 9.0723 37.6752 0.0000 -6.4754 0.0000
# 2 9.0723 49.0751 17.9997 0.0000 -6.5909 0.0000
# 3 37.6752 17.9997 97.8743 0.0000 5.2744 0.0000
# 4 0.0000 0.0000 0.0000 -1.4149 0.0000 -6.8188
# 5 -6.4754 -6.5909 5.2744 0.0000 35.2156 0.0000
# 6 0.0000 0.0000 0.0000 -6.8188 0.0000 31.4423
#
#
#
# Elastic Compliance Matrix: (Units=1/GPa)
#
#
# Indices 1 2 3 4 5 6 
#
# 1 0.009435 -0.000065 -0.003743 0.000000 0.002283 0.000000
# 2 -0.000065 0.022662 -0.004406 0.000000 0.004889 0.000000
# 3 -0.003743 -0.004406 0.012652 0.000000 -0.003408 0.000000
# 4 0.000000 0.000000 0.000000 -0.345584 0.000000 -0.074946
# 5 0.002283 0.004889 -0.003408 0.000000 0.030242 0.000000
# 6 0.000000 0.000000 0.000000 -0.074946 0.000000 0.015551
#
#
# Mechanical properties :
#
#
# Convention : Reuss Voigt Hill
#
# Bulk Modulus (GPa) = 35.30984 44.33456 39.82220
# Shear Modulus (GPa) = -21.81736 26.69992 2.44128
#
# Velocity S-wave (km/s) = -3.19671 3.53636 1.06933
# Velocity P-wave (km/s) = 1.70686 6.11883 4.49185
#
# Compressibility (1/GPa) = 0.02832072
#
# Stress axis : x y z
#
# Youngs Moduli (GPa) = 105.99164 44.12742 79.03932
#
# Poissons Ratio (x) = 0.00285 0.29584
# Poissons Ratio (y) = 0.00686 0.34826
# Poissons Ratio (z) = 0.39672 0.19443
#
# Static dielectric constant tensor:
#      x y z
#    x 1.845000 0.000000 -0.025170 
#    y 0.000000 1.861410 0.000000 
#    z -0.025170 0.000000 1.738350 
# 
# From -- ./inp_files/6851.got.cif
#   From: 2010.05.17/outbox.cif.g08.bks.cpg/sg5_4_cif.got.tgz:6851.got - 2010.06.03 18:56:24.
