data_PCOD9122850
_publ_section_title
;
Structure prediction by ZEFSAII (Michael W. Deem and Ramdas Pophale) SiO2 
 PCOD9122850
Probable space group: C 2
;
_chemical_formula_sum "Si O2"
_cell_formula_units_Z 28
_cell_length_a 16.806981
_cell_length_b 8.891948
_cell_length_c 14.522307
_cell_angle_alpha 90.000000
_cell_angle_beta 141.036289
_cell_angle_gamma 90.000000
_cell_volume 1364.753267
_symmetry_space_group_name_H-M "C 2"
_symmetry_group_IT_number 5
_symmetry_cell_setting 'monoclinic'
loop_
_space_group_symop_operation_xyz
x,y,z
-x,y,-z
1/2+x,1/2+y,z
1/2-x,1/2+y,-z
loop_
_atom_site_type_symbol
_atom_site_label
_atom_site_fract_x
_atom_site_fract_y
_atom_site_fract_z
Si Si1 0.500000 0.954610 0.500000
Si Si2 0.244326 0.174715 0.477385
Si Si3 0.567672 0.026801 0.937048
Si Si4 0.000000 0.784525 0.000000
Si Si5 0.244392 0.795021 0.802425
Si Si6 0.533367 0.151265 0.713867
Si Si7 0.278152 0.484064 0.728296
Si Si8 0.779621 0.456401 0.653660
O O1 0.644759 0.893997 0.621943
O O2 0.509937 0.053927 0.601353
O O3 0.395017 0.203498 0.620295
O O4 0.188954 0.333472 0.397420
O O5 0.220179 0.061986 0.370492
O O6 0.209362 0.092882 0.540429
O O7 0.584724 0.180417 0.009094
O O8 0.590965 0.057317 0.850288
O O9 0.417732 0.999744 0.813808
O O10 0.646217 0.889240 0.049168
O O11 0.900905 0.884141 0.854192
O O12 0.127422 0.780803 0.766232
O O13 0.280935 0.625837 0.802621
O O14 0.209322 0.878322 0.675120
#
# Coordination Sequence:
#
# PCOD9122850 Si02
#       8
#     2   4   4   2   4   4   4   4
#     4   8  16  42  60  82 116 164 198 260 310 384
#     4   9  20  35  60  89 121 156 213 258 311 369
#     4  11  23  39  60  89 133 163 206 271 322 365
#     4  12  24  36  60  96 130 164 214 278 306 380
#     4  10  20  40  64  84 126 171 206 251 330 391
#     4   9  20  37  60  87 116 165 205 251 314 380
#     4   9  21  35  64  88 123 165 217 252 323 379
#     4  10  20  36  60  89 122 164 205 266 311 371
#
# _framework density 20.516528999999998
#
# number of rings (size 3 to 8) (size 9 to 14) (size 15 to 20)
#    0.000    2.286    1.429    0.857    8.000    2.286 
#    0.000    1.429    3.143    0.000    0.000    0.000 
#    0.000    0.000    0.000    0.000    0.000    0.000 
#
# Total GULP energy -78033.070034 kJ/mol
# GULP energy per Si atom -5573.790717 kJ/mol
# Density = 2.046983 g / cm^3
# Si number density = 20.516529 Si / 1000 Ang^3
#
#
#
# Elastic Constant Matrix: (Units=GPa)
#
#
# Indices 1 2 3 4 5 6 
#
# 1 58.5737 21.9168 20.4291 0.0000 -17.4964 0.0000
# 2 21.9168 61.6615 41.2976 0.0000 -8.4011 0.0000
# 3 20.4291 41.2976 99.9264 0.0000 -9.5389 0.0000
# 4 0.0000 0.0000 0.0000 35.8558 0.0000 -9.4969
# 5 -17.4964 -8.4011 -9.5389 0.0000 32.2346 0.0000
# 6 0.0000 0.0000 0.0000 -9.4969 0.0000 25.9494
#
#
#
# Elastic Compliance Matrix: (Units=1/GPa)
#
#
# Indices 1 2 3 4 5 6 
#
# 1 0.022833 -0.005849 -0.001248 0.000000 0.010499 0.000000
# 2 -0.005849 0.024247 -0.008773 0.000000 0.000548 0.000000
# 3 -0.001248 -0.008773 0.014001 0.000000 0.001179 0.000000
# 4 0.000000 0.000000 0.000000 0.030883 0.000000 0.011303
# 5 0.010499 0.000548 0.001179 0.000000 0.037213 0.000000
# 6 0.000000 0.000000 0.000000 0.011303 0.000000 0.042673
#
#
# Mechanical properties :
#
#
# Convention : Reuss Voigt Hill
#
# Bulk Modulus (GPa) = 34.08295 43.04985 38.56640
# Shear Modulus (GPa) = 23.43351 27.90915 25.67133
#
# Velocity S-wave (km/s) = 3.38328 3.69226 3.54114
# Velocity P-wave (km/s) = 5.64895 6.26144 5.96306
#
# Compressibility (1/GPa) = 0.02934018
#
# Stress axis : x y z
#
# Youngs Moduli (GPa) = 43.79673 41.24281 71.42520
#
# Poissons Ratio (x) = 0.24123 0.08917
# Poissons Ratio (y) = 0.25617 0.62658
# Poissons Ratio (z) = 0.05468 0.36180
#
# Static dielectric constant tensor:
#      x y z
#    x 1.772760 0.000000 -0.019980 
#    y 0.000000 1.754420 0.000000 
#    z -0.019980 0.000000 1.752590 
# 
# From -- ./inp_files/46005.got.cif
#   From: 2010.05.17/outbox.cif.g08.bks.cpg/sg5_24_cif.got.tgz:46005.got - 2010.06.03 18:56:24.
