data_PCOD9122741
_publ_section_title
;
Structure prediction by ZEFSAII (Michael W. Deem and Ramdas Pophale) SiO2 
 PCOD9122741
Probable space group: C 2
;
_chemical_formula_sum "Si O2"
_cell_formula_units_Z 30
_cell_length_a 26.361548
_cell_length_b 10.166927
_cell_length_c 14.654659
_cell_angle_alpha 90.000000
_cell_angle_beta 18.621905
_cell_angle_gamma 90.000000
_cell_volume 1254.193863
_symmetry_space_group_name_H-M "C 2"
_symmetry_group_IT_number 5
_symmetry_cell_setting 'monoclinic'
loop_
_space_group_symop_operation_xyz
x,y,z
-x,y,-z
1/2+x,1/2+y,z
1/2-x,1/2+y,-z
loop_
_atom_site_type_symbol
_atom_site_label
_atom_site_fract_x
_atom_site_fract_y
_atom_site_fract_z
Si Si1 0.318629 0.944780 0.587529
Si Si2 0.338311 0.665380 0.832769
Si Si3 0.690956 0.425834 0.426114
Si Si4 0.288677 0.170948 0.506687
Si Si5 0.587934 0.697457 0.677220
Si Si6 0.500000 0.028030 0.000000
Si Si7 0.152682 0.352979 0.003699
Si Si8 0.193044 0.424012 0.184996
O O1 0.306103 0.797807 0.566243
O O2 0.512456 0.959025 0.256004
O O3 0.270844 0.961554 0.772947
O O4 0.243626 0.049742 0.648316
O O5 0.500000 0.641020 0.500000
O O6 0.348226 0.758970 0.906800
O O7 0.246038 0.773671 0.929292
O O8 0.263893 0.528760 0.992861
O O9 0.638148 0.290572 0.561564
O O10 0.597121 0.552994 0.620140
O O11 0.863636 0.451688 0.178090
O O12 0.699981 0.416687 0.300299
O O13 0.147403 0.207682 0.678485
O O14 0.416729 0.115195 0.217975
O O15 0.414135 0.755533 0.960423
O O16 0.000000 0.422794 0.500000
#
# Coordination Sequence:
#
# PCOD9122741 Si02
#       8
#     4   4   4   4   4   2   4   4
#     4  10  20  42  63  92 129 171 216 265 329 384
#     4  11  23  43  70  97 135 170 214 272 341 399
#     4  11  20  35  61  82 116 167 212 262 312 376
#     4  11  20  35  61  90 120 169 220 256 314 378
#     4   9  20  36  60  86 124 170 210 261 317 367
#     4  10  20  36  52  80 122 164 206 272 318 358
#     4  10  20  40  63  89 125 171 209 263 324 386
#     4  11  23  45  71  98 131 172 217 277 335 397
#
# _framework density 23.919747000000001
#
# number of rings (size 3 to 8) (size 9 to 14) (size 15 to 20)
#    0.800    0.800    4.000    3.200    0.000    2.667 
#    0.000    9.333    0.000    0.800    0.000    0.000 
#    0.000    0.000    0.000    0.000    0.000    0.000 
#
# Total GULP energy -83715.977519 kJ/mol
# GULP energy per Si atom -5581.065168 kJ/mol
# Density = 2.386530 g / cm^3
# Si number density = 23.919747 Si / 1000 Ang^3
#
#
#
# Elastic Constant Matrix: (Units=GPa)
#
#
# Indices 1 2 3 4 5 6 
#
# 1 81.0107 17.0238 27.8243 0.0000 25.9149 0.0000
# 2 17.0238 120.2506 47.3326 0.0000 26.3850 0.0000
# 3 27.8243 47.3326 77.2099 0.0000 37.5485 0.0000
# 4 0.0000 0.0000 0.0000 35.8522 0.0000 14.0407
# 5 25.9149 26.3850 37.5485 0.0000 38.1342 0.0000
# 6 0.0000 0.0000 0.0000 14.0407 0.0000 38.2076
#
#
#
# Elastic Compliance Matrix: (Units=1/GPa)
#
#
# Indices 1 2 3 4 5 6 
#
# 1 0.015818 0.000372 -0.001104 0.000000 -0.009920 0.000000
# 2 0.000372 0.011039 -0.005879 0.000000 -0.002101 0.000000
# 3 -0.001104 -0.005879 0.028035 0.000000 -0.022787 0.000000
# 4 0.000000 0.000000 0.000000 0.032581 0.000000 -0.011973
# 5 -0.009920 -0.002101 -0.022787 0.000000 0.056855 0.000000
# 6 0.000000 0.000000 0.000000 -0.011973 0.000000 0.030573
#
#
# Mechanical properties :
#
#
# Convention : Reuss Voigt Hill
#
# Bulk Modulus (GPa) = 23.99862 51.42585 37.71224
# Shear Modulus (GPa) = 24.75075 34.85816 29.80446
#
# Velocity S-wave (km/s) = 3.22023 3.82160 3.53373
# Velocity P-wave (km/s) = 4.88685 6.40459 5.69649
#
# Compressibility (1/GPa) = 0.04166906
#
# Stress axis : x y z
#
# Youngs Moduli (GPa) = 63.21725 90.59193 35.66937
#
# Poissons Ratio (x) = -0.03368 0.03939
# Poissons Ratio (y) = -0.02351 0.20970
# Poissons Ratio (z) = 0.06982 0.53259
#
# Static dielectric constant tensor:
#      x y z
#    x 1.975780 0.000000 -0.006610 
#    y 0.000000 1.896600 0.000000 
#    z -0.006610 0.000000 1.966110 
# 
# From -- ./inp_files/58401.got.cif
#   From: 2010.05.17/outbox.cif.g08.bks.cpg/sg5_30_cif.got.tgz:58401.got - 2010.06.03 18:56:24.
