data_PCOD9122271
_publ_section_title
;
Structure prediction by ZEFSAII (Michael W. Deem and Ramdas Pophale) SiO2 
 PCOD9122271
Probable space group: C 2
;
_chemical_formula_sum "Si O2"
_cell_formula_units_Z 28
_cell_length_a 15.110751
_cell_length_b 15.591209
_cell_length_c 9.395641
_cell_angle_alpha 90.000000
_cell_angle_beta 36.595748
_cell_angle_gamma 90.000000
_cell_volume 1319.650563
_symmetry_space_group_name_H-M "C 2"
_symmetry_group_IT_number 5
_symmetry_cell_setting 'monoclinic'
loop_
_space_group_symop_operation_xyz
x,y,z
-x,y,-z
1/2+x,1/2+y,z
1/2-x,1/2+y,-z
loop_
_atom_site_type_symbol
_atom_site_label
_atom_site_fract_x
_atom_site_fract_y
_atom_site_fract_z
Si Si1 0.628287 0.612140 0.419533
Si Si2 0.727949 0.225895 0.998478
Si Si3 0.164721 0.804382 0.356269
Si Si4 0.466431 0.546336 0.879544
Si Si5 0.505317 0.345017 0.824541
Si Si6 0.876327 0.552700 0.777172
Si Si7 0.140897 0.470352 0.914118
O O1 0.500000 0.559609 0.500000
O O2 0.555810 0.614796 0.668010
O O3 0.777376 0.557634 0.238958
O O4 0.660746 0.689992 0.267189
O O5 0.762080 0.245804 0.121733
O O6 0.649872 0.309789 0.036761
O O7 0.613931 0.146553 0.163503
O O8 0.240383 0.895861 0.248102
O O9 0.000000 0.802697 0.500000
O O10 0.130735 0.795240 0.569302
O O11 0.518867 0.447601 0.784354
O O12 0.500000 0.563638 0.000000
O O13 0.291923 0.547806 0.065052
O O14 0.500000 0.328334 0.000000
O O15 0.000000 0.544490 0.500000
O O16 0.900612 0.483802 0.868402
O O17 0.000000 0.452063 0.000000
#
# Coordination Sequence:
#
# PCOD9122271 Si02
#       7
#     4   4   4   4   4   4   4
#     4  11  21  44  67  94 128 178 230 272 328 413
#     4  10  22  38  64  95 124 174 218 271 336 392
#     4  10  19  40  65  87 131 176 223 265 333 410
#     4  11  23  42  72  95 126 183 234 272 330 406
#     4  10  21  38  65  99 127 176 225 270 330 412
#     4  11  23  40  60  96 133 166 221 282 337 392
#     4  11  23  37  66  98 128 172 222 278 335 386
#
# _framework density 21.217737
#
# number of rings (size 3 to 8) (size 9 to 14) (size 15 to 20)
#    0.000    1.429    4.286    3.429    2.000    2.286 
#    2.571    5.000    0.000    0.000    0.000    0.000 
#    0.000    0.000    0.000    0.000    0.000    0.000 
#
# Total GULP energy -77962.316992 kJ/mol
# GULP energy per Si atom -5568.736928 kJ/mol
# Density = 2.116944 g / cm^3
# Si number density = 21.217737 Si / 1000 Ang^3
#
#
#
# Elastic Constant Matrix: (Units=GPa)
#
#
# Indices 1 2 3 4 5 6 
#
# 1 63.9388 18.7135 48.0143 0.0009 31.2603 -0.0003
# 2 18.7135 45.4835 38.7687 0.0003 21.6113 -0.0001
# 3 48.0143 38.7687 195.3516 0.0010 46.6057 -0.0003
# 4 0.0009 0.0003 0.0010 417.2252 -0.0007 -116.6721
# 5 31.2603 21.6113 46.6057 -0.0007 37.3923 0.0002
# 6 -0.0003 -0.0001 -0.0003 -116.6721 0.0002 55.3040
#
#
#
# Elastic Compliance Matrix: (Units=1/GPa)
#
#
# Indices 1 2 3 4 5 6 
#
# 1 0.026876 0.000113 -0.001782 0.000000 -0.020313 0.000000
# 2 0.000113 0.031277 -0.002704 0.000000 -0.014801 0.000000
# 3 -0.001782 -0.002704 0.007636 0.000000 -0.006465 0.000000
# 4 0.000000 0.000000 0.000000 0.005845 0.000000 0.012331
# 5 -0.020313 -0.014801 -0.006465 0.000000 0.060338 0.000000
# 6 0.000000 0.000000 0.000000 0.012331 0.000000 0.044096
#
#
# Mechanical properties :
#
#
# Convention : Reuss Voigt Hill
#
# Bulk Modulus (GPa) = 17.53054 57.30742 37.41898
# Shear Modulus (GPa) = 24.53052 115.26946 69.89999
#
# Velocity S-wave (km/s) = 3.40388 7.37868 5.74592
# Velocity P-wave (km/s) = 4.87121 9.98304 7.85461
#
# Compressibility (1/GPa) = 0.05704330
#
# Stress axis : x y z
#
# Youngs Moduli (GPa) = 37.20739 31.97250 130.96045
#
# Poissons Ratio (x) = -0.00360 0.23337
# Poissons Ratio (y) = -0.00419 0.35406
# Poissons Ratio (z) = 0.06630 0.08644
#
# Static dielectric constant tensor:
#      x y z
#    x 1.739600 0.000000 0.217860 
#    y 0.000000 1.805880 0.000000 
#    z 0.217860 0.000000 0.872960 
# 
# From -- ./inp_files/25164.got.cif
#   From: 2010.05.17/outbox.cif.g08.bks.cpg/sg5_13_cif.got.tgz:25164.got - 2010.06.03 18:56:24.
