data_PCOD9122129
_publ_section_title
;
Structure prediction by ZEFSAII (Michael W. Deem and Ramdas Pophale) SiO2 
 PCOD9122129
Probable space group: C 2
;
_chemical_formula_sum "Si O2"
_cell_formula_units_Z 20
_cell_length_a 11.748043
_cell_length_b 7.020180
_cell_length_c 9.533696
_cell_angle_alpha 90.000000
_cell_angle_beta 69.743838
_cell_angle_gamma 90.000000
_cell_volume 737.648152
_symmetry_space_group_name_H-M "C 2"
_symmetry_group_IT_number 5
_symmetry_cell_setting 'monoclinic'
loop_
_space_group_symop_operation_xyz
x,y,z
-x,y,-z
1/2+x,1/2+y,z
1/2-x,1/2+y,-z
loop_
_atom_site_type_symbol
_atom_site_label
_atom_site_fract_x
_atom_site_fract_y
_atom_site_fract_z
Si Si1 0.862985 0.918750 0.525524
Si Si2 0.985807 0.436769 0.272772
Si Si3 0.421180 0.290021 0.916369
Si Si4 0.791562 0.482750 0.166011
Si Si5 0.679212 0.973469 0.392437
O O1 0.773855 0.044177 0.661367
O O2 0.843398 0.701711 0.586727
O O3 0.000000 0.970859 0.500000
O O4 0.815394 0.942972 0.387763
O O5 0.998660 0.659987 0.223368
O O6 0.122798 0.399381 0.269823
O O7 0.904233 0.396856 0.443943
O O8 0.093594 0.358118 0.823333
O O9 0.319047 0.396971 0.874255
O O10 0.500000 0.399876 0.000000
O O11 0.351431 0.136076 0.041144
#
# Coordination Sequence:
#
# PCOD9122129 Si02
#       5
#     4   4   4   4   4
#     4  11  21  41  60  91 121 151 195 246 293 354
#     4   9  18  39  63  84 117 158 187 243 296 347
#     4  10  20  40  60  85 120 159 195 244 287 347
#     4  10  21  39  64  86 117 160 200 234 299 345
#     4  10  19  38  66  87 119 154 192 242 304 345
#
# _framework density 27.113195999999999
#
# number of rings (size 3 to 8) (size 9 to 14) (size 15 to 20)
#    0.000    2.000    4.000    0.000    0.000    0.000 
#   21.600    7.000    0.000    0.000    0.000    0.000 
#    0.000    0.000    0.000    0.000    0.000    0.000 
#
# Total GULP energy -55835.349462 kJ/mol
# GULP energy per Si atom -5583.534946 kJ/mol
# Density = 2.705149 g / cm^3
# Si number density = 27.113196 Si / 1000 Ang^3
#
#
#
# Elastic Constant Matrix: (Units=GPa)
#
#
# Indices 1 2 3 4 5 6 
#
# 1 260.8787 28.9766 69.9563 0.0000 76.0213 0.0000
# 2 28.9766 47.8926 9.4780 0.0000 3.5189 0.0000
# 3 69.9563 9.4780 87.5978 0.0000 21.7755 0.0000
# 4 0.0000 0.0000 0.0000 24.1631 0.0000 3.5772
# 5 76.0213 3.5189 21.7755 0.0000 84.6857 0.0000
# 6 0.0000 0.0000 0.0000 3.5772 0.0000 47.8869
#
#
#
# Elastic Compliance Matrix: (Units=1/GPa)
#
#
# Indices 1 2 3 4 5 6 
#
# 1 0.006552 -0.002873 -0.003727 0.000000 -0.004803 0.000000
# 2 -0.002873 0.022605 -0.000597 0.000000 0.001794 0.000000
# 3 -0.003727 -0.000597 0.014549 0.000000 -0.000370 0.000000
# 4 0.000000 0.000000 0.000000 0.041848 0.000000 -0.003126
# 5 -0.004803 0.001794 -0.000370 0.000000 0.016141 0.000000
# 6 0.000000 0.000000 0.000000 -0.003126 0.000000 0.021116
#
#
# Mechanical properties :
#
#
# Convention : Reuss Voigt Hill
#
# Bulk Modulus (GPa) = 34.11752 68.13232 51.12492
# Shear Modulus (GPa) = 34.01912 50.54435 42.28173
#
# Velocity S-wave (km/s) = 3.54603 4.32232 3.95327
# Velocity P-wave (km/s) = 5.42000 7.07766 6.30356
#
# Compressibility (1/GPa) = 0.02931045
#
# Stress axis : x y z
#
# Youngs Moduli (GPa) = 152.63495 44.23814 68.73316
#
# Poissons Ratio (x) = 0.12711 0.25618
# Poissons Ratio (y) = 0.43858 0.04103
# Poissons Ratio (z) = 0.56890 0.02641
#
# Static dielectric constant tensor:
#      x y z
#    x 2.222260 0.000000 0.035040 
#    y 0.000000 2.199310 0.000000 
#    z 0.035040 0.000000 2.110600 
# 
# From -- ./inp_files/18271.got.cif
#   From: 2010.05.17/outbox.cif.g08.bks.cpg/sg5_10_cif.got.tgz:18271.got - 2010.06.03 18:56:24.
