data_PCOD9122794
_publ_section_title
;
Structure prediction by ZEFSAII (Michael W. Deem and Ramdas Pophale) SiO2 
 PCOD9122794
Probable space group: C 2
;
_chemical_formula_sum "Si O2"
_cell_formula_units_Z 28
_cell_length_a 7.262261
_cell_length_b 33.031109
_cell_length_c 5.118646
_cell_angle_alpha 90.000000
_cell_angle_beta 102.192778
_cell_angle_gamma 90.000000
_cell_volume 1200.166036
_symmetry_space_group_name_H-M "C 2"
_symmetry_group_IT_number 5
_symmetry_cell_setting 'monoclinic'
loop_
_space_group_symop_operation_xyz
x,y,z
-x,y,-z
1/2+x,1/2+y,z
1/2-x,1/2+y,-z
loop_
_atom_site_type_symbol
_atom_site_label
_atom_site_fract_x
_atom_site_fract_y
_atom_site_fract_z
Si Si1 0.377741 0.299640 0.704952
Si Si2 0.621909 0.586777 0.781874
Si Si3 0.870664 0.512230 0.709441
Si Si4 0.729641 0.664862 0.052188
Si Si5 0.727153 0.422297 0.576486
Si Si6 0.226701 0.213186 0.556372
Si Si7 0.769072 0.876494 0.918361
O O1 0.500000 0.318157 0.500000
O O2 0.292409 0.259268 0.554311
O O3 0.232360 0.332625 0.779716
O O4 0.500000 0.288878 0.000000
O O5 0.500000 0.604720 0.500000
O O6 0.718195 0.547392 0.693469
O O7 0.764403 0.620208 0.945832
O O8 0.500000 0.575008 0.000000
O O9 0.784112 0.467621 0.661823
O O10 0.000000 0.520271 0.500000
O O11 0.000000 0.513636 0.000000
O O12 0.791863 0.695859 0.850830
O O13 0.500000 0.664703 0.000000
O O14 0.790490 0.682831 0.346677
O O15 0.500000 0.420945 0.500000
O O16 0.793612 0.409827 0.309119
O O17 0.793973 0.390013 0.814521
O O18 0.000000 0.213366 0.500000
O O19 0.000000 0.876808 0.000000
#
# Coordination Sequence:
#
# PCOD9122794 Si02
#       7
#     4   4   4   4   4   4   4
#     4  11  21  36  57  87 121 155 196 249 306 362
#     4  11  22  41  68  92 114 160 221 260 291 364
#     4  12  26  42  60  93 136 166 190 253 331 375
#     4   9  18  35  60  85 110 147 200 254 292 338
#     4  10  20  38  63  85 110 157 213 248 284 357
#     4  10  20  36  58  84 116 152 192 243 302 358
#     4   9  18  34  59  86 112 149 203 257 291 334
#
# _framework density 23.330107000000002
#
# number of rings (size 3 to 8) (size 9 to 14) (size 15 to 20)
#    0.000    1.714    0.000    7.286    0.000    1.714 
#    0.000    5.000    0.000    0.000    0.000    0.000 
#    0.000    0.000    0.000    0.000    0.000    0.000 
#
# Total GULP energy -78274.617673 kJ/mol
# GULP energy per Si atom -5591.044120 kJ/mol
# Density = 2.327701 g / cm^3
# Si number density = 23.330107 Si / 1000 Ang^3
#
#
#
# Elastic Constant Matrix: (Units=GPa)
#
#
# Indices 1 2 3 4 5 6 
#
# 1 63.6880 24.6149 43.0184 0.0000 -10.9904 0.0000
# 2 24.6149 149.0014 33.3360 0.0000 -9.8131 0.0000
# 3 43.0184 33.3360 153.7623 0.0000 -23.7811 0.0000
# 4 0.0000 0.0000 0.0000 41.9671 0.0000 -14.7757
# 5 -10.9904 -9.8131 -23.7811 0.0000 39.3856 0.0000
# 6 0.0000 0.0000 0.0000 -14.7757 0.0000 -13.3227
#
#
#
# Elastic Compliance Matrix: (Units=1/GPa)
#
#
# Indices 1 2 3 4 5 6 
#
# 1 0.020165 -0.002103 -0.004849 0.000000 0.002175 0.000000
# 2 -0.002103 0.007303 -0.000887 0.000000 0.000697 0.000000
# 3 -0.004849 -0.000887 0.008613 0.000000 0.003627 0.000000
# 4 0.000000 0.000000 0.000000 0.017137 0.000000 -0.019006
# 5 0.002175 0.000697 0.003627 0.000000 0.028360 0.000000
# 6 0.000000 0.000000 0.000000 -0.019006 0.000000 -0.053981
#
#
# Mechanical properties :
#
#
# Convention : Reuss Voigt Hill
#
# Bulk Modulus (GPa) = 49.01300 63.15449 56.08374
# Shear Modulus (GPa) = 99.84514 31.30482 65.57498
#
# Velocity S-wave (km/s) = 6.54902 3.66706 5.30740
# Velocity P-wave (km/s) = 8.84535 6.71256 7.85171
#
# Compressibility (1/GPa) = 0.02040275
#
# Stress axis : x y z
#
# Youngs Moduli (GPa) = 49.59031 136.92693 116.09710
#
# Poissons Ratio (x) = 0.28797 0.56299
# Poissons Ratio (y) = 0.10429 0.10299
# Poissons Ratio (z) = 0.24048 0.12147
#
# Static dielectric constant tensor:
#      x y z
#    x 1.935900 0.000000 0.033460 
#    y 0.000000 1.895510 0.000000 
#    z 0.033460 0.000000 1.861510 
# 
# From -- ./inp_files/3812.got.cif
#   From: 2010.05.17/outbox.cif.g08.bks.cpg/sg5_2_cif.got.tgz:3812.got - 2010.06.03 18:56:24.
