data_PCOD9122950
_publ_section_title
;
Structure prediction by ZEFSAII (Michael W. Deem and Ramdas Pophale) SiO2 
 PCOD9122950
Probable space group: C 2
;
_chemical_formula_sum "Si O2"
_cell_formula_units_Z 26
_cell_length_a 10.487235
_cell_length_b 16.141036
_cell_length_c 8.836572
_cell_angle_alpha 90.000000
_cell_angle_beta 66.565500
_cell_angle_gamma 90.000000
_cell_volume 1372.427942
_symmetry_space_group_name_H-M "C 2"
_symmetry_group_IT_number 5
_symmetry_cell_setting 'monoclinic'
loop_
_space_group_symop_operation_xyz
x,y,z
-x,y,-z
1/2+x,1/2+y,z
1/2-x,1/2+y,-z
loop_
_atom_site_type_symbol
_atom_site_label
_atom_site_fract_x
_atom_site_fract_y
_atom_site_fract_z
Si Si1 0.872666 0.090680 0.671907
Si Si2 0.352800 0.938976 0.748649
Si Si3 0.610031 0.467112 0.083271
Si Si4 0.431602 0.287685 0.799695
Si Si5 0.148481 0.519321 0.567993
Si Si6 0.273841 0.261331 0.179912
Si Si7 0.500000 0.175503 0.500000
O O1 0.763362 0.029683 0.640771
O O2 0.799657 0.177312 0.739796
O O3 0.000000 0.103048 0.500000
O O4 0.919690 0.047060 0.803882
O O5 0.326961 0.840669 0.760102
O O6 0.511981 0.968624 0.685111
O O7 0.302398 0.976320 0.611147
O O8 0.258789 0.972490 0.930033
O O9 0.600767 0.385273 0.191910
O O10 0.500000 0.454379 0.000000
O O11 0.590833 0.278123 0.780529
O O12 0.418310 0.234429 0.654585
O O13 0.333554 0.255438 0.981245
O O14 0.097323 0.611776 0.546426
#
# Coordination Sequence:
#
# PCOD9122950 Si02
#       7
#     4   4   4   4   4   4   2
#     4  12  27  39  61  95 128 162 215 266 314 365
#     4   9  20  40  68  86 124 168 207 249 317 369
#     4  11  22  41  64  91 128 168 207 259 312 378
#     4  10  20  39  67  91 125 166 209 249 315 371
#     4  10  23  40  63  92 125 166 215 256 316 368
#     4  10  21  40  64  90 125 167 205 255 310 372
#     4  10  20  36  66 102 120 162 212 260 294 388
#
# _framework density 18.944528999999999
#
# number of rings (size 3 to 8) (size 9 to 14) (size 15 to 20)
#    0.000    1.846    4.615    0.923    7.538    0.615 
#    0.000    0.000    3.385    0.000    0.000    0.000 
#    0.000    0.000    0.000    0.000    0.000    0.000 
#
# Total GULP energy -72574.809868 kJ/mol
# GULP energy per Si atom -5582.677682 kJ/mol
# Density = 1.890141 g / cm^3
# Si number density = 18.944529 Si / 1000 Ang^3
#
#
#
# Elastic Constant Matrix: (Units=GPa)
#
#
# Indices 1 2 3 4 5 6 
#
# 1 49.1533 32.5789 16.0761 0.0000 -10.1738 0.0000
# 2 32.5789 119.2515 75.8251 0.0000 -20.4783 0.0000
# 3 16.0761 75.8251 83.8366 0.0000 -23.2908 0.0000
# 4 0.0000 0.0000 0.0000 31.9271 0.0000 -6.0946
# 5 -10.1738 -20.4783 -23.2908 0.0000 22.7039 0.0000
# 6 0.0000 0.0000 0.0000 -6.0946 0.0000 15.9512
#
#
#
# Elastic Compliance Matrix: (Units=1/GPa)
#
#
# Indices 1 2 3 4 5 6 
#
# 1 0.026673 -0.009608 0.006277 0.000000 0.009725 0.000000
# 2 -0.009608 0.023204 -0.020316 0.000000 -0.004217 0.000000
# 3 0.006277 -0.020316 0.034670 0.000000 0.020055 0.000000
# 4 0.000000 0.000000 0.000000 0.033786 0.000000 0.012909
# 5 0.009725 -0.004217 0.020055 0.000000 0.065173 0.000000
# 6 0.000000 0.000000 0.000000 0.012909 0.000000 0.067623
#
#
# Mechanical properties :
#
#
# Convention : Reuss Voigt Hill
#
# Bulk Modulus (GPa) = 26.84318 55.68908 41.26613
# Shear Modulus (GPa) = 16.08550 22.63388 19.35969
#
# Velocity S-wave (km/s) = 2.91707 3.46026 3.20021
# Velocity P-wave (km/s) = 5.05429 6.73975 5.95693
#
# Compressibility (1/GPa) = 0.03725341
#
# Stress axis : x y z
#
# Youngs Moduli (GPa) = 37.49161 43.09637 28.84341
#
# Poissons Ratio (x) = 0.41407 -0.18105
# Poissons Ratio (y) = 0.36022 0.58597
# Poissons Ratio (z) = -0.23533 0.87553
#
# Static dielectric constant tensor:
#      x y z
#    x 1.657150 0.000000 0.011120 
#    y 0.000000 1.636760 0.000000 
#    z 0.011120 0.000000 1.656830 
# 
# From -- ./inp_files/20258.got.cif
#   From: 2010.05.17/outbox.cif.g08.bks.cpg/sg5_11_cif.got.tgz:20258.got - 2010.06.03 18:56:24.
