data_PCOD9122775
_publ_section_title
;
Structure prediction by ZEFSAII (Michael W. Deem and Ramdas Pophale) SiO2 
 PCOD9122775
Probable space group: C 2
;
_chemical_formula_sum "Si O2"
_cell_formula_units_Z 22
_cell_length_a 21.830688
_cell_length_b 8.188976
_cell_length_c 13.814235
_cell_angle_alpha 90.000000
_cell_angle_beta 157.343561
_cell_angle_gamma 90.000000
_cell_volume 951.295098
_symmetry_space_group_name_H-M "C 2"
_symmetry_group_IT_number 5
_symmetry_cell_setting 'monoclinic'
loop_
_space_group_symop_operation_xyz
x,y,z
-x,y,-z
1/2+x,1/2+y,z
1/2-x,1/2+y,-z
loop_
_atom_site_type_symbol
_atom_site_label
_atom_site_fract_x
_atom_site_fract_y
_atom_site_fract_z
Si Si1 0.335795 0.940800 0.596416
Si Si2 0.907413 0.580323 0.154535
Si Si3 0.249999 0.914950 0.108168
Si Si4 0.500000 0.156791 0.000000
Si Si5 0.954215 0.078801 0.736792
Si Si6 0.211273 0.158244 0.697298
O O1 0.400722 0.757674 0.693251
O O2 0.416207 0.027546 0.620507
O O3 0.148124 0.954843 0.345766
O O4 0.408941 0.041889 0.791802
O O5 0.874300 0.774621 0.111639
O O6 0.843600 0.495016 0.157072
O O7 0.791502 0.537368 0.893058
O O8 0.352098 0.807148 0.331849
O O9 0.140408 0.044426 0.004473
O O10 0.641533 0.238152 0.147573
O O11 0.900751 0.078399 0.545147
#
# Coordination Sequence:
#
# PCOD9122775 Si02
#       6
#     4   4   4   2   4   4
#     4  10  20  36  57  88 115 157 197 248 300 360
#     4   9  19  38  58  82 121 156 197 241 306 358
#     4  10  20  37  63  83 118 164 195 245 307 360
#     4   8  16  38  56  78 120 156 182 250 302 352
#     4  11  21  37  62  88 120 154 206 249 301 362
#     4   8  20  35  61  80 117 158 195 237 309 348
#
# _framework density 23.126366000000001
#
# number of rings (size 3 to 8) (size 9 to 14) (size 15 to 20)
#    1.091    1.455    0.000    2.182    2.545    0.727 
#    3.273    0.000    8.000    0.000    0.000    0.000 
#    0.000    0.000    0.000    0.000    0.000    0.000 
#
# Total GULP energy -61311.249111 kJ/mol
# GULP energy per Si atom -5573.749919 kJ/mol
# Density = 2.307373 g / cm^3
# Si number density = 23.126366 Si / 1000 Ang^3
#
#
#
# Elastic Constant Matrix: (Units=GPa)
#
#
# Indices 1 2 3 4 5 6 
#
# 1 152.4332 46.1624 26.3285 0.0000 36.7175 0.0000
# 2 46.1624 80.6861 6.2848 0.0000 13.9060 0.0000
# 3 26.3285 6.2848 49.9548 0.0000 19.9255 0.0000
# 4 0.0000 0.0000 0.0000 17.6801 0.0000 4.6662
# 5 36.7175 13.9060 19.9255 0.0000 33.4532 0.0000
# 6 0.0000 0.0000 0.0000 4.6662 0.0000 51.1834
#
#
#
# Elastic Compliance Matrix: (Units=1/GPa)
#
#
# Indices 1 2 3 4 5 6 
#
# 1 0.010137 -0.004219 -0.001408 0.000000 -0.008533 0.000000
# 2 -0.004219 0.015125 0.001287 0.000000 -0.002423 0.000000
# 3 -0.001408 0.001287 0.026488 0.000000 -0.014767 0.000000
# 4 0.000000 0.000000 0.000000 0.057955 0.000000 -0.005284
# 5 -0.008533 -0.002423 -0.014767 0.000000 0.049061 0.000000
# 6 0.000000 0.000000 0.000000 -0.005284 0.000000 0.020019
#
#
# Mechanical properties :
#
#
# Convention : Reuss Voigt Hill
#
# Bulk Modulus (GPa) = 23.21782 48.95838 36.08810
# Shear Modulus (GPa) = 24.77435 34.08322 29.42879
#
# Velocity S-wave (km/s) = 3.27656 3.84315 3.57111
# Velocity P-wave (km/s) = 4.93719 6.39601 5.71335
#
# Compressibility (1/GPa) = 0.04307037
#
# Stress axis : x y z
#
# Youngs Moduli (GPa) = 98.65267 66.11620 37.75261
#
# Poissons Ratio (x) = 0.27895 0.05316
# Poissons Ratio (y) = 0.41622 -0.04860
# Poissons Ratio (z) = 0.13890 -0.08511
#
# Static dielectric constant tensor:
#      x y z
#    x 1.881430 0.000000 -0.013540 
#    y 0.000000 1.857930 0.000000 
#    z -0.013540 0.000000 1.929200 
# 
# From -- ./inp_files/41332.got.cif
#   From: 2010.05.17/outbox.cif.g08.bks.cpg/sg5_21_cif.got.tgz:41332.got - 2010.06.03 18:56:24.
