data_PCOD9122389
_publ_section_title
;
Structure prediction by ZEFSAII (Michael W. Deem and Ramdas Pophale) SiO2 
 PCOD9122389
Probable space group: C 2
;
_chemical_formula_sum "Si O2"
_cell_formula_units_Z 30
_cell_length_a 13.358039
_cell_length_b 5.489682
_cell_length_c 17.488942
_cell_angle_alpha 90.000000
_cell_angle_beta 105.776592
_cell_angle_gamma 90.000000
_cell_volume 1234.175937
_symmetry_space_group_name_H-M "C 2"
_symmetry_group_IT_number 5
_symmetry_cell_setting 'monoclinic'
loop_
_space_group_symop_operation_xyz
x,y,z
-x,y,-z
1/2+x,1/2+y,z
1/2-x,1/2+y,-z
loop_
_atom_site_type_symbol
_atom_site_label
_atom_site_fract_x
_atom_site_fract_y
_atom_site_fract_z
Si Si1 0.261363 0.145310 0.549184
Si Si2 0.635190 0.619420 0.260883
Si Si3 0.261910 0.496899 0.190441
Si Si4 0.226169 0.246404 0.036672
Si Si5 0.451050 0.235790 0.845947
Si Si6 0.163454 0.304126 0.672045
Si Si7 0.000000 0.446734 0.000000
Si Si8 0.534657 0.012303 0.321616
O O1 0.249427 0.396955 0.500767
O O2 0.173110 0.150190 0.597261
O O3 0.375655 0.138248 0.611354
O O4 0.556617 0.517207 0.180090
O O5 0.721953 0.421959 0.298656
O O6 0.575105 0.734602 0.318754
O O7 0.705317 0.831117 0.240725
O O8 0.289295 0.326510 0.125706
O O9 0.167308 0.677407 0.148892
O O10 0.347930 0.645754 0.253015
O O11 0.247342 0.971495 0.014959
O O12 0.103242 0.282936 0.028331
O O13 0.514591 0.120509 0.928527
O O14 0.474778 0.113955 0.767591
O O15 0.074241 0.503857 0.657794
#
# Coordination Sequence:
#
# PCOD9122389 Si02
#       8
#     4   4   4   4   4   4   2   4
#     4  12  27  52  76 106 153 185 231 307 367 436
#     4  10  19  43  69  98 145 185 239 299 347 420
#     4   9  21  41  69  97 140 191 237 299 354 425
#     4  11  27  44  66 102 148 190 246 303 361 423
#     4   9  20  41  68 100 144 190 245 298 355 423
#     4  11  24  44  75 104 137 187 239 290 359 437
#     4  10  24  44  66 106 146 198 244 310 362 414
#     4  11  24  44  72 108 134 193 242 287 360 441
#
# _framework density 24.307717
#
# number of rings (size 3 to 8) (size 9 to 14) (size 15 to 20)
#    0.000    1.600    4.000    0.800    7.467    3.200 
#    2.400    4.000    0.000    0.000    0.000    0.000 
#    0.000    0.000    0.000    0.000    0.000    0.000 
#
# Total GULP energy -83784.232191 kJ/mol
# GULP energy per Si atom -5585.615479 kJ/mol
# Density = 2.425239 g / cm^3
# Si number density = 24.307717 Si / 1000 Ang^3
#
#
#
# Elastic Constant Matrix: (Units=GPa)
#
#
# Indices 1 2 3 4 5 6 
#
# 1 90.7312 17.7997 36.8663 0.0000 -1.3786 0.0000
# 2 17.7997 75.3717 22.2651 0.0000 1.4856 0.0000
# 3 36.8663 22.2651 110.0599 0.0000 1.6283 0.0000
# 4 0.0000 0.0000 0.0000 40.2534 0.0000 -13.1492
# 5 -1.3786 1.4856 1.6283 0.0000 20.2770 0.0000
# 6 0.0000 0.0000 0.0000 -13.1492 0.0000 30.5389
#
#
#
# Elastic Compliance Matrix: (Units=1/GPa)
#
#
# Indices 1 2 3 4 5 6 
#
# 1 0.013045 -0.001926 -0.004000 0.000000 0.001349 0.000000
# 2 -0.001926 0.014408 -0.002255 0.000000 -0.001006 0.000000
# 3 -0.004000 -0.002255 0.010897 0.000000 -0.000982 0.000000
# 4 0.000000 0.000000 0.000000 0.028909 0.000000 0.012447
# 5 0.001349 -0.001006 -0.000982 0.000000 0.049561 0.000000
# 6 0.000000 0.000000 0.000000 0.012447 0.000000 0.038105
#
#
# Mechanical properties :
#
#
# Convention : Reuss Voigt Hill
#
# Bulk Modulus (GPa) = 45.47792 47.78056 46.62924
# Shear Modulus (GPa) = 27.99312 31.49596 29.74454
#
# Velocity S-wave (km/s) = 3.39723 3.60351 3.50189
# Velocity P-wave (km/s) = 5.84278 6.08383 5.96452
#
# Compressibility (1/GPa) = 0.02198869
#
# Stress axis : x y z
#
# Youngs Moduli (GPa) = 76.65667 69.40456 91.77230
#
# Poissons Ratio (x) = 0.13365 0.36710
# Poissons Ratio (y) = 0.14762 0.20693
# Poissons Ratio (z) = 0.30663 0.15650
#
# Static dielectric constant tensor:
#      x y z
#    x 1.905410 0.000000 0.013580 
#    y 0.000000 2.003160 0.000000 
#    z 0.013580 0.000000 2.006720 
# 
# From -- ./inp_files/61132.got.cif
#   From: 2010.05.17/outbox.cif.g08.bks.cpg/sg5_31_cif.got.tgz:61132.got - 2010.06.03 18:56:24.
