data_PCOD9122780
_publ_section_title
;
Structure prediction by ZEFSAII (Michael W. Deem and Ramdas Pophale) SiO2 
 PCOD9122780
Probable space group: C 2
;
_chemical_formula_sum "Si O2"
_cell_formula_units_Z 30
_cell_length_a 15.429068
_cell_length_b 10.845597
_cell_length_c 7.056001
_cell_angle_alpha 90.000000
_cell_angle_beta 102.031940
_cell_angle_gamma 90.000000
_cell_volume 1154.794357
_symmetry_space_group_name_H-M "C 2"
_symmetry_group_IT_number 5
_symmetry_cell_setting 'monoclinic'
loop_
_space_group_symop_operation_xyz
x,y,z
-x,y,-z
1/2+x,1/2+y,z
1/2-x,1/2+y,-z
loop_
_atom_site_type_symbol
_atom_site_label
_atom_site_fract_x
_atom_site_fract_y
_atom_site_fract_z
Si Si1 0.589751 0.594780 0.146406
Si Si2 0.405531 0.132645 0.461483
Si Si3 0.400929 0.135368 0.903190
Si Si4 0.709893 0.363080 0.227792
Si Si5 0.351452 0.869197 0.860868
Si Si6 0.000000 0.028937 0.500000
Si Si7 0.401202 0.858585 0.442151
Si Si8 0.336213 0.366087 0.340780
O O1 0.670048 0.497393 0.154209
O O2 0.616124 0.730573 0.075814
O O3 0.558962 0.591694 0.356301
O O4 0.500000 0.554999 0.000000
O O5 0.500000 0.198450 0.500000
O O6 0.382617 0.120497 0.669378
O O7 0.343797 0.219228 0.314796
O O8 0.415897 0.998968 0.383270
O O9 0.339846 0.254619 0.906738
O O10 0.394077 0.992724 0.966641
O O11 0.500000 0.174789 0.000000
O O12 0.814417 0.325409 0.279750
O O13 0.684430 0.367489 0.441781
O O14 0.370931 0.862380 0.644808
O O15 0.247646 0.902538 0.820273
O O16 0.075609 0.946755 0.640727
O O17 0.500000 0.803133 0.500000
#
# Coordination Sequence:
#
# PCOD9122780 Si02
#       8
#     4   4   4   4   4   2   4   4
#     4  11  23  41  67  94 135 171 214 269 331 381
#     4   9  16  30  56  81 110 150 197 242 301 366
#     4  10  20  36  58  81 118 161 200 245 314 387
#     4   9  19  35  60  91 118 163 213 262 318 382
#     4  10  21  36  61  87 126 168 205 263 331 381
#     4  10  22  38  68  96 126 170 226 268 322 388
#     4   9  18  32  57  92 122 158 212 267 313 380
#     4   9  17  34  60  89 118 159 211 263 311 382
#
# _framework density 25.978653999999999
#
# number of rings (size 3 to 8) (size 9 to 14) (size 15 to 20)
#    0.000    2.400    0.667    1.600    0.933    6.400 
#    0.000    0.000   14.667    0.000    0.000    0.000 
#    0.000    0.000    0.000    0.000    0.000    0.000 
#
# Total GULP energy -83590.301300 kJ/mol
# GULP energy per Si atom -5572.686753 kJ/mol
# Density = 2.591952 g / cm^3
# Si number density = 25.978654 Si / 1000 Ang^3
#
#
#
# Elastic Constant Matrix: (Units=GPa)
#
#
# Indices 1 2 3 4 5 6 
#
# 1 141.1168 59.9535 38.8283 0.0000 27.8875 0.0000
# 2 59.9535 127.5503 31.5035 0.0000 5.1345 0.0000
# 3 38.8283 31.5035 98.8310 0.0000 1.5089 0.0000
# 4 0.0000 0.0000 0.0000 15.4696 0.0000 21.3656
# 5 27.8875 5.1345 1.5089 0.0000 59.6078 0.0000
# 6 0.0000 0.0000 0.0000 21.3656 0.0000 16.5071
#
#
#
# Elastic Compliance Matrix: (Units=1/GPa)
#
#
# Indices 1 2 3 4 5 6 
#
# 1 0.010446 -0.004052 -0.002744 0.000000 -0.004469 0.000000
# 2 -0.004052 0.010109 -0.001646 0.000000 0.001067 0.000000
# 3 -0.002744 -0.001646 0.011704 0.000000 0.001129 0.000000
# 4 0.000000 0.000000 0.000000 -0.082071 0.000000 0.106227
# 5 -0.004469 0.001067 0.001129 0.000000 0.018747 0.000000
# 6 0.000000 0.000000 0.000000 0.106227 0.000000 -0.076913
#
#
# Mechanical properties :
#
#
# Convention : Reuss Voigt Hill
#
# Bulk Modulus (GPa) = 65.04984 69.78541 67.41762
# Shear Modulus (GPa) = -58.16078 34.13108 -12.01485
#
# Velocity S-wave (km/s) = -4.73672 3.62859 -2.15289
# Velocity P-wave (km/s) = 2.19574 6.66907 4.45282
#
# Compressibility (1/GPa) = 0.01537283
#
# Stress axis : x y z
#
# Youngs Moduli (GPa) = 95.72910 98.92616 85.44146
#
# Poissons Ratio (x) = 0.40089 0.23446
# Poissons Ratio (y) = 0.38794 0.14067
# Poissons Ratio (z) = 0.26269 0.16287
#
# Static dielectric constant tensor:
#      x y z
#    x 2.251330 0.000000 -0.010670 
#    y 0.000000 2.062020 0.000000 
#    z -0.010670 0.000000 2.026320 
# 
# From -- ./inp_files/23927.got.cif
#   From: 2010.05.17/outbox.cif.g08.bks.cpg/sg5_12_cif.got.tgz:23927.got - 2010.06.03 18:56:24.
