data_PCOD9122391
_publ_section_title
;
Structure prediction by ZEFSAII (Michael W. Deem and Ramdas Pophale) SiO2 
 PCOD9122391
Probable space group: C 2
;
_chemical_formula_sum "Si O2"
_cell_formula_units_Z 18
_cell_length_a 8.544338
_cell_length_b 11.230397
_cell_length_c 8.614920
_cell_angle_alpha 90.000000
_cell_angle_beta 70.029706
_cell_angle_gamma 90.000000
_cell_volume 776.948947
_symmetry_space_group_name_H-M "C 2"
_symmetry_group_IT_number 5
_symmetry_cell_setting 'monoclinic'
loop_
_space_group_symop_operation_xyz
x,y,z
-x,y,-z
1/2+x,1/2+y,z
1/2-x,1/2+y,-z
loop_
_atom_site_type_symbol
_atom_site_label
_atom_site_fract_x
_atom_site_fract_y
_atom_site_fract_z
Si Si1 0.110512 0.632920 0.090067
Si Si2 0.574198 0.758013 0.139538
Si Si3 0.606010 0.506547 0.820693
Si Si4 0.000000 0.281487 0.500000
Si Si5 0.880125 0.781607 0.391753
O O1 0.225507 0.551142 0.156801
O O2 0.982275 0.701155 0.240052
O O3 0.234729 0.726440 0.962544
O O4 0.000000 0.567260 0.000000
O O5 0.492293 0.626520 0.194876
O O6 0.534914 0.829263 0.310684
O O7 0.500000 0.800338 0.000000
O O8 0.629544 0.414679 0.675018
O O9 0.500000 0.453400 0.000000
O O10 0.189965 0.233424 0.467290
O O11 0.000000 0.784443 0.500000
#
# Coordination Sequence:
#
# PCOD9122391 Si02
#       5
#     4   4   4   2   4
#     4  10  19  43  73  91 131 185 225 280 357 400
#     4   9  20  41  67  94 130 179 230 280 347 409
#     4   9  22  43  67 100 129 180 232 280 351 413
#     4  12  24  42  68 106 132 182 236 276 358 418
#     4  12  25  44  68 102 142 179 229 293 345 416
#
# _framework density 23.167543999999999
#
# number of rings (size 3 to 8) (size 9 to 14) (size 15 to 20)
#    0.000    2.222    2.222    3.333    1.556    0.000 
#   14.000    0.000    0.000    0.000    0.000    0.000 
#    0.000    0.000    0.000    0.000    0.000    0.000 
#
# Total GULP energy -50148.180911 kJ/mol
# GULP energy per Si atom -5572.020101 kJ/mol
# Density = 2.311481 g / cm^3
# Si number density = 23.167544 Si / 1000 Ang^3
#
#
#
# Elastic Constant Matrix: (Units=GPa)
#
#
# Indices 1 2 3 4 5 6 
#
# 1 224.6478 38.9760 71.5908 0.0000 -9.8342 0.0000
# 2 38.9760 73.0262 34.4150 0.0000 -5.7880 0.0000
# 3 71.5908 34.4150 164.3111 0.0000 -7.2299 0.0000
# 4 0.0000 0.0000 0.0000 31.7280 0.0000 5.8093
# 5 -9.8342 -5.7880 -7.2299 0.0000 59.2111 0.0000
# 6 0.0000 0.0000 0.0000 5.8093 0.0000 23.0599
#
#
#
# Elastic Compliance Matrix: (Units=1/GPa)
#
#
# Indices 1 2 3 4 5 6 
#
# 1 0.005427 -0.001946 -0.001936 0.000000 0.000475 0.000000
# 2 -0.001946 0.015964 -0.002454 0.000000 0.000938 0.000000
# 3 -0.001936 -0.002454 0.007459 0.000000 0.000349 0.000000
# 4 0.000000 0.000000 0.000000 0.033042 0.000000 -0.008324
# 5 0.000475 0.000938 0.000349 0.000000 0.017102 0.000000
# 6 0.000000 0.000000 0.000000 -0.008324 0.000000 0.045462
#
#
# Mechanical properties :
#
#
# Convention : Reuss Voigt Hill
#
# Bulk Modulus (GPa) = 61.81990 83.54985 72.68488
# Shear Modulus (GPa) = 35.08263 43.93336 39.50800
#
# Velocity S-wave (km/s) = 3.89562 4.35941 4.13403
# Velocity P-wave (km/s) = 6.85392 7.84098 7.36401
#
# Compressibility (1/GPa) = 0.01617602
#
# Stress axis : x y z
#
# Youngs Moduli (GPa) = 184.26926 62.64289 134.06790
#
# Poissons Ratio (x) = 0.12193 0.25954
# Poissons Ratio (y) = 0.35868 0.32903
# Poissons Ratio (z) = 0.35673 0.15374
#
# Static dielectric constant tensor:
#      x y z
#    x 1.947520 0.000000 0.045520 
#    y 0.000000 1.891700 0.000000 
#    z 0.045520 0.000000 1.877000 
# 
# From -- ./inp_files/14208.got.cif
#   From: 2010.05.17/outbox.cif.g08.bks.cpg/sg5_8_cif.got.tgz:14208.got - 2010.06.03 18:56:24.
