data_PCOD9122609
_publ_section_title
;
Structure prediction by ZEFSAII (Michael W. Deem and Ramdas Pophale) SiO2 
 PCOD9122609
Probable space group: C 2
;
_chemical_formula_sum "Si O2"
_cell_formula_units_Z 30
_cell_length_a 11.389778
_cell_length_b 12.335838
_cell_length_c 20.115111
_cell_angle_alpha 90.000000
_cell_angle_beta 29.955584
_cell_angle_gamma 90.000000
_cell_volume 1411.213450
_symmetry_space_group_name_H-M "C 2"
_symmetry_group_IT_number 5
_symmetry_cell_setting 'monoclinic'
loop_
_space_group_symop_operation_xyz
x,y,z
-x,y,-z
1/2+x,1/2+y,z
1/2-x,1/2+y,-z
loop_
_atom_site_type_symbol
_atom_site_label
_atom_site_fract_x
_atom_site_fract_y
_atom_site_fract_z
Si Si1 0.554694 0.590810 0.175500
Si Si2 0.385580 0.262823 0.986953
Si Si3 0.331013 0.145578 0.271047
Si Si4 0.466144 0.275636 0.711277
Si Si5 0.536699 0.523721 0.634399
Si Si6 0.461439 0.107838 0.595195
Si Si7 0.500000 0.685664 0.000000
Si Si8 0.246216 0.007620 0.962979
O O1 0.625393 0.710869 0.117399
O O2 0.552442 0.583782 0.255243
O O3 0.295510 0.553973 0.279809
O O4 0.747927 0.519334 0.042133
O O5 0.352619 0.390688 0.003125
O O6 0.500000 0.227909 0.000000
O O7 0.542650 0.217215 0.849382
O O8 0.343657 0.222413 0.330124
O O9 0.509765 0.042753 0.190269
O O10 0.093088 0.088259 0.361624
O O11 0.488505 0.398299 0.675207
O O12 0.462256 0.203543 0.647298
O O13 0.220742 0.256595 0.870150
O O14 0.818261 0.534330 0.493003
O O15 0.500000 0.144933 0.500000
O O16 0.426259 0.601550 0.978764
#
# Coordination Sequence:
#
# PCOD9122609 Si02
#       8
#     4   4   4   4   4   4   2   4
#     4  10  21  41  63  90 136 171 233 275 330 435
#     4  11  20  36  63  96 138 178 217 287 343 415
#     4  10  24  40  62 105 135 173 235 283 346 423
#     4  11  24  46  70 102 138 180 232 289 355 417
#     4  11  24  45  67  96 134 189 226 284 348 405
#     4  10  24  48  67  93 133 182 234 276 339 424
#     4  10  20  38  66 104 140 170 220 292 350 422
#     4  10  20  34  63  98 135 176 215 284 359 401
#
# _framework density 21.258299000000001
#
# number of rings (size 3 to 8) (size 9 to 14) (size 15 to 20)
#    0.000    1.600    3.333    0.800    1.867    2.667 
#   12.000    1.333    0.000    0.000    0.000    0.000 
#    0.000    0.000    0.000    0.000    0.000    0.000 
#
# Total GULP energy -83622.561390 kJ/mol
# GULP energy per Si atom -5574.837426 kJ/mol
# Density = 2.120991 g / cm^3
# Si number density = 21.258299 Si / 1000 Ang^3
#
#
#
# Elastic Constant Matrix: (Units=GPa)
#
#
# Indices 1 2 3 4 5 6 
#
# 1 86.7869 17.1210 0.2205 -0.0003 -10.0676 0.0002
# 2 17.1210 109.3289 24.4592 -0.0006 -10.3820 0.0001
# 3 0.2205 24.4592 42.7388 0.0082 -6.0525 0.0009
# 4 -0.0003 -0.0006 0.0082 -36.7567 -0.0013 -3.2757
# 5 -10.0676 -10.3820 -6.0525 -0.0013 31.0872 0.0006
# 6 0.0002 0.0001 0.0009 -3.2757 0.0006 23.2357
#
#
#
# Elastic Compliance Matrix: (Units=1/GPa)
#
#
# Indices 1 2 3 4 5 6 
#
# 1 0.012323 -0.001932 0.001559 0.000000 0.003649 0.000000
# 2 -0.001932 0.010970 -0.006003 -0.000002 0.001869 0.000000
# 3 0.001559 -0.006003 0.027368 0.000006 0.003828 0.000000
# 4 0.000000 -0.000002 0.000006 -0.026868 0.000000 -0.003788
# 5 0.003649 0.001869 0.003828 0.000000 0.034719 -0.000001
# 6 0.000000 0.000000 0.000000 -0.003788 -0.000001 0.042503
#
#
# Mechanical properties :
#
#
# Convention : Reuss Voigt Hill
#
# Bulk Modulus (GPa) = 26.37997 35.82846 31.10421
# Shear Modulus (GPa) = 39.55599 16.65016 28.10308
#
# Velocity S-wave (km/s) = 4.31830 2.80166 3.63985
# Velocity P-wave (km/s) = 6.10736 5.23032 5.68577
#
# Compressibility (1/GPa) = 0.03790755
#
# Stress axis : x y z
#
# Youngs Moduli (GPa) = 81.14935 91.15920 36.53939
#
# Poissons Ratio (x) = 0.17612 -0.05696
# Poissons Ratio (y) = 0.15678 0.21936
# Poissons Ratio (z) = -0.12650 0.54726
#
# Static dielectric constant tensor:
#      x y z
#    x 1.870980 0.000000 -0.028390 
#    y 0.000000 1.771120 0.000000 
#    z -0.028390 0.000000 1.820940 
# 
# From -- ./inp_files/46500.got.cif
#   From: 2010.05.17/outbox.cif.g08.bks.cpg/sg5_24_cif.got.tgz:46500.got - 2010.06.03 18:56:24.
