data_PCOD9122030
_publ_section_title
;
Structure prediction by ZEFSAII (Michael W. Deem and Ramdas Pophale) SiO2 
 PCOD9122030
Probable space group: C 2
;
_chemical_formula_sum "Si O2"
_cell_formula_units_Z 24
_cell_length_a 13.516156
_cell_length_b 14.606788
_cell_length_c 8.513176
_cell_angle_alpha 90.000000
_cell_angle_beta 43.351046
_cell_angle_gamma 90.000000
_cell_volume 1153.768990
_symmetry_space_group_name_H-M "C 2"
_symmetry_group_IT_number 5
_symmetry_cell_setting 'monoclinic'
loop_
_space_group_symop_operation_xyz
x,y,z
-x,y,-z
1/2+x,1/2+y,z
1/2-x,1/2+y,-z
loop_
_atom_site_type_symbol
_atom_site_label
_atom_site_fract_x
_atom_site_fract_y
_atom_site_fract_z
Si Si1 0.635761 0.886930 0.241800
Si Si2 0.000000 0.657840 0.000000
Si Si3 0.500000 0.707144 0.500000
Si Si4 0.792397 0.065224 0.600000
Si Si5 0.437688 0.308891 0.325760
Si Si6 0.848868 0.981443 0.219342
Si Si7 0.702176 0.375158 0.235296
O O1 0.500000 0.922399 0.500000
O O2 0.622502 0.778089 0.296781
O O3 0.761828 0.948854 0.168588
O O4 0.653347 0.887744 0.033889
O O5 0.855092 0.599859 0.153733
O O6 0.973604 0.720619 0.183225
O O7 0.417576 0.640543 0.475418
O O8 0.769808 0.040237 0.443386
O O9 0.833845 0.972434 0.643847
O O10 0.388716 0.386517 0.260783
O O11 0.580201 0.342193 0.253564
O O12 0.312137 0.304437 0.602949
O O13 0.000000 0.026915 0.000000
#
# Coordination Sequence:
#
# PCOD9122030 Si02
#       7
#     4   2   2   4   4   4   4
#     4  10  23  39  68  88 126 165 213 257 309 372
#     4  12  24  42  62  96 134 160 204 274 320 352
#     4  10  22  42  60  92 126 164 196 266 324 354
#     4  11  25  39  64  95 129 159 204 271 321 355
#     4  10  19  37  70  85 115 172 216 242 297 394
#     4  11  20  40  67  89 119 173 214 244 307 395
#     4  10  20  40  65  92 115 168 221 247 301 390
#
# _framework density 20.801392
#
# number of rings (size 3 to 8) (size 9 to 14) (size 15 to 20)
#    0.500    1.000    2.500    4.000    2.333    0.000 
#    3.000    3.333    0.000    0.000    0.000    0.000 
#    0.000    0.000    0.000    0.000    0.000    0.000 
#
# Total GULP energy -66828.979003 kJ/mol
# GULP energy per Si atom -5569.081584 kJ/mol
# Density = 2.075405 g / cm^3
# Si number density = 20.801392 Si / 1000 Ang^3
#
#
#
# Elastic Constant Matrix: (Units=GPa)
#
#
# Indices 1 2 3 4 5 6 
#
# 1 35.4724 17.4054 15.3352 0.0000 3.9654 0.0000
# 2 17.4054 74.6109 20.7206 0.0000 3.8674 0.0000
# 3 15.3352 20.7206 149.2646 0.0000 19.2678 0.0000
# 4 0.0000 0.0000 0.0000 36.4640 0.0000 10.0555
# 5 3.9654 3.8674 19.2678 0.0000 30.3428 0.0000
# 6 0.0000 0.0000 0.0000 10.0555 0.0000 19.3366
#
#
#
# Elastic Compliance Matrix: (Units=1/GPa)
#
#
# Indices 1 2 3 4 5 6 
#
# 1 0.032748 -0.006940 -0.002138 0.000000 -0.002037 0.000000
# 2 -0.006940 0.015421 -0.001406 0.000000 -0.000166 0.000000
# 3 -0.002138 -0.001406 0.007685 0.000000 -0.004421 0.000000
# 4 0.000000 0.000000 0.000000 0.032016 0.000000 -0.016649
# 5 -0.002037 -0.000166 -0.004421 0.000000 0.036052 0.000000
# 6 0.000000 0.000000 0.000000 -0.016649 0.000000 0.060373
#
#
# Mechanical properties :
#
#
# Convention : Reuss Voigt Hill
#
# Bulk Modulus (GPa) = 28.66536 40.69669 34.68103
# Shear Modulus (GPa) = 23.05286 30.95446 27.00366
#
# Velocity S-wave (km/s) = 3.33263 3.86177 3.60692
# Velocity P-wave (km/s) = 5.34967 6.28420 5.83568
#
# Compressibility (1/GPa) = 0.03488531
#
# Stress axis : x y z
#
# Youngs Moduli (GPa) = 30.53586 64.84646 130.12132
#
# Poissons Ratio (x) = 0.45005 0.27821
# Poissons Ratio (y) = 0.21193 0.18299
# Poissons Ratio (z) = 0.06529 0.09119
#
# Static dielectric constant tensor:
#      x y z
#    x 1.737580 0.000000 -0.025850 
#    y 0.000000 1.723890 0.000000 
#    z -0.025850 0.000000 1.848570 
# 
# From -- ./inp_files/24525.got.cif
#   From: 2010.05.17/outbox.cif.g08.bks.cpg/sg5_13_cif.got.tgz:24525.got - 2010.06.03 18:56:24.
