data_PCOD9122146
_publ_section_title
;
Structure prediction by ZEFSAII (Michael W. Deem and Ramdas Pophale) SiO2 
 PCOD9122146
Probable space group: C 2
;
_chemical_formula_sum "Si O2"
_cell_formula_units_Z 22
_cell_length_a 7.685023
_cell_length_b 15.406128
_cell_length_c 8.741669
_cell_angle_alpha 90.000000
_cell_angle_beta 77.741250
_cell_angle_gamma 90.000000
_cell_volume 1011.383603
_symmetry_space_group_name_H-M "C 2"
_symmetry_group_IT_number 5
_symmetry_cell_setting 'monoclinic'
loop_
_space_group_symop_operation_xyz
x,y,z
-x,y,-z
1/2+x,1/2+y,z
1/2-x,1/2+y,-z
loop_
_atom_site_type_symbol
_atom_site_label
_atom_site_fract_x
_atom_site_fract_y
_atom_site_fract_z
Si Si1 0.214826 0.125000 0.978376
Si Si2 0.204086 0.931341 0.029259
Si Si3 0.768607 0.282676 0.798645
Si Si4 0.177340 0.649228 0.385333
Si Si5 0.000000 0.189842 0.500000
Si Si6 0.571337 0.339380 0.337600
O O1 0.298930 0.125601 0.794494
O O2 0.271409 0.204617 0.075041
O O3 0.000000 0.133358 0.000000
O O4 0.260621 0.030501 0.033753
O O5 0.194663 0.889849 0.197994
O O6 0.309113 0.867925 0.893568
O O7 0.000000 0.933261 0.000000
O O8 0.594675 0.305424 0.732092
O O9 0.914808 0.247726 0.651980
O O10 0.349036 0.629973 0.453595
O O11 0.166714 0.754200 0.384984
O O12 0.000000 0.616088 0.500000
O O13 0.500000 0.389310 0.500000
#
# Coordination Sequence:
#
# PCOD9122146 Si02
#       6
#     4   4   4   4   2   4
#     4  11  22  40  67  96 131 173 219 270 324 392
#     4   9  21  39  63  95 126 171 218 264 324 394
#     4  11  21  38  66  91 127 170 220 264 320 393
#     4  11  22  39  69  96 129 171 218 270 332 382
#     4  12  22  38  68  98 124 178 220 266 330 388
#     4  10  19  38  68  91 122 170 214 266 327 382
#
# _framework density 21.752379999999999
#
# number of rings (size 3 to 8) (size 9 to 14) (size 15 to 20)
#    0.000    1.455    7.273    0.000    0.000    0.000 
#    3.273    0.000   12.000    0.000    0.000    0.000 
#    0.000    0.000    0.000    0.000    0.000    0.000 
#
# Total GULP energy -61461.237577 kJ/mol
# GULP energy per Si atom -5587.385234 kJ/mol
# Density = 2.170287 g / cm^3
# Si number density = 21.752380 Si / 1000 Ang^3
#
#
#
# Elastic Constant Matrix: (Units=GPa)
#
#
# Indices 1 2 3 4 5 6 
#
# 1 82.3258 11.6946 48.1877 0.0000 -4.0518 0.0000
# 2 11.6946 70.8774 22.9385 0.0000 5.8430 0.0000
# 3 48.1877 22.9385 150.9337 0.0000 -12.0272 0.0000
# 4 0.0000 0.0000 0.0000 12.6761 0.0000 -0.6319
# 5 -4.0518 5.8430 -12.0272 0.0000 34.6332 0.0000
# 6 0.0000 0.0000 0.0000 -0.6319 0.0000 3.1634
#
#
#
# Elastic Compliance Matrix: (Units=1/GPa)
#
#
# Indices 1 2 3 4 5 6 
#
# 1 0.015005 -0.001010 -0.004611 0.000000 0.000325 0.000000
# 2 -0.001010 0.015302 -0.002281 0.000000 -0.003492 0.000000
# 3 -0.004611 -0.002281 0.008672 0.000000 0.002857 0.000000
# 4 0.000000 0.000000 0.000000 0.079682 0.000000 0.015917
# 5 0.000325 -0.003492 0.002857 0.000000 0.030493 0.000000
# 6 0.000000 0.000000 0.000000 0.015917 0.000000 0.319291
#
#
# Mechanical properties :
#
#
# Convention : Reuss Voigt Hill
#
# Bulk Modulus (GPa) = 43.15250 52.19761 47.67506
# Shear Modulus (GPa) = 10.16310 24.84895 17.50603
#
# Velocity S-wave (km/s) = 2.16387 3.38354 2.83995
# Velocity P-wave (km/s) = 5.11119 6.27000 5.72001
#
# Compressibility (1/GPa) = 0.02317363
#
# Stress axis : x y z
#
# Youngs Moduli (GPa) = 66.64231 65.35213 115.31363
#
# Poissons Ratio (x) = 0.06602 0.53175
# Poissons Ratio (y) = 0.06732 0.26306
# Poissons Ratio (z) = 0.30731 0.14908
#
# Static dielectric constant tensor:
#      x y z
#    x 1.849990 0.000000 -0.012060 
#    y 0.000000 1.775180 0.000000 
#    z -0.012060 0.000000 1.838000 
# 
# From -- ./inp_files/14875.got.cif
#   From: 2010.05.17/outbox.cif.g08.bks.cpg/sg5_8_cif.got.tgz:14875.got - 2010.06.03 18:56:24.
