data_PCOD9122661
_publ_section_title
;
Structure prediction by ZEFSAII (Michael W. Deem and Ramdas Pophale) SiO2 
 PCOD9122661
Probable space group: C 2
;
_chemical_formula_sum "Si O2"
_cell_formula_units_Z 26
_cell_length_a 7.172401
_cell_length_b 30.278097
_cell_length_c 5.420947
_cell_angle_alpha 90.000000
_cell_angle_beta 101.989865
_cell_angle_gamma 90.000000
_cell_volume 1151.566482
_symmetry_space_group_name_H-M "C 2"
_symmetry_group_IT_number 5
_symmetry_cell_setting 'monoclinic'
loop_
_space_group_symop_operation_xyz
x,y,z
-x,y,-z
1/2+x,1/2+y,z
1/2-x,1/2+y,-z
loop_
_atom_site_type_symbol
_atom_site_label
_atom_site_fract_x
_atom_site_fract_y
_atom_site_fract_z
Si Si1 0.783018 0.687030 0.538608
Si Si2 0.871411 0.519102 0.217672
Si Si3 0.313881 0.609442 0.792647
Si Si4 0.735915 0.281212 0.577163
Si Si5 0.277216 0.326121 0.924737
Si Si6 0.875550 0.420254 0.214713
Si Si7 0.500000 0.159630 0.000000
O O1 0.689275 0.640214 0.450784
O O2 0.696310 0.730329 0.394460
O O3 0.833249 0.689911 0.839910
O O4 0.000000 0.685968 0.500000
O O5 0.715101 0.557075 0.217279
O O6 0.787764 0.469410 0.194123
O O7 0.000000 0.522063 0.500000
O O8 0.000000 0.524645 0.000000
O O9 0.120037 0.626491 0.865631
O O10 0.500000 0.620195 0.000000
O O11 0.500000 0.280850 0.500000
O O12 0.801002 0.300415 0.333326
O O13 0.796494 0.310484 0.828019
O O14 0.255269 0.377672 0.855323
O O15 0.500000 0.315619 0.000000
O O16 0.000000 0.415480 0.500000
O O17 0.000000 0.419804 0.000000
#
# Coordination Sequence:
#
# PCOD9122661 Si02
#       7
#     4   4   4   4   4   4   2
#     4   9  20  35  59  85 114 165 208 253 305 372
#     4  10  21  41  64  88 119 164 210 253 313 379
#     4  11  23  38  60  92 126 161 210 262 313 379
#     4   9  19  33  58  86 115 156 206 245 303 359
#     4  10  20  35  58  87 117 153 201 254 297 364
#     4  10  21  38  62  86 119 160 201 248 309 372
#     4  10  20  38  64  80 122 164 212 250 316 364
#
# _framework density 22.577942
#
# number of rings (size 3 to 8) (size 9 to 14) (size 15 to 20)
#    0.000    2.154    0.769    2.308    7.538    1.231 
#    0.000    2.308    3.385    5.538    0.000    0.000 
#    0.000    0.000    0.000    0.000    0.000    0.000 
#
# Total GULP energy -72453.440170 kJ/mol
# GULP energy per Si atom -5573.341552 kJ/mol
# Density = 2.252655 g / cm^3
# Si number density = 22.577942 Si / 1000 Ang^3
#
#
#
# Elastic Constant Matrix: (Units=GPa)
#
#
# Indices 1 2 3 4 5 6 
#
# 1 50.2097 7.2951 22.1656 0.0000 -5.4479 0.0000
# 2 7.2951 145.2989 65.8983 0.0000 4.1034 0.0000
# 3 22.1656 65.8983 150.5405 0.0000 -6.0452 0.0000
# 4 0.0000 0.0000 0.0000 23.5101 0.0000 12.0822
# 5 -5.4479 4.1034 -6.0452 0.0000 29.1817 0.0000
# 6 0.0000 0.0000 0.0000 12.0822 0.0000 5.6044
#
#
#
# Elastic Compliance Matrix: (Units=1/GPa)
#
#
# Indices 1 2 3 4 5 6 
#
# 1 0.021639 0.000253 -0.003163 0.000000 0.003349 0.000000
# 2 0.000253 0.008708 -0.003929 0.000000 -0.001991 0.000000
# 3 -0.003163 -0.003929 0.008901 0.000000 0.001806 0.000000
# 4 0.000000 0.000000 0.000000 -0.394149 0.000000 0.849720
# 5 0.003349 -0.001991 0.001806 0.000000 0.035547 0.000000
# 6 0.000000 0.000000 0.000000 0.849720 0.000000 -1.653426
#
#
# Mechanical properties :
#
#
# Convention : Reuss Voigt Hill
#
# Bulk Modulus (GPa) = 39.10641 59.64078 49.37359
# Shear Modulus (GPa) = -2.56334 28.37191 12.90428
#
# Velocity S-wave (km/s) = -1.06667 3.54873 2.39329
# Velocity P-wave (km/s) = 3.98010 6.57755 5.43624
#
# Compressibility (1/GPa) = 0.02557126
#
# Stress axis : x y z
#
# Youngs Moduli (GPa) = 46.21240 114.83885 112.34902
#
# Poissons Ratio (x) = -0.02909 0.35531
# Poissons Ratio (y) = -0.01171 0.44143
# Poissons Ratio (z) = 0.14615 0.45121
#
# Static dielectric constant tensor:
#      x y z
#    x 1.880300 0.000000 -0.108490 
#    y 0.000000 1.891190 0.000000 
#    z -0.108490 0.000000 2.487350 
# 
# From -- ./inp_files/3844.got.cif
#   From: 2010.05.17/outbox.cif.g08.bks.cpg/sg5_2_cif.got.tgz:3844.got - 2010.06.03 18:56:24.
