data_PCOD9122796
_publ_section_title
;
Structure prediction by ZEFSAII (Michael W. Deem and Ramdas Pophale) SiO2 
 PCOD9122796
Probable space group: C 2
;
_chemical_formula_sum "Si O2"
_cell_formula_units_Z 26
_cell_length_a 14.296839
_cell_length_b 16.777489
_cell_length_c 6.502641
_cell_angle_alpha 90.000000
_cell_angle_beta 116.932634
_cell_angle_gamma 90.000000
_cell_volume 1390.584711
_symmetry_space_group_name_H-M "C 2"
_symmetry_group_IT_number 5
_symmetry_cell_setting 'monoclinic'
loop_
_space_group_symop_operation_xyz
x,y,z
-x,y,-z
1/2+x,1/2+y,z
1/2-x,1/2+y,-z
loop_
_atom_site_type_symbol
_atom_site_label
_atom_site_fract_x
_atom_site_fract_y
_atom_site_fract_z
Si Si1 0.500000 0.483171 0.000000
Si Si2 0.787824 0.306862 0.518174
Si Si3 0.392033 0.931096 0.309515
Si Si4 0.125577 0.163844 0.650587
Si Si5 0.310307 0.503937 0.112330
Si Si6 0.902896 0.285731 0.031866
Si Si7 0.593901 0.378409 0.463901
O O1 0.399345 0.520634 0.022497
O O2 0.449110 0.434410 0.761032
O O3 0.831975 0.379361 0.424611
O O4 0.832132 0.223057 0.482388
O O5 0.664120 0.315038 0.413304
O O6 0.823398 0.316907 0.786230
O O7 0.500000 0.970944 0.500000
O O8 0.434583 0.860985 0.201476
O O9 0.301378 0.981913 0.104231
O O10 0.140349 0.217371 0.867812
O O11 0.000000 0.149722 0.500000
O O12 0.186956 0.082376 0.743015
O O13 0.347541 0.433369 0.305020
O O14 0.000000 0.253682 0.000000
O O15 0.500000 0.340497 0.500000
#
# Coordination Sequence:
#
# PCOD9122796 Si02
#       7
#     2   4   4   4   4   4   4
#     4  10  20  36  58  84 130 158 196 254 298 350
#     4  11  20  38  60  91 122 155 200 254 306 353
#     4  11  21  36  62  93 119 157 210 253 297 361
#     4  11  23  35  56  93 129 152 194 251 317 369
#     4  11  23  37  57  94 126 160 203 247 308 366
#     4  11  19  35  61  88 116 153 194 252 308 352
#     4  10  21  36  61  92 118 160 211 247 294 361
#
# _framework density 18.697171999999998
#
# number of rings (size 3 to 8) (size 9 to 14) (size 15 to 20)
#    0.000    1.231    6.154    2.308    1.077    1.231 
#    0.000    0.000    0.000    2.769    4.000    0.000 
#    0.000    0.000    0.000    0.000    0.000    0.000 
#
# Total GULP energy -72378.008787 kJ/mol
# GULP energy per Si atom -5567.539137 kJ/mol
# Density = 1.865462 g / cm^3
# Si number density = 18.697172 Si / 1000 Ang^3
#
#
#
# Elastic Constant Matrix: (Units=GPa)
#
#
# Indices 1 2 3 4 5 6 
#
# 1 91.8128 29.7911 29.0661 0.0000 10.4236 0.0000
# 2 29.7911 58.9278 21.0217 0.0000 15.3030 0.0000
# 3 29.0661 21.0217 97.0775 0.0000 10.3389 0.0000
# 4 0.0000 0.0000 0.0000 14.5398 0.0000 8.3715
# 5 10.4236 15.3030 10.3389 0.0000 34.2428 0.0000
# 6 0.0000 0.0000 0.0000 8.3715 0.0000 13.0458
#
#
#
# Elastic Compliance Matrix: (Units=1/GPa)
#
#
# Indices 1 2 3 4 5 6 
#
# 1 0.013725 -0.005746 -0.002783 0.000000 -0.000770 0.000000
# 2 -0.005746 0.022720 -0.002381 0.000000 -0.007686 0.000000
# 3 -0.002783 -0.002381 0.011827 0.000000 -0.001660 0.000000
# 4 0.000000 0.000000 0.000000 0.109078 0.000000 -0.069995
# 5 -0.000770 -0.007686 -0.001660 0.000000 0.033373 0.000000
# 6 0.000000 0.000000 0.000000 -0.069995 0.000000 0.121569
#
#
# Mechanical properties :
#
#
# Convention : Reuss Voigt Hill
#
# Bulk Modulus (GPa) = 37.80515 45.28622 41.54569
# Shear Modulus (GPa) = 14.58033 23.56164 19.07099
#
# Velocity S-wave (km/s) = 2.79555 3.55374 3.19720
# Velocity P-wave (km/s) = 5.53929 6.41188 5.99149
#
# Compressibility (1/GPa) = 0.02645142
#
# Stress axis : x y z
#
# Youngs Moduli (GPa) = 72.86217 44.01416 84.55459
#
# Poissons Ratio (x) = 0.25289 0.23532
# Poissons Ratio (y) = 0.41865 0.20133
# Poissons Ratio (z) = 0.20278 0.10480
#
# Static dielectric constant tensor:
#      x y z
#    x 1.720030 0.000000 0.054850 
#    y 0.000000 1.627830 0.000000 
#    z 0.054850 0.000000 1.716310 
# 
# From -- ./inp_files/7244.got.cif
#   From: 2010.05.17/outbox.cif.g08.bks.cpg/sg5_4_cif.got.tgz:7244.got - 2010.06.03 18:56:24.
