data_PCOD9122151
_publ_section_title
;
Structure prediction by ZEFSAII (Michael W. Deem and Ramdas Pophale) SiO2 
 PCOD9122151
Probable space group: C 2
;
_chemical_formula_sum "Si O2"
_cell_formula_units_Z 26
_cell_length_a 7.449506
_cell_length_b 22.255042
_cell_length_c 8.614218
_cell_angle_alpha 90.000000
_cell_angle_beta 50.937316
_cell_angle_gamma 90.000000
_cell_volume 1108.891761
_symmetry_space_group_name_H-M "C 2"
_symmetry_group_IT_number 5
_symmetry_cell_setting 'monoclinic'
loop_
_space_group_symop_operation_xyz
x,y,z
-x,y,-z
1/2+x,1/2+y,z
1/2-x,1/2+y,-z
loop_
_atom_site_type_symbol
_atom_site_label
_atom_site_fract_x
_atom_site_fract_y
_atom_site_fract_z
Si Si1 0.059510 0.266170 0.130420
Si Si2 0.608307 0.511575 0.110957
Si Si3 0.167797 0.479603 0.556133
Si Si4 0.298974 0.847089 0.476958
Si Si5 0.857793 0.880605 0.916536
Si Si6 0.245079 0.592621 0.713251
Si Si7 0.500000 0.192355 0.000000
O O1 0.271052 0.231115 0.092809
O O2 0.843408 0.286787 0.354263
O O3 0.166114 0.330907 0.032825
O O4 0.000000 0.235492 0.000000
O O5 0.412245 0.493269 0.342766
O O6 0.741111 0.448169 0.038676
O O7 0.718353 0.569303 0.130276
O O8 0.500000 0.522311 0.000000
O O9 0.169802 0.412357 0.622278
O O10 0.130675 0.535842 0.688090
O O11 0.000000 0.479956 0.500000
O O12 0.500000 0.845011 0.500000
O O13 0.047178 0.856106 0.690189
O O14 0.000000 0.882351 0.000000
O O15 0.500000 0.604942 0.500000
O O16 0.083553 0.650416 0.811604
#
# Coordination Sequence:
#
# PCOD9122151 Si02
#       7
#     4   4   4   4   4   4   2
#     4  12  27  44  66  99 130 180 245 274 328 406
#     4   9  20  36  65 103 137 167 210 272 340 414
#     4   9  20  37  62 104 134 164 213 265 347 414
#     4  10  19  38  69  99 142 173 201 279 347 407
#     4  10  19  39  66 101 141 171 208 274 344 410
#     4  10  24  45  67  95 132 179 222 280 335 404
#     4  12  28  50  68  88 136 184 242 286 328 372
#
# _framework density 23.446832000000001
#
# number of rings (size 3 to 8) (size 9 to 14) (size 15 to 20)
#    0.000    1.846    2.308    0.000    6.462    3.077 
#    2.769    0.000    0.000    0.000    0.000    0.000 
#    0.000    0.000    0.000    0.000    0.000    0.000 
#
# Total GULP energy -72603.184302 kJ/mol
# GULP energy per Si atom -5584.860331 kJ/mol
# Density = 2.339347 g / cm^3
# Si number density = 23.446832 Si / 1000 Ang^3
#
#
#
# Elastic Constant Matrix: (Units=GPa)
#
#
# Indices 1 2 3 4 5 6 
#
# 1 50.3804 18.7360 4.0015 0.0000 14.6056 0.0000
# 2 18.7360 83.6876 37.6178 0.0000 4.1971 0.0000
# 3 4.0015 37.6178 108.5346 0.0000 -4.2817 0.0000
# 4 0.0000 0.0000 0.0000 22.7087 0.0000 -10.2815
# 5 14.6056 4.1971 -4.2817 0.0000 34.9298 0.0000
# 6 0.0000 0.0000 0.0000 -10.2815 0.0000 105.1579
#
#
#
# Elastic Compliance Matrix: (Units=1/GPa)
#
#
# Indices 1 2 3 4 5 6 
#
# 1 0.024532 -0.005255 0.000540 0.000000 -0.009560 0.000000
# 2 -0.005255 0.015469 -0.005179 0.000000 -0.000296 0.000000
# 3 0.000540 -0.005179 0.011058 0.000000 0.001752 0.000000
# 4 0.000000 0.000000 0.000000 0.046076 0.000000 0.004505
# 5 -0.009560 -0.000296 0.001752 0.000000 0.032877 0.000000
# 6 0.000000 0.000000 0.000000 0.004505 0.000000 0.009950
#
#
# Mechanical properties :
#
#
# Convention : Reuss Voigt Hill
#
# Bulk Modulus (GPa) = 31.98047 40.36812 36.17430
# Shear Modulus (GPa) = 29.38170 44.70911 37.04540
#
# Velocity S-wave (km/s) = 3.54378 4.37146 3.97920
# Velocity P-wave (km/s) = 5.51486 6.53711 6.04763
#
# Compressibility (1/GPa) = 0.03126908
#
# Stress axis : x y z
#
# Youngs Moduli (GPa) = 40.76293 64.64628 90.43211
#
# Poissons Ratio (x) = 0.33975 -0.04883
# Poissons Ratio (y) = 0.21423 0.46838
# Poissons Ratio (z) = -0.02201 0.33483
#
# Static dielectric constant tensor:
#      x y z
#    x 1.808890 0.000000 0.004330 
#    y 0.000000 1.886400 0.000000 
#    z 0.004330 0.000000 1.883890 
# 
# From -- ./inp_files/16879.got.cif
#   From: 2010.05.17/outbox.cif.g08.bks.cpg/sg5_9_cif.got.tgz:16879.got - 2010.06.03 18:56:24.
