data_PCOD9122291
_publ_section_title
;
Structure prediction by ZEFSAII (Michael W. Deem and Ramdas Pophale) SiO2 
 PCOD9122291
Probable space group: C 2
;
_chemical_formula_sum "Si O2"
_cell_formula_units_Z 24
_cell_length_a 11.347128
_cell_length_b 11.058419
_cell_length_c 17.287001
_cell_angle_alpha 90.000000
_cell_angle_beta 152.213110
_cell_angle_gamma 90.000000
_cell_volume 1011.244623
_symmetry_space_group_name_H-M "C 2"
_symmetry_group_IT_number 5
_symmetry_cell_setting 'monoclinic'
loop_
_space_group_symop_operation_xyz
x,y,z
-x,y,-z
1/2+x,1/2+y,z
1/2-x,1/2+y,-z
loop_
_atom_site_type_symbol
_atom_site_label
_atom_site_fract_x
_atom_site_fract_y
_atom_site_fract_z
Si Si1 0.173731 0.595180 0.671905
Si Si2 0.247047 0.123228 0.964805
Si Si3 0.055281 0.331934 0.428865
Si Si4 0.222594 0.106488 0.775037
Si Si5 0.019735 0.693560 0.746550
Si Si6 0.181876 0.956762 0.535874
O O1 0.467072 0.576589 0.820389
O O2 0.000000 0.642653 0.500000
O O3 0.061059 0.461589 0.622020
O O4 0.150076 0.675302 0.737266
O O5 0.231770 0.162601 0.866253
O O6 0.514758 0.052186 0.105034
O O7 0.310048 0.202623 0.077790
O O8 0.309914 0.297593 0.621623
O O9 0.156795 0.345713 0.400294
O O10 0.864403 0.221227 0.326011
O O11 0.000742 0.009262 0.637708
O O12 0.865358 0.567349 0.662883
O O13 0.000000 0.928588 0.500000
#
# Coordination Sequence:
#
# PCOD9122291 Si02
#       6
#     4   4   4   4   4   4
#     4  11  24  43  70  93 131 175 222 269 326 394
#     4  11  22  43  66  92 132 172 216 274 326 380
#     4  10  23  40  66 100 124 177 226 258 327 401
#     4  10  23  43  64  96 135 176 211 272 337 382
#     4  10  22  42  66  94 132 167 220 271 329 378
#     4  10  19  40  67  93 128 177 214 269 323 397
#
# _framework density 23.733129000000002
#
# number of rings (size 3 to 8) (size 9 to 14) (size 15 to 20)
#    0.000    1.667    1.667    3.500    2.333    2.000 
#   12.000    1.667    7.333    0.000    0.000    0.000 
#    0.000    0.000    0.000    0.000    0.000    0.000 
#
# Total GULP energy -66850.886981 kJ/mol
# GULP energy per Si atom -5570.907248 kJ/mol
# Density = 2.367911 g / cm^3
# Si number density = 23.733129 Si / 1000 Ang^3
#
#
#
# Elastic Constant Matrix: (Units=GPa)
#
#
# Indices 1 2 3 4 5 6 
#
# 1 171.8562 20.8622 60.8156 0.0007 5.6265 0.0004
# 2 20.8622 52.2702 31.5548 0.0021 12.5207 0.0007
# 3 60.8156 31.5548 133.2920 0.0065 1.8508 0.0028
# 4 0.0007 0.0021 0.0065 4.7218 0.0018 -0.1993
# 5 5.6265 12.5207 1.8508 0.0018 55.1831 0.0006
# 6 0.0004 0.0007 0.0028 -0.1993 0.0006 15.3613
#
#
#
# Elastic Compliance Matrix: (Units=1/GPa)
#
#
# Indices 1 2 3 4 5 6 
#
# 1 0.006993 -0.000899 -0.002972 0.000004 -0.000409 0.000000
# 2 -0.000899 0.023838 -0.005162 -0.000001 -0.005144 0.000000
# 3 -0.002972 -0.005162 0.010065 -0.000012 0.001137 -0.000002
# 4 0.000004 -0.000001 -0.000012 0.211899 -0.000007 0.002750
# 5 -0.000409 -0.005144 0.001137 -0.000007 0.019292 -0.000001
# 6 0.000000 0.000000 -0.000002 0.002750 -0.000001 0.065134
#
#
# Mechanical properties :
#
#
# Convention : Reuss Voigt Hill
#
# Bulk Modulus (GPa) = 43.80110 64.87596 54.33853
# Shear Modulus (GPa) = 13.77799 31.33229 22.55514
#
# Velocity S-wave (km/s) = 2.41205 3.63739 3.08614
# Velocity P-wave (km/s) = 5.12377 6.71087 5.97029
#
# Compressibility (1/GPa) = 0.02283048
#
# Stress axis : x y z
#
# Youngs Moduli (GPa) = 142.99776 41.94904 99.35774
#
# Poissons Ratio (x) = 0.03770 0.29531
# Poissons Ratio (y) = 0.12852 0.51287
# Poissons Ratio (z) = 0.42502 0.21654
#
# Static dielectric constant tensor:
#      x y z
#    x 2.051210 0.000000 -0.045060 
#    y 0.000000 1.817010 0.000000 
#    z -0.045060 0.000000 1.935010 
# 
# From -- ./inp_files/60509.got.cif
#   From: 2010.05.17/outbox.cif.g08.bks.cpg/sg5_31_cif.got.tgz:60509.got - 2010.06.03 18:56:24.
