data_PCOD9122847
_publ_section_title
;
Structure prediction by ZEFSAII (Michael W. Deem and Ramdas Pophale) SiO2 
 PCOD9122847
Probable space group: C 2
;
_chemical_formula_sum "Si O2"
_cell_formula_units_Z 28
_cell_length_a 9.485834
_cell_length_b 33.592050
_cell_length_c 5.005497
_cell_angle_alpha 90.000000
_cell_angle_beta 64.396620
_cell_angle_gamma 90.000000
_cell_volume 1438.377407
_symmetry_space_group_name_H-M "C 2"
_symmetry_group_IT_number 5
_symmetry_cell_setting 'monoclinic'
loop_
_space_group_symop_operation_xyz
x,y,z
-x,y,-z
1/2+x,1/2+y,z
1/2-x,1/2+y,-z
loop_
_atom_site_type_symbol
_atom_site_label
_atom_site_fract_x
_atom_site_fract_y
_atom_site_fract_z
Si Si1 0.666732 0.012240 0.737948
Si Si2 0.116304 0.686931 0.655149
Si Si3 0.673134 0.543533 0.892792
Si Si4 0.115187 0.774264 0.656248
Si Si5 0.883290 0.861775 0.345332
Si Si6 0.107553 0.422990 0.672589
Si Si7 0.102867 0.128159 0.682110
O O1 0.701155 0.023433 0.404932
O O2 0.675307 0.964396 0.735140
O O3 0.500000 0.023041 0.000000
O O4 0.783946 0.035922 0.835907
O O5 0.195286 0.731100 0.594610
O O6 0.249797 0.654086 0.527026
O O7 0.000000 0.684386 0.500000
O O8 0.000000 0.682249 0.000000
O O9 0.660391 0.588407 0.790279
O O10 0.500000 0.525686 0.000000
O O11 0.194701 0.817451 0.595325
O O12 0.000000 0.774192 0.500000
O O13 0.000000 0.774143 0.000000
O O14 0.748196 0.894256 0.475535
O O15 0.000000 0.864304 0.500000
O O16 0.000000 0.866489 0.000000
O O17 0.000000 0.431143 0.500000
O O18 0.000000 0.405821 0.000000
O O19 0.000000 0.119604 0.500000
O O20 0.000000 0.149121 0.000000
#
# Coordination Sequence:
#
# PCOD9122847 Si02
#       7
#     4   4   4   4   4   4   4
#     4  11  23  40  59  81 110 146 185 233 286 338
#     4  10  20  36  60  88 114 153 198 236 275 335
#     4  11  23  40  59  81 110 146 185 233 286 338
#     4   8  16  32  54  82 118 148 186 238 282 318
#     4  10  20  36  60  88 114 153 198 236 275 335
#     4  11  23  40  57  83 120 151 182 237 297 340
#     4  11  23  40  57  83 120 151 182 237 297 340
#
# _framework density 19.466380000000001
#
# number of rings (size 3 to 8) (size 9 to 14) (size 15 to 20)
#    0.000    1.714    0.000    6.000    0.000    3.429 
#    0.000    1.429    0.000    0.000    0.000    0.000 
#    0.000    0.000    0.000    0.000    0.000    0.000 
#
# Total GULP energy -78049.278335 kJ/mol
# GULP energy per Si atom -5574.948453 kJ/mol
# Density = 1.942207 g / cm^3
# Si number density = 19.466380 Si / 1000 Ang^3
#
#
#
# Elastic Constant Matrix: (Units=GPa)
#
#
# Indices 1 2 3 4 5 6 
#
# 1 75.7308 48.2894 28.5773 0.0000 11.9147 0.0000
# 2 48.2894 100.1822 28.3873 0.0000 -13.5836 0.0000
# 3 28.5773 28.3873 127.0923 0.0000 11.9384 0.0000
# 4 0.0000 0.0000 0.0000 32.9297 0.0000 -4.7684
# 5 11.9147 -13.5836 11.9384 0.0000 43.0157 0.0000
# 6 0.0000 0.0000 0.0000 -4.7684 0.0000 15.5719
#
#
#
# Elastic Compliance Matrix: (Units=1/GPa)
#
#
# Indices 1 2 3 4 5 6 
#
# 1 0.022917 -0.011908 -0.001585 0.000000 -0.009668 0.000000
# 2 -0.011908 0.017611 -0.002144 0.000000 0.009455 0.000000
# 3 -0.001585 -0.002144 0.008960 0.000000 -0.002725 0.000000
# 4 0.000000 0.000000 0.000000 0.031777 0.000000 0.009731
# 5 -0.009668 0.009455 -0.002725 0.000000 0.029667 0.000000
# 6 0.000000 0.000000 0.000000 0.009731 0.000000 0.067198
#
#
# Mechanical properties :
#
#
# Convention : Reuss Voigt Hill
#
# Bulk Modulus (GPa) = 54.90532 57.05703 55.98117
# Shear Modulus (GPa) = 23.20448 31.48687 27.34567
#
# Velocity S-wave (km/s) = 3.45632 4.02618 3.75208
# Velocity P-wave (km/s) = 6.64791 7.14056 6.89863
#
# Compressibility (1/GPa) = 0.01821317
#
# Stress axis : x y z
#
# Youngs Moduli (GPa) = 43.63565 56.78183 111.61260
#
# Poissons Ratio (x) = 0.67617 0.17691
# Poissons Ratio (y) = 0.51962 0.23932
# Poissons Ratio (z) = 0.06916 0.12175
#
# Static dielectric constant tensor:
#      x y z
#    x 1.663330 0.000000 -0.021010 
#    y 0.000000 1.738740 0.000000 
#    z -0.021010 0.000000 1.662550 
# 
# From -- ./inp_files/3885.got.cif
#   From: 2010.05.17/outbox.cif.g08.bks.cpg/sg5_2_cif.got.tgz:3885.got - 2010.06.03 18:56:24.
