data_PCOD9122220
_publ_section_title
;
Structure prediction by ZEFSAII (Michael W. Deem and Ramdas Pophale) SiO2 
 PCOD9122220
Probable space group: C 2
;
_chemical_formula_sum "Si O2"
_cell_formula_units_Z 32
_cell_length_a 19.160628
_cell_length_b 13.297347
_cell_length_c 13.593849
_cell_angle_alpha 90.000000
_cell_angle_beta 150.987669
_cell_angle_gamma 90.000000
_cell_volume 1679.797724
_symmetry_space_group_name_H-M "C 2"
_symmetry_group_IT_number 5
_symmetry_cell_setting 'monoclinic'
loop_
_space_group_symop_operation_xyz
x,y,z
-x,y,-z
1/2+x,1/2+y,z
1/2-x,1/2+y,-z
loop_
_atom_site_type_symbol
_atom_site_label
_atom_site_fract_x
_atom_site_fract_y
_atom_site_fract_z
Si Si1 0.227419 0.138480 0.550258
Si Si2 0.341692 0.004175 0.851221
Si Si3 0.453268 0.925121 0.554652
Si Si4 0.330839 0.178960 0.991195
Si Si5 0.917829 0.241599 0.172597
Si Si6 0.656638 0.316786 0.184522
Si Si7 0.611404 0.140200 0.448426
Si Si8 0.657208 0.766273 0.142292
O O1 0.233921 0.051823 0.639184
O O2 0.329055 0.227748 0.717662
O O3 0.290911 0.106357 0.524257
O O4 0.069517 0.184557 0.352263
O O5 0.316968 0.886085 0.827412
O O6 0.500000 0.019382 0.000000
O O7 0.336427 0.070252 0.943902
O O8 0.500000 0.905651 0.500000
O O9 0.545068 0.854010 0.741236
O O10 0.288043 0.890867 0.361594
O O11 0.454256 0.042569 0.579663
O O12 0.472700 0.195469 0.231672
O O13 0.189561 0.190986 0.882664
O O14 0.325925 0.260662 0.897988
O O15 0.851858 0.237634 0.982991
O O16 0.500000 0.364475 0.000000
O O17 0.716440 0.207184 0.645366
O O18 0.500000 0.749097 0.000000
#
# Coordination Sequence:
#
# PCOD9122220 Si02
#       8
#     4   4   4   4   4   4   4   4
#     4  10  20  38  67  96 121 164 216 262 312 366
#     4  10  20  39  69  99 123 164 217 261 314 377
#     4  11  25  42  65  95 127 166 213 260 329 379
#     4  11  21  41  67  94 128 164 210 260 319 376
#     4  11  24  43  66  92 128 168 207 268 324 377
#     4  10  19  39  66  98 123 157 220 267 306 372
#     4  12  24  41  63  93 130 170 210 256 312 384
#     4  11  25  43  64  92 132 170 212 259 318 382
#
# _framework density 19.049911999999999
#
# number of rings (size 3 to 8) (size 9 to 14) (size 15 to 20)
#    0.000    1.250    5.000    1.500    3.500    0.500 
#    0.000    3.750    0.000    0.000    0.000    0.000 
#    0.000    0.000    0.000    0.000    0.000    0.000 
#
# Total GULP energy -89351.172932 kJ/mol
# GULP energy per Si atom -5584.448308 kJ/mol
# Density = 1.900655 g / cm^3
# Si number density = 19.049912 Si / 1000 Ang^3
#
#
#
# Elastic Constant Matrix: (Units=GPa)
#
#
# Indices 1 2 3 4 5 6 
#
# 1 82.4446 5.9663 18.2862 0.0000 -4.2412 0.0000
# 2 5.9663 52.2827 27.7632 0.0000 -4.9014 0.0000
# 3 18.2862 27.7632 103.8729 0.0000 -15.1076 0.0000
# 4 0.0000 0.0000 0.0000 14.3377 0.0000 -0.1799
# 5 -4.2412 -4.9014 -15.1076 0.0000 32.3258 0.0000
# 6 0.0000 0.0000 0.0000 -0.1799 0.0000 18.3799
#
#
#
# Elastic Compliance Matrix: (Units=1/GPa)
#
#
# Indices 1 2 3 4 5 6 
#
# 1 0.012639 -0.000291 -0.002052 0.000000 0.000655 0.000000
# 2 -0.000291 0.022310 -0.005821 0.000000 0.000624 0.000000
# 3 -0.002052 -0.005821 0.012206 0.000000 0.004553 0.000000
# 4 0.000000 0.000000 0.000000 0.069755 0.000000 0.000683
# 5 0.000655 0.000624 0.004553 0.000000 0.033243 0.000000
# 6 0.000000 0.000000 0.000000 0.000683 0.000000 0.054414
#
#
# Mechanical properties :
#
#
# Convention : Reuss Voigt Hill
#
# Bulk Modulus (GPa) = 32.43912 38.07018 35.25465
# Shear Modulus (GPa) = 21.62899 25.44765 23.53832
#
# Velocity S-wave (km/s) = 3.37320 3.65888 3.51894
# Velocity P-wave (km/s) = 5.67775 6.15449 5.92092
#
# Compressibility (1/GPa) = 0.03082698
#
# Stress axis : x y z
#
# Youngs Moduli (GPa) = 79.11862 44.82390 81.92451
#
# Poissons Ratio (x) = 0.01306 0.16810
# Poissons Ratio (y) = 0.02305 0.47687
# Poissons Ratio (z) = 0.16234 0.26091
#
# Static dielectric constant tensor:
#      x y z
#    x 1.656810 0.000000 -0.005930 
#    y 0.000000 1.652520 0.000000 
#    z -0.005930 0.000000 1.672270 
# 
# From -- ./inp_files/44970.got.cif
#   From: 2010.05.17/outbox.cif.g08.bks.cpg/sg5_23_cif.got.tgz:44970.got - 2010.06.03 18:56:24.
