data_PCOD9122756
_publ_section_title
;
Structure prediction by ZEFSAII (Michael W. Deem and Ramdas Pophale) SiO2 
 PCOD9122756
Probable space group: C 2
;
_chemical_formula_sum "Si O2"
_cell_formula_units_Z 30
_cell_length_a 16.864630
_cell_length_b 13.638316
_cell_length_c 7.992093
_cell_angle_alpha 90.000000
_cell_angle_beta 44.464543
_cell_angle_gamma 90.000000
_cell_volume 1287.615615
_symmetry_space_group_name_H-M "C 2"
_symmetry_group_IT_number 5
_symmetry_cell_setting 'monoclinic'
loop_
_space_group_symop_operation_xyz
x,y,z
-x,y,-z
1/2+x,1/2+y,z
1/2-x,1/2+y,-z
loop_
_atom_site_type_symbol
_atom_site_label
_atom_site_fract_x
_atom_site_fract_y
_atom_site_fract_z
Si Si1 0.669669 0.157710 0.078756
Si Si2 0.621882 0.846750 0.892198
Si Si3 0.775605 0.724646 0.471163
Si Si4 0.418969 0.375473 0.772802
Si Si5 0.633523 0.046958 0.781525
Si Si6 0.334163 0.946915 0.830354
Si Si7 0.622561 0.753330 0.382876
Si Si8 0.000000 0.841729 0.000000
O O1 0.593581 0.255421 0.208181
O O2 0.644241 0.061938 0.228083
O O3 0.663462 0.104308 0.906594
O O4 0.793578 0.205597 0.880838
O O5 0.719047 0.766613 0.723376
O O6 0.675631 0.937148 0.706418
O O7 0.500000 0.818088 0.000000
O O8 0.606809 0.896930 0.095512
O O9 0.820217 0.615513 0.431624
O O10 0.673704 0.725603 0.486956
O O11 0.886891 0.780374 0.227836
O O12 0.500000 0.403591 0.500000
O O13 0.298724 0.428198 0.935336
O O14 0.466292 0.399786 0.884842
O O15 0.500000 0.039194 0.000000
O O16 0.367276 0.871628 0.636039
O O17 0.500000 0.724962 0.500000
#
# Coordination Sequence:
#
# PCOD9122756 Si02
#       8
#     4   4   4   4   4   4   4   2
#     4   9  19  35  57  81 120 152 199 251 304 368
#     4  10  21  34  57  88 118 157 205 253 310 374
#     4  11  19  36  62  82 116 158 202 252 306 369
#     4  11  22  38  64  94 118 162 209 261 311 365
#     4   9  16  33  57  82 113 157 201 246 308 368
#     4  10  20  38  55  85 122 151 200 254 309 368
#     4  10  20  36  56  80 111 158 194 233 310 367
#     4  12  20  40  68  90 128 160 216 262 320 364
#
# _framework density 23.298877999999998
#
# number of rings (size 3 to 8) (size 9 to 14) (size 15 to 20)
#    0.000    1.867    4.667    1.600    0.000    1.067 
#    0.000    5.333    1.467    0.000    0.000    0.000 
#    0.000    0.000    0.000    0.000    0.000    0.000 
#
# Total GULP energy -83645.637460 kJ/mol
# GULP energy per Si atom -5576.375831 kJ/mol
# Density = 2.324585 g / cm^3
# Si number density = 23.298878 Si / 1000 Ang^3
#
#
#
# Elastic Constant Matrix: (Units=GPa)
#
#
# Indices 1 2 3 4 5 6 
#
# 1 102.1421 -17.8863 28.2739 0.0000 -4.1010 0.0000
# 2 -17.8863 65.1452 -7.3858 0.0000 7.6888 0.0000
# 3 28.2739 -7.3858 78.2193 0.0000 -3.3219 0.0000
# 4 0.0000 0.0000 0.0000 6.3212 0.0000 11.8719
# 5 -4.1010 7.6888 -3.3219 0.0000 32.1702 0.0000
# 6 0.0000 0.0000 0.0000 11.8719 0.0000 4.2986
#
#
#
# Elastic Compliance Matrix: (Units=1/GPa)
#
#
# Indices 1 2 3 4 5 6 
#
# 1 0.011327 0.002626 -0.003828 0.000000 0.000421 0.000000
# 2 0.002626 0.016545 0.000461 0.000000 -0.003572 0.000000
# 3 -0.003828 0.000461 0.014249 0.000000 0.000873 0.000000
# 4 0.000000 0.000000 0.000000 -0.037783 0.000000 0.104350
# 5 0.000421 -0.003572 0.000873 0.000000 0.032082 0.000000
# 6 0.000000 0.000000 0.000000 0.104350 0.000000 -0.055562
#
#
# Mechanical properties :
#
#
# Convention : Reuss Voigt Hill
#
# Bulk Modulus (GPa) = 24.60682 27.94558 26.27620
# Shear Modulus (GPa) = -1215.57099 24.72499 -595.42300
#
# Velocity S-wave (km/s) = -22.86618 3.26116 -16.00354
# Velocity P-wave (km/s) = 26.20239 5.11865 18.17092
#
# Compressibility (1/GPa) = 0.04063914
#
# Stress axis : x y z
#
# Youngs Moduli (GPa) = 88.28613 60.44032 70.18007
#
# Poissons Ratio (x) = -0.15873 0.26868
# Poissons Ratio (y) = -0.23185 -0.03237
# Poissons Ratio (z) = 0.33800 -0.02788
#
# Static dielectric constant tensor:
#      x y z
#    x 1.964350 0.000000 0.035590 
#    y 0.000000 1.959380 0.000000 
#    z 0.035590 0.000000 1.914780 
# 
# From -- ./inp_files/27699.got.cif
#   From: 2010.05.17/outbox.cif.g08.bks.cpg/sg5_14_cif.got.tgz:27699.got - 2010.06.03 18:56:24.
