data_PCOD9122215
_publ_section_title
;
Structure prediction by ZEFSAII (Michael W. Deem and Ramdas Pophale) SiO2 
 PCOD9122215
Probable space group: C 2
;
_chemical_formula_sum "Si O2"
_cell_formula_units_Z 30
_cell_length_a 7.368389
_cell_length_b 13.968991
_cell_length_c 12.041779
_cell_angle_alpha 90.000000
_cell_angle_beta 97.368766
_cell_angle_gamma 90.000000
_cell_volume 1229.211466
_symmetry_space_group_name_H-M "C 2"
_symmetry_group_IT_number 5
_symmetry_cell_setting 'monoclinic'
loop_
_space_group_symop_operation_xyz
x,y,z
-x,y,-z
1/2+x,1/2+y,z
1/2-x,1/2+y,-z
loop_
_atom_site_type_symbol
_atom_site_label
_atom_site_fract_x
_atom_site_fract_y
_atom_site_fract_z
Si Si1 0.279570 0.272930 0.206459
Si Si2 0.166526 0.679308 0.581073
Si Si3 0.500000 0.573657 0.500000
Si Si4 0.216015 0.373346 0.991053
Si Si5 0.506021 0.458350 0.693493
Si Si6 0.390746 0.569611 0.094253
Si Si7 0.156427 0.253747 0.787724
Si Si8 0.298047 0.840069 0.441534
O O1 0.364047 0.189559 0.289679
O O2 0.298251 0.289711 0.076625
O O3 0.372626 0.369570 0.258709
O O4 0.063041 0.264842 0.214472
O O5 0.356349 0.631914 0.561576
O O6 0.193707 0.786104 0.531935
O O7 0.000000 0.634750 0.500000
O O8 0.606344 0.512978 0.601162
O O9 0.290875 0.477353 0.032333
O O10 0.243259 0.340228 0.866695
O O11 0.000000 0.375628 0.000000
O O12 0.483801 0.525558 0.798431
O O13 0.318356 0.424845 0.621483
O O14 0.285790 0.654112 0.150447
O O15 0.500000 0.614823 0.000000
O O16 0.193917 0.265099 0.661067
O O17 0.500000 0.864515 0.500000
#
# Coordination Sequence:
#
# PCOD9122215 Si02
#       8
#     4   4   2   4   4   4   4   4
#     4  10  19  39  66  89 123 175 223 276 340 412
#     4  12  22  40  65  96 134 181 232 281 348 416
#     4  12  26  42  62  98 142 176 230 296 344 418
#     4   9  21  40  65  95 131 173 226 279 345 415
#     4  11  24  41  65  95 135 175 226 292 349 409
#     4  11  22  41  66  96 135 172 223 293 343 410
#     4  11  22  41  69  95 128 183 227 277 356 418
#     4  12  23  40  69  96 133 182 232 282 351 423
#
# _framework density 24.405891
#
# number of rings (size 3 to 8) (size 9 to 14) (size 15 to 20)
#    0.000    1.067    3.333    4.400    0.000    0.533 
#    0.000    4.667    5.867    0.000    0.000    0.000 
#    0.000    0.000    0.000    0.000    0.000    0.000 
#
# Total GULP energy -83842.925771 kJ/mol
# GULP energy per Si atom -5589.528385 kJ/mol
# Density = 2.435034 g / cm^3
# Si number density = 24.405891 Si / 1000 Ang^3
#
#
#
# Elastic Constant Matrix: (Units=GPa)
#
#
# Indices 1 2 3 4 5 6 
#
# 1 51.1355 12.4988 11.2967 0.0000 15.1342 0.0000
# 2 12.4988 87.7405 35.7433 0.0000 12.6644 0.0000
# 3 11.2967 35.7433 147.8006 0.0000 2.9526 0.0000
# 4 0.0000 0.0000 0.0000 34.8550 0.0000 -2.6546
# 5 15.1342 12.6644 2.9526 0.0000 35.3174 0.0000
# 6 0.0000 0.0000 0.0000 -2.6546 0.0000 22.8152
#
#
#
# Elastic Compliance Matrix: (Units=1/GPa)
#
#
# Indices 1 2 3 4 5 6 
#
# 1 0.022898 -0.001438 -0.001219 0.000000 -0.009195 0.000000
# 2 -0.001438 0.013415 -0.003056 0.000000 -0.003939 0.000000
# 3 -0.001219 -0.003056 0.007578 0.000000 0.000984 0.000000
# 4 0.000000 0.000000 0.000000 0.028947 0.000000 0.003368
# 5 -0.009195 -0.003939 0.000984 0.000000 0.033585 0.000000
# 6 0.000000 0.000000 0.000000 0.003368 0.000000 0.044222
#
#
# Mechanical properties :
#
#
# Convention : Reuss Voigt Hill
#
# Bulk Modulus (GPa) = 30.80097 45.08380 37.94239
# Shear Modulus (GPa) = 28.91960 33.74004 31.32982
#
# Velocity S-wave (km/s) = 3.44604 3.72217 3.58676
# Velocity P-wave (km/s) = 5.33678 6.08156 5.72130
#
# Compressibility (1/GPa) = 0.03246651
#
# Stress axis : x y z
#
# Youngs Moduli (GPa) = 43.67205 74.54079 131.95531
#
# Poissons Ratio (x) = 0.10721 0.16080
# Poissons Ratio (y) = 0.06281 0.40322
# Poissons Ratio (z) = 0.05322 0.22777
#
# Static dielectric constant tensor:
#      x y z
#    x 1.923620 0.000000 0.032730 
#    y 0.000000 2.011800 0.000000 
#    z 0.032730 0.000000 1.954360 
# 
# From -- ./inp_files/36476.got.cif
#   From: 2010.05.17/outbox.cif.g08.bks.cpg/sg5_19_cif.got.tgz:36476.got - 2010.06.03 18:56:24.
