data_PCOD9122965
_publ_section_title
;
Structure prediction by ZEFSAII (Michael W. Deem and Ramdas Pophale) SiO2 
 PCOD9122965
Probable space group: C 2
;
_chemical_formula_sum "Si O2"
_cell_formula_units_Z 28
_cell_length_a 5.141075
_cell_length_b 19.943220
_cell_length_c 13.557229
_cell_angle_alpha 90.000000
_cell_angle_beta 75.196324
_cell_angle_gamma 90.000000
_cell_volume 1343.878286
_symmetry_space_group_name_H-M "C 2"
_symmetry_group_IT_number 5
_symmetry_cell_setting 'monoclinic'
loop_
_space_group_symop_operation_xyz
x,y,z
-x,y,-z
1/2+x,1/2+y,z
1/2-x,1/2+y,-z
loop_
_atom_site_type_symbol
_atom_site_label
_atom_site_fract_x
_atom_site_fract_y
_atom_site_fract_z
Si Si1 0.638837 0.463390 0.797757
Si Si2 0.409055 0.888975 0.121118
Si Si3 0.979056 0.012781 0.388636
Si Si4 0.528112 0.074377 0.760938
Si Si5 0.587024 0.748629 0.787015
Si Si6 0.180982 0.656105 0.391355
Si Si7 0.529804 0.191114 0.882442
O O1 0.342107 0.440136 0.857216
O O2 0.667344 0.463221 0.674770
O O3 0.742610 0.539205 0.807893
O O4 0.844036 0.419993 0.841998
O O5 0.328114 0.823340 0.191433
O O6 0.500000 0.872528 0.000000
O O7 0.264476 0.022449 0.306487
O O8 0.000000 0.991039 0.500000
O O9 0.845123 0.087673 0.402019
O O10 0.508693 0.129883 0.677730
O O11 0.621529 0.115622 0.846054
O O12 0.659004 0.716880 0.673954
O O13 0.267586 0.740710 0.827433
O O14 0.751045 0.705007 0.852450
O O15 0.000000 0.676777 0.500000
O O16 0.500000 0.199253 0.000000
#
# Coordination Sequence:
#
# PCOD9122965 Si02
#       7
#     4   4   4   4   4   4   4
#     4  11  25  43  65  97 129 170 236 275 322 400
#     4  12  25  46  67  91 131 188 234 277 329 390
#     4  11  20  40  71  96 133 172 212 269 346 410
#     4  10  21  39  63  98 130 164 215 267 334 409
#     4  11  24  42  67  95 131 170 233 275 321 410
#     4  10  20  36  67 101 131 170 208 269 341 407
#     4  11  22  39  63  97 133 168 209 280 346 396
#
# _framework density 20.83522
#
# number of rings (size 3 to 8) (size 9 to 14) (size 15 to 20)
#    0.000    1.143    4.286    2.571    0.000    0.571 
#    2.571    0.714    0.000    0.000    0.000    0.000 
#    0.000    0.000    0.000    0.000    0.000    0.000 
#
# Total GULP energy -78052.532760 kJ/mol
# GULP energy per Si atom -5575.180911 kJ/mol
# Density = 2.078780 g / cm^3
# Si number density = 20.835220 Si / 1000 Ang^3
#
#
#
# Elastic Constant Matrix: (Units=GPa)
#
#
# Indices 1 2 3 4 5 6 
#
# 1 81.5307 9.0953 13.7013 0.0000 -1.3964 0.0000
# 2 9.0953 43.6782 34.7829 0.0000 -0.7785 0.0000
# 3 13.7013 34.7829 95.2502 0.0000 -3.5637 0.0000
# 4 0.0000 0.0000 0.0000 19.3570 0.0000 6.2770
# 5 -1.3964 -0.7785 -3.5637 0.0000 30.9423 0.0000
# 6 0.0000 0.0000 0.0000 6.2770 0.0000 25.3932
#
#
#
# Elastic Compliance Matrix: (Units=1/GPa)
#
#
# Indices 1 2 3 4 5 6 
#
# 1 0.012660 -0.001679 -0.001193 0.000000 0.000392 0.000000
# 2 -0.001679 0.032515 -0.011654 0.000000 -0.000600 0.000000
# 3 -0.001193 -0.011654 0.014978 0.000000 0.001378 0.000000
# 4 0.000000 0.000000 0.000000 0.056163 0.000000 -0.013883
# 5 0.000392 -0.000600 0.001378 0.000000 0.032479 0.000000
# 6 0.000000 0.000000 0.000000 -0.013883 0.000000 0.042812
#
#
# Mechanical properties :
#
#
# Convention : Reuss Voigt Hill
#
# Bulk Modulus (GPa) = 32.15551 37.29090 34.72321
# Shear Modulus (GPa) = 21.64253 25.99714 23.81983
#
# Velocity S-wave (km/s) = 3.22646 3.53618 3.38486
# Velocity P-wave (km/s) = 5.41727 5.88300 5.65493
#
# Compressibility (1/GPa) = 0.03109887
#
# Stress axis : x y z
#
# Youngs Moduli (GPa) = 78.98977 30.75538 66.76560
#
# Poissons Ratio (x) = 0.05164 0.07967
# Poissons Ratio (y) = 0.13262 0.77812
# Poissons Ratio (z) = 0.09426 0.35844
#
# Static dielectric constant tensor:
#      x y z
#    x 1.823280 0.000000 0.005010 
#    y 0.000000 1.780600 0.000000 
#    z 0.005010 0.000000 1.737090 
# 
# From -- ./inp_files/33791.got.cif
#   From: 2010.05.17/outbox.cif.g08.bks.cpg/sg5_17_cif.got.tgz:33791.got - 2010.06.03 18:56:24.
