data_PCOD9122158
_publ_section_title
;
Structure prediction by ZEFSAII (Michael W. Deem and Ramdas Pophale) SiO2 
 PCOD9122158
Probable space group: C 2
;
_chemical_formula_sum "Si O2"
_cell_formula_units_Z 24
_cell_length_a 17.832542
_cell_length_b 7.496705
_cell_length_c 11.287673
_cell_angle_alpha 90.000000
_cell_angle_beta 131.028125
_cell_angle_gamma 90.000000
_cell_volume 1138.367661
_symmetry_space_group_name_H-M "C 2"
_symmetry_group_IT_number 5
_symmetry_cell_setting 'monoclinic'
loop_
_space_group_symop_operation_xyz
x,y,z
-x,y,-z
1/2+x,1/2+y,z
1/2-x,1/2+y,-z
loop_
_atom_site_type_symbol
_atom_site_label
_atom_site_fract_x
_atom_site_fract_y
_atom_site_fract_z
Si Si1 0.407080 0.977460 0.323860
Si Si2 0.773988 0.758700 0.779526
Si Si3 0.407164 0.267563 0.148376
Si Si4 0.501843 0.614811 0.644301
Si Si5 0.293940 0.462957 0.428007
Si Si6 0.370042 0.166489 0.642269
O O1 0.500000 0.040314 0.500000
O O2 0.320885 0.884850 0.310025
O O3 0.452885 0.811684 0.294997
O O4 0.362756 0.137811 0.201886
O O5 0.736260 0.552490 0.727497
O O6 0.834109 0.782615 0.719531
O O7 0.841057 0.780206 0.963721
O O8 0.434487 0.461465 0.227100
O O9 0.512359 0.168151 0.231779
O O10 0.500000 0.582777 0.500000
O O11 0.387769 0.584575 0.566688
O O12 0.333914 0.265617 0.486138
O O13 0.194730 0.490979 0.403189
#
# Coordination Sequence:
#
# PCOD9122158 Si02
#       6
#     4   4   4   4   4   4
#     4  11  22  39  61  85 121 160 203 244 295 368
#     4  10  22  38  59  89 124 150 201 256 300 354
#     4  11  24  36  62  89 122 159 195 250 310 353
#     4  10  19  39  58  84 119 156 201 244 293 360
#     4   9  19  35  62  82 113 157 199 250 293 358
#     4   9  20  38  60  86 117 158 202 246 300 358
#
# _framework density 21.082818
#
# number of rings (size 3 to 8) (size 9 to 14) (size 15 to 20)
#    1.000    1.000    3.333    1.000    7.000    0.000 
#    0.000    1.667    0.000    2.000    0.000    0.000 
#    0.000    0.000    0.000    0.000    0.000    0.000 
#
# Total GULP energy -66867.038719 kJ/mol
# GULP energy per Si atom -5572.253227 kJ/mol
# Density = 2.103483 g / cm^3
# Si number density = 21.082818 Si / 1000 Ang^3
#
#
#
# Elastic Constant Matrix: (Units=GPa)
#
#
# Indices 1 2 3 4 5 6 
#
# 1 59.2297 -4.3743 -3.5702 0.0000 5.1305 0.0000
# 2 -4.3743 48.7027 33.7693 0.0000 -7.0602 0.0000
# 3 -3.5702 33.7693 115.8908 0.0000 -11.6552 0.0000
# 4 0.0000 0.0000 0.0000 22.6912 0.0000 -3.0216
# 5 5.1305 -7.0602 -11.6552 0.0000 22.0936 0.0000
# 6 0.0000 0.0000 0.0000 -3.0216 0.0000 27.0023
#
#
#
# Elastic Compliance Matrix: (Units=1/GPa)
#
#
# Indices 1 2 3 4 5 6 
#
# 1 0.017281 0.001130 -0.000173 0.000000 -0.003743 0.000000
# 2 0.001130 0.026237 -0.007174 0.000000 0.004337 0.000000
# 3 -0.000173 -0.007174 0.011075 0.000000 0.003590 0.000000
# 4 0.000000 0.000000 0.000000 0.044737 0.000000 0.005006
# 5 -0.003743 0.004337 0.003590 0.000000 0.049411 0.000000
# 6 0.000000 0.000000 0.000000 0.005006 0.000000 0.037594
#
#
# Mechanical properties :
#
#
# Convention : Reuss Voigt Hill
#
# Bulk Modulus (GPa) = 23.72074 30.60808 27.16441
# Shear Modulus (GPa) = 23.49365 27.55730 25.52548
#
# Velocity S-wave (km/s) = 3.34181 3.61930 3.48332
# Velocity P-wave (km/s) = 5.11526 5.65821 5.39357
#
# Compressibility (1/GPa) = 0.04215720
#
# Stress axis : x y z
#
# Youngs Moduli (GPa) = 57.86815 38.11350 90.29311
#
# Poissons Ratio (x) = -0.04305 0.01564
# Poissons Ratio (y) = -0.06537 0.64779
# Poissons Ratio (z) = 0.01003 0.27344
#
# Static dielectric constant tensor:
#      x y z
#    x 1.829350 0.000000 -0.002990 
#    y 0.000000 1.791800 0.000000 
#    z -0.002990 0.000000 1.712120 
# 
# From -- ./inp_files/46076.got.cif
#   From: 2010.05.17/outbox.cif.g08.bks.cpg/sg5_24_cif.got.tgz:46076.got - 2010.06.03 18:56:24.
