data_PCOD9122753
_publ_section_title
;
Structure prediction by ZEFSAII (Michael W. Deem and Ramdas Pophale) SiO2 
 PCOD9122753
Probable space group: C 2
;
_chemical_formula_sum "Si O2"
_cell_formula_units_Z 26
_cell_length_a 9.833825
_cell_length_b 9.147793
_cell_length_c 12.506791
_cell_angle_alpha 90.000000
_cell_angle_beta 85.011626
_cell_angle_gamma 90.000000
_cell_volume 1120.821939
_symmetry_space_group_name_H-M "C 2"
_symmetry_group_IT_number 5
_symmetry_cell_setting 'monoclinic'
loop_
_space_group_symop_operation_xyz
x,y,z
-x,y,-z
1/2+x,1/2+y,z
1/2-x,1/2+y,-z
loop_
_atom_site_type_symbol
_atom_site_label
_atom_site_fract_x
_atom_site_fract_y
_atom_site_fract_z
Si Si1 0.593365 0.912080 0.219106
Si Si2 0.235888 0.893335 0.420478
Si Si3 0.353857 0.151479 0.968263
Si Si4 0.790749 0.056406 0.368954
Si Si5 0.000000 0.330529 0.500000
Si Si6 0.131249 0.380881 0.911295
Si Si7 0.916081 0.121376 0.699926
O O1 0.433509 0.883701 0.202445
O O2 0.642535 0.742664 0.214708
O O3 0.627265 0.035188 0.129260
O O4 0.666838 0.980410 0.316291
O O5 0.239912 0.718495 0.405706
O O6 0.392772 0.925916 0.441619
O O7 0.165605 0.955036 0.533553
O O8 0.173145 0.982842 0.326851
O O9 0.246773 0.267436 0.934148
O O10 0.500000 0.213169 0.000000
O O11 0.312144 0.040946 0.065267
O O12 0.928008 0.071737 0.287974
O O13 0.932905 0.220581 0.590898
O O14 0.000000 0.351745 0.000000
#
# Coordination Sequence:
#
# PCOD9122753 Si02
#       7
#     4   4   4   4   2   4   4
#     4  10  20  39  61  89 125 154 195 248 301 350
#     4  11  20  38  56  78 112 163 203 250 299 336
#     4   9  20  40  66  93 119 158 194 240 302 369
#     4  11  21  37  57  82 117 157 207 251 297 347
#     4  10  20  36  56  74 114 150 204 254 298 332
#     4   9  20  40  65  90 123 157 192 242 303 363
#     4  11  20  39  56  81 117 158 204 252 292 345
#
# _framework density 23.197261999999998
#
# number of rings (size 3 to 8) (size 9 to 14) (size 15 to 20)
#    0.000    2.154    4.615    0.923    0.000    0.615 
#    5.538   24.615    0.000    0.000    0.000    0.000 
#    0.000    0.000    0.000    0.000    0.000    0.000 
#
# Total GULP energy -72401.722389 kJ/mol
# GULP energy per Si atom -5569.363261 kJ/mol
# Density = 2.314446 g / cm^3
# Si number density = 23.197262 Si / 1000 Ang^3
#
#
#
# Elastic Constant Matrix: (Units=GPa)
#
#
# Indices 1 2 3 4 5 6 
#
# 1 124.9750 95.4808 45.4318 0.0000 32.9640 0.0000
# 2 95.4808 131.1305 29.7420 0.0000 29.8299 0.0000
# 3 45.4318 29.7420 75.6076 0.0000 37.0991 0.0000
# 4 0.0000 0.0000 0.0000 38.9795 0.0000 14.5239
# 5 32.9640 29.8299 37.0991 0.0000 44.1652 0.0000
# 6 0.0000 0.0000 0.0000 14.5239 0.0000 47.0048
#
#
#
# Elastic Compliance Matrix: (Units=1/GPa)
#
#
# Indices 1 2 3 4 5 6 
#
# 1 0.021178 -0.013675 -0.007013 0.000000 -0.000680 0.000000
# 2 -0.013675 0.017881 0.003574 0.000000 -0.004873 0.000000
# 3 -0.007013 0.003574 0.024923 0.000000 -0.018115 0.000000
# 4 0.000000 0.000000 0.000000 0.028992 0.000000 -0.008958
# 5 -0.000680 -0.004873 -0.018115 0.000000 0.041658 0.000000
# 6 0.000000 0.000000 0.000000 -0.008958 0.000000 0.024042
#
#
# Mechanical properties :
#
#
# Convention : Reuss Voigt Hill
#
# Bulk Modulus (GPa) = 33.60799 74.78025 54.19412
# Shear Modulus (GPa) = 24.65226 36.76713 30.70969
#
# Velocity S-wave (km/s) = 3.26348 3.98550 3.64242
# Velocity P-wave (km/s) = 5.35908 7.31338 6.41114
#
# Compressibility (1/GPa) = 0.02975483
#
# Stress axis : x y z
#
# Youngs Moduli (GPa) = 47.21830 55.92419 40.12371
#
# Poissons Ratio (x) = 0.76479 0.28138
# Poissons Ratio (y) = 0.64573 -0.14342
# Poissons Ratio (z) = 0.33113 -0.19989
#
# Static dielectric constant tensor:
#      x y z
#    x 1.945440 0.000000 -0.084400 
#    y 0.000000 1.836320 0.000000 
#    z -0.084400 0.000000 2.078190 
# 
# From -- ./inp_files/52122.got.cif
#   From: 2010.05.17/outbox.cif.g08.bks.cpg/sg5_27_cif.got.tgz:52122.got - 2010.06.03 18:56:24.
