data_PCOD9122065
_publ_section_title
;
Structure prediction by ZEFSAII (Michael W. Deem and Ramdas Pophale) SiO2 
 PCOD9122065
Probable space group: C 2
;
_chemical_formula_sum "Si O2"
_cell_formula_units_Z 32
_cell_length_a 12.513477
_cell_length_b 6.970626
_cell_length_c 30.211081
_cell_angle_alpha 90.000000
_cell_angle_beta 28.729380
_cell_angle_gamma 90.000000
_cell_volume 1266.677247
_symmetry_space_group_name_H-M "C 2"
_symmetry_group_IT_number 5
_symmetry_cell_setting 'monoclinic'
loop_
_space_group_symop_operation_xyz
x,y,z
-x,y,-z
1/2+x,1/2+y,z
1/2-x,1/2+y,-z
loop_
_atom_site_type_symbol
_atom_site_label
_atom_site_fract_x
_atom_site_fract_y
_atom_site_fract_z
Si Si1 0.703137 0.529700 0.455156
Si Si2 0.247592 0.870849 0.895660
Si Si3 0.563391 0.893657 0.264125
Si Si4 0.314182 0.513446 0.348312
Si Si5 0.021870 0.825993 0.124946
Si Si6 0.675782 0.087758 0.491106
Si Si7 0.218423 0.918837 0.143829
Si Si8 0.080125 0.264118 0.079084
O O1 0.500000 0.607664 0.500000
O O2 0.655641 0.304073 0.480818
O O3 0.720957 0.606010 0.498228
O O4 0.934445 0.535099 0.343766
O O5 0.336795 0.966670 0.818496
O O6 0.242327 0.641738 0.885123
O O7 0.403110 0.888818 0.882302
O O8 0.000000 0.930059 0.000000
O O9 0.381697 0.735864 0.316487
O O10 0.761954 0.776246 0.216759
O O11 0.307778 0.481744 0.403599
O O12 0.502246 0.404639 0.253393
O O13 0.067613 0.493602 0.418689
O O14 0.155917 0.807902 0.121672
O O15 0.005405 0.054935 0.121366
O O16 0.172046 0.745408 0.030906
O O17 0.426546 0.849377 0.096723
#
# Coordination Sequence:
#
# PCOD9122065 Si02
#       8
#     4   4   4   4   4   4   4   4
#     4  11  22  43  68  97 133 169 213 270 327 385
#     4  10  19  38  62  84 124 170 211 263 323 376
#     4  10  20  39  66  91 129 173 213 263 325 383
#     4   9  19  40  68  90 127 176 213 263 329 390
#     4  11  23  41  62  92 131 169 218 269 323 379
#     4  10  20  42  68  95 132 172 210 266 332 383
#     4  10  21  38  61  91 124 168 220 266 318 378
#     4  11  23  40  64  92 125 176 220 269 323 380
#
# _framework density 25.262944999999998
#
# number of rings (size 3 to 8) (size 9 to 14) (size 15 to 20)
#    0.000    1.750    3.750    2.625    1.750    1.000 
#   11.250    2.500    0.000    0.000    0.000    0.000 
#    0.000    0.000    0.000    0.000    0.000    0.000 
#
# Total GULP energy -89600.915331 kJ/mol
# GULP energy per Si atom -5600.057208 kJ/mol
# Density = 2.520545 g / cm^3
# Si number density = 25.262945 Si / 1000 Ang^3
#
#
#
# Elastic Constant Matrix: (Units=GPa)
#
#
# Indices 1 2 3 4 5 6 
#
# 1 225.3218 18.8239 63.9329 0.1789 13.1061 0.0488
# 2 18.8239 62.7003 3.0917 0.4124 1.6913 0.1369
# 3 63.9329 3.0917 167.2428 0.7035 10.5763 0.3952
# 4 0.1789 0.4124 0.7035 11.8780 0.0755 -8.2304
# 5 13.1061 1.6913 10.5763 0.0755 37.2581 -0.0472
# 6 0.0488 0.1369 0.3952 -8.2304 -0.0472 18.9688
#
#
#
# Elastic Compliance Matrix: (Units=1/GPa)
#
#
# Indices 1 2 3 4 5 6 
#
# 1 0.005158 -0.001425 -0.001869 0.000162 -0.001219 0.000103
# 2 -0.001425 0.016379 0.000267 -0.000922 -0.000317 -0.000521
# 3 -0.001869 0.000267 0.006774 -0.000675 -0.001277 -0.000434
# 4 0.000162 -0.000922 -0.000675 0.120501 -0.000001 0.052305
# 5 -0.001219 -0.000317 -0.001277 -0.000001 0.027646 0.000100
# 6 0.000103 -0.000521 -0.000434 0.052305 0.000100 0.075426
#
#
# Mechanical properties :
#
#
# Convention : Reuss Voigt Hill
#
# Bulk Modulus (GPa) = 44.93010 69.66244 57.29627
# Shear Modulus (GPa) = 18.84255 38.24875 28.54565
#
# Velocity S-wave (km/s) = 2.73400 3.89527 3.36511
# Velocity P-wave (km/s) = 5.27162 6.91850 6.15043
#
# Compressibility (1/GPa) = 0.02225680
#
# Stress axis : x y z
#
# Youngs Moduli (GPa) = 193.86135 61.05291 147.63186
#
# Poissons Ratio (x) = 0.08699 0.27598
# Poissons Ratio (y) = 0.27622 -0.03942
# Poissons Ratio (z) = 0.36240 -0.01630
#
# Static dielectric constant tensor:
#      x y z
#    x 2.050260 -0.000080 -0.022870 
#    y -0.000080 2.097790 -0.000110 
#    z -0.022870 -0.000110 1.974180 
# 
# From -- ./inp_files/71745.got.cif
#   From: 2010.05.17/outbox.cif.g08.bks.cpg/sg5_36_cif.got.tgz:71745.got - 2010.06.03 18:56:24.
