data_PCOD9122911
_publ_section_title
;
Structure prediction by ZEFSAII (Michael W. Deem and Ramdas Pophale) SiO2 
 PCOD9122911
Probable space group: C 2
;
_chemical_formula_sum "Si O2"
_cell_formula_units_Z 30
_cell_length_a 12.577814
_cell_length_b 14.302078
_cell_length_c 19.068776
_cell_angle_alpha 90.000000
_cell_angle_beta 26.068911
_cell_angle_gamma 90.000000
_cell_volume 1507.434343
_symmetry_space_group_name_H-M "C 2"
_symmetry_group_IT_number 5
_symmetry_cell_setting 'monoclinic'
loop_
_space_group_symop_operation_xyz
x,y,z
-x,y,-z
1/2+x,1/2+y,z
1/2-x,1/2+y,-z
loop_
_atom_site_type_symbol
_atom_site_label
_atom_site_fract_x
_atom_site_fract_y
_atom_site_fract_z
Si Si1 0.630602 0.549740 0.848435
Si Si2 0.672527 0.415772 0.065772
Si Si3 0.177088 0.200565 0.548098
Si Si4 0.742243 0.842584 0.394577
Si Si5 0.000000 0.393238 0.000000
Si Si6 0.189968 0.491958 0.541243
Si Si7 0.063127 0.341706 0.726946
Si Si8 0.780011 0.754844 0.733973
O O1 0.490534 0.498152 0.869063
O O2 0.630523 0.659765 0.832981
O O3 0.908605 0.515734 0.690480
O O4 0.500000 0.531537 0.000000
O O5 0.478819 0.338789 0.206792
O O6 0.847564 0.441969 0.027613
O O7 0.831835 0.376051 0.907755
O O8 0.173225 0.247189 0.474148
O O9 0.010894 0.261751 0.699128
O O10 0.444191 0.226296 0.418339
O O11 0.164262 0.089128 0.548849
O O12 0.500000 0.874952 0.500000
O O13 0.792153 0.921073 0.423310
O O14 0.187897 0.327727 0.846465
O O15 0.179995 0.431156 0.618412
O O16 0.231221 0.297513 0.687075
#
# Coordination Sequence:
#
# PCOD9122911 Si02
#       8
#     4   4   4   4   2   4   4   4
#     4  11  20  35  62  97 125 163 214 271 313 370
#     4  11  22  38  64  91 132 164 213 262 320 382
#     4  10  22  40  60  89 126 162 218 263 313 377
#     4  11  22  39  61  91 124 170 209 264 320 376
#     4  10  20  38  58  92 120 172 202 266 318 366
#     4  10  22  38  61  90 127 163 217 260 318 375
#     4  10  22  37  60  95 123 167 204 266 326 369
#     4  10  20  36  63  89 124 158 220 262 309 371
#
# _framework density 19.901364999999998
#
# number of rings (size 3 to 8) (size 9 to 14) (size 15 to 20)
#    0.000    1.600    4.667    0.400    1.867    0.000 
#    0.000    2.667    0.000    3.200    0.000    0.000 
#    0.000    0.000    0.000    0.000    0.000    0.000 
#
# Total GULP energy -83700.763066 kJ/mol
# GULP energy per Si atom -5580.050871 kJ/mol
# Density = 1.985607 g / cm^3
# Si number density = 19.901365 Si / 1000 Ang^3
#
#
#
# Elastic Constant Matrix: (Units=GPa)
#
#
# Indices 1 2 3 4 5 6 
#
# 1 88.9326 31.8781 9.3997 0.0026 14.5136 0.0021
# 2 31.8781 84.1483 2.3963 -0.0143 16.0304 -0.0019
# 3 9.3997 2.3963 56.9683 -0.0264 14.3298 -0.0044
# 4 0.0026 -0.0143 -0.0264 14.4078 -0.0108 -5.0185
# 5 14.5136 16.0304 14.3298 -0.0108 26.8372 -0.0153
# 6 0.0021 -0.0019 -0.0044 -5.0185 -0.0153 20.4224
#
#
#
# Elastic Compliance Matrix: (Units=1/GPa)
#
#
# Indices 1 2 3 4 5 6 
#
# 1 0.013587 -0.004311 -0.000993 -0.000015 -0.004243 -0.000009
# 2 -0.004311 0.014917 0.002008 0.000013 -0.007652 0.000000
# 3 -0.000993 0.002008 0.020561 0.000033 -0.011641 0.000004
# 4 -0.000015 0.000013 0.000033 0.075904 0.000024 0.018652
# 5 -0.004243 -0.007652 -0.011641 0.000024 0.050342 0.000041
# 6 -0.000009 0.000000 0.000004 0.018652 0.000041 0.053549
#
#
# Mechanical properties :
#
#
# Convention : Reuss Voigt Hill
#
# Bulk Modulus (GPa) = 23.54350 35.26634 29.40492
# Shear Modulus (GPa) = 20.03120 24.75851 22.39485
#
# Velocity S-wave (km/s) = 3.17602 3.53095 3.35818
# Velocity P-wave (km/s) = 5.03043 5.86366 5.46295
#
# Compressibility (1/GPa) = 0.04247456
#
# Stress axis : x y z
#
# Youngs Moduli (GPa) = 73.59962 67.03651 48.63500
#
# Poissons Ratio (x) = 0.28897 0.04831
# Poissons Ratio (y) = 0.31726 -0.09768
# Poissons Ratio (z) = 0.07311 -0.13464
#
# Static dielectric constant tensor:
#      x y z
#    x 1.715840 -0.000040 0.005490 
#    y -0.000040 1.695680 0.000040 
#    z 0.005490 0.000040 1.730210 
# 
# From -- ./inp_files/20676.got.cif
#   From: 2010.05.17/outbox.cif.g08.bks.cpg/sg5_11_cif.got.tgz:20676.got - 2010.06.03 18:56:24.
