data_PCOD9122240
_publ_section_title
;
Structure prediction by ZEFSAII (Michael W. Deem and Ramdas Pophale) SiO2 
 PCOD9122240
Probable space group: C 2
;
_chemical_formula_sum "Si O2"
_cell_formula_units_Z 32
_cell_length_a 14.268257
_cell_length_b 11.920890
_cell_length_c 8.976261
_cell_angle_alpha 90.000000
_cell_angle_beta 88.924050
_cell_angle_gamma 90.000000
_cell_volume 1526.505928
_symmetry_space_group_name_H-M "C 2"
_symmetry_group_IT_number 5
_symmetry_cell_setting 'monoclinic'
loop_
_space_group_symop_operation_xyz
x,y,z
-x,y,-z
1/2+x,1/2+y,z
1/2-x,1/2+y,-z
loop_
_atom_site_type_symbol
_atom_site_label
_atom_site_fract_x
_atom_site_fract_y
_atom_site_fract_z
Si Si1 0.334535 0.344700 0.737666
Si Si2 0.423837 0.877929 0.738350
Si Si3 0.478815 0.455830 0.323164
Si Si4 0.204996 0.291274 0.004189
Si Si5 0.410084 0.697739 0.241984
Si Si6 0.964731 0.635204 0.671617
Si Si7 0.780770 0.278751 0.503879
Si Si8 0.145236 0.744263 0.755108
O O1 0.425098 0.419127 0.757675
O O2 0.261329 0.354450 0.872763
O O3 0.379437 0.219423 0.713771
O O4 0.280052 0.369597 0.585827
O O5 0.516606 0.800953 0.748391
O O6 0.359033 0.829201 0.608690
O O7 0.443068 0.006196 0.699059
O O8 0.363264 0.864362 0.890641
O O9 0.500000 0.446713 0.500000
O O10 0.457970 0.580840 0.274584
O O11 0.397259 0.368758 0.277279
O O12 0.140522 0.203772 0.916176
O O13 0.285593 0.242115 0.107777
O O14 0.332306 0.711301 0.372970
O O15 0.000000 0.655650 0.500000
O O16 0.053880 0.668556 0.769557
O O17 0.708782 0.212607 0.610840
#
# Coordination Sequence:
#
# PCOD9122240 Si02
#       8
#     4   4   4   4   4   4   4   4
#     4  10  21  44  68 105 134 174 223 293 337 416
#     4  11  24  45  63  96 139 185 223 277 343 415
#     4  11  21  41  75 103 135 173 231 287 353 391
#     4  10  25  45  64  96 140 182 226 267 345 408
#     4  11  24  45  63  96 139 185 223 277 343 415
#     4  11  21  41  75 103 135 173 231 287 353 391
#     4  10  19  39  70  96 136 166 234 277 327 396
#     4  10  21  44  68 105 134 174 223 293 337 416
#
# _framework density 20.962906
#
# number of rings (size 3 to 8) (size 9 to 14) (size 15 to 20)
#    0.000    1.500    2.500    3.000    0.000    6.000 
#   18.000    2.500    0.000    0.000    0.000    0.000 
#    0.000    0.000    0.000    0.000    0.000    0.000 
#
# Total GULP energy -89385.594805 kJ/mol
# GULP energy per Si atom -5586.599675 kJ/mol
# Density = 2.091519 g / cm^3
# Si number density = 20.962906 Si / 1000 Ang^3
#
#
#
# Elastic Constant Matrix: (Units=GPa)
#
#
# Indices 1 2 3 4 5 6 
#
# 1 93.7825 8.0225 29.4834 0.0000 23.6031 0.0000
# 2 8.0225 65.6519 1.1990 0.0000 19.9067 0.0000
# 3 29.4834 1.1990 98.4838 0.0000 10.9592 0.0000
# 4 0.0000 0.0000 0.0000 13.1749 0.0000 0.8724
# 5 23.6031 19.9067 10.9592 0.0000 39.8980 0.0000
# 6 0.0000 0.0000 0.0000 0.8724 0.0000 10.3080
#
#
#
# Elastic Compliance Matrix: (Units=1/GPa)
#
#
# Indices 1 2 3 4 5 6 
#
# 1 0.013487 0.000662 -0.003220 0.000000 -0.007425 0.000000
# 2 0.000662 0.018041 0.000647 0.000000 -0.009571 0.000000
# 3 -0.003220 0.000647 0.011279 0.000000 -0.001516 0.000000
# 4 0.000000 0.000000 0.000000 0.076330 0.000000 -0.006460
# 5 -0.007425 -0.009571 -0.001516 0.000000 0.034648 0.000000
# 6 0.000000 0.000000 0.000000 -0.006460 0.000000 0.097559
#
#
# Mechanical properties :
#
#
# Convention : Reuss Voigt Hill
#
# Bulk Modulus (GPa) = 25.65000 37.25865 31.45432
# Shear Modulus (GPa) = 18.64564 27.29042 22.96803
#
# Velocity S-wave (km/s) = 2.98562 3.61202 3.31365
# Velocity P-wave (km/s) = 4.91403 5.93361 5.44773
#
# Compressibility (1/GPa) = 0.03898636
#
# Stress axis : x y z
#
# Youngs Moduli (GPa) = 74.14463 55.42875 88.66311
#
# Poissons Ratio (x) = -0.03669 0.28545
# Poissons Ratio (y) = -0.04908 -0.05738
# Poissons Ratio (z) = 0.23871 -0.03587
#
# Static dielectric constant tensor:
#      x y z
#    x 1.785120 0.000000 0.009890 
#    y 0.000000 1.722430 0.000000 
#    z 0.009890 0.000000 1.786570 
# 
# From -- ./inp_files/23899.got.cif
#   From: 2010.05.17/outbox.cif.g08.bks.cpg/sg5_12_cif.got.tgz:23899.got - 2010.06.03 18:56:24.
