data_PCOD9122452
_publ_section_title
;
Structure prediction by ZEFSAII (Michael W. Deem and Ramdas Pophale) SiO2 
 PCOD9122452
Probable space group: C 2
;
_chemical_formula_sum "Si O2"
_cell_formula_units_Z 32
_cell_length_a 7.481083
_cell_length_b 13.024609
_cell_length_c 14.464789
_cell_angle_alpha 90.000000
_cell_angle_beta 74.899655
_cell_angle_gamma 90.000000
_cell_volume 1360.756859
_symmetry_space_group_name_H-M "C 2"
_symmetry_group_IT_number 5
_symmetry_cell_setting 'monoclinic'
loop_
_space_group_symop_operation_xyz
x,y,z
-x,y,-z
1/2+x,1/2+y,z
1/2-x,1/2+y,-z
loop_
_atom_site_type_symbol
_atom_site_label
_atom_site_fract_x
_atom_site_fract_y
_atom_site_fract_z
Si Si1 0.824346 0.175320 0.474908
Si Si2 0.553889 0.318904 0.597882
Si Si3 0.223343 0.511250 0.775326
Si Si4 0.569182 0.135676 0.087142
Si Si5 0.352006 0.518938 0.324913
Si Si6 0.894878 0.156980 0.158741
Si Si7 0.635298 0.817945 0.692235
Si Si8 0.340747 0.492778 0.958141
O O1 0.671117 0.217419 0.564087
O O2 0.754547 0.092678 0.411322
O O3 0.898593 0.273466 0.405150
O O4 0.000000 0.127773 0.500000
O O5 0.500000 0.356702 0.500000
O O6 0.666849 0.402224 0.641317
O O7 0.357953 0.300738 0.672418
O O8 0.422727 0.536455 0.704072
O O9 0.113322 0.435963 0.721413
O O10 0.275245 0.453755 0.866471
O O11 0.099615 0.607016 0.823243
O O12 0.733554 0.195985 0.114106
O O13 0.500000 0.181498 0.000000
O O14 0.667625 0.027204 0.043403
O O15 0.305182 0.563214 0.231002
O O16 0.958336 0.244141 0.220583
O O17 0.061843 0.101342 0.084779
O O18 0.500000 0.440959 0.000000
#
# Coordination Sequence:
#
# PCOD9122452 Si02
#       8
#     4   4   4   4   4   4   4   4
#     4  10  20  33  50  73  99 127 163 205 245 291
#     4   9  18  34  51  70 101 132 162 202 244 291
#     4   9  17  31  52  72  96 127 162 200 240 289
#     4   9  17  30  49  73  95 123 161 198 236 287
#     4   9  18  33  52  71  96 134 165 195 248 293
#     4   9  17  31  51  71  97 129 161 196 240 291
#     4   9  19  34  49  71  98 127 160 200 246 288
#     4   8  15  30  49  69  96 129 160 192 234 290
#
# _framework density 23.516323
#
# number of rings (size 3 to 8) (size 9 to 14) (size 15 to 20)
#    0.000    3.000    0.000    0.375    0.000    2.000 
#    0.000    9.375    0.000    0.000    0.000    0.000 
#    0.000    0.000    0.000    0.000    0.000    0.000 
#
# Total GULP energy -89173.414089 kJ/mol
# GULP energy per Si atom -5573.338381 kJ/mol
# Density = 2.346280 g / cm^3
# Si number density = 23.516323 Si / 1000 Ang^3
#
#
#
# Elastic Constant Matrix: (Units=GPa)
#
#
# Indices 1 2 3 4 5 6 
#
# 1 44.1329 -1.2126 -3.6588 0.0000 -4.2155 0.0000
# 2 -1.2126 38.3128 -0.0494 0.0000 -17.1436 0.0000
# 3 -3.6588 -0.0494 51.2549 0.0000 -11.4620 0.0000
# 4 0.0000 0.0000 0.0000 11.0988 0.0000 3.0748
# 5 -4.2155 -17.1436 -11.4620 0.0000 39.5872 0.0000
# 6 0.0000 0.0000 0.0000 3.0748 0.0000 7.7662
#
#
#
# Elastic Compliance Matrix: (Units=1/GPa)
#
#
# Indices 1 2 3 4 5 6 
#
# 1 0.023379 0.002732 0.002665 0.000000 0.004445 0.000000
# 2 0.002732 0.033253 0.003756 0.000000 0.015779 0.000000
# 3 0.002665 0.003756 0.021525 0.000000 0.008143 0.000000
# 4 0.000000 0.000000 0.000000 0.101200 0.000000 -0.040067
# 5 0.004445 0.015779 0.008143 0.000000 0.034925 0.000000
# 6 0.000000 0.000000 0.000000 -0.040067 0.000000 0.144626
#
#
# Mechanical properties :
#
#
# Convention : Reuss Voigt Hill
#
# Bulk Modulus (GPa) = 10.36661 13.76213 12.06437
# Shear Modulus (GPa) = 13.41360 20.93187 17.17273
#
# Velocity S-wave (km/s) = 2.39089 2.98669 2.70524
# Velocity P-wave (km/s) = 3.46981 4.21410 3.85994
#
# Compressibility (1/GPa) = 0.09646354
#
# Stress axis : x y z
#
# Youngs Moduli (GPa) = 42.77270 30.07280 46.45738
#
# Poissons Ratio (x) = -0.08216 -0.12383
# Poissons Ratio (y) = -0.11686 -0.17448
# Poissons Ratio (z) = -0.11401 -0.11294
#
# Static dielectric constant tensor:
#      x y z
#    x 1.929620 0.000000 0.045490 
#    y 0.000000 1.880630 0.000000 
#    z 0.045490 0.000000 1.899840 
# 
# From -- ./inp_files/50741.got.cif
#   From: 2010.05.17/outbox.cif.g08.bks.cpg/sg5_26_cif.got.tgz:50741.got - 2010.06.03 18:56:24.
