data_PCOD9122026
_publ_section_title
;
Structure prediction by ZEFSAII (Michael W. Deem and Ramdas Pophale) SiO2 
 PCOD9122026
Probable space group: C 2
;
_chemical_formula_sum "Si O2"
_cell_formula_units_Z 28
_cell_length_a 14.415732
_cell_length_b 15.906676
_cell_length_c 8.220467
_cell_angle_alpha 90.000000
_cell_angle_beta 43.184628
_cell_angle_gamma 90.000000
_cell_volume 1290.006361
_symmetry_space_group_name_H-M "C 2"
_symmetry_group_IT_number 5
_symmetry_cell_setting 'monoclinic'
loop_
_space_group_symop_operation_xyz
x,y,z
-x,y,-z
1/2+x,1/2+y,z
1/2-x,1/2+y,-z
loop_
_atom_site_type_symbol
_atom_site_label
_atom_site_fract_x
_atom_site_fract_y
_atom_site_fract_z
Si Si1 0.000000 0.638630 0.500000
Si Si2 0.685502 0.472610 0.745198
Si Si3 0.412432 0.063935 0.271840
Si Si4 0.667524 0.291983 0.201791
Si Si5 0.500000 0.624458 0.000000
Si Si6 0.298574 0.713644 0.499215
Si Si7 0.406694 0.348743 0.381820
Si Si8 0.148038 0.336933 0.286308
O O1 0.008792 0.590909 0.661608
O O2 0.130055 0.701701 0.325644
O O3 0.812472 0.492337 0.464499
O O4 0.620524 0.558676 0.894715
O O5 0.583512 0.426285 0.751012
O O6 0.744651 0.408570 0.800898
O O7 0.311131 0.139215 0.347780
O O8 0.500000 0.043114 0.000000
O O9 0.550924 0.301711 0.212572
O O10 0.637143 0.362336 0.375889
O O11 0.812923 0.305587 0.941959
O O12 0.574177 0.680558 0.768618
O O13 0.212745 0.789211 0.529210
O O14 0.342441 0.754822 0.612249
O O15 0.000000 0.373448 0.500000
#
# Coordination Sequence:
#
# PCOD9122026 Si02
#       8
#     2   4   4   4   2   4   4   4
#     4  10  20  38  66  96 120 154 220 262 314 380
#     4  10  23  41  60  89 127 170 206 256 328 388
#     4  11  22  39  63  92 127 168 209 258 322 378
#     4  10  19  37  68  91 121 155 211 272 313 372
#     4  10  22  40  66  86 124 164 208 258 322 384
#     4  10  21  38  64  90 122 164 209 260 318 381
#     4   9  19  38  64  92 115 161 213 254 315 379
#     4  11  25  38  61  96 127 163 217 265 319 379
#
# _framework density 21.705317999999998
#
# number of rings (size 3 to 8) (size 9 to 14) (size 15 to 20)
#    0.000    2.000    2.857    1.714    3.000    2.286 
#    2.571    0.000   15.714    0.000    0.000    0.000 
#    0.000    0.000    0.000    0.000    0.000    0.000 
#
# Total GULP energy -78046.804930 kJ/mol
# GULP energy per Si atom -5574.771781 kJ/mol
# Density = 2.165592 g / cm^3
# Si number density = 21.705318 Si / 1000 Ang^3
#
#
#
# Elastic Constant Matrix: (Units=GPa)
#
#
# Indices 1 2 3 4 5 6 
#
# 1 49.9005 -0.6790 5.2428 0.0000 3.2425 0.0000
# 2 -0.6790 51.8055 17.3111 0.0000 4.9397 0.0000
# 3 5.2428 17.3111 144.3823 0.0000 4.2252 0.0000
# 4 0.0000 0.0000 0.0000 37.3709 0.0000 2.6821
# 5 3.2425 4.9397 4.2252 0.0000 22.8538 0.0000
# 6 0.0000 0.0000 0.0000 2.6821 0.0000 0.8567
#
#
#
# Elastic Compliance Matrix: (Units=1/GPa)
#
#
# Indices 1 2 3 4 5 6 
#
# 1 0.020319 0.000794 -0.000748 0.000000 -0.002916 0.000000
# 2 0.000794 0.020495 -0.002366 0.000000 -0.004105 0.000000
# 3 -0.000748 -0.002366 0.007258 0.000000 -0.000724 0.000000
# 4 0.000000 0.000000 0.000000 0.034514 0.000000 -0.108053
# 5 -0.002916 -0.004105 -0.000724 0.000000 0.045191 0.000000
# 6 0.000000 0.000000 0.000000 -0.108053 0.000000 1.505541
#
#
# Mechanical properties :
#
#
# Convention : Reuss Voigt Hill
#
# Bulk Modulus (GPa) = 23.02387 32.20426 27.61406
# Shear Modulus (GPa) = 3.02584 27.16383 15.09483
#
# Velocity S-wave (km/s) = 1.18198 3.54147 2.63999
# Velocity P-wave (km/s) = 3.53458 5.62067 4.69495
#
# Compressibility (1/GPa) = 0.04343318
#
# Stress axis : x y z
#
# Youngs Moduli (GPa) = 49.21561 48.79130 137.77729
#
# Poissons Ratio (x) = -0.03875 0.10302
# Poissons Ratio (y) = -0.03909 0.32599
# Poissons Ratio (z) = 0.03680 0.11544
#
# Static dielectric constant tensor:
#      x y z
#    x 1.903780 0.000000 -0.023700 
#    y 0.000000 1.794000 0.000000 
#    z -0.023700 0.000000 1.827230 
# 
# From -- ./inp_files/25204.got.cif
#   From: 2010.05.17/outbox.cif.g08.bks.cpg/sg5_13_cif.got.tgz:25204.got - 2010.06.03 18:56:24.
