data_PCOD9122882
_publ_section_title
;
Structure prediction by ZEFSAII (Michael W. Deem and Ramdas Pophale) SiO2 
 PCOD9122882
Probable space group: C 2
;
_chemical_formula_sum "Si O2"
_cell_formula_units_Z 26
_cell_length_a 12.742081
_cell_length_b 8.094871
_cell_length_c 11.483820
_cell_angle_alpha 90.000000
_cell_angle_beta 111.512593
_cell_angle_gamma 90.000000
_cell_volume 1101.988241
_symmetry_space_group_name_H-M "C 2"
_symmetry_group_IT_number 5
_symmetry_cell_setting 'monoclinic'
loop_
_space_group_symop_operation_xyz
x,y,z
-x,y,-z
1/2+x,1/2+y,z
1/2-x,1/2+y,-z
loop_
_atom_site_type_symbol
_atom_site_label
_atom_site_fract_x
_atom_site_fract_y
_atom_site_fract_z
Si Si1 0.960775 0.989270 0.257250
Si Si2 0.500000 0.298660 0.500000
Si Si3 0.876398 0.174202 0.012900
Si Si4 0.310606 0.345689 0.700857
Si Si5 0.299529 0.078978 0.524162
Si Si6 0.981679 0.351761 0.631298
Si Si7 0.181720 0.464721 0.852647
O O1 0.055500 0.866602 0.242577
O O2 0.940850 0.907544 0.375114
O O3 0.877878 0.038383 0.118837
O O4 0.003072 0.173428 0.307505
O O5 0.400993 0.188531 0.513392
O O6 0.860588 0.359762 0.054558
O O7 0.761456 0.123207 0.899404
O O8 0.000000 0.160675 0.000000
O O9 0.255557 0.192871 0.609554
O O10 0.274162 0.505559 0.609197
O O11 0.262141 0.345740 0.809199
O O12 0.358488 0.920954 0.606224
O O13 0.072116 0.477194 0.725393
O O14 0.000000 0.345249 0.500000
#
# Coordination Sequence:
#
# PCOD9122882 Si02
#       7
#     4   2   4   4   4   4   4
#     4  10  22  39  67  91 137 175 223 283 342 402
#     4  10  20  36  62 100 124 184 212 272 358 392
#     4  11  25  49  67  97 135 185 232 282 331 411
#     4  11  22  38  62  99 135 177 221 282 344 409
#     4  11  22  36  61  98 140 168 219 281 347 404
#     4  11  20  40  64  93 133 174 220 283 337 400
#     4  11  25  45  70  95 133 183 231 276 347 399
#
# _framework density 23.593720000000001
#
# number of rings (size 3 to 8) (size 9 to 14) (size 15 to 20)
#    0.000    1.231    4.615    0.923    0.000    4.923 
#    5.538    0.000    0.000    0.000    0.000    0.000 
#    0.000    0.000    0.000    0.000    0.000    0.000 
#
# Total GULP energy -72541.425597 kJ/mol
# GULP energy per Si atom -5580.109661 kJ/mol
# Density = 2.354002 g / cm^3
# Si number density = 23.593720 Si / 1000 Ang^3
#
#
#
# Elastic Constant Matrix: (Units=GPa)
#
#
# Indices 1 2 3 4 5 6 
#
# 1 39.3712 -4.6708 5.5681 0.0000 4.1737 0.0000
# 2 -4.6708 48.4755 -4.8278 0.0000 -3.7017 0.0000
# 3 5.5681 -4.8278 51.2271 0.0000 6.4315 0.0000
# 4 0.0000 0.0000 0.0000 6.1581 0.0000 -9.8725
# 5 4.1737 -3.7017 6.4315 0.0000 33.7255 0.0000
# 6 0.0000 0.0000 0.0000 -9.8725 0.0000 24.0873
#
#
#
# Elastic Compliance Matrix: (Units=1/GPa)
#
#
# Indices 1 2 3 4 5 6 
#
# 1 0.026251 0.002101 -0.002332 0.000000 -0.002573 0.000000
# 2 0.002101 0.021120 0.001541 0.000000 0.001764 0.000000
# 3 -0.002332 0.001541 0.020349 0.000000 -0.003423 0.000000
# 4 0.000000 0.000000 0.000000 0.473538 0.000000 0.194086
# 5 -0.002573 0.001764 -0.003423 0.000000 0.030816 0.000000
# 6 0.000000 0.000000 0.000000 0.194086 0.000000 0.121064
#
#
# Mechanical properties :
#
#
# Convention : Reuss Voigt Hill
#
# Bulk Modulus (GPa) = 14.21711 14.57920 14.39815
# Shear Modulus (GPa) = 7.00313 22.32780 14.66547
#
# Velocity S-wave (km/s) = 1.72472 3.07961 2.49586
# Velocity P-wave (km/s) = 3.16308 4.34028 3.79757
#
# Compressibility (1/GPa) = 0.07033776
#
# Stress axis : x y z
#
# Youngs Moduli (GPa) = 38.09357 47.34956 49.14165
#
# Poissons Ratio (x) = -0.09946 0.11461
# Poissons Ratio (y) = -0.08002 -0.07570
# Poissons Ratio (z) = 0.08885 -0.07294
#
# Static dielectric constant tensor:
#      x y z
#    x 1.971630 0.000000 0.009340 
#    y 0.000000 1.915890 0.000000 
#    z 0.009340 0.000000 1.983780 
# 
# From -- ./inp_files/41833.got.cif
#   From: 2010.05.17/outbox.cif.g08.bks.cpg/sg5_21_cif.got.tgz:41833.got - 2010.06.03 18:56:24.
