data_PCOD9122587
_publ_section_title
;
Structure prediction by ZEFSAII (Michael W. Deem and Ramdas Pophale) SiO2 
 PCOD9122587
Probable space group: C 2
;
_chemical_formula_sum "Si O2"
_cell_formula_units_Z 30
_cell_length_a 18.124255
_cell_length_b 16.233168
_cell_length_c 5.094550
_cell_angle_alpha 90.000000
_cell_angle_beta 80.639430
_cell_angle_gamma 90.000000
_cell_volume 1478.929614
_symmetry_space_group_name_H-M "C 2"
_symmetry_group_IT_number 5
_symmetry_cell_setting 'monoclinic'
loop_
_space_group_symop_operation_xyz
x,y,z
-x,y,-z
1/2+x,1/2+y,z
1/2-x,1/2+y,-z
loop_
_atom_site_type_symbol
_atom_site_label
_atom_site_fract_x
_atom_site_fract_y
_atom_site_fract_z
Si Si1 0.051706 0.708580 0.216698
Si Si2 0.350177 0.359543 0.659056
Si Si3 0.916767 0.145493 0.181528
Si Si4 0.588980 0.451676 0.890962
Si Si5 0.879471 0.363296 0.667259
Si Si6 0.447180 0.027159 0.783755
Si Si7 0.500000 0.747218 0.500000
Si Si8 0.813178 0.296467 0.188742
O O1 0.106524 0.781543 0.248445
O O2 0.086027 0.618001 0.148262
O O3 0.000000 0.701187 0.500000
O O4 0.000000 0.728401 0.000000
O O5 0.385366 0.396939 0.372443
O O6 0.267879 0.322795 0.660881
O O7 0.362794 0.427462 0.880475
O O8 0.935593 0.183781 0.453503
O O9 0.846870 0.203819 0.145239
O O10 0.901438 0.048970 0.176461
O O11 0.000000 0.159461 0.000000
O O12 0.500000 0.439021 0.000000
O O13 0.889069 0.457101 0.743793
O O14 0.954516 0.312490 0.704964
O O15 0.866965 0.344210 0.367448
O O16 0.815744 0.328346 0.890040
O O17 0.500000 0.030251 0.500000
O O18 0.500000 0.006428 0.000000
#
# Coordination Sequence:
#
# PCOD9122587 Si02
#       8
#     4   4   4   4   4   4   2   4
#     4  10  21  39  64  89 117 158 214 260 302 364
#     4  12  24  45  61  96 131 174 207 265 328 393
#     4  10  22  40  66  99 127 166 220 276 316 379
#     4  11  25  41  74  96 127 165 227 276 320 373
#     4  11  21  37  63  92 123 170 201 255 315 383
#     4  10  20  34  60  93 118 148 204 261 304 358
#     4  10  20  34  66  94 130 152 216 268 324 372
#     4  11  25  41  62  91 135 170 208 251 333 390
#
# _framework density 20.284941
#
# number of rings (size 3 to 8) (size 9 to 14) (size 15 to 20)
#    0.000    1.333    2.000    4.000    5.600    0.000 
#    4.800    0.000    0.000    0.000    0.000    0.000 
#    0.000    0.000    0.000    0.000    0.000    0.000 
#
# Total GULP energy -83541.517311 kJ/mol
# GULP energy per Si atom -5569.434487 kJ/mol
# Density = 2.023877 g / cm^3
# Si number density = 20.284941 Si / 1000 Ang^3
#
#
#
# Elastic Constant Matrix: (Units=GPa)
#
#
# Indices 1 2 3 4 5 6 
#
# 1 85.1695 61.6369 25.3866 0.0000 -3.6705 0.0000
# 2 61.6369 142.0908 17.7342 0.0000 0.3282 0.0000
# 3 25.3866 17.7342 100.4455 0.0000 4.3149 0.0000
# 4 0.0000 0.0000 0.0000 21.3348 0.0000 5.8728
# 5 -3.6705 0.3282 4.3149 0.0000 27.4561 0.0000
# 6 0.0000 0.0000 0.0000 5.8728 0.0000 8.3733
#
#
#
# Elastic Compliance Matrix: (Units=1/GPa)
#
#
# Indices 1 2 3 4 5 6 
#
# 1 0.018357 -0.007541 -0.003441 0.000000 0.003085 0.000000
# 2 -0.007541 0.010294 0.000138 0.000000 -0.001153 0.000000
# 3 -0.003441 0.000138 0.010894 0.000000 -0.002174 0.000000
# 4 0.000000 0.000000 0.000000 0.058086 0.000000 -0.040740
# 5 0.003085 -0.001153 -0.002174 0.000000 0.037190 0.000000
# 6 0.000000 0.000000 0.000000 -0.040740 0.000000 0.148001
#
#
# Mechanical properties :
#
#
# Convention : Reuss Voigt Hill
#
# Bulk Modulus (GPa) = 55.99598 59.69124 57.84361
# Shear Modulus (GPa) = 16.10501 26.29603 21.20052
#
# Velocity S-wave (km/s) = 2.82075 3.60437 3.23636
# Velocity P-wave (km/s) = 6.18656 6.84195 6.52249
#
# Compressibility (1/GPa) = 0.01785842
#
# Stress axis : x y z
#
# Youngs Moduli (GPa) = 54.47512 97.14160 91.79115
#
# Poissons Ratio (x) = 0.73251 0.31583
# Poissons Ratio (y) = 0.41078 -0.01265
# Poissons Ratio (z) = 0.18743 -0.01339
#
# Static dielectric constant tensor:
#      x y z
#    x 1.846490 0.000000 0.043140 
#    y 0.000000 1.760440 0.000000 
#    z 0.043140 0.000000 1.791890 
# 
# From -- ./inp_files/8545.got.cif
#   From: 2010.05.17/outbox.cif.g08.bks.cpg/sg5_5_cif.got.tgz:8545.got - 2010.06.03 18:56:24.
