data_PCOD9122890
_publ_section_title
;
Structure prediction by ZEFSAII (Michael W. Deem and Ramdas Pophale) SiO2 
 PCOD9122890
Probable space group: C 2
;
_chemical_formula_sum "Si O2"
_cell_formula_units_Z 16
_cell_length_a 13.425484
_cell_length_b 6.558427
_cell_length_c 9.062521
_cell_angle_alpha 90.000000
_cell_angle_beta 45.157895
_cell_angle_gamma 90.000000
_cell_volume 565.792517
_symmetry_space_group_name_H-M "C 2"
_symmetry_group_IT_number 5
_symmetry_cell_setting 'monoclinic'
loop_
_space_group_symop_operation_xyz
x,y,z
-x,y,-z
1/2+x,1/2+y,z
1/2-x,1/2+y,-z
loop_
_atom_site_type_symbol
_atom_site_label
_atom_site_fract_x
_atom_site_fract_y
_atom_site_fract_z
Si Si1 0.688930 0.390640 0.310861
Si Si2 0.085358 0.511245 0.561595
Si Si3 0.146374 0.223050 0.116130
Si Si4 0.836517 0.788683 0.181881
O O1 0.796936 0.555399 0.265882
O O2 0.611111 0.536475 0.267095
O O3 0.605028 0.253615 0.517164
O O4 0.778517 0.227264 0.121487
O O5 0.239498 0.418930 0.389896
O O6 0.000000 0.456621 0.500000
O O7 0.981296 0.382476 0.773997
O O8 0.272834 0.311198 0.084987
O O9 0.000000 0.829640 0.000000
#
# Coordination Sequence:
#
# PCOD9122890 Si02
#       4
#     4   4   4   4
#     4  10  21  38  63  90 122 157 206 256 297 368
#     4  10  20  36  62  90 116 160 207 247 298 363
#     4   9  20  38  64  90 117 161 210 246 299 371
#     4   9  21  38  60  89 124 155 199 252 317 360
#
# _framework density 28.278917
#
# number of rings (size 3 to 8) (size 9 to 14) (size 15 to 20)
#    1.500    1.000    0.000    3.000    3.500    1.000 
#    0.000    0.000   16.500    0.000    0.000    0.000 
#    0.000    0.000    0.000    0.000    0.000    0.000 
#
# Total GULP energy -44563.668033 kJ/mol
# GULP energy per Si atom -5570.458504 kJ/mol
# Density = 2.821455 g / cm^3
# Si number density = 28.278917 Si / 1000 Ang^3
#
#
#
# Elastic Constant Matrix: (Units=GPa)
#
#
# Indices 1 2 3 4 5 6 
#
# 1 102.0191 46.5380 66.1259 -0.0002 -37.0684 0.0000
# 2 46.5380 169.4628 54.8078 -0.0029 -37.8125 0.0024
# 3 66.1259 54.8078 136.5495 -0.0004 -44.2916 0.0002
# 4 -0.0002 -0.0029 -0.0004 43.4687 0.0002 -15.4895
# 5 -37.0684 -37.8125 -44.2916 0.0002 49.4549 -0.0001
# 6 0.0000 0.0024 0.0002 -15.4895 -0.0001 31.9191
#
#
#
# Elastic Compliance Matrix: (Units=1/GPa)
#
#
# Indices 1 2 3 4 5 6 
#
# 1 0.016092 -0.001311 -0.005186 0.000000 0.006415 0.000000
# 2 -0.001311 0.007458 -0.001167 0.000000 0.003675 0.000000
# 3 -0.005186 -0.001167 0.012337 0.000000 0.006269 0.000000
# 4 0.000000 0.000000 0.000000 0.027815 0.000000 0.013498
# 5 0.006415 0.003675 0.006269 0.000000 0.033454 0.000000
# 6 0.000000 0.000000 0.000000 0.013498 0.000000 0.037879
#
#
# Mechanical properties :
#
#
# Convention : Reuss Voigt Hill
#
# Bulk Modulus (GPa) = 48.63718 82.55276 65.59497
# Shear Modulus (GPa) = 31.80347 41.00584 36.40466
#
# Velocity S-wave (km/s) = 3.35720 3.81208 3.59185
# Velocity P-wave (km/s) = 5.68015 6.97364 6.35987
#
# Compressibility (1/GPa) = 0.02056040
#
# Stress axis : x y z
#
# Youngs Moduli (GPa) = 62.14142 134.07802 81.05935
#
# Poissons Ratio (x) = 0.17572 0.42038
# Poissons Ratio (y) = 0.08144 0.09458
# Poissons Ratio (z) = 0.32227 0.15645
#
# Static dielectric constant tensor:
#      x y z
#    x 2.285740 0.000000 0.084650 
#    y 0.000000 2.303140 0.000000 
#    z 0.084650 0.000000 2.334440 
# 
# From -- ./inp_files/18181.got.cif
#   From: 2010.05.17/outbox.cif.g08.bks.cpg/sg5_10_cif.got.tgz:18181.got - 2010.06.03 18:56:24.
