data_PCOD9122092
_publ_section_title
;
Structure prediction by ZEFSAII (Michael W. Deem and Ramdas Pophale) SiO2 
 PCOD9122092
Probable space group: C 2
;
_chemical_formula_sum "Si O2"
_cell_formula_units_Z 26
_cell_length_a 17.656177
_cell_length_b 9.624287
_cell_length_c 10.516432
_cell_angle_alpha 90.000000
_cell_angle_beta 140.541441
_cell_angle_gamma 90.000000
_cell_volume 1135.697963
_symmetry_space_group_name_H-M "C 2"
_symmetry_group_IT_number 5
_symmetry_cell_setting 'monoclinic'
loop_
_space_group_symop_operation_xyz
x,y,z
-x,y,-z
1/2+x,1/2+y,z
1/2-x,1/2+y,-z
loop_
_atom_site_type_symbol
_atom_site_label
_atom_site_fract_x
_atom_site_fract_y
_atom_site_fract_z
Si Si1 0.512195 0.030760 0.749205
Si Si2 0.500000 0.146490 0.000000
Si Si3 0.110267 0.989978 0.337342
Si Si4 0.608583 0.279570 0.558494
Si Si5 0.251725 0.098821 0.069910
Si Si6 0.352995 0.404452 0.880113
Si Si7 0.497933 0.715757 0.346978
O O1 0.446186 0.141191 0.574688
O O2 0.650686 0.071849 0.910402
O O3 0.494698 0.875527 0.681461
O O4 0.473786 0.056135 0.843208
O O5 0.612275 0.247818 0.112729
O O6 0.145020 0.877922 0.489445
O O7 0.180516 0.981931 0.295578
O O8 0.098024 0.133200 0.396458
O O9 0.978392 0.951856 0.109012
O O10 0.500000 0.346513 0.500000
O O11 0.706316 0.223736 0.782776
O O12 0.240617 0.955619 0.136978
O O13 0.126467 0.146235 0.854276
O O14 0.500000 0.701731 0.500000
#
# Coordination Sequence:
#
# PCOD9122092 Si02
#       7
#     4   2   4   4   4   4   4
#     4  11  23  41  64  95 131 173 212 269 323 384
#     4  10  20  40  74  88 128 180 218 254 338 388
#     4   9  18  37  66  88 123 174 213 252 327 388
#     4  10  19  38  63  92 128 170 213 263 322 389
#     4  10  24  38  66  96 132 165 221 270 323 384
#     4   9  18  39  66  92 124 168 213 266 314 386
#     4  11  24  41  62  94 130 172 215 278 323 382
#
# _framework density 22.893411
#
# number of rings (size 3 to 8) (size 9 to 14) (size 15 to 20)
#    0.000    2.154    3.077    1.846    2.154    4.923 
#    0.000    6.154    0.000    0.000    0.000    0.000 
#    0.000    0.000    0.000    0.000    0.000    0.000 
#
# Total GULP energy -72649.454797 kJ/mol
# GULP energy per Si atom -5588.419600 kJ/mol
# Density = 2.284130 g / cm^3
# Si number density = 22.893411 Si / 1000 Ang^3
#
#
#
# Elastic Constant Matrix: (Units=GPa)
#
#
# Indices 1 2 3 4 5 6 
#
# 1 86.8922 33.4578 41.4331 0.0000 -34.0658 0.0000
# 2 33.4578 107.0537 26.6746 0.0000 -14.7120 0.0000
# 3 41.4331 26.6746 71.0118 0.0000 -30.2768 0.0000
# 4 0.0000 0.0000 0.0000 -2.8001 0.0000 -0.9730
# 5 -34.0658 -14.7120 -30.2768 0.0000 39.9368 0.0000
# 6 0.0000 0.0000 0.0000 -0.9730 0.0000 24.8301
#
#
#
# Elastic Compliance Matrix: (Units=1/GPa)
#
#
# Indices 1 2 3 4 5 6 
#
# 1 0.019936 -0.003274 -0.005417 0.000000 0.011693 0.000000
# 2 -0.003274 0.010887 -0.002453 0.000000 -0.000642 0.000000
# 3 -0.005417 -0.002453 0.023359 0.000000 0.012185 0.000000
# 4 0.000000 0.000000 0.000000 -0.352328 0.000000 -0.013807
# 5 0.011693 -0.000642 0.012185 0.000000 0.044015 0.000000
# 6 0.000000 0.000000 0.000000 -0.013807 0.000000 0.039733
#
#
# Mechanical properties :
#
#
# Convention : Reuss Voigt Hill
#
# Bulk Modulus (GPa) = 31.35286 52.00987 41.68137
# Shear Modulus (GPa) = -27.55156 23.28617 -2.13270
#
# Velocity S-wave (km/s) = -3.47287 3.19275 -0.96623
# Velocity P-wave (km/s) = 1.53501 6.02985 4.12328
#
# Compressibility (1/GPa) = 0.03189501
#
# Stress axis : x y z
#
# Youngs Moduli (GPa) = 50.15981 91.84943 42.80927
#
# Poissons Ratio (x) = 0.30072 0.23190
# Poissons Ratio (y) = 0.16423 0.10501
# Poissons Ratio (z) = 0.27171 0.22530
#
# Static dielectric constant tensor:
#      x y z
#    x 1.909930 0.000000 0.032640 
#    y 0.000000 1.847240 0.000000 
#    z 0.032640 0.000000 1.851280 
# 
# From -- ./inp_files/46167.got.cif
#   From: 2010.05.17/outbox.cif.g08.bks.cpg/sg5_24_cif.got.tgz:46167.got - 2010.06.03 18:56:24.
