data_PCOD9122515
_publ_section_title
;
Structure prediction by ZEFSAII (Michael W. Deem and Ramdas Pophale) SiO2 
 PCOD9122515
Probable space group: C 2
;
_chemical_formula_sum "Si O2"
_cell_formula_units_Z 26
_cell_length_a 25.452721
_cell_length_b 5.073265
_cell_length_c 10.611322
_cell_angle_alpha 90.000000
_cell_angle_beta 47.186293
_cell_angle_gamma 90.000000
_cell_volume 1005.150798
_symmetry_space_group_name_H-M "C 2"
_symmetry_group_IT_number 5
_symmetry_cell_setting 'monoclinic'
loop_
_space_group_symop_operation_xyz
x,y,z
-x,y,-z
1/2+x,1/2+y,z
1/2-x,1/2+y,-z
loop_
_atom_site_type_symbol
_atom_site_label
_atom_site_fract_x
_atom_site_fract_y
_atom_site_fract_z
Si Si1 0.003105 0.943320 0.763544
Si Si2 0.794671 0.693705 0.932947
Si Si3 0.733833 0.037801 0.690243
Si Si4 0.000000 0.164629 0.500000
Si Si5 0.358963 0.316364 0.337351
Si Si6 0.579468 0.924432 0.154128
Si Si7 0.802819 0.547034 0.659131
O O1 0.066901 0.962174 0.759986
O O2 0.028421 0.006791 0.576938
O O3 0.972820 0.650441 0.809887
O O4 0.939443 0.155932 0.888282
O O5 0.843989 0.564736 0.958823
O O6 0.834435 0.659263 0.735243
O O7 0.727614 0.495974 0.020362
O O8 0.661279 0.159471 0.754898
O O9 0.775525 0.250336 0.707942
O O10 0.790758 0.004009 0.479785
O O11 0.736100 0.744676 0.740560
O O12 0.941913 0.339201 0.667899
O O13 0.354988 0.102221 0.457919
#
# Coordination Sequence:
#
# PCOD9122515 Si02
#       7
#     4   4   4   2   4   4   4
#     4  10  22  30  56  82 122 160 183 235 308 369
#     4  12  26  42  62  83 119 168 215 253 291 348
#     4  10  20  34  54  88 127 153 198 242 296 390
#     4   8  22  32  54  84 120 156 188 232 294 390
#     4  10  21  33  57  89 129 157 188 238 316 371
#     4  10  23  37  53  86 116 156 200 246 289 374
#     4  10  22  34  59  81 121 161 196 252 295 344
#
# _framework density 25.866762999999999
#
# number of rings (size 3 to 8) (size 9 to 14) (size 15 to 20)
#    1.846    0.000    1.538    2.308    8.615    0.000 
#    0.000    0.000    0.000    0.000    0.000   16.154 
#    0.000    0.000    0.000    0.000    0.000    0.000 
#
# Total GULP energy -72550.344433 kJ/mol
# GULP energy per Si atom -5580.795726 kJ/mol
# Density = 2.580789 g / cm^3
# Si number density = 25.866763 Si / 1000 Ang^3
#
#
#
# Elastic Constant Matrix: (Units=GPa)
#
#
# Indices 1 2 3 4 5 6 
#
# 1 107.0444 12.1189 9.4001 -0.0001 -11.0140 0.0000
# 2 12.1189 112.5441 8.7186 -0.0001 0.0905 0.0005
# 3 9.4001 8.7186 41.5257 0.0001 -7.4860 -0.0001
# 4 -0.0001 -0.0001 0.0001 20.3472 -0.0001 15.8900
# 5 -11.0140 0.0905 -7.4860 -0.0001 32.6902 0.0001
# 6 0.0000 0.0005 -0.0001 15.8900 0.0001 12.1070
#
#
#
# Elastic Compliance Matrix: (Units=1/GPa)
#
#
# Indices 1 2 3 4 5 6 
#
# 1 0.009889 -0.000951 -0.001500 -0.000002 0.002991 0.000002
# 2 -0.000951 0.009131 -0.001840 -0.000014 -0.000767 0.000018
# 3 -0.001500 -0.001840 0.025781 0.000007 0.005404 -0.000009
# 4 -0.000002 -0.000014 0.000007 -1.969124 -0.000013 2.584407
# 5 0.002991 -0.000767 0.005404 -0.000013 0.032838 0.000017
# 6 0.000002 0.000018 -0.000009 2.584407 0.000017 -3.309348
#
#
# Mechanical properties :
#
#
# Convention : Reuss Voigt Hill
#
# Bulk Modulus (GPa) = 27.60926 35.73215 31.67071
# Shear Modulus (GPa) = -0.96522 28.42066 13.72772
#
# Velocity S-wave (km/s) = -0.61152 3.31831 2.30621
# Velocity P-wave (km/s) = 3.19346 5.34093 4.40021
#
# Compressibility (1/GPa) = 0.03621974
#
# Stress axis : x y z
#
# Youngs Moduli (GPa) = 101.12209 109.51721 38.78760
#
# Poissons Ratio (x) = 0.10416 0.05817
# Poissons Ratio (y) = 0.09618 0.07137
# Poissons Ratio (z) = 0.15165 0.20152
#
# Static dielectric constant tensor:
#      x y z
#    x 2.065980 0.000000 0.020450 
#    y 0.000000 1.955630 0.000000 
#    z 0.020450 0.000000 2.187540 
# 
# From -- ./inp_files/57323.got.cif
#   From: 2010.05.17/outbox.cif.g08.bks.cpg/sg5_29_cif.got.tgz:57323.got - 2010.06.03 18:56:24.
