data_PCOD9122649
_publ_section_title
;
Structure prediction by ZEFSAII (Michael W. Deem and Ramdas Pophale) SiO2 
 PCOD9122649
Probable space group: C 2
;
_chemical_formula_sum "Si O2"
_cell_formula_units_Z 28
_cell_length_a 7.586548
_cell_length_b 11.836960
_cell_length_c 13.363891
_cell_angle_alpha 90.000000
_cell_angle_beta 80.264747
_cell_angle_gamma 90.000000
_cell_volume 1182.817767
_symmetry_space_group_name_H-M "C 2"
_symmetry_group_IT_number 5
_symmetry_cell_setting 'monoclinic'
loop_
_space_group_symop_operation_xyz
x,y,z
-x,y,-z
1/2+x,1/2+y,z
1/2-x,1/2+y,-z
loop_
_atom_site_type_symbol
_atom_site_label
_atom_site_fract_x
_atom_site_fract_y
_atom_site_fract_z
Si Si1 0.058623 0.631810 0.138193
Si Si2 0.617005 0.373448 0.173819
Si Si3 0.198543 0.623987 0.343196
Si Si4 0.978420 0.401989 0.608467
Si Si5 0.618324 0.379314 0.396491
Si Si6 0.012587 0.256829 0.788114
Si Si7 0.295446 0.590362 0.936448
O O1 0.025384 0.765369 0.133900
O O2 0.088044 0.608512 0.250790
O O3 0.887497 0.573824 0.108544
O O4 0.232405 0.602127 0.056096
O O5 0.544871 0.399823 0.292007
O O6 0.820085 0.325765 0.179149
O O7 0.600675 0.478243 0.102681
O O8 0.140655 0.741884 0.399999
O O9 0.396092 0.655305 0.285165
O O10 0.148122 0.508764 0.402151
O O11 0.183447 0.431414 0.616830
O O12 0.916232 0.331907 0.712047
O O13 0.000000 0.337110 0.500000
O O14 0.500000 0.418097 0.500000
O O15 0.892312 0.201027 0.884400
#
# Coordination Sequence:
#
# PCOD9122649 Si02
#       7
#     4   4   4   4   4   4   4
#     4   9  21  36  56  85 113 143 187 231 274 328
#     4   9  21  40  56  79 115 149 180 226 280 327
#     4   9  19  38  57  79 114 151 181 227 281 325
#     4  10  20  35  57  84 112 146 184 229 280 323
#     4   9  19  36  57  82 110 145 189 227 272 335
#     4   9  22  38  56  83 111 146 192 225 268 338
#     4  11  21  37  59  85 112 146 186 230 277 324
#
# _framework density 23.672283
#
# number of rings (size 3 to 8) (size 9 to 14) (size 15 to 20)
#    0.000    3.143    0.000    2.143    0.000   10.286 
#    0.000   10.714    0.000    0.000    0.000    0.000 
#    0.000    0.000    0.000    0.000    0.000    0.000 
#
# Total GULP energy -78136.362083 kJ/mol
# GULP energy per Si atom -5581.168720 kJ/mol
# Density = 2.361840 g / cm^3
# Si number density = 23.672283 Si / 1000 Ang^3
#
#
#
# Elastic Constant Matrix: (Units=GPa)
#
#
# Indices 1 2 3 4 5 6 
#
# 1 39.9793 18.6093 18.8056 0.0000 -8.5175 0.0000
# 2 18.6093 89.0908 14.3366 0.0000 -1.8691 0.0000
# 3 18.8056 14.3366 65.8394 0.0000 -17.9701 0.0000
# 4 0.0000 0.0000 0.0000 18.5437 0.0000 -5.7661
# 5 -8.5175 -1.8691 -17.9701 0.0000 31.1810 0.0000
# 6 0.0000 0.0000 0.0000 -5.7661 0.0000 20.1734
#
#
#
# Elastic Compliance Matrix: (Units=1/GPa)
#
#
# Indices 1 2 3 4 5 6 
#
# 1 0.031619 -0.005445 -0.006618 0.000000 0.004496 0.000000
# 2 -0.005445 0.012591 -0.001645 0.000000 -0.001681 0.000000
# 3 -0.006618 -0.001645 0.020074 0.000000 0.009663 0.000000
# 4 0.000000 0.000000 0.000000 0.059187 0.000000 0.016917
# 5 0.004496 -0.001681 0.009663 0.000000 0.038767 0.000000
# 6 0.000000 0.000000 0.000000 0.016917 0.000000 0.054406
#
#
# Mechanical properties :
#
#
# Convention : Reuss Voigt Hill
#
# Bulk Modulus (GPa) = 27.12448 33.15694 30.14071
# Shear Modulus (GPa) = 19.50453 23.52348 21.51401
#
# Velocity S-wave (km/s) = 2.87355 3.15574 3.01795
# Velocity P-wave (km/s) = 4.74267 5.22641 4.99040
#
# Compressibility (1/GPa) = 0.03686707
#
# Stress axis : x y z
#
# Youngs Moduli (GPa) = 31.62700 79.41944 49.81459
#
# Poissons Ratio (x) = 0.43245 0.32969
# Poissons Ratio (y) = 0.17221 0.08196
# Poissons Ratio (z) = 0.20932 0.13067
#
# Static dielectric constant tensor:
#      x y z
#    x 1.925540 0.000000 -0.027420 
#    y 0.000000 1.932630 0.000000 
#    z -0.027420 0.000000 1.919640 
# 
# From -- ./inp_files/50268.got.cif
#   From: 2010.05.17/outbox.cif.g08.bks.cpg/sg5_26_cif.got.tgz:50268.got - 2010.06.03 18:56:24.
