data_PCOD9122528
_publ_section_title
;
Structure prediction by ZEFSAII (Michael W. Deem and Ramdas Pophale) SiO2 
 PCOD9122528
Probable space group: C 2
;
_chemical_formula_sum "Si O2"
_cell_formula_units_Z 32
_cell_length_a 15.168464
_cell_length_b 25.239188
_cell_length_c 9.072597
_cell_angle_alpha 90.000000
_cell_angle_beta 152.181118
_cell_angle_gamma 90.000000
_cell_volume 1620.936696
_symmetry_space_group_name_H-M "C 2"
_symmetry_group_IT_number 5
_symmetry_cell_setting 'monoclinic'
loop_
_space_group_symop_operation_xyz
x,y,z
-x,y,-z
1/2+x,1/2+y,z
1/2-x,1/2+y,-z
loop_
_atom_site_type_symbol
_atom_site_label
_atom_site_fract_x
_atom_site_fract_y
_atom_site_fract_z
Si Si1 0.326154 0.727150 0.853396
Si Si2 0.446633 0.947131 0.091104
Si Si3 0.703253 0.341178 0.720617
Si Si4 0.796991 0.640637 0.113310
Si Si5 0.451868 0.210916 0.101618
Si Si6 0.798516 0.520017 0.114417
Si Si7 0.318977 0.435205 0.838272
Si Si8 0.060131 0.826575 0.921523
O O1 0.299923 0.784506 0.891410
O O2 0.331179 0.680642 0.981441
O O3 0.144323 0.716255 0.480874
O O4 0.500000 0.728360 0.000000
O O5 0.331992 0.993731 0.004353
O O6 0.636893 0.941418 0.467166
O O7 0.500000 0.957291 0.000000
O O8 0.330255 0.892331 0.931008
O O9 0.500000 0.343832 0.500000
O O10 0.635081 0.338182 0.451161
O O11 0.729624 0.580254 0.006547
O O12 0.000000 0.640426 0.500000
O O13 0.834016 0.665109 0.006732
O O14 0.358400 0.268775 0.992275
O O15 0.500000 0.203055 0.000000
O O16 0.672717 0.480744 0.026838
O O17 0.000000 0.520719 0.500000
O O18 0.500000 0.436853 0.000000
O O19 0.311175 0.377972 0.906390
O O20 0.000000 0.822561 0.000000
#
# Coordination Sequence:
#
# PCOD9122528 Si02
#       8
#     4   4   4   4   4   4   4   4
#     4  10  20  34  56  83 110 140 179 222 271 330
#     4  11  22  35  55  85 112 142 184 228 271 321
#     4  11  21  35  56  83 112 144 180 224 272 322
#     4   9  18  36  56  75 104 145 185 222 266 322
#     4   9  18  33  56  80 105 139 177 218 271 323
#     4   9  20  36  54  76 106 144 187 225 266 321
#     4  10  20  36  56  80 110 145 180 220 273 330
#     4   9  17  31  52  78 106 137 168 207 265 325
#
# _framework density 19.741671
#
# number of rings (size 3 to 8) (size 9 to 14) (size 15 to 20)
#    0.000    2.250    0.000    4.500    0.000    4.000 
#    0.000    0.625    0.000   12.000    0.000    0.000 
#    0.000    0.000    0.000    0.000    0.000    0.000 
#
# Total GULP energy -89239.474514 kJ/mol
# GULP energy per Si atom -5577.467157 kJ/mol
# Density = 1.969674 g / cm^3
# Si number density = 19.741671 Si / 1000 Ang^3
#
#
#
# Elastic Constant Matrix: (Units=GPa)
#
#
# Indices 1 2 3 4 5 6 
#
# 1 139.7061 88.4552 21.6975 0.0000 -4.7744 0.0000
# 2 88.4552 160.4184 28.3885 0.0000 -22.1263 0.0000
# 3 21.6975 28.3885 20.9190 0.0000 -5.8357 0.0000
# 4 0.0000 0.0000 0.0000 22.4902 0.0000 -3.5533
# 5 -4.7744 -22.1263 -5.8357 0.0000 21.0618 0.0000
# 6 0.0000 0.0000 0.0000 -3.5533 0.0000 24.5401
#
#
#
# Elastic Compliance Matrix: (Units=1/GPa)
#
#
# Indices 1 2 3 4 5 6 
#
# 1 0.011780 -0.006333 -0.005132 0.000000 -0.005404 0.000000
# 2 -0.006333 0.012372 -0.007582 0.000000 0.009461 0.000000
# 3 -0.005132 -0.007582 0.065969 0.000000 0.009149 0.000000
# 4 0.000000 0.000000 0.000000 0.045505 0.000000 0.006589
# 5 -0.005404 0.009461 0.009149 0.000000 0.058729 0.000000
# 6 0.000000 0.000000 0.000000 0.006589 0.000000 0.041704
#
#
# Mechanical properties :
#
#
# Convention : Reuss Voigt Hill
#
# Bulk Modulus (GPa) = 19.22088 66.45843 42.83966
# Shear Modulus (GPa) = 17.15299 25.78524 21.46912
#
# Velocity S-wave (km/s) = 2.95086 3.61797 3.30131
# Velocity P-wave (km/s) = 4.62249 7.15472 6.02318
#
# Compressibility (1/GPa) = 0.05202675
#
# Stress axis : x y z
#
# Youngs Moduli (GPa) = 84.89153 80.82558 15.15868
#
# Poissons Ratio (x) = 0.51184 0.07779
# Poissons Ratio (y) = 0.53758 0.11494
# Poissons Ratio (z) = 0.43566 0.61286
#
# Static dielectric constant tensor:
#      x y z
#    x 1.697530 0.000000 -0.023600 
#    y 0.000000 1.724700 0.000000 
#    z -0.023600 0.000000 1.708130 
# 
# From -- ./inp_files/25645.got.cif
#   From: 2010.05.17/outbox.cif.g08.bks.cpg/sg5_13_cif.got.tgz:25645.got - 2010.06.03 18:56:24.
