data_PCOD9122978
_publ_section_title
;
Structure prediction by ZEFSAII (Michael W. Deem and Ramdas Pophale) SiO2 
 PCOD9122978
Probable space group: C 2
;
_chemical_formula_sum "Si O2"
_cell_formula_units_Z 32
_cell_length_a 5.493697
_cell_length_b 17.372451
_cell_length_c 16.078881
_cell_angle_alpha 90.000000
_cell_angle_beta 91.411059
_cell_angle_gamma 90.000000
_cell_volume 1534.086689
_symmetry_space_group_name_H-M "C 2"
_symmetry_group_IT_number 5
_symmetry_cell_setting 'monoclinic'
loop_
_space_group_symop_operation_xyz
x,y,z
-x,y,-z
1/2+x,1/2+y,z
1/2-x,1/2+y,-z
loop_
_atom_site_type_symbol
_atom_site_label
_atom_site_fract_x
_atom_site_fract_y
_atom_site_fract_z
Si Si1 0.439851 0.294950 0.811476
Si Si2 0.945637 0.163115 0.181350
Si Si3 0.858687 0.406097 0.289701
Si Si4 0.178276 0.686771 0.677386
Si Si5 0.246755 0.728858 0.949587
Si Si6 0.341433 0.048665 0.727833
Si Si7 0.511219 0.468143 0.590815
Si Si8 0.658095 0.816211 0.418101
O O1 0.217202 0.238909 0.835787
O O2 0.339513 0.374562 0.776025
O O3 0.549218 0.251126 0.733281
O O4 0.639934 0.294032 0.886001
O O5 0.773111 0.090115 0.192715
O O6 0.073262 0.169068 0.271975
O O7 0.155218 0.162609 0.113110
O O8 0.743100 0.447576 0.369121
O O9 0.021299 0.470229 0.247992
O O10 0.000946 0.335171 0.333381
O O11 0.226310 0.731822 0.592731
O O12 0.015887 0.610884 0.684110
O O13 0.500000 0.748877 0.000000
O O14 0.000000 0.708037 0.000000
O O15 0.148889 0.020391 0.658035
O O16 0.500000 0.504652 0.500000
O O17 0.651867 0.386728 0.580274
O O18 0.500000 0.819293 0.500000
#
# Coordination Sequence:
#
# PCOD9122978 Si02
#       8
#     4   4   4   4   4   4   4   4
#     4  10  20  36  69  96 136 169 223 278 339 410
#     4  10  20  40  64  97 140 170 217 278 336 418
#     4  11  21  39  63  94 126 176 231 277 336 405
#     4  10  20  38  60  90 129 167 222 284 337 407
#     4  11  22  39  67 110 146 172 215 285 354 409
#     4  10  24  38  63  93 134 175 229 279 342 408
#     4  11  22  40  62  84 130 180 235 285 338 401
#     4  11  21  35  63  88 123 173 230 293 345 391
#
# _framework density 20.859317000000001
#
# number of rings (size 3 to 8) (size 9 to 14) (size 15 to 20)
#    0.000    1.500    5.000    0.750    0.000    0.000 
#    0.000    3.750    5.500    0.000    0.000   35.875 
#    0.000    0.000    0.000    0.000    0.000    0.000 
#
# Total GULP energy -89223.245309 kJ/mol
# GULP energy per Si atom -5576.452832 kJ/mol
# Density = 2.081184 g / cm^3
# Si number density = 20.859317 Si / 1000 Ang^3
#
#
#
# Elastic Constant Matrix: (Units=GPa)
#
#
# Indices 1 2 3 4 5 6 
#
# 1 80.0238 23.9643 27.2640 0.0000 -6.5200 0.0000
# 2 23.9643 71.5738 31.7459 0.0000 -0.4957 0.0000
# 3 27.2640 31.7459 70.5132 0.0000 -9.6937 0.0000
# 4 0.0000 0.0000 0.0000 9.0260 0.0000 -2.3081
# 5 -6.5200 -0.4957 -9.6937 0.0000 38.8535 0.0000
# 6 0.0000 0.0000 0.0000 -2.3081 0.0000 19.8266
#
#
#
# Elastic Compliance Matrix: (Units=1/GPa)
#
#
# Indices 1 2 3 4 5 6 
#
# 1 0.014980 -0.003154 -0.004175 0.000000 0.001432 0.000000
# 2 -0.003154 0.018244 -0.007285 0.000000 -0.002114 0.000000
# 3 -0.004175 -0.007285 0.019640 0.000000 0.004107 0.000000
# 4 0.000000 0.000000 0.000000 0.114190 0.000000 0.013293
# 5 0.001432 -0.002114 0.004107 0.000000 0.026976 0.000000
# 6 0.000000 0.000000 0.000000 0.013293 0.000000 0.051985
#
#
# Mechanical properties :
#
#
# Convention : Reuss Voigt Hill
#
# Bulk Modulus (GPa) = 42.30752 43.11770 42.71261
# Shear Modulus (GPa) = 17.66024 22.81698 20.23861
#
# Velocity S-wave (km/s) = 2.91286 3.31093 3.11825
# Velocity P-wave (km/s) = 5.62488 5.94407 5.78668
#
# Compressibility (1/GPa) = 0.02363646
#
# Stress axis : x y z
#
# Youngs Moduli (GPa) = 66.75610 54.81247 50.91546
#
# Poissons Ratio (x) = 0.17286 0.21259
# Poissons Ratio (y) = 0.21053 0.37091
# Poissons Ratio (z) = 0.27873 0.39930
#
# Static dielectric constant tensor:
#      x y z
#    x 1.865490 0.000000 -0.011560 
#    y 0.000000 1.743230 0.000000 
#    z -0.011560 0.000000 1.794600 
# 
# From -- ./inp_files/58882.got.cif
#   From: 2010.05.17/outbox.cif.g08.bks.cpg/sg5_30_cif.got.tgz:58882.got - 2010.06.03 18:56:24.
