data_PCOD9122432
_publ_section_title
;
Structure prediction by ZEFSAII (Michael W. Deem and Ramdas Pophale) SiO2 
 PCOD9122432
Probable space group: C 2
;
_chemical_formula_sum "Si O2"
_cell_formula_units_Z 30
_cell_length_a 22.825008
_cell_length_b 6.669985
_cell_length_c 11.579557
_cell_angle_alpha 90.000000
_cell_angle_beta 114.759771
_cell_angle_gamma 90.000000
_cell_volume 1600.839944
_symmetry_space_group_name_H-M "C 2"
_symmetry_group_IT_number 5
_symmetry_cell_setting 'monoclinic'
loop_
_space_group_symop_operation_xyz
x,y,z
-x,y,-z
1/2+x,1/2+y,z
1/2-x,1/2+y,-z
loop_
_atom_site_type_symbol
_atom_site_label
_atom_site_fract_x
_atom_site_fract_y
_atom_site_fract_z
Si Si1 0.972275 0.157530 0.287008
Si Si2 0.600481 0.452601 0.325868
Si Si3 0.090814 0.601360 0.171484
Si Si4 0.821732 0.703348 0.435723
Si Si5 0.315740 0.846728 0.591292
Si Si6 0.901109 0.769577 0.299187
Si Si7 0.500000 0.968557 0.500000
Si Si8 0.057679 0.522733 0.882809
O O1 0.935789 0.300698 0.166421
O O2 0.008623 0.314730 0.401348
O O3 0.927522 0.997404 0.317079
O O4 0.027718 0.027959 0.273624
O O5 0.607980 0.331824 0.213167
O O6 0.618793 0.299677 0.443269
O O7 0.647615 0.637387 0.382847
O O8 0.144547 0.473977 0.281908
O O9 0.019677 0.562815 0.168591
O O10 0.085589 0.546697 0.033597
O O11 0.757035 0.807464 0.429049
O O12 0.817654 0.472636 0.473769
O O13 0.833900 0.748359 0.311488
O O14 0.909149 0.678628 0.177877
O O15 0.944767 0.617459 0.411325
#
# Coordination Sequence:
#
# PCOD9122432 Si02
#       8
#     4   4   4   4   4   4   2   4
#     4  11  20  35  59  92 118 159 192 240 316 357
#     4  11  20  36  61  90 118 157 194 244 302 354
#     4  10  22  40  61  85 123 155 202 253 290 355
#     4  11  23  38  61  87 124 154 201 248 293 367
#     4  11  22  40  61  88 117 161 204 241 297 353
#     4  11  22  36  57  87 125 154 194 248 308 352
#     4  10  20  32  52  88 128 152 182 244 300 370
#     4  10  22  40  58  90 122 153 201 252 297 353
#
# _framework density 18.740162000000002
#
# number of rings (size 3 to 8) (size 9 to 14) (size 15 to 20)
#    0.000    1.333    4.000    2.800    3.733    2.133 
#    0.000    0.000    5.867    0.000    0.000    0.000 
#    0.000    0.000    0.000    0.000    0.000    0.000 
#
# Total GULP energy -83673.952183 kJ/mol
# GULP energy per Si atom -5578.263479 kJ/mol
# Density = 1.869751 g / cm^3
# Si number density = 18.740162 Si / 1000 Ang^3
#
#
#
# Elastic Constant Matrix: (Units=GPa)
#
#
# Indices 1 2 3 4 5 6 
#
# 1 48.7774 29.4171 18.4108 0.0000 -19.4756 0.0000
# 2 29.4171 121.1196 34.4410 0.0000 -13.8773 0.0000
# 3 18.4108 34.4410 85.6810 0.0000 -20.4551 0.0000
# 4 0.0000 0.0000 0.0000 10.2755 0.0000 0.9157
# 5 -19.4756 -13.8773 -20.4551 0.0000 26.1392 0.0000
# 6 0.0000 0.0000 0.0000 0.9157 0.0000 29.1372
#
#
#
# Elastic Compliance Matrix: (Units=1/GPa)
#
#
# Indices 1 2 3 4 5 6 
#
# 1 0.032198 -0.005481 0.000390 0.000000 0.021385 0.000000
# 2 -0.005481 0.010387 -0.003266 0.000000 -0.001125 0.000000
# 3 0.000390 -0.003266 0.015440 0.000000 0.010639 0.000000
# 4 0.000000 0.000000 0.000000 0.097592 0.000000 -0.003067
# 5 0.021385 -0.001125 0.010639 0.000000 0.061919 0.000000
# 6 0.000000 0.000000 0.000000 -0.003067 0.000000 0.034417
#
#
# Mechanical properties :
#
#
# Convention : Reuss Voigt Hill
#
# Bulk Modulus (GPa) = 24.20625 46.67955 35.44290
# Shear Modulus (GPa) = 17.70295 24.66431 21.18363
#
# Velocity S-wave (km/s) = 3.07686 3.63177 3.36577
# Velocity P-wave (km/s) = 5.05644 6.52298 5.83596
#
# Compressibility (1/GPa) = 0.04131164
#
# Stress axis : x y z
#
# Youngs Moduli (GPa) = 31.05761 96.27097 64.76554
#
# Poissons Ratio (x) = 0.52765 -0.02526
# Poissons Ratio (y) = 0.17022 0.21154
# Poissons Ratio (z) = -0.01211 0.31444
#
# Static dielectric constant tensor:
#      x y z
#    x 1.695360 0.000000 -0.020360 
#    y 0.000000 1.688780 0.000000 
#    z -0.020360 0.000000 1.649450 
# 
# From -- ./inp_files/46977.got.cif
#   From: 2010.05.17/outbox.cif.g08.bks.cpg/sg5_24_cif.got.tgz:46977.got - 2010.06.03 18:56:24.
