data_PCOD9122224
_publ_section_title
;
Structure prediction by ZEFSAII (Michael W. Deem and Ramdas Pophale) SiO2 
 PCOD9122224
Probable space group: C 2
;
_chemical_formula_sum "Si O2"
_cell_formula_units_Z 28
_cell_length_a 8.699581
_cell_length_b 21.235443
_cell_length_c 12.552007
_cell_angle_alpha 90.000000
_cell_angle_beta 35.056122
_cell_angle_gamma 90.000000
_cell_volume 1331.898204
_symmetry_space_group_name_H-M "C 2"
_symmetry_group_IT_number 5
_symmetry_cell_setting 'monoclinic'
loop_
_space_group_symop_operation_xyz
x,y,z
-x,y,-z
1/2+x,1/2+y,z
1/2-x,1/2+y,-z
loop_
_atom_site_type_symbol
_atom_site_label
_atom_site_fract_x
_atom_site_fract_y
_atom_site_fract_z
Si Si1 0.599166 0.651140 0.130358
Si Si2 0.084679 0.047670 0.615406
Si Si3 0.000000 0.746277 0.000000
Si Si4 0.045056 0.565067 0.786945
Si Si5 0.317261 0.404853 0.494725
Si Si6 0.450486 0.325785 0.820209
Si Si7 0.269703 0.933745 0.914876
Si Si8 0.000000 0.232062 0.000000
O O1 0.436469 0.593143 0.272055
O O2 0.741132 0.701578 0.128117
O O3 0.432220 0.689219 0.139258
O O4 0.854683 0.621681 0.924936
O O5 0.799658 0.059574 0.719740
O O6 0.119702 0.972210 0.598242
O O7 0.326310 0.069456 0.402480
O O8 0.941931 0.790713 0.134947
O O9 0.011625 0.406495 0.706703
O O10 0.875201 0.501201 0.893301
O O11 0.500000 0.400850 0.500000
O O12 0.366644 0.351321 0.379114
O O13 0.290185 0.386180 0.955818
O O14 0.246585 0.275941 0.887818
O O15 0.000000 0.941287 0.000000
#
# Coordination Sequence:
#
# PCOD9122224 Si02
#       8
#     4   4   2   4   4   4   4   2
#     4  11  21  42  65  93 131 173 219 283 325 390
#     4  10  19  39  67  99 126 166 221 269 332 410
#     4  10  22  42  64  92 126 176 238 260 334 394
#     4  10  20  37  67  99 129 164 216 270 340 402
#     4  11  22  42  71 104 133 174 225 274 347 416
#     4  11  23  45  65  93 135 178 223 286 327 398
#     4  11  23  41  69 105 136 167 220 282 350 403
#     4  10  26  40  66  94 130 182 238 264 332 400
#
# _framework density 21.022628999999998
#
# number of rings (size 3 to 8) (size 9 to 14) (size 15 to 20)
#    0.000    1.429    5.000    1.714    1.000    0.571 
#    0.000   12.143    0.000    0.000    0.000    0.000 
#    0.000    0.000    0.000    0.000    0.000    0.000 
#
# Total GULP energy -78221.918635 kJ/mol
# GULP energy per Si atom -5587.279903 kJ/mol
# Density = 2.097478 g / cm^3
# Si number density = 21.022629 Si / 1000 Ang^3
#
#
#
# Elastic Constant Matrix: (Units=GPa)
#
#
# Indices 1 2 3 4 5 6 
#
# 1 76.3497 46.5907 36.3981 0.0000 9.5416 0.0000
# 2 46.5907 83.3746 59.4692 0.0000 12.5024 0.0000
# 3 36.3981 59.4692 77.8215 0.0000 3.5676 0.0000
# 4 0.0000 0.0000 0.0000 21.9882 0.0000 21.4596
# 5 9.5416 12.5024 3.5676 0.0000 25.4712 0.0000
# 6 0.0000 0.0000 0.0000 21.4596 0.0000 31.7804
#
#
#
# Elastic Compliance Matrix: (Units=1/GPa)
#
#
# Indices 1 2 3 4 5 6 
#
# 1 0.020150 -0.009284 -0.002207 0.000000 -0.002682 0.000000
# 2 -0.009284 0.033557 -0.020839 0.000000 -0.010075 0.000000
# 3 -0.002207 -0.020839 0.029490 0.000000 0.006925 0.000000
# 4 0.000000 0.000000 0.000000 0.133374 0.000000 -0.090060
# 5 -0.002682 -0.010075 0.006925 0.000000 0.044240 0.000000
# 6 0.000000 0.000000 0.000000 -0.090060 0.000000 0.092279
#
#
# Mechanical properties :
#
#
# Convention : Reuss Voigt Hill
#
# Bulk Modulus (GPa) = 53.94803 58.05131 55.99967
# Shear Modulus (GPa) = 11.79444 22.18715 16.99079
#
# Velocity S-wave (km/s) = 2.37119 3.25221 2.84600
# Velocity P-wave (km/s) = 5.76319 6.46345 6.12333
#
# Compressibility (1/GPa) = 0.01853636
#
# Stress axis : x y z
#
# Youngs Moduli (GPa) = 49.62724 29.80035 33.91021
#
# Poissons Ratio (x) = 0.27665 0.07485
# Poissons Ratio (y) = 0.46071 0.70666
# Poissons Ratio (z) = 0.10954 0.62102
#
# Static dielectric constant tensor:
#      x y z
#    x 1.774110 0.000000 0.046480 
#    y 0.000000 1.758300 0.000000 
#    z 0.046480 0.000000 1.752780 
# 
# From -- ./inp_files/37177.got.cif
#   From: 2010.05.17/outbox.cif.g08.bks.cpg/sg5_19_cif.got.tgz:37177.got - 2010.06.03 18:56:24.
