data_PCOD9122956
_publ_section_title
;
Structure prediction by ZEFSAII (Michael W. Deem and Ramdas Pophale) SiO2 
 PCOD9122956
Probable space group: C 2
;
_chemical_formula_sum "Si O2"
_cell_formula_units_Z 32
_cell_length_a 23.804648
_cell_length_b 7.233063
_cell_length_c 11.878545
_cell_angle_alpha 90.000000
_cell_angle_beta 45.766594
_cell_angle_gamma 90.000000
_cell_volume 1465.432715
_symmetry_space_group_name_H-M "C 2"
_symmetry_group_IT_number 5
_symmetry_cell_setting 'monoclinic'
loop_
_space_group_symop_operation_xyz
x,y,z
-x,y,-z
1/2+x,1/2+y,z
1/2-x,1/2+y,-z
loop_
_atom_site_type_symbol
_atom_site_label
_atom_site_fract_x
_atom_site_fract_y
_atom_site_fract_z
Si Si1 0.906783 0.917430 0.136670
Si Si2 0.194143 0.444941 0.924325
Si Si3 0.340033 0.918109 0.791368
Si Si4 0.163844 0.883310 0.005333
Si Si5 0.626291 0.321077 0.296252
Si Si6 0.570310 0.656100 0.481615
Si Si7 0.645679 0.701914 0.600307
Si Si8 0.184674 0.542011 0.692355
O O1 0.873504 0.951150 0.057605
O O2 0.868509 0.724709 0.232024
O O3 0.881513 0.076075 0.258109
O O4 0.000000 0.901247 0.000000
O O5 0.183708 0.664415 0.964136
O O6 0.282422 0.368681 0.807726
O O7 0.168758 0.430826 0.830616
O O8 0.147460 0.360074 0.096075
O O9 0.385895 0.102322 0.691125
O O10 0.248380 0.971368 0.910582
O O11 0.356845 0.755343 0.681891
O O12 0.111882 0.898532 0.190109
O O13 0.578433 0.436499 0.453742
O O14 0.500000 0.720461 0.500000
O O15 0.578438 0.706954 0.599557
O O16 0.724810 0.609211 0.438666
O O17 0.667377 0.905308 0.613873
#
# Coordination Sequence:
#
# PCOD9122956 Si02
#       8
#     4   4   4   4   4   4   4   4
#     4  11  26  45  66 100 141 177 226 290 343 411
#     4   9  18  38  64  99 122 153 217 282 321 379
#     4  10  21  38  67  97 120 169 223 273 325 393
#     4   9  19  38  65  95 128 159 217 280 326 386
#     4  10  20  36  66  93 119 163 215 265 332 376
#     4  12  27  44  59  91 144 172 215 273 330 414
#     4  12  26  44  71 105 131 189 234 273 356 409
#     4  11  23  45  73  97 137 177 232 291 333 418
#
# _framework density 21.836556000000002
#
# number of rings (size 3 to 8) (size 9 to 14) (size 15 to 20)
#    0.000    1.500    3.750    0.750    5.250    2.000 
#    6.750    0.000    0.000    0.000    0.000    0.000 
#    0.000    0.000    0.000    0.000    0.000    0.000 
#
# Total GULP energy -89370.900978 kJ/mol
# GULP energy per Si atom -5585.681311 kJ/mol
# Density = 2.178686 g / cm^3
# Si number density = 21.836556 Si / 1000 Ang^3
#
#
#
# Elastic Constant Matrix: (Units=GPa)
#
#
# Indices 1 2 3 4 5 6 
#
# 1 88.2978 13.0003 17.7202 0.0000 12.2333 0.0000
# 2 13.0003 66.4796 10.2802 -0.0001 7.1639 0.0000
# 3 17.7202 10.2802 39.8189 0.0000 5.5983 0.0000
# 4 0.0000 -0.0001 0.0000 27.7261 0.0000 9.7622
# 5 12.2333 7.1639 5.5983 0.0000 34.2779 0.0000
# 6 0.0000 0.0000 0.0000 9.7622 0.0000 20.0640
#
#
#
# Elastic Compliance Matrix: (Units=1/GPa)
#
#
# Indices 1 2 3 4 5 6 
#
# 1 0.013012 -0.001400 -0.004931 0.000000 -0.003546 0.000000
# 2 -0.001400 0.016062 -0.003195 0.000000 -0.002335 0.000000
# 3 -0.004931 -0.003195 0.028445 0.000000 -0.002218 0.000000
# 4 0.000000 0.000000 0.000000 0.043523 0.000000 -0.021176
# 5 -0.003546 -0.002335 -0.002218 0.000000 0.031289 0.000000
# 6 0.000000 0.000000 0.000000 -0.021176 0.000000 0.060144
#
#
# Mechanical properties :
#
#
# Convention : Reuss Voigt Hill
#
# Bulk Modulus (GPa) = 25.99655 30.73307 28.36481
# Shear Modulus (GPa) = 22.28670 26.65332 24.47001
#
# Velocity S-wave (km/s) = 3.19817 3.49747 3.35117
# Velocity P-wave (km/s) = 5.05654 5.51493 5.29070
#
# Compressibility (1/GPa) = 0.03846664
#
# Stress axis : x y z
#
# Youngs Moduli (GPa) = 76.85070 62.25965 35.15587
#
# Poissons Ratio (x) = 0.08716 0.17334
# Poissons Ratio (y) = 0.10759 0.11234
# Poissons Ratio (z) = 0.37893 0.19894
#
# Static dielectric constant tensor:
#      x y z
#    x 1.807580 0.000000 0.000260 
#    y 0.000000 1.790470 0.000000 
#    z 0.000260 0.000000 1.826520 
# 
# From -- ./inp_files/47181.got.cif
#   From: 2010.05.17/outbox.cif.g08.bks.cpg/sg5_24_cif.got.tgz:47181.got - 2010.06.03 18:56:24.
