data_PCOD9122264
_publ_section_title
;
Structure prediction by ZEFSAII (Michael W. Deem and Ramdas Pophale) SiO2 
 PCOD9122264
Probable space group: C 2
;
_chemical_formula_sum "Si O2"
_cell_formula_units_Z 22
_cell_length_a 13.481125
_cell_length_b 5.050673
_cell_length_c 19.645199
_cell_angle_alpha 90.000000
_cell_angle_beta 43.634327
_cell_angle_gamma 90.000000
_cell_volume 923.027090
_symmetry_space_group_name_H-M "C 2"
_symmetry_group_IT_number 5
_symmetry_cell_setting 'monoclinic'
loop_
_space_group_symop_operation_xyz
x,y,z
-x,y,-z
1/2+x,1/2+y,z
1/2-x,1/2+y,-z
loop_
_atom_site_type_symbol
_atom_site_label
_atom_site_fract_x
_atom_site_fract_y
_atom_site_fract_z
Si Si1 0.653162 0.685940 0.268159
Si Si2 0.578726 0.433026 0.124074
Si Si3 0.722597 0.306104 0.661840
Si Si4 0.000000 0.669412 0.500000
Si Si5 0.034784 0.707515 0.631739
Si Si6 0.255266 0.425117 0.085861
O O1 0.724360 0.610667 0.305015
O O2 0.576084 0.420553 0.282315
O O3 0.760527 0.823907 0.160927
O O4 0.531319 0.913654 0.336241
O O5 0.417874 0.424786 0.231813
O O6 0.643061 0.716476 0.110103
O O7 0.679636 0.206337 0.108286
O O8 0.602708 0.402585 0.030782
O O9 0.857548 0.498095 0.585859
O O10 0.671334 0.208306 0.613546
O O11 0.047188 0.804527 0.547413
#
# Coordination Sequence:
#
# PCOD9122264 Si02
#       6
#     4   4   4   2   4   4
#     4  11  23  41  70  99 133 171 227 265 333 405
#     4  10  21  37  69  95 134 177 213 267 339 383
#     4  11  24  45  69  98 133 180 220 278 334 389
#     4  10  28  44  68 100 134 174 240 268 334 398
#     4  11  25  46  66  96 133 177 219 285 327 389
#     4  10  19  40  64 101 132 171 219 267 324 413
#
# _framework density 23.834622
#
# number of rings (size 3 to 8) (size 9 to 14) (size 15 to 20)
#    0.000    1.455    3.636    0.000    0.000   13.818 
#    0.000    0.000    0.000   10.909    0.000    0.000 
#    0.000    0.000    0.000    0.000    0.000    0.000 
#
# Total GULP energy -61370.960152 kJ/mol
# GULP energy per Si atom -5579.178196 kJ/mol
# Density = 2.378037 g / cm^3
# Si number density = 23.834622 Si / 1000 Ang^3
#
#
#
# Elastic Constant Matrix: (Units=GPa)
#
#
# Indices 1 2 3 4 5 6 
#
# 1 173.2283 16.9355 50.1879 -0.0022 26.0767 0.0045
# 2 16.9355 60.8507 10.0206 -0.0179 0.4532 0.0109
# 3 50.1879 10.0206 144.4063 0.0019 -1.8992 -0.0084
# 4 -0.0022 -0.0179 0.0019 19.5422 0.0016 14.4490
# 5 26.0767 0.4532 -1.8992 0.0016 55.2391 0.0001
# 6 0.0045 0.0109 -0.0084 14.4490 0.0001 11.2387
#
#
#
# Elastic Compliance Matrix: (Units=1/GPa)
#
#
# Indices 1 2 3 4 5 6 
#
# 1 0.007145 -0.001564 -0.002420 0.000044 -0.003443 -0.000060
# 2 -0.001564 0.016968 -0.000626 0.000555 0.000578 -0.000729
# 3 -0.002420 -0.000626 0.007828 -0.000145 0.001417 0.000194
# 4 0.000044 0.000555 -0.000145 1.035355 -0.000057 -1.331106
# 5 -0.003443 0.000578 0.001417 -0.000057 0.019773 0.000075
# 6 -0.000060 -0.000729 0.000194 -1.331106 0.000075 1.800316
#
#
# Mechanical properties :
#
#
# Convention : Reuss Voigt Hill
#
# Bulk Modulus (GPa) = 44.01377 59.19704 51.60541
# Shear Modulus (GPa) = 1.72166 37.29343 19.50754
#
# Velocity S-wave (km/s) = 0.85082 3.95989 2.86397
# Velocity P-wave (km/s) = 4.41266 6.76743 5.71269
#
# Compressibility (1/GPa) = 0.02272016
#
# Stress axis : x y z
#
# Youngs Moduli (GPa) = 139.95531 58.93393 127.74544
#
# Poissons Ratio (x) = 0.09220 0.30914
# Poissons Ratio (y) = 0.21895 0.08000
# Poissons Ratio (z) = 0.33869 0.03690
#
# Static dielectric constant tensor:
#      x y z
#    x 1.998150 0.000010 0.018680 
#    y 0.000010 1.869830 -0.000020 
#    z 0.018680 -0.000020 2.094360 
# 
# From -- ./inp_files/51950.got.cif
#   From: 2010.05.17/outbox.cif.g08.bks.cpg/sg5_26_cif.got.tgz:51950.got - 2010.06.03 18:56:24.
