data_PCOD9122585
_publ_section_title
;
Structure prediction by ZEFSAII (Michael W. Deem and Ramdas Pophale) SiO2 
 PCOD9122585
Probable space group: C 2
;
_chemical_formula_sum "Si O2"
_cell_formula_units_Z 28
_cell_length_a 22.002261
_cell_length_b 8.697491
_cell_length_c 23.079364
_cell_angle_alpha 90.000000
_cell_angle_beta 18.896594
_cell_angle_gamma 90.000000
_cell_volume 1430.355619
_symmetry_space_group_name_H-M "C 2"
_symmetry_group_IT_number 5
_symmetry_cell_setting 'monoclinic'
loop_
_space_group_symop_operation_xyz
x,y,z
-x,y,-z
1/2+x,1/2+y,z
1/2-x,1/2+y,-z
loop_
_atom_site_type_symbol
_atom_site_label
_atom_site_fract_x
_atom_site_fract_y
_atom_site_fract_z
Si Si1 0.471508 0.023210 0.594494
Si Si2 0.343911 0.691009 0.839398
Si Si3 0.950180 0.737443 0.371557
Si Si4 0.161475 0.839616 0.700317
Si Si5 0.168467 0.906571 0.082877
Si Si6 0.879127 0.817060 0.056786
Si Si7 0.247191 0.559687 0.549580
O O1 0.500000 0.050429 0.500000
O O2 0.498832 0.169650 0.611903
O O3 0.634274 0.906376 0.470431
O O4 0.268434 0.945674 0.788969
O O5 0.257480 0.565210 0.959998
O O6 0.243729 0.696795 0.868391
O O7 0.555947 0.645666 0.639715
O O8 0.303700 0.845019 0.911112
O O9 0.872331 0.603647 0.399450
O O10 0.129901 0.803863 0.174544
O O11 0.801137 0.880703 0.510148
O O12 0.168943 0.659744 0.674570
O O13 0.039488 0.916686 0.758627
O O14 0.033494 0.872241 0.871438
O O15 0.000000 0.751931 0.000000
#
# Coordination Sequence:
#
# PCOD9122585 Si02
#       7
#     4   4   4   4   4   4   4
#     4  12  23  41  66  86 123 176 211 262 313 362
#     4  10  20  34  60  89 126 163 197 260 314 367
#     4  10  22  38  61  94 128 161 209 262 320 379
#     4  10  21  40  63  94 121 163 207 259 314 377
#     4   9  21  35  58  96 126 156 207 256 323 376
#     4  11  23  39  62  90 121 164 219 252 294 378
#     4  10  20  39  64  95 127 161 206 261 328 377
#
# _framework density 19.575552999999999
#
# number of rings (size 3 to 8) (size 9 to 14) (size 15 to 20)
#    0.000    1.714    2.857    2.571    4.000    2.286 
#    0.000    3.571    0.000    3.429    0.000    0.000 
#    0.000    0.000    0.000    0.000    0.000    0.000 
#
# Total GULP energy -78039.238830 kJ/mol
# GULP energy per Si atom -5574.231345 kJ/mol
# Density = 1.953100 g / cm^3
# Si number density = 19.575553 Si / 1000 Ang^3
#
#
#
# Elastic Constant Matrix: (Units=GPa)
#
#
# Indices 1 2 3 4 5 6 
#
# 1 146.8781 44.2453 24.7728 0.0019 4.3326 -0.0003
# 2 44.2453 53.8724 20.5575 -0.0050 -4.8066 -0.0003
# 3 24.7728 20.5575 84.6279 -0.0011 7.4743 -0.0002
# 4 0.0019 -0.0050 -0.0011 27.5509 0.0003 0.6654
# 5 4.3326 -4.8066 7.4743 0.0003 26.7134 0.0004
# 6 -0.0003 -0.0003 -0.0002 0.6654 0.0004 25.8658
#
#
#
# Elastic Compliance Matrix: (Units=1/GPa)
#
#
# Indices 1 2 3 4 5 6 
#
# 1 0.009294 -0.007635 -0.000627 -0.000002 -0.002706 0.000000
# 2 -0.007635 0.027461 -0.005108 0.000005 0.007609 0.000000
# 3 -0.000627 -0.005108 0.013650 0.000000 -0.004637 0.000000
# 4 -0.000002 0.000005 0.000000 0.036319 0.000001 -0.000934
# 5 -0.002706 0.007609 -0.004637 0.000001 0.040540 -0.000001
# 6 0.000000 0.000000 0.000000 -0.000934 -0.000001 0.038685
#
#
# Mechanical properties :
#
#
# Convention : Reuss Voigt Hill
#
# Bulk Modulus (GPa) = 42.25553 51.61442 46.93498
# Shear Modulus (GPa) = 24.92803 29.07955 27.00379
#
# Velocity S-wave (km/s) = 3.57238 3.85840 3.71814
# Velocity P-wave (km/s) = 6.21680 6.80248 6.51622
#
# Compressibility (1/GPa) = 0.02366554
#
# Stress axis : x y z
#
# Youngs Moduli (GPa) = 107.59673 36.41499 73.25899
#
# Poissons Ratio (x) = 0.27804 0.04592
# Poissons Ratio (y) = 0.82154 0.37419
# Poissons Ratio (z) = 0.06745 0.18600
#
# Static dielectric constant tensor:
#      x y z
#    x 1.704080 0.000000 0.020750 
#    y 0.000000 1.742560 0.000000 
#    z 0.020750 0.000000 1.745670 
# 
# From -- ./inp_files/69416.got.cif
#   From: 2010.05.17/outbox.cif.g08.bks.cpg/sg5_35_cif.got.tgz:69416.got - 2010.06.03 18:56:24.
