data_PCOD9122714
_publ_section_title
;
Structure prediction by ZEFSAII (Michael W. Deem and Ramdas Pophale) SiO2 
 PCOD9122714
Probable space group: C 2
;
_chemical_formula_sum "Si O2"
_cell_formula_units_Z 32
_cell_length_a 29.098539
_cell_length_b 5.848565
_cell_length_c 16.092476
_cell_angle_alpha 90.000000
_cell_angle_beta 29.344651
_cell_angle_gamma 90.000000
_cell_volume 1342.129202
_symmetry_space_group_name_H-M "C 2"
_symmetry_group_IT_number 5
_symmetry_cell_setting 'monoclinic'
loop_
_space_group_symop_operation_xyz
x,y,z
-x,y,-z
1/2+x,1/2+y,z
1/2-x,1/2+y,-z
loop_
_atom_site_type_symbol
_atom_site_label
_atom_site_fract_x
_atom_site_fract_y
_atom_site_fract_z
Si Si1 0.986132 0.041640 0.748416
Si Si2 0.173645 0.685793 0.318975
Si Si3 0.024281 0.664674 0.827018
Si Si4 0.144382 0.434761 0.963726
Si Si5 0.712483 0.323279 0.597134
Si Si6 0.384315 0.434594 0.743121
Si Si7 0.247655 0.287675 0.092430
Si Si8 0.138798 0.377100 0.518844
O O1 0.088412 0.147061 0.572948
O O2 0.916152 0.241779 0.891581
O O3 0.996505 0.856535 0.803819
O O4 0.951904 0.947175 0.714341
O O5 0.106107 0.793354 0.356019
O O6 0.234122 0.499959 0.173237
O O7 0.122449 0.560421 0.473489
O O8 0.255582 0.846007 0.226190
O O9 0.100604 0.779644 0.767567
O O10 0.086410 0.471665 0.682807
O O11 0.924785 0.538335 0.997588
O O12 0.180139 0.618557 0.975454
O O13 0.738422 0.578077 0.513942
O O14 0.753968 0.349852 0.624131
O O15 0.355594 0.684441 0.756890
O O16 0.288651 0.347255 0.938218
#
# Coordination Sequence:
#
# PCOD9122714 Si02
#       8
#     4   4   4   4   4   4   4   4
#     4  11  20  38  63  88 126 165 225 275 329 398
#     4  11  23  38  59  91 135 171 218 276 343 399
#     4  10  20  38  68  96 120 166 228 274 336 418
#     4  10  20  35  63  93 120 167 220 276 327 402
#     4  10  20  41  70 102 127 174 227 283 347 432
#     4  11  20  33  59  85 116 174 226 271 313 411
#     4  11  19  35  59  84 113 166 230 262 323 387
#     4  10  24  40  61  96 134 171 215 286 355 402
#
# _framework density 23.842711999999999
#
# number of rings (size 3 to 8) (size 9 to 14) (size 15 to 20)
#    0.000    1.500    5.000    0.750    0.000    2.000 
#    0.000    3.750    0.000    4.500    0.000    0.000 
#    0.000    0.000    0.000    0.000    0.000    0.000 
#
# Total GULP energy -89249.977563 kJ/mol
# GULP energy per Si atom -5578.123598 kJ/mol
# Density = 2.378844 g / cm^3
# Si number density = 23.842712 Si / 1000 Ang^3
#
#
#
# Elastic Constant Matrix: (Units=GPa)
#
#
# Indices 1 2 3 4 5 6 
#
# 1 106.0517 22.7648 -0.9051 -0.0005 -40.9330 0.0005
# 2 22.7648 78.3590 12.5722 -0.0140 -14.2438 -0.0001
# 3 -0.9051 12.5722 21.9515 -0.0095 -8.1755 -0.0004
# 4 -0.0005 -0.0140 -0.0095 25.3694 -0.0001 -12.4605
# 5 -40.9330 -14.2438 -8.1755 -0.0001 34.4291 0.0007
# 6 0.0005 -0.0001 -0.0004 -12.4605 0.0007 32.8849
#
#
#
# Elastic Compliance Matrix: (Units=1/GPa)
#
#
# Indices 1 2 3 4 5 6 
#
# 1 0.019975 -0.003135 0.012046 0.000004 0.025311 0.000001
# 2 -0.003135 0.015145 -0.008620 0.000006 0.000492 0.000002
# 3 0.012046 -0.008620 0.060330 0.000022 0.025081 0.000008
# 4 0.000004 0.000006 0.000022 0.048431 0.000012 0.018351
# 5 0.025311 0.000492 0.025081 0.000012 0.065297 0.000003
# 6 0.000001 0.000002 0.000008 0.018351 0.000003 0.037363
#
#
# Mechanical properties :
#
#
# Convention : Reuss Voigt Hill
#
# Bulk Modulus (GPa) = 10.41328 30.58068 20.49698
# Shear Modulus (GPa) = 17.98769 29.99870 23.99320
#
# Velocity S-wave (km/s) = 2.74967 3.55095 3.17568
# Velocity P-wave (km/s) = 3.80235 5.44667 4.69702
#
# Compressibility (1/GPa) = 0.09603123
#
# Stress axis : x y z
#
# Youngs Moduli (GPa) = 50.06372 66.02881 16.57563
#
# Poissons Ratio (x) = 0.20698 -0.19967
# Poissons Ratio (y) = 0.15693 0.14288
# Poissons Ratio (z) = -0.60305 0.56916
#
# Static dielectric constant tensor:
#      x y z
#    x 1.880510 0.000000 -0.061610 
#    y 0.000000 2.018900 0.000000 
#    z -0.061610 0.000000 1.991940 
# 
# From -- ./inp_files/62635.got.cif
#   From: 2010.05.17/outbox.cif.g08.bks.cpg/sg5_32_cif.got.tgz:62635.got - 2010.06.03 18:56:24.
