data_PCOD9122106
_publ_section_title
;
Structure prediction by ZEFSAII (Michael W. Deem and Ramdas Pophale) SiO2 
 PCOD9122106
Probable space group: C 2
;
_chemical_formula_sum "Si O2"
_cell_formula_units_Z 24
_cell_length_a 12.771092
_cell_length_b 16.201665
_cell_length_c 17.717814
_cell_angle_alpha 90.000000
_cell_angle_beta 161.431130
_cell_angle_gamma 90.000000
_cell_volume 1167.431282
_symmetry_space_group_name_H-M "C 2"
_symmetry_group_IT_number 5
_symmetry_cell_setting 'monoclinic'
loop_
_space_group_symop_operation_xyz
x,y,z
-x,y,-z
1/2+x,1/2+y,z
1/2-x,1/2+y,-z
loop_
_atom_site_type_symbol
_atom_site_label
_atom_site_fract_x
_atom_site_fract_y
_atom_site_fract_z
Si Si1 0.325024 0.160810 0.800546
Si Si2 0.640263 0.986987 0.259567
Si Si3 0.955296 0.207706 0.150813
Si Si4 0.303720 0.227830 0.549415
Si Si5 0.726620 0.579398 0.088508
Si Si6 0.188559 0.352442 0.053003
O O1 0.303785 0.070957 0.749322
O O2 0.981224 0.202373 0.586178
O O3 0.500000 0.149975 0.000000
O O4 0.575742 0.212280 0.920211
O O5 0.501267 0.016873 0.244942
O O6 0.000000 0.944700 0.500000
O O7 0.352283 0.931565 0.027465
O O8 0.168377 0.221717 0.371445
O O9 0.972853 0.119643 0.119117
O O10 0.999792 0.279384 0.120503
O O11 0.584778 0.158633 0.748834
O O12 0.463964 0.314311 0.683765
O O13 0.500000 0.544940 0.000000
O O14 0.000000 0.373707 0.000000
#
# Coordination Sequence:
#
# PCOD9122106 Si02
#       6
#     4   4   4   4   4   4
#     4   9  18  37  66  93 119 164 222 251 305 378
#     4  11  22  40  64  87 129 173 210 257 313 374
#     4   9  20  36  63  93 123 162 208 260 312 377
#     4  10  19  38  64  93 124 165 203 269 307 370
#     4  10  21  38  63  93 123 157 215 264 311 366
#     4  11  25  37  57  89 126 162 209 257 315 371
#
# _framework density 20.557956000000001
#
# number of rings (size 3 to 8) (size 9 to 14) (size 15 to 20)
#    0.000    2.000    1.667    2.500    2.333    2.000 
#    0.000    2.500    3.667    0.000    0.000    0.000 
#    0.000    0.000    0.000    0.000    0.000    0.000 
#
# Total GULP energy -66938.990002 kJ/mol
# GULP energy per Si atom -5578.249167 kJ/mol
# Density = 2.051117 g / cm^3
# Si number density = 20.557956 Si / 1000 Ang^3
#
#
#
# Elastic Constant Matrix: (Units=GPa)
#
#
# Indices 1 2 3 4 5 6 
#
# 1 91.8190 -1.0144 26.9369 0.0227 3.6697 -0.2011
# 2 -1.0144 33.3704 23.1047 0.0209 -6.6442 0.1142
# 3 26.9369 23.1047 96.8615 -0.1328 -10.6241 0.2199
# 4 0.0227 0.0209 -0.1328 22.1737 0.0630 1.5840
# 5 3.6697 -6.6442 -10.6241 0.0630 40.9961 -0.2220
# 6 -0.2011 0.1142 0.2199 1.5840 -0.2220 1.7369
#
#
#
# Elastic Compliance Matrix: (Units=1/GPa)
#
#
# Indices 1 2 3 4 5 6 
#
# 1 0.012265 0.003018 -0.004324 -0.000157 -0.001720 0.001693
# 2 0.003018 0.037194 -0.009345 -0.000074 0.003334 -0.000420
# 3 -0.004324 -0.009345 0.014033 0.000199 0.002501 -0.001524
# 4 -0.000157 -0.000074 0.000199 0.048249 -0.000259 -0.044072
# 5 -0.001720 0.003334 0.002501 -0.000259 0.025750 0.002793
# 6 0.001693 -0.000420 -0.001524 -0.044072 0.002793 0.616689
#
#
# Mechanical properties :
#
#
# Convention : Reuss Voigt Hill
#
# Bulk Modulus (GPa) = 23.70102 35.56724 29.63413
# Shear Modulus (GPa) = 6.33276 24.51626 15.42451
#
# Velocity S-wave (km/s) = 1.75702 3.45707 2.74212
# Velocity P-wave (km/s) = 3.95855 5.76833 4.94690
#
# Compressibility (1/GPa) = 0.04219227
#
# Stress axis : x y z
#
# Youngs Moduli (GPa) = 81.53143 26.88619 71.25832
#
# Poissons Ratio (x) = -0.08115 0.30809
# Poissons Ratio (y) = -0.24608 0.66589
# Poissons Ratio (z) = 0.35251 0.25125
#
# Static dielectric constant tensor:
#      x y z
#    x 1.813910 0.000020 0.031430 
#    y 0.000020 1.717030 -0.000050 
#    z 0.031430 -0.000050 1.818890 
# 
# From -- ./inp_files/60836.got.cif
#   From: 2010.05.17/outbox.cif.g08.bks.cpg/sg5_31_cif.got.tgz:60836.got - 2010.06.03 18:56:24.
