data_PCOD9122562
_publ_section_title
;
Structure prediction by ZEFSAII (Michael W. Deem and Ramdas Pophale) SiO2 
 PCOD9122562
Probable space group: C 2
;
_chemical_formula_sum "Si O2"
_cell_formula_units_Z 32
_cell_length_a 12.477722
_cell_length_b 32.083696
_cell_length_c 9.932991
_cell_angle_alpha 90.000000
_cell_angle_beta 24.960985
_cell_angle_gamma 90.000000
_cell_volume 1678.082248
_symmetry_space_group_name_H-M "C 2"
_symmetry_group_IT_number 5
_symmetry_cell_setting 'monoclinic'
loop_
_space_group_symop_operation_xyz
x,y,z
-x,y,-z
1/2+x,1/2+y,z
1/2-x,1/2+y,-z
loop_
_atom_site_type_symbol
_atom_site_label
_atom_site_fract_x
_atom_site_fract_y
_atom_site_fract_z
Si Si1 0.580442 0.394380 0.065985
Si Si2 0.897308 0.144204 0.760688
Si Si3 0.293547 0.578013 0.112977
Si Si4 0.605569 0.198101 0.738406
Si Si5 0.210901 0.984798 0.878420
Si Si6 0.527822 0.263124 0.611661
Si Si7 0.302244 0.846650 0.336519
Si Si8 0.096547 0.310862 0.249506
O O1 0.365373 0.384373 0.419914
O O2 0.500000 0.394495 0.000000
O O3 0.685453 0.440151 0.979561
O O4 0.758157 0.353870 0.878856
O O5 0.000000 0.126699 0.500000
O O6 0.132528 0.173703 0.535965
O O7 0.850250 0.110601 0.930528
O O8 0.631063 0.169003 0.040989
O O9 0.324769 0.530774 0.019636
O O10 0.000000 0.582468 0.500000
O O11 0.500000 0.582870 0.000000
O O12 0.660190 0.233433 0.567212
O O13 0.500000 0.216062 0.000000
O O14 0.500000 0.984942 0.500000
O O15 0.000000 0.983556 0.000000
O O16 0.500000 0.241248 0.500000
O O17 0.667184 0.306787 0.424153
O O18 0.270648 0.277519 0.976602
O O19 0.396938 0.826329 0.367934
O O20 0.500000 0.861047 0.000000
O O21 0.000000 0.293184 0.500000
#
# Coordination Sequence:
#
# PCOD9122562 Si02
#       8
#     4   4   4   4   4   4   4   4
#     4  10  20  34  58  87 112 155 205 245 292 351
#     4  10  22  42  63  89 124 157 193 244 300 357
#     4  10  20  37  64  95 122 157 198 242 296 356
#     4  10  24  40  63  90 117 156 201 247 295 356
#     4   9  19  34  59  92 124 152 196 252 292 343
#     4  11  25  39  56  84 114 154 197 251 310 350
#     4  11  23  39  56  81 120 156 195 252 305 352
#     4  11  22  36  60  82 110 155 205 245 290 360
#
# _framework density 19.069386000000002
#
# number of rings (size 3 to 8) (size 9 to 14) (size 15 to 20)
#    0.000    1.750    2.500    1.125    5.250    2.000 
#    0.000    0.000    2.750    0.750    0.000    0.000 
#    0.000    0.000    0.000    0.000    0.000    0.000 
#
# Total GULP energy -89173.818064 kJ/mol
# GULP energy per Si atom -5573.363629 kJ/mol
# Density = 1.902598 g / cm^3
# Si number density = 19.069386 Si / 1000 Ang^3
#
#
#
# Elastic Constant Matrix: (Units=GPa)
#
#
# Indices 1 2 3 4 5 6 
#
# 1 90.6882 29.5109 28.5088 0.0000 5.0481 0.0000
# 2 29.5109 45.6045 18.5305 0.0000 24.3631 0.0000
# 3 28.5088 18.5305 92.3476 0.0000 12.8815 0.0000
# 4 0.0000 0.0000 0.0000 23.7849 0.0000 -4.0867
# 5 5.0481 24.3631 12.8815 0.0000 35.9249 0.0000
# 6 0.0000 0.0000 0.0000 -4.0867 0.0000 40.5231
#
#
#
# Elastic Compliance Matrix: (Units=1/GPa)
#
#
# Indices 1 2 3 4 5 6 
#
# 1 0.015929 -0.013151 -0.003380 0.000000 0.007892 0.000000
# 2 -0.013151 0.046586 -0.001199 0.000000 -0.029315 0.000000
# 3 -0.003380 -0.001199 0.012561 0.000000 -0.003216 0.000000
# 4 0.000000 0.000000 0.000000 0.042785 0.000000 0.004315
# 5 0.007892 -0.029315 -0.003216 0.000000 0.047761 0.000000
# 6 0.000000 0.000000 0.000000 0.004315 0.000000 0.025112
#
#
# Mechanical properties :
#
#
# Convention : Reuss Voigt Hill
#
# Bulk Modulus (GPa) = 25.24130 42.41562 33.82846
# Shear Modulus (GPa) = 20.88570 30.18594 25.53582
#
# Velocity S-wave (km/s) = 3.31304 3.98295 3.66334
# Velocity P-wave (km/s) = 5.28207 6.59112 5.97257
#
# Compressibility (1/GPa) = 0.03961761
#
# Stress axis : x y z
#
# Youngs Moduli (GPa) = 62.77753 21.46582 79.61060
#
# Poissons Ratio (x) = 0.28229 0.26905
# Poissons Ratio (y) = 0.82557 0.09545
# Poissons Ratio (z) = 0.21216 0.02574
#
# Static dielectric constant tensor:
#      x y z
#    x 1.654710 0.000000 -0.047230 
#    y 0.000000 1.671820 0.000000 
#    z -0.047230 0.000000 1.680410 
# 
# From -- ./inp_files/22211.got.cif
#   From: 2010.05.17/outbox.cif.g08.bks.cpg/sg5_12_cif.got.tgz:22211.got - 2010.06.03 18:56:24.
