data_PCOD9122789
_publ_section_title
;
Structure prediction by ZEFSAII (Michael W. Deem and Ramdas Pophale) SiO2 
 PCOD9122789
Probable space group: C 2
;
_chemical_formula_sum "Si O2"
_cell_formula_units_Z 24
_cell_length_a 18.047383
_cell_length_b 4.910282
_cell_length_c 10.439680
_cell_angle_alpha 90.000000
_cell_angle_beta 87.371698
_cell_angle_gamma 90.000000
_cell_volume 924.167636
_symmetry_space_group_name_H-M "C 2"
_symmetry_group_IT_number 5
_symmetry_cell_setting 'monoclinic'
loop_
_space_group_symop_operation_xyz
x,y,z
-x,y,-z
1/2+x,1/2+y,z
1/2-x,1/2+y,-z
loop_
_atom_site_type_symbol
_atom_site_label
_atom_site_fract_x
_atom_site_fract_y
_atom_site_fract_z
Si Si1 0.546910 0.767340 0.326634
Si Si2 0.870787 0.492866 0.912725
Si Si3 0.338676 0.457990 0.075061
Si Si4 0.650989 0.792578 0.542662
Si Si5 0.514026 0.240123 0.796207
Si Si6 0.287825 0.296294 0.335157
O O1 0.577690 0.824009 0.464233
O O2 0.522788 0.463399 0.294459
O O3 0.615146 0.843234 0.223776
O O4 0.480442 0.962463 0.284882
O O5 0.950222 0.653652 0.902067
O O6 0.857404 0.253202 0.016677
O O7 0.820166 0.745935 0.961893
O O8 0.412564 0.352668 0.144410
O O9 0.278543 0.407045 0.192005
O O10 0.653080 0.492257 0.599942
O O11 0.715928 0.814852 0.430057
O O12 0.679314 0.995261 0.651124
#
# Coordination Sequence:
#
# PCOD9122789 Si02
#       6
#     4   4   4   4   4   4
#     4  10  20  36  58  84 110 161 182 223 285 349
#     4  10  21  33  57  85 118 153 178 227 288 337
#     4  12  21  36  56  91 117 141 198 230 274 342
#     4  10  21  44  61  79 111 151 201 230 289 337
#     4  10  21  33  56  88 115 156 177 223 292 333
#     4  10  23  39  64  83 106 154 192 247 276 328
#
# _framework density 25.969313
#
# number of rings (size 3 to 8) (size 9 to 14) (size 15 to 20)
#    1.000    0.667    1.667    3.500    2.333    0.000 
#    0.000    6.667    0.000    0.000    0.000    0.000 
#    0.000    0.000    0.000    0.000    0.000    0.000 
#
# Total GULP energy -67004.652358 kJ/mol
# GULP energy per Si atom -5583.721030 kJ/mol
# Density = 2.591021 g / cm^3
# Si number density = 25.969313 Si / 1000 Ang^3
#
#
#
# Elastic Constant Matrix: (Units=GPa)
#
#
# Indices 1 2 3 4 5 6 
#
# 1 85.0599 0.2764 10.4746 0.0000 -13.7410 0.0000
# 2 0.2764 113.3439 -0.4982 0.0000 -3.0860 0.0000
# 3 10.4746 -0.4982 97.9896 0.0000 -24.2927 0.0000
# 4 0.0000 0.0000 0.0000 23.8443 0.0000 -2.2556
# 5 -13.7410 -3.0860 -24.2927 0.0000 47.5151 0.0000
# 6 0.0000 0.0000 0.0000 -2.2556 0.0000 -1.7951
#
#
#
# Elastic Compliance Matrix: (Units=1/GPa)
#
#
# Indices 1 2 3 4 5 6 
#
# 1 0.012354 0.000058 -0.000497 0.000000 0.003323 0.000000
# 2 0.000058 0.008843 0.000212 0.000000 0.000700 0.000000
# 3 -0.000497 0.000212 0.011712 0.000000 0.005858 0.000000
# 4 0.000000 0.000000 0.000000 0.037483 0.000000 -0.047100
# 5 0.003323 0.000700 0.005858 0.000000 0.025047 0.000000
# 6 0.000000 0.000000 0.000000 -0.047100 0.000000 -0.497901
#
#
# Mechanical properties :
#
#
# Convention : Reuss Voigt Hill
#
# Bulk Modulus (GPa) = 30.81122 35.21101 33.01111
# Shear Modulus (GPa) = -12.78146 32.98891 10.10373
#
# Velocity S-wave (km/s) = -2.22091 3.56800 1.97461
# Velocity P-wave (km/s) = 2.30513 5.52832 4.23532
#
# Compressibility (1/GPa) = 0.03245571
#
# Stress axis : x y z
#
# Youngs Moduli (GPa) = 80.94459 113.08965 85.38581
#
# Poissons Ratio (x) = -0.00658 0.04240
# Poissons Ratio (y) = -0.00471 -0.01812
# Poissons Ratio (z) = 0.04020 -0.02400
#
# Static dielectric constant tensor:
#      x y z
#    x 2.263900 0.000000 -0.100080 
#    y 0.000000 1.941880 0.000000 
#    z -0.100080 0.000000 2.071100 
# 
# From -- ./inp_files/30302.got.cif
#   From: 2010.05.17/outbox.cif.g08.bks.cpg/sg5_16_cif.got.tgz:30302.got - 2010.06.03 18:56:24.
