data_PCOD9122033
_publ_section_title
;
Structure prediction by ZEFSAII (Michael W. Deem and Ramdas Pophale) SiO2 
 PCOD9122033
Probable space group: C 2
;
_chemical_formula_sum "Si O2"
_cell_formula_units_Z 14
_cell_length_a 13.944885
_cell_length_b 6.858692
_cell_length_c 5.845596
_cell_angle_alpha 90.000000
_cell_angle_beta 113.401271
_cell_angle_gamma 90.000000
_cell_volume 513.106419
_symmetry_space_group_name_H-M "C 2"
_symmetry_group_IT_number 5
_symmetry_cell_setting 'monoclinic'
loop_
_space_group_symop_operation_xyz
x,y,z
-x,y,-z
1/2+x,1/2+y,z
1/2-x,1/2+y,-z
loop_
_atom_site_type_symbol
_atom_site_label
_atom_site_fract_x
_atom_site_fract_y
_atom_site_fract_z
Si Si1 0.000000 0.167511 0.000000
Si Si2 0.611808 0.552890 0.716833
Si Si3 0.119731 0.521249 0.674980
Si Si4 0.828026 0.484905 0.765975
O O1 0.917150 0.319614 0.811625
O O2 0.081880 0.030149 0.950811
O O3 0.500000 0.515293 0.500000
O O4 0.634393 0.785132 0.716221
O O5 0.708604 0.436478 0.716722
O O6 0.178555 0.575529 0.494320
O O7 0.000000 0.565059 0.500000
O O8 0.140499 0.586453 0.959132
#
# Coordination Sequence:
#
# PCOD9122033 Si02
#       4
#     2   4   4   4
#     4  10  20  42  56  90 116 152 196 244 276 360
#     4  10  21  36  63  84 118 158 192 235 297 339
#     4  10  19  38  57  86 119 147 197 240 280 351
#     4  11  20  34  66  85 114 156 192 238 291 338
#
# _framework density 27.284790999999998
#
# number of rings (size 3 to 8) (size 9 to 14) (size 15 to 20)
#    0.000    1.714    8.571    0.000    4.000    0.000 
#    0.000    0.000   12.571    0.000    0.000    0.000 
#    0.000    0.000    0.000    0.000    0.000    0.000 
#
# Total GULP energy -38979.235559 kJ/mol
# GULP energy per Si atom -5568.462223 kJ/mol
# Density = 2.722269 g / cm^3
# Si number density = 27.284791 Si / 1000 Ang^3
#
#
#
# Elastic Constant Matrix: (Units=GPa)
#
#
# Indices 1 2 3 4 5 6 
#
# 1 226.2811 29.2467 68.2966 0.0000 -28.4276 0.0000
# 2 29.2467 126.0077 36.0624 0.0000 -5.9444 0.0000
# 3 68.2966 36.0624 169.1859 0.0000 -36.5673 0.0000
# 4 0.0000 0.0000 0.0000 -74.6023 0.0000 -13.5635
# 5 -28.4276 -5.9444 -36.5673 0.0000 77.6548 0.0000
# 6 0.0000 0.0000 0.0000 -13.5635 0.0000 11.8819
#
#
#
# Elastic Compliance Matrix: (Units=1/GPa)
#
#
# Indices 1 2 3 4 5 6 
#
# 1 0.005152 -0.000656 -0.001718 0.000000 0.001027 0.000000
# 2 -0.000656 0.008539 -0.001632 0.000000 -0.000355 0.000000
# 3 -0.001718 -0.001632 0.007558 0.000000 0.002805 0.000000
# 4 0.000000 0.000000 0.000000 -0.011101 0.000000 -0.012672
# 5 0.001027 -0.000355 0.002805 0.000000 0.014547 0.000000
# 6 0.000000 0.000000 0.000000 -0.012672 0.000000 0.069697
#
#
# Mechanical properties :
#
#
# Convention : Reuss Voigt Hill
#
# Bulk Modulus (GPa) = 75.54426 87.63180 81.58803
# Shear Modulus (GPa) = 46.80983 28.84482 37.82732
#
# Velocity S-wave (km/s) = 4.14648 3.25495 3.72746
# Velocity P-wave (km/s) = 7.11841 6.80540 6.96366
#
# Compressibility (1/GPa) = 0.01323727
#
# Stress axis : x y z
#
# Youngs Moduli (GPa) = 194.11821 117.11613 132.30377
#
# Poissons Ratio (x) = 0.07678 0.22728
# Poissons Ratio (y) = 0.12726 0.21593
# Poissons Ratio (z) = 0.33347 0.19114
#
# Static dielectric constant tensor:
#      x y z
#    x 2.165070 0.000000 -0.456600 
#    y 0.000000 2.157140 0.000000 
#    z -0.456600 0.000000 3.391410 
# 
# From -- ./inp_files/4273.got.cif
#   From: 2010.05.17/outbox.cif.g08.bks.cpg/sg5_3_cif.got.tgz:4273.got - 2010.06.03 18:56:24.
