data_PCOD9122121
_publ_section_title
;
Structure prediction by ZEFSAII (Michael W. Deem and Ramdas Pophale) SiO2 
 PCOD9122121
Probable space group: C 2
;
_chemical_formula_sum "Si O2"
_cell_formula_units_Z 28
_cell_length_a 24.946024
_cell_length_b 7.684605
_cell_length_c 21.665440
_cell_angle_alpha 90.000000
_cell_angle_beta 18.757778
_cell_angle_gamma 90.000000
_cell_volume 1335.559485
_symmetry_space_group_name_H-M "C 2"
_symmetry_group_IT_number 5
_symmetry_cell_setting 'monoclinic'
loop_
_space_group_symop_operation_xyz
x,y,z
-x,y,-z
1/2+x,1/2+y,z
1/2-x,1/2+y,-z
loop_
_atom_site_type_symbol
_atom_site_label
_atom_site_fract_x
_atom_site_fract_y
_atom_site_fract_z
Si Si1 0.220558 0.638290 0.411026
Si Si2 0.000000 0.521040 0.000000
Si Si3 0.612566 0.951216 0.652561
Si Si4 0.431140 0.843827 0.955188
Si Si5 0.084530 0.874265 0.292905
Si Si6 0.000000 0.121744 0.500000
Si Si7 0.062905 0.092256 0.641531
Si Si8 0.735958 0.770941 0.335985
O O1 0.132407 0.569125 0.570208
O O2 0.399462 0.729596 0.226443
O O3 0.259164 0.469546 0.327858
O O4 0.083930 0.760950 0.527679
O O5 0.105528 0.649767 0.843234
O O6 0.903096 0.404324 0.056192
O O7 0.486806 0.995452 0.845551
O O8 0.549317 0.759531 0.700564
O O9 0.799242 0.965481 0.477917
O O10 0.256760 0.773538 0.118443
O O11 0.063973 0.003536 0.373651
O O12 0.086053 0.979249 0.225629
O O13 0.140419 0.243226 0.376234
O O14 0.136902 0.182600 0.499900
#
# Coordination Sequence:
#
# PCOD9122121 Si02
#       8
#     4   2   4   4   4   2   4   4
#     4  11  25  44  65 100 136 172 227 280 336 394
#     4  12  22  44  64  96 130 170 230 270 330 410
#     4  11  20  41  69  93 135 177 217 276 337 392
#     4  12  24  41  73  96 130 181 221 274 336 406
#     4  11  23  41  67  98 130 179 224 272 334 404
#     4  10  20  44  64  86 136 182 216 268 346 388
#     4  10  19  38  65  92 127 175 218 267 336 390
#     4  10  22  40  65  91 129 172 217 279 330 395
#
# _framework density 20.964995999999999
#
# number of rings (size 3 to 8) (size 9 to 14) (size 15 to 20)
#    0.000    1.143    5.714    0.857    0.000    2.286 
#    2.571    0.000    0.000    0.000    0.000    0.000 
#    0.000    0.000    0.000    0.000    0.000    0.000 
#
# Total GULP energy -77968.723523 kJ/mol
# GULP energy per Si atom -5569.194537 kJ/mol
# Density = 2.091728 g / cm^3
# Si number density = 20.964996 Si / 1000 Ang^3
#
#
#
# Elastic Constant Matrix: (Units=GPa)
#
#
# Indices 1 2 3 4 5 6 
#
# 1 138.8119 42.9750 30.6769 -0.0006 -18.0093 0.0002
# 2 42.9750 83.3022 17.7820 -0.0040 -15.7382 0.0030
# 3 30.6769 17.7820 55.1127 -0.0031 -23.5799 0.0014
# 4 -0.0006 -0.0040 -0.0031 19.3219 0.0010 6.9296
# 5 -18.0093 -15.7382 -23.5799 0.0010 42.2505 -0.0001
# 6 0.0002 0.0030 0.0014 6.9296 -0.0001 50.3781
#
#
#
# Elastic Compliance Matrix: (Units=1/GPa)
#
#
# Indices 1 2 3 4 5 6 
#
# 1 0.009297 -0.003920 -0.003730 -0.000001 0.000421 0.000000
# 2 -0.003920 0.014897 -0.001268 0.000003 0.003170 -0.000001
# 3 -0.003730 -0.001268 0.025942 0.000004 0.012416 -0.000001
# 4 -0.000001 0.000003 0.000004 0.054440 0.000001 -0.007488
# 5 0.000421 0.003170 0.012416 0.000001 0.031958 -0.000001
# 6 0.000000 -0.000001 -0.000001 -0.007488 -0.000001 0.020880
#
#
# Mechanical properties :
#
#
# Convention : Reuss Voigt Hill
#
# Bulk Modulus (GPa) = 30.96038 51.12162 41.04100
# Shear Modulus (GPa) = 26.87946 34.77629 30.82787
#
# Velocity S-wave (km/s) = 3.58454 4.07723 3.83880
# Velocity P-wave (km/s) = 5.65081 6.82659 6.26634
#
# Compressibility (1/GPa) = 0.03229935
#
# Stress axis : x y z
#
# Youngs Moduli (GPa) = 107.56677 67.12960 38.54761
#
# Poissons Ratio (x) = 0.26317 0.14377
# Poissons Ratio (y) = 0.42170 0.04887
# Poissons Ratio (z) = 0.40119 0.08510
#
# Static dielectric constant tensor:
#      x y z
#    x 1.718310 0.000000 -0.053740 
#    y 0.000000 1.795010 0.000000 
#    z -0.053740 0.000000 1.756440 
# 
# From -- ./inp_files/67375.got.cif
#   From: 2010.05.17/outbox.cif.g08.bks.cpg/sg5_34_cif.got.tgz:67375.got - 2010.06.03 18:56:24.
