data_PCOD9122989
_publ_section_title
;
Structure prediction by ZEFSAII (Michael W. Deem and Ramdas Pophale) SiO2 
 PCOD9122989
Probable space group: C 2
;
_chemical_formula_sum "Si O2"
_cell_formula_units_Z 30
_cell_length_a 23.611676
_cell_length_b 12.588190
_cell_length_c 5.030084
_cell_angle_alpha 90.000000
_cell_angle_beta 68.705282
_cell_angle_gamma 90.000000
_cell_volume 1393.005901
_symmetry_space_group_name_H-M "C 2"
_symmetry_group_IT_number 5
_symmetry_cell_setting 'monoclinic'
loop_
_space_group_symop_operation_xyz
x,y,z
-x,y,-z
1/2+x,1/2+y,z
1/2-x,1/2+y,-z
loop_
_atom_site_type_symbol
_atom_site_label
_atom_site_fract_x
_atom_site_fract_y
_atom_site_fract_z
Si Si1 0.630576 0.452960 0.764787
Si Si2 0.070130 0.036609 0.373265
Si Si3 0.500000 0.084059 0.500000
Si Si4 0.651067 0.083570 0.808295
Si Si5 0.783162 0.131701 0.464298
Si Si6 0.621004 0.963180 0.332200
Si Si7 0.937469 0.749340 0.197585
Si Si8 0.350497 0.722778 0.856461
O O1 0.592094 0.529678 0.638486
O O2 0.696158 0.509303 0.634961
O O3 0.612926 0.339413 0.668911
O O4 0.606412 0.459554 0.107724
O O5 0.000000 0.011020 0.500000
O O6 0.088102 0.152806 0.237823
O O7 0.464935 0.166292 0.363659
O O8 0.554782 0.001927 0.341212
O O9 0.710973 0.138089 0.590401
O O10 0.598165 0.170714 0.939166
O O11 0.629367 0.998878 0.622806
O O12 0.665659 0.028979 0.062335
O O13 0.808201 0.166872 0.707497
O O14 0.815347 0.206615 0.192619
O O15 0.634030 0.840936 0.257119
O O16 0.000000 0.805412 0.000000
#
# Coordination Sequence:
#
# PCOD9122989 Si02
#       8
#     4   4   2   4   4   4   4   4
#     4  10  23  35  61  85 124 159 205 251 316 360
#     4  10  20  37  55  90 119 160 199 260 305 373
#     4  10  24  40  60  90 134 154 210 258 306 380
#     4  11  24  41  65  88 129 164 211 259 317 363
#     4  10  22  45  59  94 124 161 210 270 296 385
#     4  11  23  41  63  94 119 170 201 257 314 374
#     4  11  22  39  60  91 120 167 200 258 311 380
#     4  10  22  39  66  87 126 160 211 254 316 363
#
# _framework density 21.536162000000001
#
# number of rings (size 3 to 8) (size 9 to 14) (size 15 to 20)
#    0.000    1.600    1.333    2.800    3.733    2.133 
#    0.000    0.000    0.000    0.000    0.000    0.000 
#    0.000    0.000    0.000    0.000    0.000    0.000 
#
# Total GULP energy -83577.211384 kJ/mol
# GULP energy per Si atom -5571.814092 kJ/mol
# Density = 2.148714 g / cm^3
# Si number density = 21.536162 Si / 1000 Ang^3
#
#
#
# Elastic Constant Matrix: (Units=GPa)
#
#
# Indices 1 2 3 4 5 6 
#
# 1 55.5369 17.8649 8.4020 0.0000 -8.6801 0.0000
# 2 17.8649 81.0085 -7.3266 0.0000 -11.4532 0.0000
# 3 8.4020 -7.3266 69.8107 0.0000 4.2929 0.0000
# 4 0.0000 0.0000 0.0000 14.1354 0.0000 6.0070
# 5 -8.6801 -11.4532 4.2929 0.0000 29.4177 0.0000
# 6 0.0000 0.0000 0.0000 6.0070 0.0000 16.9034
#
#
#
# Elastic Compliance Matrix: (Units=1/GPa)
#
#
# Indices 1 2 3 4 5 6 
#
# 1 0.020594 -0.004135 -0.003216 0.000000 0.004936 0.000000
# 2 -0.004135 0.013973 0.001720 0.000000 0.003969 0.000000
# 3 -0.003216 0.001720 0.015044 0.000000 -0.002475 0.000000
# 4 0.000000 0.000000 0.000000 0.083329 0.000000 -0.029613
# 5 0.004936 0.003969 -0.002475 0.000000 0.037356 0.000000
# 6 0.000000 0.000000 0.000000 -0.029613 0.000000 0.069683
#
#
# Mechanical properties :
#
#
# Convention : Reuss Voigt Hill
#
# Bulk Modulus (GPa) = 26.07571 27.13742 26.60656
# Shear Modulus (GPa) = 18.93765 24.58568 21.76167
#
# Velocity S-wave (km/s) = 2.96859 3.38242 3.18224
# Velocity P-wave (km/s) = 4.88714 5.28040 5.08757
#
# Compressibility (1/GPa) = 0.03834986
#
# Stress axis : x y z
#
# Youngs Moduli (GPa) = 48.55754 71.56705 66.47072
#
# Poissons Ratio (x) = 0.29590 0.21377
# Poissons Ratio (y) = 0.20077 -0.11433
# Poissons Ratio (z) = 0.15616 -0.12309
#
# Static dielectric constant tensor:
#      x y z
#    x 1.771820 0.000000 -0.020010 
#    y 0.000000 1.810540 0.000000 
#    z -0.020010 0.000000 1.830770 
# 
# From -- ./inp_files/10323.got.cif
#   From: 2010.05.17/outbox.cif.g08.bks.cpg/sg5_6_cif.got.tgz:10323.got - 2010.06.03 18:56:24.
