data_PCOD9122709
_publ_section_title
;
Structure prediction by ZEFSAII (Michael W. Deem and Ramdas Pophale) SiO2 
 PCOD9122709
Probable space group: C 2
;
_chemical_formula_sum "Si O2"
_cell_formula_units_Z 22
_cell_length_a 8.476924
_cell_length_b 13.327152
_cell_length_c 17.091376
_cell_angle_alpha 90.000000
_cell_angle_beta 149.160522
_cell_angle_gamma 90.000000
_cell_volume 989.829907
_symmetry_space_group_name_H-M "C 2"
_symmetry_group_IT_number 5
_symmetry_cell_setting 'monoclinic'
loop_
_space_group_symop_operation_xyz
x,y,z
-x,y,-z
1/2+x,1/2+y,z
1/2-x,1/2+y,-z
loop_
_atom_site_type_symbol
_atom_site_label
_atom_site_fract_x
_atom_site_fract_y
_atom_site_fract_z
Si Si1 0.194966 0.622240 0.925922
Si Si2 0.739733 0.239146 0.449339
Si Si3 0.500000 0.185368 0.500000
Si Si4 0.352138 0.326260 0.164241
Si Si5 0.673256 0.017371 0.357218
Si Si6 0.123995 0.030077 0.233355
O O1 0.063780 0.735812 0.861155
O O2 0.945685 0.548803 0.779609
O O3 0.500000 0.623976 0.000000
O O4 0.335841 0.581731 0.066038
O O5 0.715116 0.247892 0.531560
O O6 0.421206 0.278315 0.277685
O O7 0.746333 0.120836 0.434911
O O8 0.000000 0.281227 0.500000
O O9 0.282249 0.112225 0.356070
O O10 0.519664 0.431413 0.233124
O O11 0.000000 0.347357 0.000000
O O12 0.000000 0.961503 0.500000
O O13 0.371048 0.985093 0.275741
#
# Coordination Sequence:
#
# PCOD9122709 Si02
#       6
#     4   4   2   4   4   4
#     4   8  16  35  63  85 118 167 207 255 327 373
#     4   9  19  38  68  88 122 169 209 263 324 374
#     4  10  20  38  68  92 126 168 224 256 316 386
#     4  10  20  38  62  86 124 171 210 262 327 374
#     4   8  15  33  62  93 118 164 209 252 321 383
#     4  10  20  35  62  94 127 163 219 267 306 385
#
# _framework density 22.226040999999999
#
# number of rings (size 3 to 8) (size 9 to 14) (size 15 to 20)
#    0.000    2.909    0.000    3.273    1.273    0.000 
#   13.091    0.000   28.000    0.000    0.000    0.000 
#    0.000    0.000    0.000    0.000    0.000    0.000 
#
# Total GULP energy -61235.992950 kJ/mol
# GULP energy per Si atom -5566.908450 kJ/mol
# Density = 2.217545 g / cm^3
# Si number density = 22.226041 Si / 1000 Ang^3
#
#
#
# Elastic Constant Matrix: (Units=GPa)
#
#
# Indices 1 2 3 4 5 6 
#
# 1 88.2016 24.2661 39.8800 0.0031 -10.4749 0.0003
# 2 24.2661 54.4141 4.3931 0.0070 -4.3313 0.0007
# 3 39.8800 4.3931 109.5981 0.0249 -9.3939 0.0049
# 4 0.0031 0.0070 0.0249 -16.3445 0.0056 2.6187
# 5 -10.4749 -4.3313 -9.3939 0.0056 28.3017 0.0007
# 6 0.0003 0.0007 0.0049 2.6187 0.0007 2.9129
#
#
#
# Elastic Compliance Matrix: (Units=1/GPa)
#
#
# Indices 1 2 3 4 5 6 
#
# 1 0.015837 -0.006389 -0.005237 -0.000005 0.003145 0.000012
# 2 -0.006389 0.021210 0.001596 0.000008 0.001411 -0.000015
# 3 -0.005237 0.001596 0.011138 0.000012 0.002003 -0.000030
# 4 -0.000005 0.000008 0.000012 -0.053479 0.000013 0.048079
# 5 0.003145 0.001411 0.002003 0.000013 0.037378 -0.000025
# 6 0.000012 -0.000015 -0.000030 0.048079 -0.000025 0.300080
#
#
# Mechanical properties :
#
#
# Convention : Reuss Voigt Hill
#
# Bulk Modulus (GPa) = 35.55732 43.25470 39.40601
# Shear Modulus (GPa) = 13.82745 15.21900 14.52323
#
# Velocity S-wave (km/s) = 2.49696 2.61959 2.55901
# Velocity P-wave (km/s) = 4.93415 5.35287 5.14777
#
# Compressibility (1/GPa) = 0.02812360
#
# Stress axis : x y z
#
# Youngs Moduli (GPa) = 63.14358 47.14665 89.78651
#
# Poissons Ratio (x) = 0.30124 0.47021
# Poissons Ratio (y) = 0.40345 -0.14327
# Poissons Ratio (z) = 0.33068 -0.07523
#
# Static dielectric constant tensor:
#      x y z
#    x 1.941400 0.000000 0.064470 
#    y 0.000000 1.818440 0.000000 
#    z 0.064470 0.000000 1.875690 
# 
# From -- ./inp_files/59682.got.cif
#   From: 2010.05.17/outbox.cif.g08.bks.cpg/sg5_30_cif.got.tgz:59682.got - 2010.06.03 18:56:24.
