data_PCOD9122108
_publ_section_title
;
Structure prediction by ZEFSAII (Michael W. Deem and Ramdas Pophale) SiO2 
 PCOD9122108
Probable space group: C 2
;
_chemical_formula_sum "Si O2"
_cell_formula_units_Z 26
_cell_length_a 10.019409
_cell_length_b 20.867013
_cell_length_c 8.586566
_cell_angle_alpha 90.000000
_cell_angle_beta 44.559745
_cell_angle_gamma 90.000000
_cell_volume 1259.633080
_symmetry_space_group_name_H-M "C 2"
_symmetry_group_IT_number 5
_symmetry_cell_setting 'monoclinic'
loop_
_space_group_symop_operation_xyz
x,y,z
-x,y,-z
1/2+x,1/2+y,z
1/2-x,1/2+y,-z
loop_
_atom_site_type_symbol
_atom_site_label
_atom_site_fract_x
_atom_site_fract_y
_atom_site_fract_z
Si Si1 0.192725 0.932830 0.669693
Si Si2 0.614254 0.694640 0.566910
Si Si3 0.116685 0.413355 0.182545
Si Si4 0.458504 0.290605 0.220033
Si Si5 0.000000 0.492737 0.000000
Si Si6 0.171922 0.051936 0.478738
Si Si7 0.135795 0.278978 0.028350
O O1 0.406141 0.925077 0.423132
O O2 0.227221 0.937984 0.825828
O O3 0.085285 0.866359 0.722664
O O4 0.124634 0.997368 0.644460
O O5 0.500000 0.695159 0.500000
O O6 0.779293 0.747579 0.417165
O O7 0.690675 0.623275 0.530922
O O8 0.463915 0.716532 0.820836
O O9 0.132293 0.337145 0.154583
O O10 0.125633 0.447592 0.008500
O O11 0.500000 0.279433 0.000000
O O12 0.638933 0.270924 0.176463
O O13 0.137807 0.533639 0.775098
O O14 0.000000 0.052512 0.500000
O O15 0.000000 0.299881 0.000000
#
# Coordination Sequence:
#
# PCOD9122108 Si02
#       7
#     4   4   4   4   2   4   4
#     4  10  21  39  63  99 126 171 222 267 330 389
#     4  11  23  46  66  94 137 174 224 269 330 408
#     4  10  19  38  64  93 133 165 211 285 321 382
#     4  12  23  37  73  97 121 176 227 269 325 397
#     4  10  22  40  60  96 128 170 220 266 332 388
#     4  10  25  41  66  94 135 176 212 274 329 395
#     4  12  25  41  65 103 133 170 220 282 337 379
#
# _framework density 20.640931999999999
#
# number of rings (size 3 to 8) (size 9 to 14) (size 15 to 20)
#    0.000    1.231    5.385    0.000    3.231    0.615 
#    0.000   10.000    0.000    0.000    0.000    0.000 
#    0.000    0.000    0.000    0.000    0.000    0.000 
#
# Total GULP energy -72618.088531 kJ/mol
# GULP energy per Si atom -5586.006810 kJ/mol
# Density = 2.059395 g / cm^3
# Si number density = 20.640932 Si / 1000 Ang^3
#
#
#
# Elastic Constant Matrix: (Units=GPa)
#
#
# Indices 1 2 3 4 5 6 
#
# 1 105.8188 37.7442 29.2906 0.0000 -9.7341 0.0000
# 2 37.7442 150.6039 47.9936 0.0000 -1.5344 0.0000
# 3 29.2906 47.9936 54.3372 0.0000 -11.0566 0.0000
# 4 0.0000 0.0000 0.0000 29.6500 0.0000 -12.0929
# 5 -9.7341 -1.5344 -11.0566 0.0000 31.8443 0.0000
# 6 0.0000 0.0000 0.0000 -12.0929 0.0000 105.6599
#
#
#
# Elastic Compliance Matrix: (Units=1/GPa)
#
#
# Indices 1 2 3 4 5 6 
#
# 1 0.011367 -0.001387 -0.004529 0.000000 0.001835 0.000000
# 2 -0.001387 0.009610 -0.008320 0.000000 -0.002850 0.000000
# 3 -0.004529 -0.008320 0.029947 0.000000 0.008612 0.000000
# 4 0.000000 0.000000 0.000000 0.035378 0.000000 0.004049
# 5 0.001835 -0.002850 0.008612 0.000000 0.034817 0.000000
# 6 0.000000 0.000000 0.000000 0.004049 0.000000 0.009928
#
#
# Mechanical properties :
#
#
# Convention : Reuss Voigt Hill
#
# Bulk Modulus (GPa) = 44.54142 60.09075 52.31608
# Shear Modulus (GPa) = 29.93959 46.47959 38.20959
#
# Velocity S-wave (km/s) = 3.81267 4.75048 4.30717
# Velocity P-wave (km/s) = 6.40374 7.69838 7.08071
#
# Compressibility (1/GPa) = 0.02245101
#
# Stress axis : x y z
#
# Youngs Moduli (GPa) = 87.97172 104.05887 33.39287
#
# Poissons Ratio (x) = 0.14431 0.15124
# Poissons Ratio (y) = 0.12200 0.27784
# Poissons Ratio (z) = 0.39844 0.86581
#
# Static dielectric constant tensor:
#      x y z
#    x 1.350610 0.000000 0.157950 
#    y 0.000000 1.709210 0.000000 
#    z 0.157950 0.000000 1.717170 
# 
# From -- ./inp_files/16887.got.cif
#   From: 2010.05.17/outbox.cif.g08.bks.cpg/sg5_9_cif.got.tgz:16887.got - 2010.06.03 18:56:24.
