data_PCOD9122462
_publ_section_title
;
Structure prediction by ZEFSAII (Michael W. Deem and Ramdas Pophale) SiO2 
 PCOD9122462
Probable space group: C 2
;
_chemical_formula_sum "Si O2"
_cell_formula_units_Z 30
_cell_length_a 21.390486
_cell_length_b 8.327780
_cell_length_c 9.632660
_cell_angle_alpha 90.000000
_cell_angle_beta 75.818128
_cell_angle_gamma 90.000000
_cell_volume 1663.620278
_symmetry_space_group_name_H-M "C 2"
_symmetry_group_IT_number 5
_symmetry_cell_setting 'monoclinic'
loop_
_space_group_symop_operation_xyz
x,y,z
-x,y,-z
1/2+x,1/2+y,z
1/2-x,1/2+y,-z
loop_
_atom_site_type_symbol
_atom_site_label
_atom_site_fract_x
_atom_site_fract_y
_atom_site_fract_z
Si Si1 0.413316 0.938250 0.169724
Si Si2 0.731742 0.990639 0.692063
Si Si3 0.042359 0.571545 0.153050
Si Si4 0.261756 0.611301 0.378815
Si Si5 0.677932 0.012302 0.186097
Si Si6 0.500000 0.359957 0.000000
Si Si7 0.782292 0.156773 0.939233
Si Si8 0.121587 0.075193 0.867900
O O1 0.345248 0.015553 0.248000
O O2 0.403963 0.749033 0.163717
O O3 0.475262 0.985389 0.227132
O O4 0.430927 0.995980 0.005449
O O5 0.739176 0.799734 0.661213
O O6 0.756768 0.083882 0.544049
O O7 0.767901 0.052982 0.809748
O O8 0.102323 0.548461 0.220753
O O9 0.023027 0.749516 0.115914
O O10 0.203535 0.528552 0.327881
O O11 0.325696 0.531721 0.277199
O O12 0.698229 0.837797 0.114132
O O13 0.717710 0.139473 0.068617
O O14 0.561377 0.460944 0.919476
O O15 0.838568 0.091893 0.009795
#
# Coordination Sequence:
#
# PCOD9122462 Si02
#       8
#     4   4   4   4   4   2   4   4
#     4   9  18  36  55  78 115 148 187 220 284 338
#     4  11  21  40  57  85 110 159 184 239 280 345
#     4  10  20  33  54  85 114 150 181 235 278 335
#     4  10  24  36  60  81 118 146 196 231 290 332
#     4  11  21  36  55  89 111 151 187 241 278 335
#     4  10  22  30  58  84 118 142 188 238 278 330
#     4  11  21  33  60  81 120 141 192 233 286 325
#     4  10  20  36  56  90 107 150 185 238 280 333
#
# _framework density 18.032961
#
# number of rings (size 3 to 8) (size 9 to 14) (size 15 to 20)
#    0.000    1.867    2.667    3.200    5.600    2.133 
#    0.000    0.667    0.000    0.800    0.000    0.000 
#    0.000    0.000    0.000    0.000    0.000    0.000 
#
# Total GULP energy -83677.105251 kJ/mol
# GULP energy per Si atom -5578.473683 kJ/mol
# Density = 1.799192 g / cm^3
# Si number density = 18.032961 Si / 1000 Ang^3
#
#
#
# Elastic Constant Matrix: (Units=GPa)
#
#
# Indices 1 2 3 4 5 6 
#
# 1 141.9475 55.9095 30.2765 0.0000 -11.0221 0.0000
# 2 55.9095 60.0617 18.6108 0.0000 -4.8570 0.0000
# 3 30.2765 18.6108 73.8511 0.0000 1.6139 0.0000
# 4 0.0000 0.0000 0.0000 20.4572 0.0000 -4.9861
# 5 -11.0221 -4.8570 1.6139 0.0000 12.7630 0.0000
# 6 0.0000 0.0000 0.0000 -4.9861 0.0000 18.0708
#
#
#
# Elastic Compliance Matrix: (Units=1/GPa)
#
#
# Indices 1 2 3 4 5 6 
#
# 1 0.012001 -0.009802 -0.002602 0.000000 0.006963 0.000000
# 2 -0.009802 0.026805 -0.002782 0.000000 0.002087 0.000000
# 3 -0.002602 -0.002782 0.015423 0.000000 -0.005256 0.000000
# 4 0.000000 0.000000 0.000000 0.052407 0.000000 0.014460
# 5 0.006963 0.002087 -0.005256 0.000000 0.085824 0.000000
# 6 0.000000 0.000000 0.000000 0.014460 0.000000 0.059328
#
#
# Mechanical properties :
#
#
# Convention : Reuss Voigt Hill
#
# Bulk Modulus (GPa) = 41.91630 53.93934 47.92782
# Shear Modulus (GPa) = 17.23459 21.66241 19.44850
#
# Velocity S-wave (km/s) = 3.09484 3.46969 3.28761
# Velocity P-wave (km/s) = 6.00545 6.78440 6.40678
#
# Compressibility (1/GPa) = 0.02385707
#
# Stress axis : x y z
#
# Youngs Moduli (GPa) = 83.32298 37.30635 64.83623
#
# Poissons Ratio (x) = 0.36569 0.16871
# Poissons Ratio (y) = 0.81677 0.18037
# Poissons Ratio (z) = 0.21682 0.10378
#
# Static dielectric constant tensor:
#      x y z
#    x 1.658470 0.000000 0.002730 
#    y 0.000000 1.650000 0.000000 
#    z 0.002730 0.000000 1.595260 
# 
# From -- ./inp_files/28933.got.cif
#   From: 2010.05.17/outbox.cif.g08.bks.cpg/sg5_15_cif.got.tgz:28933.got - 2010.06.03 18:56:24.
