data_PCOD9122112
_publ_section_title
;
Structure prediction by ZEFSAII (Michael W. Deem and Ramdas Pophale) SiO2 
 PCOD9122112
Probable space group: C 2
;
_chemical_formula_sum "Si O2"
_cell_formula_units_Z 32
_cell_length_a 7.421304
_cell_length_b 11.443753
_cell_length_c 18.787292
_cell_angle_alpha 90.000000
_cell_angle_beta 125.326905
_cell_angle_gamma 90.000000
_cell_volume 1301.762622
_symmetry_space_group_name_H-M "C 2"
_symmetry_group_IT_number 5
_symmetry_cell_setting 'monoclinic'
loop_
_space_group_symop_operation_xyz
x,y,z
-x,y,-z
1/2+x,1/2+y,z
1/2-x,1/2+y,-z
loop_
_atom_site_type_symbol
_atom_site_label
_atom_site_fract_x
_atom_site_fract_y
_atom_site_fract_z
Si Si1 0.128277 0.021050 0.927879
Si Si2 0.752043 0.284779 0.028824
Si Si3 0.178894 0.393558 0.477139
Si Si4 0.160762 0.408770 0.816541
Si Si5 0.439628 0.050587 0.332677
Si Si6 0.491033 0.297763 0.342197
Si Si7 0.451808 0.509416 0.253904
Si Si8 0.868994 0.238076 0.318441
O O1 0.186797 0.148863 0.974563
O O2 0.139425 0.036923 0.844875
O O3 0.874508 0.986519 0.886357
O O4 0.250483 0.897846 0.975349
O O5 0.897491 0.335393 0.127114
O O6 0.500000 0.274799 0.000000
O O7 0.407599 0.359302 0.565406
O O8 0.000000 0.395858 0.500000
O O9 0.145507 0.515868 0.428844
O O10 0.088307 0.299355 0.399956
O O11 0.022959 0.502125 0.738289
O O12 0.212956 0.309039 0.769783
O O13 0.358538 0.181585 0.325433
O O14 0.216351 0.985710 0.308393
O O15 0.363216 0.389837 0.265930
O O16 0.689895 0.242931 0.340230
O O17 0.414684 0.610095 0.301440
#
# Coordination Sequence:
#
# PCOD9122112 Si02
#       8
#     4   4   4   4   4   4   4   4
#     4  10  20  38  65  87 118 160 201 247 314 364
#     4  10  21  38  61  89 119 154 200 253 310 369
#     4   9  18  37  60  82 119 164 194 246 305 346
#     4   9  18  40  62  80 117 164 194 241 307 364
#     4  10  21  38  62  87 119 160 207 250 303 358
#     4  11  22  38  60  89 121 162 203 252 301 359
#     4  11  21  40  63  87 122 159 201 250 305 364
#     4  10  19  38  65  83 119 160 199 246 298 356
#
# _framework density 24.582055
#
# number of rings (size 3 to 8) (size 9 to 14) (size 15 to 20)
#    0.000    2.000    6.250    0.000    1.750    1.000 
#    4.500    4.375    0.000    0.000    0.000    0.000 
#    0.000    0.000    0.000    0.000    0.000    0.000 
#
# Total GULP energy -89270.095108 kJ/mol
# GULP energy per Si atom -5579.380944 kJ/mol
# Density = 2.452611 g / cm^3
# Si number density = 24.582055 Si / 1000 Ang^3
#
#
#
# Elastic Constant Matrix: (Units=GPa)
#
#
# Indices 1 2 3 4 5 6 
#
# 1 37.5081 7.0718 17.4783 0.0000 7.3256 0.0000
# 2 7.0718 165.1113 34.5803 0.0000 -14.2319 0.0000
# 3 17.4783 34.5803 88.6290 0.0000 -11.9824 0.0000
# 4 0.0000 0.0000 0.0000 33.6288 0.0000 -7.4402
# 5 7.3256 -14.2319 -11.9824 0.0000 24.7618 0.0000
# 6 0.0000 0.0000 0.0000 -7.4402 0.0000 32.4560
#
#
#
# Elastic Compliance Matrix: (Units=1/GPa)
#
#
# Indices 1 2 3 4 5 6 
#
# 1 0.033464 -0.000964 -0.008171 0.000000 -0.014408 0.000000
# 2 -0.000964 0.006800 -0.002029 0.000000 0.003211 0.000000
# 3 -0.008171 -0.002029 0.014825 0.000000 0.008425 0.000000
# 4 0.000000 0.000000 0.000000 0.031325 0.000000 0.007181
# 5 -0.014408 0.003211 0.008425 0.000000 0.050570 0.000000
# 6 0.000000 0.000000 0.000000 0.007181 0.000000 0.032457
#
#
# Mechanical properties :
#
#
# Convention : Reuss Voigt Hill
#
# Bulk Modulus (GPa) = 30.52389 45.50102 38.01245
# Shear Modulus (GPa) = 24.66826 33.64387 29.15606
#
# Velocity S-wave (km/s) = 3.17125 3.70352 3.44767
# Velocity P-wave (km/s) = 5.08461 6.06944 5.59872
#
# Compressibility (1/GPa) = 0.03276122
#
# Stress axis : x y z
#
# Youngs Moduli (GPa) = 29.88247 147.06963 67.45337
#
# Poissons Ratio (x) = 0.14175 0.55118
# Poissons Ratio (y) = 0.02880 0.13684
# Poissons Ratio (z) = 0.24418 0.29836
#
# Static dielectric constant tensor:
#      x y z
#    x 2.018060 0.000000 0.004340 
#    y 0.000000 2.023800 0.000000 
#    z 0.004340 0.000000 1.941580 
# 
# From -- ./inp_files/64557.got.cif
#   From: 2010.05.17/outbox.cif.g08.bks.cpg/sg5_33_cif.got.tgz:64557.got - 2010.06.03 18:56:24.
