data_PCOD9122597
_publ_section_title
;
Structure prediction by ZEFSAII (Michael W. Deem and Ramdas Pophale) SiO2 
 PCOD9122597
Probable space group: C 2
;
_chemical_formula_sum "Si O2"
_cell_formula_units_Z 30
_cell_length_a 27.295278
_cell_length_b 8.320550
_cell_length_c 5.238345
_cell_angle_alpha 90.000000
_cell_angle_beta 98.999884
_cell_angle_gamma 90.000000
_cell_volume 1175.042895
_symmetry_space_group_name_H-M "C 2"
_symmetry_group_IT_number 5
_symmetry_cell_setting 'monoclinic'
loop_
_space_group_symop_operation_xyz
x,y,z
-x,y,-z
1/2+x,1/2+y,z
1/2-x,1/2+y,-z
loop_
_atom_site_type_symbol
_atom_site_label
_atom_site_fract_x
_atom_site_fract_y
_atom_site_fract_z
Si Si1 0.468402 0.505280 0.714412
Si Si2 0.193239 0.439913 0.312729
Si Si3 0.898026 0.295453 0.664220
Si Si4 0.841713 0.715742 0.404663
Si Si5 0.761478 0.216365 0.987367
Si Si6 0.080019 0.504777 0.810246
Si Si7 0.000000 0.699825 0.500000
Si Si8 0.208667 0.931448 0.311944
O O1 0.500000 0.574338 0.500000
O O2 0.422851 0.623166 0.716953
O O3 0.461636 0.321290 0.611398
O O4 0.500000 0.500427 0.000000
O O5 0.162067 0.290863 0.406597
O O6 0.158297 0.582697 0.372595
O O7 0.203294 0.371576 0.040059
O O8 0.247496 0.476572 0.459861
O O9 0.916468 0.379633 0.421603
O O10 0.911970 0.403617 0.925338
O O11 0.787569 0.710504 0.230365
O O12 0.880236 0.647867 0.227053
O O13 0.839270 0.882382 0.561396
O O14 0.792351 0.059406 0.922505
O O15 0.733476 0.268621 0.218332
O O16 0.027599 0.592855 0.730675
#
# Coordination Sequence:
#
# PCOD9122597 Si02
#       8
#     4   4   4   4   4   4   2   4
#     4  10  24  46  70  99 140 181 214 290 355 418
#     4   9  21  38  60  89 130 167 231 272 340 390
#     4  11  25  43  73 102 133 182 232 291 337 430
#     4   9  21  39  58  89 129 171 219 283 330 399
#     4  10  20  34  62  87 127 176 222 274 334 401
#     4  11  26  42  74 102 135 179 241 281 352 413
#     4  10  28  46  72 104 144 180 222 298 352 430
#     4  10  20  36  60  91 131 179 223 284 337 405
#
# _framework density 25.530987
#
# number of rings (size 3 to 8) (size 9 to 14) (size 15 to 20)
#    0.400    1.600    0.000    1.600   14.000    2.133 
#    0.000    1.333    0.000    0.000    0.000    0.000 
#    0.000    0.000    0.000    0.000    0.000    0.000 
#
# Total GULP energy -83555.302900 kJ/mol
# GULP energy per Si atom -5570.353527 kJ/mol
# Density = 2.547288 g / cm^3
# Si number density = 25.530987 Si / 1000 Ang^3
#
#
#
# Elastic Constant Matrix: (Units=GPa)
#
#
# Indices 1 2 3 4 5 6 
#
# 1 49.6995 22.0190 5.4387 0.0000 3.1679 0.0000
# 2 22.0190 86.7669 46.3043 0.0000 6.6922 0.0000
# 3 5.4387 46.3043 113.7916 0.0000 -1.1707 0.0000
# 4 0.0000 0.0000 0.0000 28.3654 0.0000 -11.8190
# 5 3.1679 6.6922 -1.1707 0.0000 25.0884 0.0000
# 6 0.0000 0.0000 0.0000 -11.8190 0.0000 44.9411
#
#
#
# Elastic Compliance Matrix: (Units=1/GPa)
#
#
# Indices 1 2 3 4 5 6 
#
# 1 0.022930 -0.006573 0.001568 0.000000 -0.001069 0.000000
# 2 -0.006573 0.017064 -0.006671 0.000000 -0.004033 0.000000
# 3 0.001568 -0.006671 0.011450 0.000000 0.002116 0.000000
# 4 0.000000 0.000000 0.000000 0.039593 0.000000 0.010412
# 5 -0.001069 -0.004033 0.002116 0.000000 0.041169 0.000000
# 6 0.000000 0.000000 0.000000 0.010412 0.000000 0.024990
#
#
# Mechanical properties :
#
#
# Convention : Reuss Voigt Hill
#
# Bulk Modulus (GPa) = 35.59919 44.19801 39.89860
# Shear Modulus (GPa) = 26.32807 31.44538 28.88673
#
# Velocity S-wave (km/s) = 3.21475 3.51330 3.36733
# Velocity P-wave (km/s) = 5.26814 5.81436 5.54798
#
# Compressibility (1/GPa) = 0.02809053
#
# Stress axis : x y z
#
# Youngs Moduli (GPa) = 43.61155 58.60120 87.34002
#
# Poissons Ratio (x) = 0.38520 -0.13694
# Poissons Ratio (y) = 0.28667 0.58267
# Poissons Ratio (z) = -0.06838 0.39094
#
# Static dielectric constant tensor:
#      x y z
#    x 2.086080 0.000000 -0.010930 
#    y 0.000000 2.167580 0.000000 
#    z -0.010930 0.000000 2.048960 
# 
# From -- ./inp_files/11150.got.cif
#   From: 2010.05.17/outbox.cif.g08.bks.cpg/sg5_6_cif.got.tgz:11150.got - 2010.06.03 18:56:24.
