data_PCOD9122474
_publ_section_title
;
Structure prediction by ZEFSAII (Michael W. Deem and Ramdas Pophale) SiO2 
 PCOD9122474
Probable space group: C 2
;
_chemical_formula_sum "Si O2"
_cell_formula_units_Z 26
_cell_length_a 10.526481
_cell_length_b 24.834758
_cell_length_c 10.418707
_cell_angle_alpha 90.000000
_cell_angle_beta 151.226994
_cell_angle_gamma 90.000000
_cell_volume 1311.020884
_symmetry_space_group_name_H-M "C 2"
_symmetry_group_IT_number 5
_symmetry_cell_setting 'monoclinic'
loop_
_space_group_symop_operation_xyz
x,y,z
-x,y,-z
1/2+x,1/2+y,z
1/2-x,1/2+y,-z
loop_
_atom_site_type_symbol
_atom_site_label
_atom_site_fract_x
_atom_site_fract_y
_atom_site_fract_z
Si Si1 0.500000 0.801010 0.500000
Si Si2 0.469803 0.424401 0.627139
Si Si3 0.438515 0.864048 0.186065
Si Si4 0.968055 0.250280 0.116043
Si Si5 0.457357 0.549432 0.616531
Si Si6 0.461192 0.101943 0.113094
Si Si7 0.384914 0.223109 0.693735
O O1 0.407716 0.837678 0.299478
O O2 0.738623 0.762158 0.665310
O O3 0.500000 0.417061 0.500000
O O4 0.513246 0.487357 0.694911
O O5 0.173635 0.406913 0.398594
O O6 0.679138 0.389048 0.892017
O O7 0.536708 0.813556 0.187580
O O8 0.171583 0.220751 0.390214
O O9 0.665885 0.245555 0.895106
O O10 0.000000 0.231037 0.000000
O O11 0.500000 0.556148 0.500000
O O12 0.156677 0.566609 0.371901
O O13 0.656554 0.588954 0.866545
O O14 0.551318 0.163515 0.200821
O O15 0.500000 0.084488 0.000000
#
# Coordination Sequence:
#
# PCOD9122474 Si02
#       7
#     2   4   4   4   4   4   4
#     4  10  26  40  58  96 132 160 218 236 302 382
#     4  11  21  37  61  88 118 155 202 253 309 355
#     4  11  23  37  59  85 121 165 191 249 295 358
#     4  11  23  40  58  87 120 160 208 244 294 363
#     4   9  19  34  53  87 117 145 195 255 305 364
#     4  10  20  33  57  86 120 151 187 245 322 362
#     4  11  24  37  62  87 126 164 196 256 299 366
#
# _framework density 19.831873000000002
#
# number of rings (size 3 to 8) (size 9 to 14) (size 15 to 20)
#    0.000    1.538    0.000    5.538    7.538    5.538 
#    0.000    0.000    0.000    0.000   40.000    0.000 
#    0.000    0.000    0.000    0.000    0.000    0.000 
#
# Total GULP energy -72587.938785 kJ/mol
# GULP energy per Si atom -5583.687599 kJ/mol
# Density = 1.978674 g / cm^3
# Si number density = 19.831873 Si / 1000 Ang^3
#
#
#
# Elastic Constant Matrix: (Units=GPa)
#
#
# Indices 1 2 3 4 5 6 
#
# 1 63.1806 14.0163 44.4587 0.0000 -11.7681 0.0000
# 2 14.0163 66.9415 58.5091 0.0000 -11.3293 0.0000
# 3 44.4587 58.5091 156.0549 0.0000 -2.5775 0.0000
# 4 0.0000 0.0000 0.0000 42.0963 0.0000 0.0041
# 5 -11.7681 -11.3293 -2.5775 0.0000 27.7189 0.0000
# 6 0.0000 0.0000 0.0000 0.0041 0.0000 12.2700
#
#
#
# Elastic Compliance Matrix: (Units=1/GPa)
#
#
# Indices 1 2 3 4 5 6 
#
# 1 0.022224 0.003666 -0.007537 0.000000 0.010233 0.000000
# 2 0.003666 0.024921 -0.010210 0.000000 0.010793 0.000000
# 3 -0.007537 -0.010210 0.012280 0.000000 -0.006231 0.000000
# 4 0.000000 0.000000 0.000000 0.023755 0.000000 -0.000008
# 5 0.010233 0.010793 -0.006231 0.000000 0.044253 0.000000
# 6 0.000000 0.000000 0.000000 -0.000008 0.000000 0.081500
#
#
# Mechanical properties :
#
#
# Convention : Reuss Voigt Hill
#
# Bulk Modulus (GPa) = 31.98580 57.79390 44.88985
# Shear Modulus (GPa) = 20.20084 27.69658 23.94871
#
# Velocity S-wave (km/s) = 3.19502 3.74112 3.47880
# Velocity P-wave (km/s) = 5.45659 6.91856 6.23061
#
# Compressibility (1/GPa) = 0.03126387
#
# Stress axis : x y z
#
# Youngs Moduli (GPa) = 44.99680 40.12678 81.43232
#
# Poissons Ratio (x) = -0.14710 0.61374
# Poissons Ratio (y) = -0.16496 0.83140
# Poissons Ratio (z) = 0.33913 0.40968
#
# Static dielectric constant tensor:
#      x y z
#    x 1.702600 0.000000 0.002450 
#    y 0.000000 1.699930 0.000000 
#    z 0.002450 0.000000 1.721600 
# 
# From -- ./inp_files/40850.got.cif
#   From: 2010.05.17/outbox.cif.g08.bks.cpg/sg5_21_cif.got.tgz:40850.got - 2010.06.03 18:56:24.
