data_PCOD9122889
_publ_section_title
;
Structure prediction by ZEFSAII (Michael W. Deem and Ramdas Pophale) SiO2 
 PCOD9122889
Probable space group: C 2
;
_chemical_formula_sum "Si O2"
_cell_formula_units_Z 30
_cell_length_a 11.472342
_cell_length_b 18.895849
_cell_length_c 13.683586
_cell_angle_alpha 90.000000
_cell_angle_beta 146.972474
_cell_angle_gamma 90.000000
_cell_volume 1616.770214
_symmetry_space_group_name_H-M "C 2"
_symmetry_group_IT_number 5
_symmetry_cell_setting 'monoclinic'
loop_
_space_group_symop_operation_xyz
x,y,z
-x,y,-z
1/2+x,1/2+y,z
1/2-x,1/2+y,-z
loop_
_atom_site_type_symbol
_atom_site_label
_atom_site_fract_x
_atom_site_fract_y
_atom_site_fract_z
Si Si1 0.422927 0.948150 0.786365
Si Si2 0.710990 0.628842 0.210984
Si Si3 0.649797 0.448145 0.786365
Si Si4 0.137604 0.205475 0.500006
Si Si5 0.972324 0.600445 0.212603
Si Si6 0.500000 0.249912 0.500000
Si Si7 0.729070 0.345414 0.500008
Si Si8 0.047080 0.100440 0.787371
O O1 0.242685 0.936227 0.742687
O O2 0.389477 0.895681 0.672688
O O3 0.414108 0.029017 0.743436
O O4 0.651231 0.938332 0.999999
O O5 0.871493 0.589868 0.249696
O O6 0.827804 0.699401 0.327795
O O7 0.627928 0.589867 0.249710
O O8 0.500000 0.645622 0.000000
O O9 0.455905 0.395670 0.672693
O O10 0.572730 0.529008 0.743420
O O11 0.364853 0.165603 0.670625
O O12 0.167914 0.288540 0.499988
O O13 0.000000 0.194092 0.500000
O O14 0.023649 0.165593 0.329412
O O15 0.773474 0.614083 0.999986
O O16 0.614093 0.296923 0.500018
#
# Coordination Sequence:
#
# PCOD9122889 Si02
#       8
#     4   4   4   4   4   2   4   4
#     4  10  21  37  59  86 115 150 191 235 283 336
#     4  10  20  36  62  90 116 147 186 236 288 337
#     4  10  21  37  59  86 115 150 191 235 283 336
#     4  12  25  40  59  84 116 154 194 238 289 342
#     4  10  21  39  63  89 115 148 193 240 285 336
#     4  12  20  36  58  86 116 150 184 236 290 340
#     4  12  23  38  56  83 116 150 191 236 286 341
#     4  10  21  39  63  89 115 148 193 240 285 336
#
# _framework density 18.555512
#
# number of rings (size 3 to 8) (size 9 to 14) (size 15 to 20)
#    0.000    1.333    4.000    1.600    0.000    3.733 
#    2.400    0.000    0.000    0.000    0.000    0.000 
#    0.000    0.000    0.000    0.000    0.000    0.000 
#
# Total GULP energy -83772.035190 kJ/mol
# GULP energy per Si atom -5584.802346 kJ/mol
# Density = 1.851328 g / cm^3
# Si number density = 18.555512 Si / 1000 Ang^3
#
#
#
# Elastic Constant Matrix: (Units=GPa)
#
#
# Indices 1 2 3 4 5 6 
#
# 1 86.8712 19.5142 29.1184 0.0000 1.4861 0.0000
# 2 19.5142 94.2728 47.3044 0.0000 -1.8131 0.0000
# 3 29.1184 47.3044 70.5361 0.0005 -0.4368 0.0001
# 4 0.0000 0.0000 0.0005 39.7137 0.0001 0.1584
# 5 1.4861 -1.8131 -0.4368 0.0001 17.5379 0.0000
# 6 0.0000 0.0000 0.0001 0.1584 0.0000 42.2551
#
#
#
# Elastic Compliance Matrix: (Units=1/GPa)
#
#
# Indices 1 2 3 4 5 6 
#
# 1 0.013388 -0.000028 -0.005516 0.000000 -0.001275 0.000000
# 2 -0.000028 0.016021 -0.010724 0.000000 0.001392 0.000000
# 3 -0.005516 -0.010724 0.023646 0.000000 -0.000052 0.000000
# 4 0.000000 0.000000 0.000000 0.025181 0.000000 -0.000094
# 5 -0.001275 0.001392 -0.000052 0.000000 0.057270 0.000000
# 6 0.000000 0.000000 0.000000 -0.000094 0.000000 0.023666
#
#
# Mechanical properties :
#
#
# Convention : Reuss Voigt Hill
#
# Bulk Modulus (GPa) = 48.73541 49.28377 49.00959
# Shear Modulus (GPa) = 25.18268 30.28421 27.73344
#
# Velocity S-wave (km/s) = 3.68795 4.04429 3.87023
# Velocity P-wave (km/s) = 6.66756 6.95890 6.81478
#
# Compressibility (1/GPa) = 0.02051896
#
# Stress axis : x y z
#
# Youngs Moduli (GPa) = 74.69204 62.41652 42.29018
#
# Poissons Ratio (x) = 0.00175 0.23327
# Poissons Ratio (y) = 0.00209 0.45354
# Poissons Ratio (z) = 0.41200 0.66938
#
# Static dielectric constant tensor:
#      x y z
#    x 1.634200 0.000000 -0.000780 
#    y 0.000000 1.605490 0.000000 
#    z -0.000780 0.000000 1.646230 
# 
# From -- ./inp_files/53416.got.cif
#   From: 2010.05.17/outbox.cif.g08.bks.cpg/sg5_27_cif.got.tgz:53416.got - 2010.06.03 18:56:24.
