data_PCOD9122222
_publ_section_title
;
Structure prediction by ZEFSAII (Michael W. Deem and Ramdas Pophale) SiO2 
 PCOD9122222
Probable space group: C 2
;
_chemical_formula_sum "Si O2"
_cell_formula_units_Z 26
_cell_length_a 12.741916
_cell_length_b 18.137892
_cell_length_c 8.249493
_cell_angle_alpha 90.000000
_cell_angle_beta 44.270264
_cell_angle_gamma 90.000000
_cell_volume 1330.857182
_symmetry_space_group_name_H-M "C 2"
_symmetry_group_IT_number 5
_symmetry_cell_setting 'monoclinic'
loop_
_space_group_symop_operation_xyz
x,y,z
-x,y,-z
1/2+x,1/2+y,z
1/2-x,1/2+y,-z
loop_
_atom_site_type_symbol
_atom_site_label
_atom_site_fract_x
_atom_site_fract_y
_atom_site_fract_z
Si Si1 0.215981 0.604230 0.952834
Si Si2 0.679752 0.769823 0.522622
Si Si3 0.267393 0.075854 0.710106
Si Si4 0.500000 0.693713 0.000000
Si Si5 0.000000 0.163038 0.500000
Si Si6 0.606621 0.937415 0.543459
Si Si7 0.529595 0.201381 0.649007
Si Si8 0.000000 0.505324 0.000000
O O1 0.393531 0.614846 0.731719
O O2 0.138850 0.559223 0.893392
O O3 0.193235 0.561735 0.146756
O O4 0.122714 0.680307 0.088475
O O5 0.559624 0.747686 0.794752
O O6 0.623705 0.714483 0.446427
O O7 0.663535 0.854069 0.491829
O O8 0.847702 0.749484 0.393940
O O9 0.391698 0.122275 0.473780
O O10 0.136109 0.136069 0.868971
O O11 0.260444 0.997393 0.631997
O O12 0.500000 0.942631 0.500000
O O13 0.534266 0.958738 0.798768
O O14 0.500000 0.231799 0.500000
#
# Coordination Sequence:
#
# PCOD9122222 Si02
#       8
#     4   4   4   2   2   4   4   2
#     4  11  21  38  64  96 124 164 223 277 317 382
#     4  11  23  40  64  92 134 174 217 271 338 398
#     4  10  19  39  67  90 126 169 218 269 330 384
#     4  10  21  40  64  95 126 176 220 272 325 388
#     4  12  24  36  62 100 130 168 220 276 324 402
#     4  12  23  41  63  96 133 175 219 271 337 399
#     4   9  19  40  68  91 120 169 223 274 324 391
#     4  12  23  38  68  91 130 176 216 268 329 402
#
# _framework density 19.536280000000001
#
# number of rings (size 3 to 8) (size 9 to 14) (size 15 to 20)
#    0.000    1.231    5.385    1.846    2.154    0.000 
#    0.000    1.538    5.077    0.000    0.000    0.000 
#    0.000    0.000    0.000    0.000    0.000    0.000 
#
# Total GULP energy -72416.587845 kJ/mol
# GULP energy per Si atom -5570.506757 kJ/mol
# Density = 1.949181 g / cm^3
# Si number density = 19.536280 Si / 1000 Ang^3
#
#
#
# Elastic Constant Matrix: (Units=GPa)
#
#
# Indices 1 2 3 4 5 6 
#
# 1 76.7038 26.5208 23.1858 0.0000 5.4199 0.0000
# 2 26.5208 93.2274 30.0426 0.0000 2.9719 0.0000
# 3 23.1858 30.0426 107.8421 0.0000 -4.3630 0.0000
# 4 0.0000 0.0000 0.0000 20.1028 0.0000 10.9823
# 5 5.4199 2.9719 -4.3630 0.0000 34.8885 0.0000
# 6 0.0000 0.0000 0.0000 10.9823 0.0000 28.9207
#
#
#
# Elastic Compliance Matrix: (Units=1/GPa)
#
#
# Indices 1 2 3 4 5 6 
#
# 1 0.015119 -0.003458 -0.002382 0.000000 -0.002352 0.000000
# 2 -0.003458 0.012646 -0.002815 0.000000 -0.000892 0.000000
# 3 -0.002382 -0.002815 0.010648 0.000000 0.001941 0.000000
# 4 0.000000 0.000000 0.000000 0.062765 0.000000 -0.023834
# 5 -0.002352 -0.000892 0.001941 0.000000 0.029347 0.000000
# 6 0.000000 0.000000 0.000000 -0.023834 0.000000 0.043628
#
#
# Mechanical properties :
#
#
# Convention : Reuss Voigt Hill
#
# Bulk Modulus (GPa) = 47.39152 48.58575 47.98863
# Shear Modulus (GPa) = 25.18905 29.98401 27.58653
#
# Velocity S-wave (km/s) = 3.59464 3.92188 3.76182
# Velocity P-wave (km/s) = 6.44511 6.74031 6.59436
#
# Compressibility (1/GPa) = 0.02110082
#
# Stress axis : x y z
#
# Youngs Moduli (GPa) = 66.14092 79.07649 93.91532
#
# Poissons Ratio (x) = 0.27347 0.22374
# Poissons Ratio (y) = 0.22874 0.26442
# Poissons Ratio (z) = 0.15757 0.22264
#
# Static dielectric constant tensor:
#      x y z
#    x 1.765940 0.000000 -0.001100 
#    y 0.000000 1.647230 0.000000 
#    z -0.001100 0.000000 1.791190 
# 
# From -- ./inp_files/21225.got.cif
#   From: 2010.05.17/outbox.cif.g08.bks.cpg/sg5_11_cif.got.tgz:21225.got - 2010.06.03 18:56:24.
