data_PCOD9122338
_publ_section_title
;
Structure prediction by ZEFSAII (Michael W. Deem and Ramdas Pophale) SiO2 
 PCOD9122338
Probable space group: C 2
;
_chemical_formula_sum "Si O2"
_cell_formula_units_Z 28
_cell_length_a 19.030212
_cell_length_b 8.933670
_cell_length_c 11.045934
_cell_angle_alpha 90.000000
_cell_angle_beta 134.059699
_cell_angle_gamma 90.000000
_cell_volume 1349.499184
_symmetry_space_group_name_H-M "C 2"
_symmetry_group_IT_number 5
_symmetry_cell_setting 'monoclinic'
loop_
_space_group_symop_operation_xyz
x,y,z
-x,y,-z
1/2+x,1/2+y,z
1/2-x,1/2+y,-z
loop_
_atom_site_type_symbol
_atom_site_label
_atom_site_fract_x
_atom_site_fract_y
_atom_site_fract_z
Si Si1 0.711966 0.038770 0.414390
Si Si2 0.898155 0.718670 0.923116
Si Si3 0.995147 0.491119 0.233946
Si Si4 0.327905 0.435213 0.029226
Si Si5 0.253912 0.240631 0.336412
Si Si6 0.645563 0.152492 0.769117
Si Si7 0.435832 0.690815 0.044742
O O1 0.668065 0.148815 0.260365
O O2 0.772348 0.125247 0.588280
O O3 0.611472 0.992173 0.360134
O O4 0.765065 0.900427 0.414136
O O5 0.828500 0.829316 0.912415
O O6 0.942642 0.589340 0.063974
O O7 0.000000 0.793122 0.000000
O O8 0.950552 0.567576 0.299263
O O9 0.968534 0.321549 0.172909
O O10 0.232805 0.541060 0.920623
O O11 0.417371 0.545645 0.104697
O O12 0.343356 0.316552 0.155146
O O13 0.342003 0.182376 0.358452
O O14 0.166466 0.245106 0.135848
O O15 0.500000 0.671283 0.000000
#
# Coordination Sequence:
#
# PCOD9122338 Si02
#       7
#     4   4   4   4   4   4   4
#     4  11  23  40  63  88 129 171 207 263 321 379
#     4   9  18  36  61  91 116 161 212 261 313 373
#     4  10  19  41  67  86 121 167 212 255 316 377
#     4  10  21  32  59  90 127 151 209 279 317 362
#     4  11  24  39  61  91 127 165 211 263 317 378
#     4  10  22  38  57  93 124 168 209 260 321 383
#     4  11  19  38  66  96 120 158 221 266 307 372
#
# _framework density 20.748436999999999
#
# number of rings (size 3 to 8) (size 9 to 14) (size 15 to 20)
#    0.000    1.714    2.857    2.571    6.000    0.571 
#    0.000    0.000    0.000    0.000    0.000    0.000 
#    0.000    0.000    0.000    0.000    0.000    0.000 
#
# Total GULP energy -78069.410014 kJ/mol
# GULP energy per Si atom -5576.386430 kJ/mol
# Density = 2.070121 g / cm^3
# Si number density = 20.748437 Si / 1000 Ang^3
#
#
#
# Elastic Constant Matrix: (Units=GPa)
#
#
# Indices 1 2 3 4 5 6 
#
# 1 98.3325 33.1497 8.0598 0.0000 -16.1403 0.0000
# 2 33.1497 113.5850 17.1590 0.0000 -14.7246 0.0000
# 3 8.0598 17.1590 31.9225 0.0000 -13.3505 0.0000
# 4 0.0000 0.0000 0.0000 9.1652 0.0000 -3.3131
# 5 -16.1403 -14.7246 -13.3505 0.0000 26.6188 0.0000
# 6 0.0000 0.0000 0.0000 -3.3131 0.0000 40.4878
#
#
#
# Elastic Compliance Matrix: (Units=1/GPa)
#
#
# Indices 1 2 3 4 5 6 
#
# 1 0.012082 -0.002880 0.001133 0.000000 0.006301 0.000000
# 2 -0.002880 0.010524 -0.004082 0.000000 0.002028 0.000000
# 3 0.001133 -0.004082 0.041224 0.000000 0.019105 0.000000
# 4 0.000000 0.000000 0.000000 0.112434 0.000000 0.009200
# 5 0.006301 0.002028 0.019105 0.000000 0.052091 0.000000
# 6 0.000000 0.000000 0.000000 0.009200 0.000000 0.025452
#
#
# Mechanical properties :
#
#
# Convention : Reuss Voigt Hill
#
# Bulk Modulus (GPa) = 19.16758 40.06411 29.61584
# Shear Modulus (GPa) = 17.67685 27.61912 22.64799
#
# Velocity S-wave (km/s) = 2.92200 3.65244 3.30745
# Velocity P-wave (km/s) = 4.54338 6.09413 5.37498
#
# Compressibility (1/GPa) = 0.05217142
#
# Stress axis : x y z
#
# Youngs Moduli (GPa) = 82.76781 95.01971 24.25797
#
# Poissons Ratio (x) = 0.27370 -0.02748
# Poissons Ratio (y) = 0.23841 0.09901
# Poissons Ratio (z) = -0.09377 0.38783
#
# Static dielectric constant tensor:
#      x y z
#    x 1.823280 0.000000 0.007610 
#    y 0.000000 1.776050 0.000000 
#    z 0.007610 0.000000 1.700630 
# 
# From -- ./inp_files/46054.got.cif
#   From: 2010.05.17/outbox.cif.g08.bks.cpg/sg5_24_cif.got.tgz:46054.got - 2010.06.03 18:56:24.
