data_PCOD9122114
_publ_section_title
;
Structure prediction by ZEFSAII (Michael W. Deem and Ramdas Pophale) SiO2 
 PCOD9122114
Probable space group: C 2
;
_chemical_formula_sum "Si O2"
_cell_formula_units_Z 28
_cell_length_a 12.026433
_cell_length_b 13.652790
_cell_length_c 8.163215
_cell_angle_alpha 90.000000
_cell_angle_beta 113.057361
_cell_angle_gamma 90.000000
_cell_volume 1233.277335
_symmetry_space_group_name_H-M "C 2"
_symmetry_group_IT_number 5
_symmetry_cell_setting 'monoclinic'
loop_
_space_group_symop_operation_xyz
x,y,z
-x,y,-z
1/2+x,1/2+y,z
1/2-x,1/2+y,-z
loop_
_atom_site_type_symbol
_atom_site_label
_atom_site_fract_x
_atom_site_fract_y
_atom_site_fract_z
Si Si1 0.352669 0.306450 0.133185
Si Si2 0.435171 0.042274 0.631837
Si Si3 0.619805 0.618038 0.178896
Si Si4 0.831351 0.607501 0.035183
Si Si5 0.561752 0.427621 0.355620
Si Si6 0.692779 0.237369 0.548172
Si Si7 0.134335 0.426697 0.140851
O O1 0.341546 0.221421 0.994981
O O2 0.456164 0.385289 0.177185
O O3 0.380172 0.249777 0.320944
O O4 0.226169 0.355739 0.103128
O O5 0.500000 0.019295 0.500000
O O6 0.541691 0.072447 0.817418
O O7 0.352996 0.137882 0.560889
O O8 0.373346 0.945316 0.670034
O O9 0.726063 0.596585 0.108600
O O10 0.606757 0.526094 0.294459
O O11 0.670516 0.710633 0.314015
O O12 0.500000 0.635409 0.000000
O O13 0.812606 0.533345 0.878538
O O14 0.500000 0.446692 0.500000
O O15 0.655923 0.337091 0.433989
O O16 0.000000 0.405403 0.000000
#
# Coordination Sequence:
#
# PCOD9122114 Si02
#       7
#     4   4   4   4   4   4   4
#     4  10  19  38  65  87 132 167 216 256 324 381
#     4  11  18  39  66  92 117 166 215 267 310 384
#     4  11  23  39  64  97 132 170 211 274 336 384
#     4  10  21  42  63  87 132 172 209 264 326 387
#     4  10  21  39  66  97 123 170 226 270 316 393
#     4  10  21  38  65  90 124 170 208 263 325 379
#     4  10  24  38  62  99 127 168 212 268 331 389
#
# _framework density 22.703735000000002
#
# number of rings (size 3 to 8) (size 9 to 14) (size 15 to 20)
#    0.000    1.714    4.286    1.286    4.000    2.286 
#    5.143    0.000    0.000   10.286    0.000    0.000 
#    0.000    0.000    0.000    0.000    0.000    0.000 
#
# Total GULP energy -78104.829467 kJ/mol
# GULP energy per Si atom -5578.916391 kJ/mol
# Density = 2.265206 g / cm^3
# Si number density = 22.703735 Si / 1000 Ang^3
#
#
#
# Elastic Constant Matrix: (Units=GPa)
#
#
# Indices 1 2 3 4 5 6 
#
# 1 87.5900 42.8728 31.7681 0.0000 24.1768 0.0000
# 2 42.8728 83.4996 20.3952 0.0000 13.9038 0.0000
# 3 31.7681 20.3952 60.2968 0.0000 17.3927 0.0000
# 4 0.0000 0.0000 0.0000 31.2742 0.0000 2.3073
# 5 24.1768 13.9038 17.3927 0.0000 37.8994 0.0000
# 6 0.0000 0.0000 0.0000 2.3073 0.0000 45.3624
#
#
#
# Elastic Compliance Matrix: (Units=1/GPa)
#
#
# Indices 1 2 3 4 5 6 
#
# 1 0.018817 -0.007176 -0.005514 0.000000 -0.006841 0.000000
# 2 -0.007176 0.016133 -0.001486 0.000000 -0.000659 0.000000
# 3 -0.005514 -0.001486 0.021692 0.000000 -0.005892 0.000000
# 4 0.000000 0.000000 0.000000 0.032096 0.000000 -0.001633
# 5 -0.006841 -0.000659 -0.005892 0.000000 0.033696 0.000000
# 6 0.000000 0.000000 0.000000 -0.001633 0.000000 0.022128
#
#
# Mechanical properties :
#
#
# Convention : Reuss Voigt Hill
#
# Bulk Modulus (GPa) = 35.34684 46.82874 41.08779
# Shear Modulus (GPa) = 27.42085 31.99722 29.70903
#
# Velocity S-wave (km/s) = 3.47907 3.75819 3.62132
# Velocity P-wave (km/s) = 5.63392 6.28512 5.96841
#
# Compressibility (1/GPa) = 0.02829107
#
# Stress axis : x y z
#
# Youngs Moduli (GPa) = 53.14292 61.98369 46.10020
#
# Poissons Ratio (x) = 0.44478 0.25418
# Poissons Ratio (y) = 0.38134 0.06852
# Poissons Ratio (z) = 0.29301 0.09212
#
# Static dielectric constant tensor:
#      x y z
#    x 1.866640 0.000000 0.017100 
#    y 0.000000 1.924600 0.000000 
#    z 0.017100 0.000000 1.936440 
# 
# From -- ./inp_files/20732.got.cif
#   From: 2010.05.17/outbox.cif.g08.bks.cpg/sg5_11_cif.got.tgz:20732.got - 2010.06.03 18:56:24.
