data_PCOD9122870
_publ_section_title
;
Structure prediction by ZEFSAII (Michael W. Deem and Ramdas Pophale) SiO2 
 PCOD9122870
Probable space group: C 2
;
_chemical_formula_sum "Si O2"
_cell_formula_units_Z 30
_cell_length_a 16.749813
_cell_length_b 16.374095
_cell_length_c 11.282990
_cell_angle_alpha 90.000000
_cell_angle_beta 150.671421
_cell_angle_gamma 90.000000
_cell_volume 1515.743310
_symmetry_space_group_name_H-M "C 2"
_symmetry_group_IT_number 5
_symmetry_cell_setting 'monoclinic'
loop_
_space_group_symop_operation_xyz
x,y,z
-x,y,-z
1/2+x,1/2+y,z
1/2-x,1/2+y,-z
loop_
_atom_site_type_symbol
_atom_site_label
_atom_site_fract_x
_atom_site_fract_y
_atom_site_fract_z
Si Si1 0.669863 0.326910 0.650656
Si Si2 0.828612 0.344231 0.240778
Si Si3 0.233576 0.898785 0.363766
Si Si4 0.920852 0.426233 0.111840
Si Si5 0.528054 0.273288 0.220684
Si Si6 0.029195 0.606569 0.741623
Si Si7 0.754465 0.641188 0.194122
Si Si8 0.000000 0.038854 0.000000
O O1 0.500000 0.340227 0.500000
O O2 0.612960 0.316950 0.442896
O O3 0.742702 0.238598 0.782428
O O4 0.802921 0.394233 0.856678
O O5 0.797923 0.404818 0.311562
O O6 0.850470 0.388433 0.143730
O O7 0.000000 0.301995 0.500000
O O8 0.663526 0.293333 0.023788
O O9 0.392193 0.896641 0.651218
O O10 0.130381 0.816015 0.249044
O O11 0.117621 0.977046 0.224905
O O12 0.934955 0.522807 0.146550
O O13 0.531110 0.176811 0.246959
O O14 0.186079 0.628254 0.863361
O O15 0.887838 0.604068 0.458635
O O16 0.591673 0.596428 0.024670
#
# Coordination Sequence:
#
# PCOD9122870 Si02
#       8
#     4   4   4   4   4   4   4   2
#     4  11  21  40  63  91 125 173 214 251 319 394
#     4  10  20  36  65  92 116 158 214 268 308 373
#     4  11  23  36  61  96 124 157 208 270 327 368
#     4  11  22  38  63  95 124 160 216 264 316 379
#     4  11  21  40  62  86 131 173 207 256 325 388
#     4  10  20  36  61  86 123 171 211 265 309 376
#     4  10  20  36  61  93 123 160 219 272 318 357
#     4  12  20  34  62  98 122 150 210 286 322 350
#
# _framework density 19.792269000000001
#
# number of rings (size 3 to 8) (size 9 to 14) (size 15 to 20)
#    0.000    1.333    6.667    0.800    3.733    2.667 
#    0.000    0.667    5.867    0.000    0.000    0.000 
#    0.000    0.000    0.000    0.000    0.000    0.000 
#
# Total GULP energy -83642.457617 kJ/mol
# GULP energy per Si atom -5576.163841 kJ/mol
# Density = 1.974722 g / cm^3
# Si number density = 19.792269 Si / 1000 Ang^3
#
#
#
# Elastic Constant Matrix: (Units=GPa)
#
#
# Indices 1 2 3 4 5 6 
#
# 1 60.7617 19.1775 15.6724 0.0000 16.8300 0.0000
# 2 19.1775 85.8375 45.0592 0.0000 5.4746 0.0000
# 3 15.6724 45.0592 101.4789 0.0000 7.8787 0.0000
# 4 0.0000 0.0000 0.0000 29.2578 0.0000 1.4054
# 5 16.8300 5.4746 7.8787 0.0000 29.7063 0.0000
# 6 0.0000 0.0000 0.0000 1.4054 0.0000 18.8402
#
#
#
# Elastic Compliance Matrix: (Units=1/GPa)
#
#
# Indices 1 2 3 4 5 6 
#
# 1 0.020804 -0.003533 -0.000796 0.000000 -0.010924 0.000000
# 2 -0.003533 0.015822 -0.006543 0.000000 0.000821 0.000000
# 3 -0.000796 -0.006543 0.013022 0.000000 -0.001797 0.000000
# 4 0.000000 0.000000 0.000000 0.034302 0.000000 -0.002559
# 5 -0.010924 0.000821 -0.001797 0.000000 0.040177 0.000000
# 6 0.000000 0.000000 0.000000 -0.002559 0.000000 0.053269
#
#
# Mechanical properties :
#
#
# Convention : Reuss Voigt Hill
#
# Bulk Modulus (GPa) = 35.83899 45.32183 40.58041
# Shear Modulus (GPa) = 23.98749 26.77214 25.37981
#
# Velocity S-wave (km/s) = 3.48510 3.68184 3.58482
# Velocity P-wave (km/s) = 5.86016 6.40492 6.13859
#
# Compressibility (1/GPa) = 0.02790257
#
# Stress axis : x y z
#
# Youngs Moduli (GPa) = 48.06756 63.20396 76.79247
#
# Poissons Ratio (x) = 0.22333 0.06112
# Poissons Ratio (y) = 0.16984 0.50248
# Poissons Ratio (z) = 0.03826 0.41357
#
# Static dielectric constant tensor:
#      x y z
#    x 1.746110 0.000000 0.005150 
#    y 0.000000 1.691590 0.000000 
#    z 0.005150 0.000000 1.748200 
# 
# From -- ./inp_files/20607.got.cif
#   From: 2010.05.17/outbox.cif.g08.bks.cpg/sg5_11_cif.got.tgz:20607.got - 2010.06.03 18:56:24.
