data_PCOD9122762
_publ_section_title
;
Structure prediction by ZEFSAII (Michael W. Deem and Ramdas Pophale) SiO2 
 PCOD9122762
Probable space group: C 2
;
_chemical_formula_sum "Si O2"
_cell_formula_units_Z 30
_cell_length_a 18.394224
_cell_length_b 5.742599
_cell_length_c 14.099381
_cell_angle_alpha 90.000000
_cell_angle_beta 69.730779
_cell_angle_gamma 90.000000
_cell_volume 1397.100505
_symmetry_space_group_name_H-M "C 2"
_symmetry_group_IT_number 5
_symmetry_cell_setting 'monoclinic'
loop_
_space_group_symop_operation_xyz
x,y,z
-x,y,-z
1/2+x,1/2+y,z
1/2-x,1/2+y,-z
loop_
_atom_site_type_symbol
_atom_site_label
_atom_site_fract_x
_atom_site_fract_y
_atom_site_fract_z
Si Si1 0.644474 0.861170 0.221788
Si Si2 0.613237 0.406059 0.735500
Si Si3 0.500000 0.452736 0.500000
Si Si4 0.713398 0.711798 0.795552
Si Si5 0.289779 0.897692 0.000747
Si Si6 0.372055 0.729525 0.454914
Si Si7 0.987196 0.611160 0.334504
Si Si8 0.265251 0.607826 0.663609
O O1 0.558488 0.938536 0.287641
O O2 0.674376 0.657266 0.277623
O O3 0.713831 0.046914 0.210905
O O4 0.645917 0.835546 0.107463
O O5 0.631826 0.585277 0.810960
O O6 0.625231 0.555844 0.634627
O O7 0.683913 0.231056 0.718372
O O8 0.536663 0.257402 0.748191
O O9 0.430050 0.618182 0.505283
O O10 0.513375 0.287928 0.404256
O O11 0.697646 0.875394 0.892689
O O12 0.743609 0.838521 0.686138
O O13 0.233902 0.669778 0.005345
O O14 0.410237 0.972836 0.405141
O O15 0.293782 0.711596 0.550687
#
# Coordination Sequence:
#
# PCOD9122762 Si02
#       8
#     4   4   2   4   4   4   4   4
#     4  10  21  37  65  97 122 163 213 280 340 395
#     4  10  25  37  58  88 129 174 210 264 324 398
#     4  10  20  36  56  86 122 166 208 264 310 382
#     4  10  21  40  64  95 127 162 225 275 334 393
#     4  10  20  40  68 107 127 162 218 293 342 396
#     4  11  23  36  59  86 124 167 215 258 319 386
#     4  11  22  40  57  91 134 171 215 266 335 403
#     4  11  21  37  61  88 121 169 216 272 321 389
#
# _framework density 21.473044999999999
#
# number of rings (size 3 to 8) (size 9 to 14) (size 15 to 20)
#    0.000    1.600    1.333    3.600    3.733    3.200 
#    0.000    0.000    0.000    4.800    0.000    0.000 
#    0.000    0.000    0.000    0.000    0.000    0.000 
#
# Total GULP energy -83523.307375 kJ/mol
# GULP energy per Si atom -5568.220492 kJ/mol
# Density = 2.142417 g / cm^3
# Si number density = 21.473045 Si / 1000 Ang^3
#
#
#
# Elastic Constant Matrix: (Units=GPa)
#
#
# Indices 1 2 3 4 5 6 
#
# 1 76.0808 13.8065 5.6533 0.0000 17.1901 0.0000
# 2 13.8065 49.4618 -1.6451 0.0000 8.6791 0.0000
# 3 5.6533 -1.6451 50.7372 0.0000 5.2348 0.0000
# 4 0.0000 0.0000 0.0000 27.2737 0.0000 11.8184
# 5 17.1901 8.6791 5.2348 0.0000 14.9870 0.0000
# 6 0.0000 0.0000 0.0000 11.8184 0.0000 37.0269
#
#
#
# Elastic Compliance Matrix: (Units=1/GPa)
#
#
# Indices 1 2 3 4 5 6 
#
# 1 0.017848 -0.001549 -0.000020 0.000000 -0.019567 0.000000
# 2 -0.001549 0.022868 0.002175 0.000000 -0.012226 0.000000
# 3 -0.000020 0.002175 0.020654 0.000000 -0.008451 0.000000
# 4 0.000000 0.000000 0.000000 0.042551 0.000000 -0.013581
# 5 -0.019567 -0.012226 -0.008451 0.000000 0.099200 0.000000
# 6 0.000000 0.000000 0.000000 -0.013581 0.000000 0.031342
#
#
# Mechanical properties :
#
#
# Convention : Reuss Voigt Hill
#
# Bulk Modulus (GPa) = 15.97899 23.54545 19.76222
# Shear Modulus (GPa) = 19.67647 26.42186 23.04917
#
# Velocity S-wave (km/s) = 3.03038 3.51161 3.27983
# Velocity P-wave (km/s) = 4.43868 5.23744 4.85452
#
# Compressibility (1/GPa) = 0.06258219
#
# Stress axis : x y z
#
# Youngs Moduli (GPa) = 56.02985 43.72989 48.41646
#
# Poissons Ratio (x) = 0.06774 0.00097
# Poissons Ratio (y) = 0.08680 -0.10533
# Poissons Ratio (z) = 0.00112 -0.09513
#
# Static dielectric constant tensor:
#      x y z
#    x 1.835180 0.000000 -0.049230 
#    y 0.000000 1.876750 0.000000 
#    z -0.049230 0.000000 1.884680 
# 
# From -- ./inp_files/55351.got.cif
#   From: 2010.05.17/outbox.cif.g08.bks.cpg/sg5_28_cif.got.tgz:55351.got - 2010.06.03 18:56:24.
