data_PCOD9122874
_publ_section_title
;
Structure prediction by ZEFSAII (Michael W. Deem and Ramdas Pophale) SiO2 
 PCOD9122874
Probable space group: C 2
;
_chemical_formula_sum "Si O2"
_cell_formula_units_Z 26
_cell_length_a 7.146536
_cell_length_b 12.589689
_cell_length_c 13.614252
_cell_angle_alpha 90.000000
_cell_angle_beta 96.094071
_cell_angle_gamma 90.000000
_cell_volume 1217.988494
_symmetry_space_group_name_H-M "C 2"
_symmetry_group_IT_number 5
_symmetry_cell_setting 'monoclinic'
loop_
_space_group_symop_operation_xyz
x,y,z
-x,y,-z
1/2+x,1/2+y,z
1/2-x,1/2+y,-z
loop_
_atom_site_type_symbol
_atom_site_label
_atom_site_fract_x
_atom_site_fract_y
_atom_site_fract_z
Si Si1 0.084404 0.466280 0.161937
Si Si2 0.732389 0.416767 0.406071
Si Si3 0.652912 0.730096 0.089034
Si Si4 0.171383 0.405054 0.376678
Si Si5 0.258009 0.066770 0.245296
Si Si6 0.500000 0.134826 0.000000
Si Si7 0.043239 0.720312 0.609551
O O1 0.123743 0.351488 0.118238
O O2 0.192826 0.461596 0.272716
O O3 0.863936 0.484523 0.179077
O O4 0.112936 0.558146 0.082583
O O5 0.731337 0.451792 0.519900
O O6 0.658246 0.505206 0.327496
O O7 0.616535 0.308945 0.385287
O O8 0.949648 0.398977 0.387734
O O9 0.635427 0.649835 0.179108
O O10 0.857410 0.706018 0.054734
O O11 0.500000 0.702581 0.000000
O O12 0.263984 0.288272 0.378420
O O13 0.427530 0.133449 0.306067
O O14 0.000000 0.671882 0.500000
#
# Coordination Sequence:
#
# PCOD9122874 Si02
#       7
#     4   4   4   4   4   2   4
#     4  10  20  41  63  89 129 154 207 270 295 369
#     4   9  20  37  61  92 131 166 205 250 306 370
#     4  11  23  46  66  91 127 162 210 269 310 368
#     4   9  18  37  62  87 131 166 199 259 301 361
#     4  10  22  40  66  95 124 167 211 246 320 376
#     4  10  24  44  64  94 118 164 218 250 328 376
#     4  10  20  36  61  90 125 168 208 247 301 369
#
# _framework density 21.346671000000001
#
# number of rings (size 3 to 8) (size 9 to 14) (size 15 to 20)
#    0.000    2.154    2.308    0.000    4.308    1.231 
#   12.462    3.077   10.154    0.000    0.000    0.000 
#    0.000    0.000    0.000    0.000    0.000    0.000 
#
# Total GULP energy -72522.675351 kJ/mol
# GULP energy per Si atom -5578.667335 kJ/mol
# Density = 2.129809 g / cm^3
# Si number density = 21.346671 Si / 1000 Ang^3
#
#
#
# Elastic Constant Matrix: (Units=GPa)
#
#
# Indices 1 2 3 4 5 6 
#
# 1 51.5755 36.7752 35.7358 0.0000 15.2380 0.0000
# 2 36.7752 115.2913 61.8145 0.0000 2.5319 0.0000
# 3 35.7358 61.8145 132.6547 0.0000 0.7345 0.0000
# 4 0.0000 0.0000 0.0000 17.4550 0.0000 -13.7287
# 5 15.2380 2.5319 0.7345 0.0000 18.6569 0.0000
# 6 0.0000 0.0000 0.0000 -13.7287 0.0000 29.0613
#
#
#
# Elastic Compliance Matrix: (Units=1/GPa)
#
#
# Indices 1 2 3 4 5 6 
#
# 1 0.038590 -0.008215 -0.006401 0.000000 -0.030151 0.000000
# 2 -0.008215 0.013346 -0.004034 0.000000 0.005058 0.000000
# 3 -0.006401 -0.004034 0.011113 0.000000 0.005338 0.000000
# 4 0.000000 0.000000 0.000000 0.091162 0.000000 0.043065
# 5 -0.030151 0.005058 0.005338 0.000000 0.077329 0.000000
# 6 0.000000 0.000000 0.000000 0.043065 0.000000 0.054754
#
#
# Mechanical properties :
#
#
# Convention : Reuss Voigt Hill
#
# Bulk Modulus (GPa) = 38.83630 63.13029 50.98329
# Shear Modulus (GPa) = 15.05222 24.04769 19.54996
#
# Velocity S-wave (km/s) = 2.65831 3.36003 3.02955
# Velocity P-wave (km/s) = 5.25878 6.68514 6.01439
#
# Compressibility (1/GPa) = 0.02574911
#
# Stress axis : x y z
#
# Youngs Moduli (GPa) = 25.91340 74.92948 89.98688
#
# Poissons Ratio (x) = 0.61558 0.57597
# Poissons Ratio (y) = 0.21289 0.36299
# Poissons Ratio (z) = 0.16586 0.30225
#
# Static dielectric constant tensor:
#      x y z
#    x 1.809940 0.000000 -0.032800 
#    y 0.000000 1.768660 0.000000 
#    z -0.032800 0.000000 1.852730 
# 
# From -- ./inp_files/50148.got.cif
#   From: 2010.05.17/outbox.cif.g08.bks.cpg/sg5_26_cif.got.tgz:50148.got - 2010.06.03 18:56:24.
