data_PCOD9122228
_publ_section_title
;
Structure prediction by ZEFSAII (Michael W. Deem and Ramdas Pophale) SiO2 
 PCOD9122228
Probable space group: C 2
;
_chemical_formula_sum "Si O2"
_cell_formula_units_Z 28
_cell_length_a 11.540262
_cell_length_b 15.606596
_cell_length_c 8.347766
_cell_angle_alpha 90.000000
_cell_angle_beta 112.606824
_cell_angle_gamma 90.000000
_cell_volume 1387.947986
_symmetry_space_group_name_H-M "C 2"
_symmetry_group_IT_number 5
_symmetry_cell_setting 'monoclinic'
loop_
_space_group_symop_operation_xyz
x,y,z
-x,y,-z
1/2+x,1/2+y,z
1/2-x,1/2+y,-z
loop_
_atom_site_type_symbol
_atom_site_label
_atom_site_fract_x
_atom_site_fract_y
_atom_site_fract_z
Si Si1 0.271932 0.378270 0.660936
Si Si2 0.500000 0.807672 0.000000
Si Si3 0.138603 0.000565 0.051857
Si Si4 0.439771 0.328869 0.187267
Si Si5 0.412150 0.745747 0.297140
Si Si6 0.500000 0.175924 0.000000
Si Si7 0.753475 0.581183 0.817026
Si Si8 0.233277 0.392288 0.286283
O O1 0.294831 0.471486 0.750102
O O2 0.412633 0.343119 0.707311
O O3 0.193824 0.319024 0.739405
O O4 0.202983 0.377990 0.454945
O O5 0.529041 0.756404 0.849938
O O6 0.380837 0.866124 0.889550
O O7 0.227201 0.056714 0.988177
O O8 0.000000 0.040265 0.000000
O O9 0.107980 0.909904 0.944782
O O10 0.431481 0.240166 0.087610
O O11 0.352237 0.335663 0.294868
O O12 0.500000 0.754915 0.500000
O O13 0.345237 0.654180 0.277799
O O14 0.607584 0.117708 0.133425
O O15 0.734088 0.492148 0.715492
#
# Coordination Sequence:
#
# PCOD9122228 Si02
#       8
#     4   2   4   4   4   2   4   4
#     4  11  20  43  69  95 126 175 229 266 314 406
#     4  12  25  46  67  96 136 184 222 260 335 402
#     4   9  19  37  65  92 124 167 217 260 324 389
#     4  10  19  39  68  91 116 174 223 259 315 391
#     4  12  25  44  68  98 137 172 220 278 334 390
#     4  12  19  40  65  88 130 164 214 272 325 386
#     4  11  24  39  62  99 131 167 212 276 335 376
#     4  11  24  41  68  97 129 175 224 269 321 397
#
# _framework density 20.173666000000001
#
# number of rings (size 3 to 8) (size 9 to 14) (size 15 to 20)
#    0.000    1.143    5.000    3.429    1.000    3.429 
#    0.000    0.000    0.000    0.000    0.000    0.000 
#    0.000    0.000    0.000    0.000    0.000    0.000 
#
# Total GULP energy -78147.539153 kJ/mol
# GULP energy per Si atom -5581.967082 kJ/mol
# Density = 2.012775 g / cm^3
# Si number density = 20.173666 Si / 1000 Ang^3
#
#
#
# Elastic Constant Matrix: (Units=GPa)
#
#
# Indices 1 2 3 4 5 6 
#
# 1 91.7544 35.0432 30.6015 0.0000 -6.3011 0.0000
# 2 35.0432 68.8638 14.3786 0.0000 -3.6859 0.0000
# 3 30.6015 14.3786 100.9513 0.0000 -3.1394 0.0000
# 4 0.0000 0.0000 0.0000 15.6909 0.0000 -6.6707
# 5 -6.3011 -3.6859 -3.1394 0.0000 36.3932 0.0000
# 6 0.0000 0.0000 0.0000 -6.6707 0.0000 18.6709
#
#
#
# Elastic Compliance Matrix: (Units=1/GPa)
#
#
# Indices 1 2 3 4 5 6 
#
# 1 0.014712 -0.006680 -0.003459 0.000000 0.001572 0.000000
# 2 -0.006680 0.018065 -0.000529 0.000000 0.000627 0.000000
# 3 -0.003459 -0.000529 0.011039 0.000000 0.000300 0.000000
# 4 0.000000 0.000000 0.000000 0.075145 0.000000 0.026848
# 5 0.001572 0.000627 0.000300 0.000000 0.027839 0.000000
# 6 0.000000 0.000000 0.000000 0.026848 0.000000 0.063151
#
#
# Mechanical properties :
#
#
# Convention : Reuss Voigt Hill
#
# Bulk Modulus (GPa) = 44.48450 46.84623 45.66537
# Shear Modulus (GPa) = 20.93983 26.25408 23.59695
#
# Velocity S-wave (km/s) = 3.22526 3.61141 3.42378
# Velocity P-wave (km/s) = 5.99737 6.37665 6.18991
#
# Compressibility (1/GPa) = 0.02247974
#
# Stress axis : x y z
#
# Youngs Moduli (GPa) = 67.97379 55.35681 90.58825
#
# Poissons Ratio (x) = 0.36978 0.31336
# Poissons Ratio (y) = 0.45406 0.04788
# Poissons Ratio (z) = 0.23513 0.02926
#
# Static dielectric constant tensor:
#      x y z
#    x 1.742140 0.000000 -0.024370 
#    y 0.000000 1.691480 0.000000 
#    z -0.024370 0.000000 1.749660 
# 
# From -- ./inp_files/20434.got.cif
#   From: 2010.05.17/outbox.cif.g08.bks.cpg/sg5_11_cif.got.tgz:20434.got - 2010.06.03 18:56:24.
