data_PCOD9122524
_publ_section_title
;
Structure prediction by ZEFSAII (Michael W. Deem and Ramdas Pophale) SiO2 
 PCOD9122524
Probable space group: C 2
;
_chemical_formula_sum "Si O2"
_cell_formula_units_Z 26
_cell_length_a 7.409298
_cell_length_b 12.532386
_cell_length_c 14.365595
_cell_angle_alpha 90.000000
_cell_angle_beta 122.297024
_cell_angle_gamma 90.000000
_cell_volume 1127.560783
_symmetry_space_group_name_H-M "C 2"
_symmetry_group_IT_number 5
_symmetry_cell_setting 'monoclinic'
loop_
_space_group_symop_operation_xyz
x,y,z
-x,y,-z
1/2+x,1/2+y,z
1/2-x,1/2+y,-z
loop_
_atom_site_type_symbol
_atom_site_label
_atom_site_fract_x
_atom_site_fract_y
_atom_site_fract_z
Si Si1 0.500000 0.493011 0.000000
Si Si2 0.544933 0.080770 0.877955
Si Si3 0.865282 0.351631 0.579735
Si Si4 0.047624 0.817490 0.871208
Si Si5 0.536315 0.072134 0.361759
Si Si6 0.500000 0.664683 0.500000
Si Si7 0.500000 0.901649 0.000000
Si Si8 0.437906 0.306631 0.347989
O O1 0.295533 0.563102 0.969036
O O2 0.440172 0.414241 0.897572
O O3 0.471086 0.200391 0.880614
O O4 0.518571 0.068905 0.761353
O O5 0.432654 0.984476 0.900661
O O6 0.004870 0.457396 0.605914
O O7 0.992719 0.245568 0.586038
O O8 0.654154 0.348418 0.456250
O O9 0.768381 0.353124 0.657061
O O10 0.296470 0.831520 0.967962
O O11 0.042957 0.821912 0.757437
O O12 0.788665 0.095083 0.441533
O O13 0.426702 0.179524 0.368230
#
# Coordination Sequence:
#
# PCOD9122524 Si02
#       8
#     2   4   4   4   4   2   2   4
#     4  10  22  38  60  82 108 146 188 228 278 326
#     4  10  21  37  56  83 109 143 187 227 276 330
#     4  10  20  37  56  80 114 146 182 227 270 325
#     4  10  20  38  57  80 113 144 182 234 273 323
#     4  10  21  37  57  81 113 146 183 227 271 326
#     4  10  22  36  56  84 110 146 188 220 270 330
#     4  10  20  34  56  80 108 144 182 230 284 322
#     4   9  20  37  56  80 112 148 185 223 274 327
#
# _framework density 23.058623999999998
#
# number of rings (size 3 to 8) (size 9 to 14) (size 15 to 20)
#    0.000    2.154    0.000    2.769    0.000    6.154 
#    0.000   15.385    0.000    0.000    0.000    0.000 
#    0.000    0.000    0.000    0.000    0.000    0.000 
#
# Total GULP energy -72629.553995 kJ/mol
# GULP energy per Si atom -5586.888769 kJ/mol
# Density = 2.300614 g / cm^3
# Si number density = 23.058624 Si / 1000 Ang^3
#
#
#
# Elastic Constant Matrix: (Units=GPa)
#
#
# Indices 1 2 3 4 5 6 
#
# 1 40.7368 -6.5156 -7.5985 0.0000 -9.5580 0.0000
# 2 -6.5156 102.5753 27.8958 0.0000 -1.9187 0.0000
# 3 -7.5985 27.8958 76.7376 0.0000 -28.4854 0.0000
# 4 0.0000 0.0000 0.0000 305.0391 0.0000 73.2006
# 5 -9.5580 -1.9187 -28.4854 0.0000 34.2403 0.0000
# 6 0.0000 0.0000 0.0000 73.2006 0.0000 37.8094
#
#
#
# Elastic Compliance Matrix: (Units=1/GPa)
#
#
# Indices 1 2 3 4 5 6 
#
# 1 0.029846 -0.000220 0.008859 0.000000 0.015689 0.000000
# 2 -0.000220 0.011184 -0.005610 0.000000 -0.004102 0.000000
# 3 0.008859 -0.005610 0.024233 0.000000 0.022319 0.000000
# 4 0.000000 0.000000 0.000000 0.006123 0.000000 -0.011854
# 5 0.015689 -0.004102 0.022319 0.000000 0.051923 0.000000
# 6 0.000000 0.000000 0.000000 -0.011854 0.000000 0.049399
#
#
# Mechanical properties :
#
#
# Convention : Reuss Voigt Hill
#
# Bulk Modulus (GPa) = 14.02098 27.51256 20.76677
# Shear Modulus (GPa) = 26.25739 89.16896 57.71317
#
# Velocity S-wave (km/s) = 3.37816 6.22531 5.00832
# Velocity P-wave (km/s) = 4.61625 7.97685 6.51690
#
# Compressibility (1/GPa) = 0.07132170
#
# Stress axis : x y z
#
# Youngs Moduli (GPa) = 33.50494 89.41426 41.26645
#
# Poissons Ratio (x) = 0.01967 -0.36559
# Poissons Ratio (y) = 0.00737 0.23150
# Poissons Ratio (z) = -0.29683 0.50161
#
# Static dielectric constant tensor:
#      x y z
#    x 1.709130 0.000000 -0.048430 
#    y 0.000000 1.852510 0.000000 
#    z -0.048430 0.000000 1.862210 
# 
# From -- ./inp_files/35464.got.cif
#   From: 2010.05.17/outbox.cif.g08.bks.cpg/sg5_18_cif.got.tgz:35464.got - 2010.06.03 18:56:24.
