data_PCOD9122446
_publ_section_title
;
Structure prediction by ZEFSAII (Michael W. Deem and Ramdas Pophale) SiO2 
 PCOD9122446
Probable space group: C 2
;
_chemical_formula_sum "Si O2"
_cell_formula_units_Z 28
_cell_length_a 17.278226
_cell_length_b 8.840729
_cell_length_c 16.675431
_cell_angle_alpha 90.000000
_cell_angle_beta 147.025889
_cell_angle_gamma 90.000000
_cell_volume 1386.343132
_symmetry_space_group_name_H-M "C 2"
_symmetry_group_IT_number 5
_symmetry_cell_setting 'monoclinic'
loop_
_space_group_symop_operation_xyz
x,y,z
-x,y,-z
1/2+x,1/2+y,z
1/2-x,1/2+y,-z
loop_
_atom_site_type_symbol
_atom_site_label
_atom_site_fract_x
_atom_site_fract_y
_atom_site_fract_z
Si Si1 0.332731 0.827880 0.680318
Si Si2 0.381967 0.898183 0.499621
Si Si3 0.655223 0.509484 0.403221
Si Si4 0.000000 0.643340 0.500000
Si Si5 0.612308 0.879347 0.833416
Si Si6 0.500000 0.634490 0.500000
Si Si7 0.181221 0.035153 0.877784
Si Si8 0.700473 0.378294 0.736240
O O1 0.308548 0.672868 0.606483
O O2 0.497931 0.857615 0.805707
O O3 0.297889 0.827301 0.745125
O O4 0.234475 0.958694 0.554015
O O5 0.506853 0.936094 0.671697
O O6 0.429936 0.741689 0.504600
O O7 0.228184 0.893785 0.404730
O O8 0.386323 0.029969 0.438386
O O9 0.486784 0.496449 0.264646
O O10 0.077026 0.750862 0.630764
O O11 0.679867 0.717334 0.867363
O O12 0.734766 0.991156 0.968708
O O13 0.620840 0.530010 0.640105
O O14 0.249156 0.930723 0.866364
#
# Coordination Sequence:
#
# PCOD9122446 Si02
#       8
#     4   4   4   2   4   2   4   4
#     4  10  22  38  63  93 126 156 212 255 312 360
#     4  10  20  39  62  93 121 157 208 259 313 361
#     4  10  21  38  62  95 123 159 206 261 302 368
#     4  10  20  32  64  94 120 158 200 256 316 370
#     4  10  24  42  60  88 122 170 205 254 302 378
#     4  10  20  36  62  90 130 154 200 268 314 364
#     4  11  24  41  62  86 129 167 210 247 315 369
#     4  11  21  37  60  95 122 165 200 259 312 371
#
# _framework density 20.197019999999998
#
# number of rings (size 3 to 8) (size 9 to 14) (size 15 to 20)
#    0.000    1.714    2.857    1.714    6.000    1.714 
#    0.000    0.000    0.000    3.429    0.000    0.000 
#    0.000    0.000    0.000    0.000    0.000    0.000 
#
# Total GULP energy -77986.043196 kJ/mol
# GULP energy per Si atom -5570.431657 kJ/mol
# Density = 2.015105 g / cm^3
# Si number density = 20.197020 Si / 1000 Ang^3
#
#
#
# Elastic Constant Matrix: (Units=GPa)
#
#
# Indices 1 2 3 4 5 6 
#
# 1 72.4632 25.2270 -4.5385 0.0000 8.1808 0.0000
# 2 25.2270 75.1210 23.2022 0.0000 1.6926 0.0000
# 3 -4.5385 23.2022 64.1861 0.0000 -6.8832 0.0000
# 4 0.0000 0.0000 0.0000 21.9668 0.0000 -1.6724
# 5 8.1808 1.6926 -6.8832 0.0000 15.5550 0.0000
# 6 0.0000 0.0000 0.0000 -1.6724 0.0000 28.3349
#
#
#
# Elastic Compliance Matrix: (Units=1/GPa)
#
#
# Indices 1 2 3 4 5 6 
#
# 1 0.016994 -0.006402 0.002763 0.000000 -0.007018 0.000000
# 2 -0.006402 0.017667 -0.007017 0.000000 -0.001660 0.000000
# 3 0.002763 -0.007017 0.019146 0.000000 0.007783 0.000000
# 4 0.000000 0.000000 0.000000 0.045729 0.000000 0.002699
# 5 -0.007018 -0.001660 0.007783 0.000000 0.071603 0.000000
# 6 0.000000 0.000000 0.000000 0.002699 0.000000 0.035451
#
#
# Mechanical properties :
#
#
# Convention : Reuss Voigt Hill
#
# Bulk Modulus (GPa) = 30.77368 33.28350 32.02859
# Shear Modulus (GPa) = 20.94376 24.36331 22.65354
#
# Velocity S-wave (km/s) = 3.22370 3.47693 3.35270
# Velocity P-wave (km/s) = 5.39686 5.71261 5.55698
#
# Compressibility (1/GPa) = 0.03249531
#
# Stress axis : x y z
#
# Youngs Moduli (GPa) = 58.84285 56.60404 52.22973
#
# Poissons Ratio (x) = 0.36240 -0.14433
# Poissons Ratio (y) = 0.37674 0.36649
# Poissons Ratio (z) = -0.16261 0.39719
#
# Static dielectric constant tensor:
#      x y z
#    x 1.833790 0.000000 -0.024690 
#    y 0.000000 1.735770 0.000000 
#    z -0.024690 0.000000 1.687810 
# 
# From -- ./inp_files/62261.got.cif
#   From: 2010.05.17/outbox.cif.g08.bks.cpg/sg5_32_cif.got.tgz:62261.got - 2010.06.03 18:56:24.
