data_PCOD9122093
_publ_section_title
;
Structure prediction by ZEFSAII (Michael W. Deem and Ramdas Pophale) SiO2 
 PCOD9122093
Probable space group: C 2
;
_chemical_formula_sum "Si O2"
_cell_formula_units_Z 24
_cell_length_a 13.956745
_cell_length_b 7.777301
_cell_length_c 13.474929
_cell_angle_alpha 90.000000
_cell_angle_beta 137.865724
_cell_angle_gamma 90.000000
_cell_volume 981.246562
_symmetry_space_group_name_H-M "C 2"
_symmetry_group_IT_number 5
_symmetry_cell_setting 'monoclinic'
loop_
_space_group_symop_operation_xyz
x,y,z
-x,y,-z
1/2+x,1/2+y,z
1/2-x,1/2+y,-z
loop_
_atom_site_type_symbol
_atom_site_label
_atom_site_fract_x
_atom_site_fract_y
_atom_site_fract_z
Si Si1 0.865454 0.662720 0.650668
Si Si2 0.846173 0.250598 0.926342
Si Si3 0.341779 0.427648 0.373266
Si Si4 0.163768 0.445475 0.540923
Si Si5 0.317731 0.110213 0.024471
Si Si6 0.123068 0.281905 0.716804
O O1 0.760408 0.522790 0.623719
O O2 0.849451 0.627195 0.521516
O O3 0.810807 0.852340 0.630231
O O4 0.024936 0.653103 0.814593
O O5 0.839996 0.432169 0.982366
O O6 0.750418 0.291824 0.758055
O O7 0.782492 0.114487 0.954966
O O8 0.000000 0.208629 0.000000
O O9 0.500000 0.351585 0.500000
O O10 0.379343 0.595331 0.334622
O O11 0.151453 0.415862 0.648943
O O12 0.039586 0.337123 0.385191
O O13 0.240403 0.246994 0.891281
#
# Coordination Sequence:
#
# PCOD9122093 Si02
#       6
#     4   4   4   4   4   4
#     4  11  22  39  66  99 135 181 233 287 355 424
#     4  11  24  45  72 100 144 184 233 297 355 428
#     4  10  19  38  63  92 129 184 226 271 351 424
#     4  10  21  38  64  96 133 175 227 289 346 419
#     4  11  24  42  73 101 139 190 237 290 365 428
#     4   9  19  39  64  87 130 181 220 275 347 421
#
# _framework density 24.458683000000001
#
# number of rings (size 3 to 8) (size 9 to 14) (size 15 to 20)
#    0.000    1.667    5.000    1.000    2.333    0.000 
#    0.000    5.833   11.000    0.000    0.000    0.000 
#    0.000    0.000    0.000    0.000    0.000    0.000 
#
# Total GULP energy -66985.689484 kJ/mol
# GULP energy per Si atom -5582.140790 kJ/mol
# Density = 2.440301 g / cm^3
# Si number density = 24.458683 Si / 1000 Ang^3
#
#
#
# Elastic Constant Matrix: (Units=GPa)
#
#
# Indices 1 2 3 4 5 6 
#
# 1 119.9329 19.0295 70.9935 0.0000 29.4367 0.0000
# 2 19.0295 45.2840 2.8847 0.0000 5.4057 0.0000
# 3 70.9935 2.8847 155.0185 0.0000 8.4195 0.0000
# 4 0.0000 0.0000 0.0000 -7.7027 0.0000 -22.8805
# 5 29.4367 5.4057 8.4195 0.0000 41.1726 0.0000
# 6 0.0000 0.0000 0.0000 -22.8805 0.0000 36.3475
#
#
#
# Elastic Compliance Matrix: (Units=1/GPa)
#
#
# Indices 1 2 3 4 5 6 
#
# 1 0.014995 -0.004850 -0.006299 0.000000 -0.008796 0.000000
# 2 -0.004850 0.024014 0.001777 0.000000 -0.000049 0.000000
# 3 -0.006299 0.001777 0.009173 0.000000 0.002395 0.000000
# 4 0.000000 0.000000 0.000000 -0.045237 0.000000 -0.028476
# 5 -0.008796 -0.000049 0.002395 0.000000 0.030094 0.000000
# 6 0.000000 0.000000 0.000000 -0.028476 0.000000 0.009587
#
#
# Mechanical properties :
#
#
# Convention : Reuss Voigt Hill
#
# Bulk Modulus (GPa) = 33.97145 56.22786 45.09966
# Shear Modulus (GPa) = 70.24271 29.11868 49.68069
#
# Velocity S-wave (km/s) = 5.36482 3.45414 4.51178
# Velocity P-wave (km/s) = 7.23149 6.24075 6.75431
#
# Compressibility (1/GPa) = 0.02943648
#
# Stress axis : x y z
#
# Youngs Moduli (GPa) = 66.68714 41.64308 109.01986
#
# Poissons Ratio (x) = 0.20197 0.68676
# Poissons Ratio (y) = 0.32344 -0.19373
# Poissons Ratio (z) = 0.42009 -0.07400
#
# Static dielectric constant tensor:
#      x y z
#    x 2.036960 0.000000 -0.010490 
#    y 0.000000 1.977110 0.000000 
#    z -0.010490 0.000000 1.975360 
# 
# From -- ./inp_files/54259.got.cif
#   From: 2010.05.17/outbox.cif.g08.bks.cpg/sg5_28_cif.got.tgz:54259.got - 2010.06.03 18:56:24.
