data_PCOD9122076
_publ_section_title
;
Structure prediction by ZEFSAII (Michael W. Deem and Ramdas Pophale) SiO2 
 PCOD9122076
Probable space group: C 2
;
_chemical_formula_sum "Si O2"
_cell_formula_units_Z 28
_cell_length_a 13.996074
_cell_length_b 12.067914
_cell_length_c 8.824056
_cell_angle_alpha 90.000000
_cell_angle_beta 87.518925
_cell_angle_gamma 90.000000
_cell_volume 1489.016062
_symmetry_space_group_name_H-M "C 2"
_symmetry_group_IT_number 5
_symmetry_cell_setting 'monoclinic'
loop_
_space_group_symop_operation_xyz
x,y,z
-x,y,-z
1/2+x,1/2+y,z
1/2-x,1/2+y,-z
loop_
_atom_site_type_symbol
_atom_site_label
_atom_site_fract_x
_atom_site_fract_y
_atom_site_fract_z
Si Si1 0.990953 0.556800 0.320818
Si Si2 0.637896 0.402556 0.241304
Si Si3 0.683246 0.157271 0.176304
Si Si4 0.882181 0.111496 0.256285
Si Si5 0.560946 0.849573 0.850145
Si Si6 0.500000 0.483253 0.500000
Si Si7 0.500000 0.480371 0.000000
Si Si8 0.308858 0.051112 0.147540
O O1 0.078104 0.617874 0.232150
O O2 0.000000 0.567436 0.500000
O O3 0.994659 0.428880 0.264168
O O4 0.887053 0.595695 0.263391
O O5 0.690106 0.285956 0.220135
O O6 0.573040 0.411661 0.394778
O O7 0.565357 0.409469 0.106076
O O8 0.709425 0.508193 0.224812
O O9 0.768365 0.094325 0.258437
O O10 0.699339 0.130538 0.996917
O O11 0.901828 0.241753 0.236488
O O12 0.936086 0.059139 0.394497
O O13 0.930279 0.054066 0.107260
O O14 0.641171 0.935089 0.907064
O O15 0.500000 0.815989 0.000000
#
# Coordination Sequence:
#
# PCOD9122076 Si02
#       8
#     4   4   4   4   4   2   2   4
#     4  10  23  37  61  96 130 156 202 268 327 375
#     4  11  24  43  65  89 136 162 218 257 329 371
#     4  12  22  40  68  94 121 173 213 270 314 380
#     4  11  22  39  66  88 128 167 216 253 329 368
#     4  10  19  38  62  94 123 163 210 271 303 369
#     4  10  28  46  56  94 136 174 206 268 314 408
#     4  10  22  38  62  92 122 170 204 262 302 396
#     4  10  21  41  63  98 121 161 215 273 298 381
#
# _framework density 18.804364
#
# number of rings (size 3 to 8) (size 9 to 14) (size 15 to 20)
#    0.857    0.571    5.000    0.429    6.000    0.000 
#    0.000    0.000    0.000    0.000    0.000    0.000 
#    0.000    0.000    0.000    0.000    0.000    0.000 
#
# Total GULP energy -78011.461590 kJ/mol
# GULP energy per Si atom -5572.247256 kJ/mol
# Density = 1.876156 g / cm^3
# Si number density = 18.804364 Si / 1000 Ang^3
#
#
#
# Elastic Constant Matrix: (Units=GPa)
#
#
# Indices 1 2 3 4 5 6 
#
# 1 104.4319 7.5811 44.3222 0.0000 -5.6428 0.0000
# 2 7.5811 47.8904 26.5457 0.0000 -3.0646 0.0000
# 3 44.3222 26.5457 113.3171 0.0000 1.1984 0.0000
# 4 0.0000 0.0000 0.0000 8.0032 0.0000 -13.1842
# 5 -5.6428 -3.0646 1.1984 0.0000 26.4011 0.0000
# 6 0.0000 0.0000 0.0000 -13.1842 0.0000 25.0705
#
#
#
# Elastic Compliance Matrix: (Units=1/GPa)
#
#
# Indices 1 2 3 4 5 6 
#
# 1 0.011714 0.001016 -0.004850 0.000000 0.002842 0.000000
# 2 0.001016 0.024332 -0.006132 0.000000 0.003320 0.000000
# 3 -0.004850 -0.006132 0.012183 0.000000 -0.002301 0.000000
# 4 0.000000 0.000000 0.000000 0.934711 0.000000 0.491549
# 5 0.002842 0.003320 -0.002301 0.000000 0.038974 0.000000
# 6 0.000000 0.000000 0.000000 0.491549 0.000000 0.298385
#
#
# Mechanical properties :
#
#
# Convention : Reuss Voigt Hill
#
# Bulk Modulus (GPa) = 35.34132 46.94862 41.14497
# Shear Modulus (GPa) = 3.70463 24.37432 14.03948
#
# Velocity S-wave (km/s) = 1.40512 3.60419 2.73538
# Velocity P-wave (km/s) = 4.63330 6.50702 5.64840
#
# Compressibility (1/GPa) = 0.02829549
#
# Stress axis : x y z
#
# Youngs Moduli (GPa) = 85.37041 41.09839 82.08461
#
# Poissons Ratio (x) = -0.04174 0.39808
# Poissons Ratio (y) = -0.08671 0.50337
# Poissons Ratio (z) = 0.41401 0.25203
#
# Static dielectric constant tensor:
#      x y z
#    x 1.680660 0.000000 -0.007490 
#    y 0.000000 1.659450 0.000000 
#    z -0.007490 0.000000 1.621730 
# 
# From -- ./inp_files/23601.got.cif
#   From: 2010.05.17/outbox.cif.g08.bks.cpg/sg5_12_cif.got.tgz:23601.got - 2010.06.03 18:56:24.
