data_PCOD9122591
_publ_section_title
;
Structure prediction by ZEFSAII (Michael W. Deem and Ramdas Pophale) SiO2 
 PCOD9122591
Probable space group: C 2
;
_chemical_formula_sum "Si O2"
_cell_formula_units_Z 30
_cell_length_a 14.286246
_cell_length_b 17.619173
_cell_length_c 6.214787
_cell_angle_alpha 90.000000
_cell_angle_beta 63.990379
_cell_angle_gamma 90.000000
_cell_volume 1405.900235
_symmetry_space_group_name_H-M "C 2"
_symmetry_group_IT_number 5
_symmetry_cell_setting 'monoclinic'
loop_
_space_group_symop_operation_xyz
x,y,z
-x,y,-z
1/2+x,1/2+y,z
1/2-x,1/2+y,-z
loop_
_atom_site_type_symbol
_atom_site_label
_atom_site_fract_x
_atom_site_fract_y
_atom_site_fract_z
Si Si1 0.803954 0.136790 0.264871
Si Si2 0.047920 0.418210 0.202061
Si Si3 0.111154 0.027757 0.486044
Si Si4 0.689629 0.775228 0.006369
Si Si5 0.395876 0.361792 0.680670
Si Si6 0.000000 0.834267 0.000000
Si Si7 0.315491 0.066606 0.002391
Si Si8 0.332486 0.208225 0.227442
O O1 0.874553 0.073178 0.306661
O O2 0.857214 0.206775 0.086700
O O3 0.725882 0.177097 0.508452
O O4 0.728673 0.095215 0.176296
O O5 0.000000 0.425851 0.500000
O O6 0.109178 0.339378 0.148839
O O7 0.120903 0.491167 0.101114
O O8 0.000000 0.415375 0.000000
O O9 0.212585 0.051520 0.248421
O O10 0.000000 0.050697 0.500000
O O11 0.113674 0.936024 0.460098
O O12 0.789100 0.816066 0.791553
O O13 0.741797 0.739322 0.163668
O O14 0.500000 0.318150 0.500000
O O15 0.432542 0.380564 0.890696
O O16 0.913751 0.775591 0.179639
O O17 0.377394 0.135086 0.054885
#
# Coordination Sequence:
#
# PCOD9122591 Si02
#       8
#     4   4   4   4   4   2   4   4
#     4  10  22  42  70  92 139 188 229 301 363 432
#     4  12  30  49  74 109 144 200 255 304 365 433
#     4  10  22  41  64 101 136 176 233 291 365 435
#     4  10  22  46  64  99 140 186 243 299 363 432
#     4  10  20  37  65  99 133 168 226 285 363 433
#     4  10  20  34  60  98 130 174 222 290 362 430
#     4  10  23  44  68 100 136 184 238 304 363 430
#     4   9  21  39  65  98 137 181 239 294 367 430
#
# _framework density 21.338640000000002
#
# number of rings (size 3 to 8) (size 9 to 14) (size 15 to 20)
#    0.000    1.867    1.333    0.800    6.533    2.667 
#    7.200    1.333    0.000    0.000    0.000    0.000 
#    0.000    0.000    0.000    0.000    0.000    0.000 
#
# Total GULP energy -83524.206656 kJ/mol
# GULP energy per Si atom -5568.280444 kJ/mol
# Density = 2.129007 g / cm^3
# Si number density = 21.338640 Si / 1000 Ang^3
#
#
#
# Elastic Constant Matrix: (Units=GPa)
#
#
# Indices 1 2 3 4 5 6 
#
# 1 68.3783 47.7679 40.2689 0.0000 5.0744 0.0000
# 2 47.7679 135.8101 44.2178 0.0000 17.4365 0.0000
# 3 40.2689 44.2178 81.5811 0.0000 7.8433 0.0000
# 4 0.0000 0.0000 0.0000 -4.9474 0.0000 13.4444
# 5 5.0744 17.4365 7.8433 0.0000 23.5045 0.0000
# 6 0.0000 0.0000 0.0000 13.4444 0.0000 25.3456
#
#
#
# Elastic Compliance Matrix: (Units=1/GPa)
#
#
# Indices 1 2 3 4 5 6 
#
# 1 0.023628 -0.005724 -0.008759 0.000000 0.002068 0.000000
# 2 -0.005724 0.010984 -0.002545 0.000000 -0.006063 0.000000
# 3 -0.008759 -0.002545 0.018181 0.000000 -0.002288 0.000000
# 4 0.000000 0.000000 0.000000 -0.082789 0.000000 0.043915
# 5 0.002068 -0.006063 -0.002288 0.000000 0.047360 0.000000
# 6 0.000000 0.000000 0.000000 0.043915 0.000000 0.016160
#
#
# Mechanical properties :
#
#
# Convention : Reuss Voigt Hill
#
# Bulk Modulus (GPa) = 53.37369 61.14207 57.25788
# Shear Modulus (GPa) = 67.72663 19.01487 43.37075
#
# Velocity S-wave (km/s) = 5.63985 2.98837 4.51321
# Velocity P-wave (km/s) = 8.21447 6.37358 7.35187
#
# Compressibility (1/GPa) = 0.01873582
#
# Stress axis : x y z
#
# Youngs Moduli (GPa) = 42.32184 91.04490 55.00357
#
# Poissons Ratio (x) = 0.52118 0.48179
# Poissons Ratio (y) = 0.24227 0.13997
# Poissons Ratio (z) = 0.37071 0.23168
#
# Static dielectric constant tensor:
#      x y z
#    x 1.780940 0.000000 0.005090 
#    y 0.000000 1.786000 0.000000 
#    z 0.005090 0.000000 1.915340 
# 
# From -- ./inp_files/7297.got.cif
#   From: 2010.05.17/outbox.cif.g08.bks.cpg/sg5_4_cif.got.tgz:7297.got - 2010.06.03 18:56:24.
