data_PCOD9122922
_publ_section_title
;
Structure prediction by ZEFSAII (Michael W. Deem and Ramdas Pophale) SiO2 
 PCOD9122922
Probable space group: C 2
;
_chemical_formula_sum "Si O2"
_cell_formula_units_Z 30
_cell_length_a 7.673209
_cell_length_b 12.137209
_cell_length_c 15.890756
_cell_angle_alpha 90.000000
_cell_angle_beta 66.913690
_cell_angle_gamma 90.000000
_cell_volume 1361.407751
_symmetry_space_group_name_H-M "C 2"
_symmetry_group_IT_number 5
_symmetry_cell_setting 'monoclinic'
loop_
_space_group_symop_operation_xyz
x,y,z
-x,y,-z
1/2+x,1/2+y,z
1/2-x,1/2+y,-z
loop_
_atom_site_type_symbol
_atom_site_label
_atom_site_fract_x
_atom_site_fract_y
_atom_site_fract_z
Si Si1 0.533463 0.705670 0.401342
Si Si2 0.500000 0.953987 0.000000
Si Si3 0.001497 0.430494 0.645148
Si Si4 0.145424 0.052611 0.139366
Si Si5 0.331004 0.780707 0.925960
Si Si6 0.018667 0.811039 0.130984
Si Si7 0.703623 0.032144 0.460403
Si Si8 0.885086 0.613544 0.257902
O O1 0.500000 0.755474 0.500000
O O2 0.500561 0.800977 0.339385
O O3 0.384777 0.607323 0.421488
O O4 0.745381 0.662504 0.354625
O O5 0.318923 0.029716 0.042647
O O6 0.523216 0.876620 0.077221
O O7 0.180151 0.460389 0.549727
O O8 0.007263 0.510221 0.723129
O O9 0.823153 0.459606 0.618569
O O10 0.037388 0.936634 0.159425
O O11 0.064418 0.166883 0.118010
O O12 0.243620 0.075662 0.210204
O O13 0.180860 0.805112 0.880882
O O14 0.191082 0.782700 0.034401
O O15 0.011034 0.713652 0.200265
O O16 0.500000 0.097394 0.500000
#
# Coordination Sequence:
#
# PCOD9122922 Si02
#       8
#     4   2   4   4   4   4   4   4
#     4  12  20  39  62  79 110 151 195 240 286 349
#     4  10  20  36  64  84 116 154 200 232 276 344
#     4   9  21  39  57  82 112 146 187 242 296 330
#     4  10  21  39  57  89 118 155 193 233 292 335
#     4   9  19  38  63  86 112 155 200 231 273 347
#     4   9  20  39  58  84 125 154 184 240 290 331
#     4   8  19  40  56  83 104 137 197 239 280 345
#     4  11  23  37  57  88 120 150 192 240 289 347
#
# _framework density 22.036014000000002
#
# number of rings (size 3 to 8) (size 9 to 14) (size 15 to 20)
#    0.800    1.333    2.667    1.600    0.000    6.400 
#    2.400    6.667    0.000    0.000    0.000    0.000 
#    0.000    0.000    0.000    0.000    0.000    0.000 
#
# Total GULP energy -83632.324039 kJ/mol
# GULP energy per Si atom -5575.488269 kJ/mol
# Density = 2.198586 g / cm^3
# Si number density = 22.036014 Si / 1000 Ang^3
#
#
#
# Elastic Constant Matrix: (Units=GPa)
#
#
# Indices 1 2 3 4 5 6 
#
# 1 19.7627 5.9715 -2.3900 0.0000 -2.8715 0.0000
# 2 5.9715 82.4466 20.7786 0.0000 3.0021 0.0000
# 3 -2.3900 20.7786 45.2442 0.0000 6.7404 0.0000
# 4 0.0000 0.0000 0.0000 28.6702 0.0000 10.0274
# 5 -2.8715 3.0021 6.7404 0.0000 23.6691 0.0000
# 6 0.0000 0.0000 0.0000 10.0274 0.0000 24.4753
#
#
#
# Elastic Compliance Matrix: (Units=1/GPa)
#
#
# Indices 1 2 3 4 5 6 
#
# 1 0.053551 -0.005185 0.004328 0.000000 0.005922 0.000000
# 2 -0.005185 0.014219 -0.006727 0.000000 -0.000517 0.000000
# 3 0.004328 -0.006727 0.026332 0.000000 -0.006121 0.000000
# 4 0.000000 0.000000 0.000000 0.040713 0.000000 -0.016680
# 5 0.005922 -0.000517 -0.006121 0.000000 0.044776 0.000000
# 6 0.000000 0.000000 0.000000 -0.016680 0.000000 0.047691
#
#
# Mechanical properties :
#
#
# Convention : Reuss Voigt Hill
#
# Bulk Modulus (GPa) = 12.66889 21.79706 17.23298
# Shear Modulus (GPa) = 18.60383 23.56915 21.08649
#
# Velocity S-wave (km/s) = 2.90874 3.27398 3.09675
# Velocity P-wave (km/s) = 4.12828 4.91986 4.54135
#
# Compressibility (1/GPa) = 0.07893353
#
# Stress axis : x y z
#
# Youngs Moduli (GPa) = 18.67379 70.32960 37.97654
#
# Poissons Ratio (x) = 0.36465 -0.16435
# Poissons Ratio (y) = 0.09682 0.25546
# Poissons Ratio (z) = -0.08081 0.47310
#
# Static dielectric constant tensor:
#      x y z
#    x 1.806100 0.000000 0.007160 
#    y 0.000000 1.814730 0.000000 
#    z 0.007160 0.000000 1.894790 
# 
# From -- ./inp_files/59492.got.cif
#   From: 2010.05.17/outbox.cif.g08.bks.cpg/sg5_30_cif.got.tgz:59492.got - 2010.06.03 18:56:24.
