data_PCOD9122772
_publ_section_title
;
Structure prediction by ZEFSAII (Michael W. Deem and Ramdas Pophale) SiO2 
 PCOD9122772
Probable space group: C 2
;
_chemical_formula_sum "Si O2"
_cell_formula_units_Z 32
_cell_length_a 12.575290
_cell_length_b 8.793349
_cell_length_c 11.586647
_cell_angle_alpha 90.000000
_cell_angle_beta 65.562139
_cell_angle_gamma 90.000000
_cell_volume 1166.453270
_symmetry_space_group_name_H-M "C 2"
_symmetry_group_IT_number 5
_symmetry_cell_setting 'monoclinic'
loop_
_space_group_symop_operation_xyz
x,y,z
-x,y,-z
1/2+x,1/2+y,z
1/2-x,1/2+y,-z
loop_
_atom_site_type_symbol
_atom_site_label
_atom_site_fract_x
_atom_site_fract_y
_atom_site_fract_z
Si Si1 0.164728 0.012010 0.963494
Si Si2 0.379792 0.967153 0.019229
Si Si3 0.765237 0.757802 0.768380
Si Si4 0.475066 0.229460 0.313848
Si Si5 0.445776 0.691512 0.814392
Si Si6 0.582039 0.563816 0.567216
Si Si7 0.760920 0.786106 0.250446
Si Si8 0.826055 0.556038 0.536848
O O1 0.175672 0.133829 0.857612
O O2 0.179683 0.857795 0.890624
O O3 0.062941 0.044590 0.098558
O O4 0.279736 0.041447 0.988647
O O5 0.305867 0.906467 0.162978
O O6 0.500000 0.046084 0.000000
O O7 0.425663 0.830787 0.911650
O O8 0.805572 0.707503 0.623863
O O9 0.889186 0.737690 0.779494
O O10 0.456807 0.394003 0.381449
O O11 0.372633 0.221097 0.266279
O O12 0.444944 0.087443 0.412911
O O13 0.558721 0.677516 0.684635
O O14 0.344672 0.695027 0.761598
O O15 0.500000 0.612108 0.500000
O O16 0.720441 0.556172 0.491303
O O17 0.699964 0.912783 0.365328
#
# Coordination Sequence:
#
# PCOD9122772 Si02
#       8
#     4   4   4   4   4   4   4   4
#     4   9  20  37  58  86 119 153 198 252 312 370
#     4  10  20  36  57  84 117 153 193 248 310 366
#     4  10  20  37  58  83 114 154 202 249 302 368
#     4  11  22  39  61  86 121 162 208 262 310 370
#     4  10  20  39  61  86 121 160 204 256 310 373
#     4  11  22  37  60  89 118 157 210 260 311 374
#     4   9  21  40  60  89 125 164 210 257 318 375
#     4  10  21  39  58  83 120 161 205 258 313 368
#
# _framework density 27.433589000000001
#
# number of rings (size 3 to 8) (size 9 to 14) (size 15 to 20)
#    0.000    2.000    0.000    3.375    0.000    2.000 
#    0.000   32.500    0.000    0.000    0.000    0.000 
#    0.000    0.000    0.000    0.000    0.000    0.000 
#
# Total GULP energy -89415.605128 kJ/mol
# GULP energy per Si atom -5588.475321 kJ/mol
# Density = 2.737115 g / cm^3
# Si number density = 27.433589 Si / 1000 Ang^3
#
#
#
# Elastic Constant Matrix: (Units=GPa)
#
#
# Indices 1 2 3 4 5 6 
#
# 1 153.5232 8.2721 38.2941 0.0000 -7.0906 0.0000
# 2 8.2721 39.0170 32.2546 0.0000 -7.6589 0.0000
# 3 38.2941 32.2546 102.7078 0.0000 -9.1349 0.0000
# 4 0.0000 0.0000 0.0000 32.0366 0.0000 -4.4558
# 5 -7.0906 -7.6589 -9.1349 0.0000 53.0898 0.0000
# 6 0.0000 0.0000 0.0000 -4.4558 0.0000 28.8084
#
#
#
# Elastic Compliance Matrix: (Units=1/GPa)
#
#
# Indices 1 2 3 4 5 6 
#
# 1 0.007226 0.001039 -0.002967 0.000000 0.000605 0.000000
# 2 0.001039 0.035300 -0.011179 0.000000 0.003308 0.000000
# 3 -0.002967 -0.011179 0.014395 0.000000 0.000468 0.000000
# 4 0.000000 0.000000 0.000000 0.031901 0.000000 0.004934
# 5 0.000605 0.003308 0.000468 0.000000 0.019474 0.000000
# 6 0.000000 0.000000 0.000000 0.004934 0.000000 0.035475
#
#
# Mechanical properties :
#
#
# Convention : Reuss Voigt Hill
#
# Bulk Modulus (GPa) = 32.56509 50.32108 41.44308
# Shear Modulus (GPa) = 27.74388 37.21543 32.47965
#
# Velocity S-wave (km/s) = 3.18356 3.68715 3.44457
# Velocity P-wave (km/s) = 5.04080 6.04231 5.56413
#
# Compressibility (1/GPa) = 0.03070773
#
# Stress axis : x y z
#
# Youngs Moduli (GPa) = 138.39723 28.32829 69.46966
#
# Poissons Ratio (x) = -0.02944 0.20609
# Poissons Ratio (y) = -0.14382 0.77661
# Poissons Ratio (z) = 0.41057 0.31668
#
# Static dielectric constant tensor:
#      x y z
#    x 2.123170 0.000000 0.025010 
#    y 0.000000 2.178020 0.000000 
#    z 0.025010 0.000000 2.127450 
# 
# From -- ./inp_files/39396.got.cif
#   From: 2010.05.17/outbox.cif.g08.bks.cpg/sg5_20_cif.got.tgz:39396.got - 2010.06.03 18:56:24.
