data_PCOD9122690
_publ_section_title
;
Structure prediction by ZEFSAII (Michael W. Deem and Ramdas Pophale) SiO2 
 PCOD9122690
Probable space group: C 2
;
_chemical_formula_sum "Si O2"
_cell_formula_units_Z 30
_cell_length_a 25.441562
_cell_length_b 10.048119
_cell_length_c 13.935919
_cell_angle_alpha 90.000000
_cell_angle_beta 23.579616
_cell_angle_gamma 90.000000
_cell_volume 1425.112376
_symmetry_space_group_name_H-M "C 2"
_symmetry_group_IT_number 5
_symmetry_cell_setting 'monoclinic'
loop_
_space_group_symop_operation_xyz
x,y,z
-x,y,-z
1/2+x,1/2+y,z
1/2-x,1/2+y,-z
loop_
_atom_site_type_symbol
_atom_site_label
_atom_site_fract_x
_atom_site_fract_y
_atom_site_fract_z
Si Si1 0.400186 0.914530 0.857030
Si Si2 0.000000 0.433962 0.500000
Si Si3 0.643176 0.975223 0.768889
Si Si4 0.393070 0.677407 0.102067
Si Si5 0.677929 0.973362 0.490795
Si Si6 0.732607 0.356755 0.852073
Si Si7 0.932627 0.112319 0.816979
Si Si8 0.725260 0.578185 0.269604
O O1 0.427536 0.996522 0.713332
O O2 0.526864 0.949131 0.712206
O O3 0.384932 0.756994 0.858467
O O4 0.271715 0.955008 0.129027
O O5 0.879640 0.362094 0.648524
O O6 0.619890 0.833726 0.858591
O O7 0.693096 0.946216 0.578049
O O8 0.731776 0.059865 0.691774
O O9 0.500000 0.041968 0.000000
O O10 0.247809 0.615813 0.358332
O O11 0.500000 0.625398 0.000000
O O12 0.446159 0.644736 0.907886
O O13 0.756855 0.888584 0.279511
O O14 0.698490 0.201903 0.907578
O O15 0.651841 0.475059 0.038978
O O16 0.069629 0.090249 0.534874
#
# Coordination Sequence:
#
# PCOD9122690 Si02
#       8
#     4   2   4   4   4   4   4   4
#     4  11  22  44  71  93 132 176 214 278 343 383
#     4  10  22  48  74  94 132 178 212 286 336 398
#     4  11  21  35  60  94 132 184 220 264 327 391
#     4  10  20  35  60  91 131 179 224 267 326 389
#     4  10  20  38  61  93 133 174 223 270 323 392
#     4  10  25  43  71  97 133 173 226 273 339 387
#     4  11  22  45  66  96 135 171 216 279 332 394
#     4  12  23  42  70  99 136 176 219 278 328 400
#
# _framework density 21.050971000000001
#
# number of rings (size 3 to 8) (size 9 to 14) (size 15 to 20)
#    0.000    1.333    5.333    1.600    1.867    2.133 
#    2.400    2.667    0.000    0.000    0.000    0.000 
#    0.000    0.000    0.000    0.000    0.000    0.000 
#
# Total GULP energy -83508.407417 kJ/mol
# GULP energy per Si atom -5567.227161 kJ/mol
# Density = 2.100306 g / cm^3
# Si number density = 21.050971 Si / 1000 Ang^3
#
#
#
# Elastic Constant Matrix: (Units=GPa)
#
#
# Indices 1 2 3 4 5 6 
#
# 1 66.9671 10.7332 15.2808 0.0000 19.3978 0.0000
# 2 10.7332 83.4916 54.2052 0.0000 -5.5192 0.0000
# 3 15.2808 54.2052 107.1016 0.0000 20.5737 0.0000
# 4 0.0000 0.0000 0.0000 25.5803 0.0000 -2.7651
# 5 19.3978 -5.5192 20.5737 0.0000 30.6798 0.0000
# 6 0.0000 0.0000 0.0000 -2.7651 0.0000 5.7356
#
#
#
# Elastic Compliance Matrix: (Units=1/GPa)
#
#
# Indices 1 2 3 4 5 6 
#
# 1 0.019561 -0.005383 0.002864 0.000000 -0.015257 0.000000
# 2 -0.005383 0.022958 -0.014117 0.000000 0.017000 0.000000
# 3 0.002864 -0.014117 0.019409 0.000000 -0.017366 0.000000
# 4 0.000000 0.000000 0.000000 0.041242 0.000000 0.019882
# 5 -0.015257 0.017000 -0.017366 0.000000 0.056945 0.000000
# 6 0.000000 0.000000 0.000000 0.019882 0.000000 0.183936
#
#
# Mechanical properties :
#
#
# Convention : Reuss Voigt Hill
#
# Bulk Modulus (GPa) = 34.89529 46.44428 40.66979
# Shear Modulus (GPa) = 12.92407 24.22188 18.57297
#
# Velocity S-wave (km/s) = 2.48047 3.39577 2.97355
# Velocity P-wave (km/s) = 4.98159 6.12256 5.58131
#
# Compressibility (1/GPa) = 0.02865716
#
# Stress axis : x y z
#
# Youngs Moduli (GPa) = 51.12158 43.55736 51.52241
#
# Poissons Ratio (x) = 0.23445 -0.14756
# Poissons Ratio (y) = 0.27517 0.72735
# Poissons Ratio (z) = -0.14642 0.61490
#
# Static dielectric constant tensor:
#      x y z
#    x 1.800850 0.000000 0.012350 
#    y 0.000000 1.813790 0.000000 
#    z 0.012350 0.000000 1.768430 
# 
# From -- ./inp_files/58168.got.cif
#   From: 2010.05.17/outbox.cif.g08.bks.cpg/sg5_30_cif.got.tgz:58168.got - 2010.06.03 18:56:24.
