data_PCOD9122786
_publ_section_title
;
Structure prediction by ZEFSAII (Michael W. Deem and Ramdas Pophale) SiO2 
 PCOD9122786
Probable space group: C 2
;
_chemical_formula_sum "Si O2"
_cell_formula_units_Z 28
_cell_length_a 10.809451
_cell_length_b 9.172514
_cell_length_c 26.835683
_cell_angle_alpha 90.000000
_cell_angle_beta 30.500563
_cell_angle_gamma 90.000000
_cell_volume 1350.457101
_symmetry_space_group_name_H-M "C 2"
_symmetry_group_IT_number 5
_symmetry_cell_setting 'monoclinic'
loop_
_space_group_symop_operation_xyz
x,y,z
-x,y,-z
1/2+x,1/2+y,z
1/2-x,1/2+y,-z
loop_
_atom_site_type_symbol
_atom_site_label
_atom_site_fract_x
_atom_site_fract_y
_atom_site_fract_z
Si Si1 0.000000 0.375000 0.500000
Si Si2 0.748037 0.990991 0.717008
Si Si3 0.954059 0.282279 0.676588
Si Si4 0.640808 0.280456 0.540129
Si Si5 0.006512 0.195735 0.835930
Si Si6 0.707813 0.996593 0.184500
Si Si7 0.763902 0.520744 0.669400
Si Si8 0.500000 0.322536 0.000000
O O1 0.154540 0.288244 0.487564
O O2 0.196933 0.469749 0.400652
O O3 0.634663 0.853311 0.785484
O O4 0.525987 0.060965 0.762714
O O5 0.961871 0.918261 0.609661
O O6 0.855759 0.119548 0.712449
O O7 0.916341 0.367900 0.740317
O O8 0.801697 0.377920 0.689674
O O9 0.224126 0.282482 0.559679
O O10 0.487395 0.133574 0.600034
O O11 0.042331 0.108162 0.771266
O O12 0.722846 0.225530 0.943025
O O13 0.147619 0.104796 0.829260
O O14 0.888450 0.923813 0.082010
#
# Coordination Sequence:
#
# PCOD9122786 Si02
#       8
#     2   4   4   4   4   4   4   2
#     4  10  20  36  58  82 126 162 196 248 282 332
#     4  10  22  39  60  88 121 159 201 237 287 353
#     4  10  20  36  58  87 120 157 199 238 285 341
#     4  10  21  35  55  88 122 162 205 238 283 341
#     4   9  21  42  63  87 118 151 193 247 302 355
#     4  10  23  43  63  86 121 154 192 249 300 352
#     4   9  20  36  56  87 118 154 200 235 285 349
#     4  10  22  40  64  90 114 146 196 248 306 364
#
# _framework density 20.733720999999999
#
# number of rings (size 3 to 8) (size 9 to 14) (size 15 to 20)
#    0.000    2.286    0.000    1.714    0.000   16.571 
#    0.000    7.143    0.000    1.714    0.000    0.000 
#    0.000    0.000    0.000    0.000    0.000    0.000 
#
# Total GULP energy -78163.392174 kJ/mol
# GULP energy per Si atom -5583.099441 kJ/mol
# Density = 2.068653 g / cm^3
# Si number density = 20.733721 Si / 1000 Ang^3
#
#
#
# Elastic Constant Matrix: (Units=GPa)
#
#
# Indices 1 2 3 4 5 6 
#
# 1 52.2474 10.4462 23.5373 0.0001 4.5985 0.0000
# 2 10.4462 74.2834 7.7211 0.0001 -6.4223 0.0000
# 3 23.5373 7.7211 100.3040 0.0006 -3.1131 0.0000
# 4 0.0001 0.0001 0.0006 14.0878 -0.0001 -3.8398
# 5 4.5985 -6.4223 -3.1131 -0.0001 32.8861 0.0000
# 6 0.0000 0.0000 0.0000 -3.8398 0.0000 30.6209
#
#
#
# Elastic Compliance Matrix: (Units=1/GPa)
#
#
# Indices 1 2 3 4 5 6 
#
# 1 0.022433 -0.002982 -0.005165 0.000000 -0.004208 0.000000
# 2 -0.002982 0.014185 -0.000294 0.000000 0.003159 0.000000
# 3 -0.005165 -0.000294 0.011258 0.000000 0.001731 0.000000
# 4 0.000000 0.000000 0.000000 0.073495 0.000000 0.009216
# 5 -0.004208 0.003159 0.001731 0.000000 0.031777 0.000000
# 6 0.000000 0.000000 0.000000 0.009216 0.000000 0.033813
#
#
# Mechanical properties :
#
#
# Convention : Reuss Voigt Hill
#
# Bulk Modulus (GPa) = 32.26421 34.47156 33.36788
# Shear Modulus (GPa) = 23.34537 27.86098 25.60318
#
# Velocity S-wave (km/s) = 3.35917 3.66970 3.51787
# Velocity P-wave (km/s) = 5.53538 5.88367 5.71218
#
# Compressibility (1/GPa) = 0.03099410
#
# Stress axis : x y z
#
# Youngs Moduli (GPa) = 44.57688 70.49715 88.82475
#
# Poissons Ratio (x) = 0.21020 0.45880
# Poissons Ratio (y) = 0.13291 0.02613
# Poissons Ratio (z) = 0.23025 0.02074
#
# Static dielectric constant tensor:
#      x y z
#    x 1.779730 0.000000 -0.005410 
#    y 0.000000 1.732690 0.000000 
#    z -0.005410 0.000000 1.745760 
# 
# From -- ./inp_files/71669.got.cif
#   From: 2010.05.17/outbox.cif.g08.bks.cpg/sg5_36_cif.got.tgz:71669.got - 2010.06.03 18:56:24.
