data_PCOD9122233
_publ_section_title
;
Structure prediction by ZEFSAII (Michael W. Deem and Ramdas Pophale) SiO2 
 PCOD9122233
Probable space group: C 2
;
_chemical_formula_sum "Si O2"
_cell_formula_units_Z 24
_cell_length_a 14.444128
_cell_length_b 5.624243
_cell_length_c 13.777035
_cell_angle_alpha 90.000000
_cell_angle_beta 58.871092
_cell_angle_gamma 90.000000
_cell_volume 958.049966
_symmetry_space_group_name_H-M "C 2"
_symmetry_group_IT_number 5
_symmetry_cell_setting 'monoclinic'
loop_
_space_group_symop_operation_xyz
x,y,z
-x,y,-z
1/2+x,1/2+y,z
1/2-x,1/2+y,-z
loop_
_atom_site_type_symbol
_atom_site_label
_atom_site_fract_x
_atom_site_fract_y
_atom_site_fract_z
Si Si1 0.500000 0.494700 0.500000
Si Si2 0.174931 0.251526 0.161851
Si Si3 0.000000 0.997373 0.000000
Si Si4 0.401958 0.150733 0.705164
Si Si5 0.304825 0.851176 0.070384
Si Si6 0.470901 0.411929 0.225395
Si Si7 0.814630 0.121586 0.452357
O O1 0.424432 0.314133 0.602770
O O2 0.417155 0.626093 0.471883
O O3 0.131207 0.378262 0.282521
O O4 0.287172 0.116608 0.119610
O O5 0.073196 0.084030 0.190461
O O6 0.196389 0.376220 0.045712
O O7 0.901163 0.181213 0.045043
O O8 0.982520 0.851726 0.107221
O O9 0.298979 0.232912 0.823184
O O10 0.506305 0.185674 0.718177
O O11 0.366288 0.552503 0.319318
O O12 0.755987 0.380185 0.485142
#
# Coordination Sequence:
#
# PCOD9122233 Si02
#       7
#     2   4   2   4   4   4   4
#     4  10  26  50  76 112 144 208 248 310 386 448
#     4  10  19  39  69  91 137 186 232 289 359 436
#     4  10  22  42  66 104 142 174 232 296 374 430
#     4  10  21  43  68  97 137 184 245 287 360 446
#     4  10  20  37  64  98 133 177 231 286 358 436
#     4   9  23  43  67 101 142 184 234 302 367 439
#     4  11  27  52  80 111 153 200 258 318 376 453
#
# _framework density 25.050885999999998
#
# number of rings (size 3 to 8) (size 9 to 14) (size 15 to 20)
#    0.000    2.000    1.667    0.000    7.000    0.667 
#    6.000    9.167    0.000    0.000    0.000    0.000 
#    0.000    0.000    0.000    0.000    0.000    0.000 
#
# Total GULP energy -66917.714049 kJ/mol
# GULP energy per Si atom -5576.476171 kJ/mol
# Density = 2.499387 g / cm^3
# Si number density = 25.050886 Si / 1000 Ang^3
#
#
#
# Elastic Constant Matrix: (Units=GPa)
#
#
# Indices 1 2 3 4 5 6 
#
# 1 56.1074 11.9741 16.3195 0.0007 -11.9595 0.0000
# 2 11.9741 48.2833 1.4175 0.0000 -11.9215 0.0022
# 3 16.3195 1.4175 116.8723 0.0003 -14.7949 -0.0003
# 4 0.0007 0.0000 0.0003 132.4105 -0.0003 -76.4607
# 5 -11.9595 -11.9215 -14.7949 -0.0003 41.6483 0.0001
# 6 0.0000 0.0022 -0.0003 -76.4607 0.0001 71.3849
#
#
#
# Elastic Compliance Matrix: (Units=1/GPa)
#
#
# Indices 1 2 3 4 5 6 
#
# 1 0.020154 -0.003984 -0.002280 0.000000 0.003837 0.000000
# 2 -0.003984 0.023109 0.001014 -0.000001 0.005831 -0.000002
# 3 -0.002280 0.001014 0.009231 0.000000 0.002915 0.000000
# 4 0.000000 -0.000001 0.000000 0.019797 0.000000 0.021204
# 5 0.003837 0.005831 0.002915 0.000000 0.027817 0.000000
# 6 0.000000 -0.000002 0.000000 0.021204 0.000000 0.036721
#
#
# Mechanical properties :
#
#
# Convention : Reuss Voigt Hill
#
# Bulk Modulus (GPa) = 23.81239 31.18725 27.49982
# Shear Modulus (GPa) = 30.99288 61.85887 46.42588
#
# Velocity S-wave (km/s) = 3.52120 4.97462 4.30962
# Velocity P-wave (km/s) = 5.10471 6.74333 5.98040
#
# Compressibility (1/GPa) = 0.04199495
#
# Stress axis : x y z
#
# Youngs Moduli (GPa) = 49.61728 43.27316 108.32555
#
# Poissons Ratio (x) = 0.17239 0.24700
# Poissons Ratio (y) = 0.19767 -0.10986
# Poissons Ratio (z) = 0.11314 -0.04389
#
# Static dielectric constant tensor:
#      x y z
#    x 1.668790 0.000000 0.090590 
#    y 0.000000 2.520880 0.000000 
#    z 0.090590 0.000000 2.005990 
# 
# From -- ./inp_files/53775.got.cif
#   From: 2010.05.17/outbox.cif.g08.bks.cpg/sg5_27_cif.got.tgz:53775.got - 2010.06.03 18:56:24.
