data_PCOD9122698
_publ_section_title
;
Structure prediction by ZEFSAII (Michael W. Deem and Ramdas Pophale) SiO2 
 PCOD9122698
Probable space group: C 2
;
_chemical_formula_sum "Si O2"
_cell_formula_units_Z 26
_cell_length_a 10.678902
_cell_length_b 10.868298
_cell_length_c 12.606790
_cell_angle_alpha 90.000000
_cell_angle_beta 59.900709
_cell_angle_gamma 90.000000
_cell_volume 1265.866474
_symmetry_space_group_name_H-M "C 2"
_symmetry_group_IT_number 5
_symmetry_cell_setting 'monoclinic'
loop_
_space_group_symop_operation_xyz
x,y,z
-x,y,-z
1/2+x,1/2+y,z
1/2-x,1/2+y,-z
loop_
_atom_site_type_symbol
_atom_site_label
_atom_site_fract_x
_atom_site_fract_y
_atom_site_fract_z
Si Si1 0.128005 0.240570 0.182793
Si Si2 0.871327 0.942020 0.138472
Si Si3 0.974170 0.428782 0.128239
Si Si4 0.965217 0.795632 0.288767
Si Si5 0.500000 0.415094 0.500000
Si Si6 0.211761 0.633707 0.086640
Si Si7 0.729659 0.591177 0.323004
O O1 0.254290 0.337711 0.158974
O O2 0.991596 0.321283 0.206388
O O3 0.117979 0.157400 0.290589
O O4 0.185953 0.170397 0.054183
O O5 0.920395 0.912592 0.236192
O O6 0.801658 0.073575 0.144066
O O7 0.000000 0.925996 0.000000
O O8 0.102009 0.528246 0.092042
O O9 0.828517 0.503921 0.206918
O O10 0.000000 0.378046 0.000000
O O11 0.993540 0.833695 0.396750
O O12 0.839448 0.690871 0.328570
O O13 0.110130 0.742019 0.172348
O O14 0.640210 0.503725 0.437851
#
# Coordination Sequence:
#
# PCOD9122698 Si02
#       7
#     4   4   4   4   2   4   4
#     4  10  20  35  61  94 128 160 200 258 322 375
#     4  10  20  35  61  94 128 160 200 258 322 375
#     4  10  20  35  61  94 128 160 200 258 322 375
#     4  10  24  44  62  88 128 172 204 263 312 360
#     4  12  28  44  68  88 124 180 228 242 292 408
#     4  10  20  35  61  94 128 160 200 258 322 375
#     4  10  24  44  62  88 128 172 204 263 312 360
#
# _framework density 20.539290000000001
#
# number of rings (size 3 to 8) (size 9 to 14) (size 15 to 20)
#    0.000    1.846    3.077    0.000    4.308    3.077 
#    0.000    0.000    0.000    0.000    0.000    0.000 
#    0.000    0.000    0.000    0.000    0.000    0.000 
#
# Total GULP energy -72618.966546 kJ/mol
# GULP energy per Si atom -5586.074350 kJ/mol
# Density = 2.049254 g / cm^3
# Si number density = 20.539290 Si / 1000 Ang^3
#
#
#
# Elastic Constant Matrix: (Units=GPa)
#
#
# Indices 1 2 3 4 5 6 
#
# 1 51.5255 20.7515 12.7786 0.0000 27.8249 0.0000
# 2 20.7515 46.9525 3.8116 0.0000 13.9100 0.0000
# 3 12.7786 3.8116 44.7605 0.0000 18.0169 0.0000
# 4 0.0000 0.0000 0.0000 19.1628 0.0000 5.6798
# 5 27.8249 13.9100 18.0169 0.0000 28.0039 0.0000
# 6 0.0000 0.0000 0.0000 5.6798 0.0000 15.6770
#
#
#
# Elastic Compliance Matrix: (Units=1/GPa)
#
#
# Indices 1 2 3 4 5 6 
#
# 1 0.045192 -0.007066 0.005886 0.000000 -0.045180 0.000000
# 2 -0.007066 0.026584 0.003026 0.000000 -0.008131 0.000000
# 3 0.005886 0.003026 0.031527 0.000000 -0.027634 0.000000
# 4 0.000000 0.000000 0.000000 0.058462 0.000000 -0.021181
# 5 -0.045180 -0.008131 -0.027634 0.000000 0.102418 0.000000
# 6 0.000000 0.000000 0.000000 -0.021181 0.000000 0.071461
#
#
# Mechanical properties :
#
#
# Convention : Reuss Voigt Hill
#
# Bulk Modulus (GPa) = 9.34631 24.21356 16.77994
# Shear Modulus (GPa) = 13.60106 19.62853 16.61480
#
# Velocity S-wave (km/s) = 2.57611 3.09473 2.84725
# Velocity P-wave (km/s) = 3.66180 4.95825 4.35850
#
# Compressibility (1/GPa) = 0.10699410
#
# Stress axis : x y z
#
# Youngs Moduli (GPa) = 22.12774 37.61610 31.71931
#
# Poissons Ratio (x) = 0.26581 -0.18669
# Poissons Ratio (y) = 0.15636 -0.09599
# Poissons Ratio (z) = -0.13023 -0.11384
#
# Static dielectric constant tensor:
#      x y z
#    x 1.766230 0.000000 -0.001340 
#    y 0.000000 1.752360 0.000000 
#    z -0.001340 0.000000 1.664420 
# 
# From -- ./inp_files/22014.got.cif
#   From: 2010.05.17/outbox.cif.g08.bks.cpg/sg5_12_cif.got.tgz:22014.got - 2010.06.03 18:56:24.
