data_PCOD9122739
_publ_section_title
;
Structure prediction by ZEFSAII (Michael W. Deem and Ramdas Pophale) SiO2 
 PCOD9122739
Probable space group: C 2
;
_chemical_formula_sum "Si O2"
_cell_formula_units_Z 26
_cell_length_a 10.499519
_cell_length_b 19.516190
_cell_length_c 5.543489
_cell_angle_alpha 90.000000
_cell_angle_beta 72.916752
_cell_angle_gamma 90.000000
_cell_volume 1085.801724
_symmetry_space_group_name_H-M "C 2"
_symmetry_group_IT_number 5
_symmetry_cell_setting 'monoclinic'
loop_
_space_group_symop_operation_xyz
x,y,z
-x,y,-z
1/2+x,1/2+y,z
1/2-x,1/2+y,-z
loop_
_atom_site_type_symbol
_atom_site_label
_atom_site_fract_x
_atom_site_fract_y
_atom_site_fract_z
Si Si1 0.733429 0.778780 0.185826
Si Si2 0.500000 0.464831 0.000000
Si Si3 0.414923 0.346351 0.745410
Si Si4 0.743128 0.571080 0.884554
Si Si5 0.663351 0.889719 0.587925
Si Si6 0.000000 0.514135 0.500000
Si Si7 0.000000 0.292187 0.000000
Si Si8 0.161572 0.144529 0.432012
O O1 0.704772 0.853059 0.317422
O O2 0.721749 0.721140 0.392331
O O3 0.867436 0.792885 0.970077
O O4 0.623145 0.754363 0.051511
O O5 0.502443 0.410773 0.780884
O O6 0.634597 0.508834 0.941662
O O7 0.500000 0.307927 0.500000
O O8 0.283040 0.380746 0.707802
O O9 0.897862 0.552210 0.739195
O O10 0.698850 0.612536 0.668809
O O11 0.720882 0.606311 0.159806
O O12 0.601531 0.963978 0.587439
O O13 0.552044 0.840620 0.760805
O O14 0.000000 0.145413 0.500000
#
# Coordination Sequence:
#
# PCOD9122739 Si02
#       8
#     4   2   4   4   4   2   2   4
#     4  11  24  44  73 112 143 183 258 310 394 434
#     4  12  26  51  72 114 149 208 256 310 374 472
#     4  11  25  43  75 111 150 194 242 319 393 455
#     4  12  30  49  79 109 152 213 255 311 375 450
#     4  11  23  42  71 111 141 189 231 319 381 446
#     4  12  26  48  70 114 158 188 262 310 388 458
#     4  10  20  35  68 110 137 174 228 312 390 426
#     4  12  27  52  79 108 149 203 266 317 365 463
#
# _framework density 23.945442
#
# number of rings (size 3 to 8) (size 9 to 14) (size 15 to 20)
#    0.000    0.615    3.077    3.692   12.923    0.615 
#    1.385    1.538    0.000    0.000    0.000    0.000 
#    0.000    0.000    0.000    0.000    0.000    0.000 
#
# Total GULP energy -72665.842121 kJ/mol
# GULP energy per Si atom -5589.680163 kJ/mol
# Density = 2.389094 g / cm^3
# Si number density = 23.945442 Si / 1000 Ang^3
#
#
#
# Elastic Constant Matrix: (Units=GPa)
#
#
# Indices 1 2 3 4 5 6 
#
# 1 102.0362 26.5900 29.0776 0.0000 -11.0492 0.0000
# 2 26.5900 71.8815 38.8228 0.0000 -12.8476 0.0000
# 3 29.0776 38.8228 158.4962 0.0000 -32.6565 0.0000
# 4 0.0000 0.0000 0.0000 33.6350 0.0000 3.7023
# 5 -11.0492 -12.8476 -32.6565 0.0000 54.3346 0.0000
# 6 0.0000 0.0000 0.0000 3.7023 0.0000 5.1388
#
#
#
# Elastic Compliance Matrix: (Units=1/GPa)
#
#
# Indices 1 2 3 4 5 6 
#
# 1 0.011067 -0.003390 -0.001029 0.000000 0.000831 0.000000
# 2 -0.003390 0.017199 -0.003304 0.000000 0.001392 0.000000
# 3 -0.001029 -0.003304 0.008107 0.000000 0.003882 0.000000
# 4 0.000000 0.000000 0.000000 0.032292 0.000000 -0.023265
# 5 0.000831 0.001392 0.003882 0.000000 0.021236 0.000000
# 6 0.000000 0.000000 0.000000 -0.023265 0.000000 0.211361
#
#
# Mechanical properties :
#
#
# Convention : Reuss Voigt Hill
#
# Bulk Modulus (GPa) = 47.78375 57.93275 52.85825
# Shear Modulus (GPa) = 15.44720 34.48324 24.96522
#
# Velocity S-wave (km/s) = 2.54264 3.79895 3.23242
# Velocity P-wave (km/s) = 5.34963 6.59461 6.00447
#
# Compressibility (1/GPa) = 0.02092762
#
# Stress axis : x y z
#
# Youngs Moduli (GPa) = 90.35942 58.14303 123.34564
#
# Poissons Ratio (x) = 0.19708 0.12691
# Poissons Ratio (y) = 0.30629 0.40756
# Poissons Ratio (z) = 0.09297 0.19212
#
# Static dielectric constant tensor:
#      x y z
#    x 1.978450 0.000000 0.023440 
#    y 0.000000 1.891040 0.000000 
#    z 0.023440 0.000000 1.911130 
# 
# From -- ./inp_files/5452.got.cif
#   From: 2010.05.17/outbox.cif.g08.bks.cpg/sg5_3_cif.got.tgz:5452.got - 2010.06.03 18:56:24.
