data_PCOD9122993
_publ_section_title
;
Structure prediction by ZEFSAII (Michael W. Deem and Ramdas Pophale) SiO2 
 PCOD9122993
Probable space group: C 2
;
_chemical_formula_sum "Si O2"
_cell_formula_units_Z 20
_cell_length_a 14.310784
_cell_length_b 5.212667
_cell_length_c 11.167840
_cell_angle_alpha 90.000000
_cell_angle_beta 95.790445
_cell_angle_gamma 90.000000
_cell_volume 828.840477
_symmetry_space_group_name_H-M "C 2"
_symmetry_group_IT_number 5
_symmetry_cell_setting 'monoclinic'
loop_
_space_group_symop_operation_xyz
x,y,z
-x,y,-z
1/2+x,1/2+y,z
1/2-x,1/2+y,-z
loop_
_atom_site_type_symbol
_atom_site_label
_atom_site_fract_x
_atom_site_fract_y
_atom_site_fract_z
Si Si1 0.043525 0.693380 0.165416
Si Si2 0.355541 0.042209 0.052104
Si Si3 0.645713 0.729161 0.576885
Si Si4 0.629716 0.229315 0.435413
Si Si5 0.877410 0.049620 0.156389
O O1 0.078954 0.676648 0.304021
O O2 0.961025 0.495303 0.123208
O O3 0.123218 0.648132 0.077172
O O4 0.983542 0.954929 0.139787
O O5 0.322848 0.274955 0.133237
O O6 0.323348 0.751396 0.064232
O O7 0.606891 0.507721 0.485043
O O8 0.758682 0.727272 0.576361
O O9 0.625705 0.651329 0.709723
O O10 0.611330 0.007297 0.530168
#
# Coordination Sequence:
#
# PCOD9122993 Si02
#       5
#     4   4   4   4   4
#     4   9  22  35  60  81 115 144 190 223 292 327
#     4   9  21  34  58  82 115 140 184 235 282 327
#     4  10  22  40  57  81 119 147 194 228 284 331
#     4  10  22  39  59  81 113 159 182 233 282 345
#     4  10  20  37  56  82 115 144 181 240 273 328
#
# _framework density 24.130094
#
# number of rings (size 3 to 8) (size 9 to 14) (size 15 to 20)
#    1.200    1.200    0.000    1.200    8.400    0.800 
#    0.000    2.000    0.000    0.000    0.000    0.000 
#    0.000    0.000    0.000    0.000    0.000    0.000 
#
# Total GULP energy -55802.056513 kJ/mol
# GULP energy per Si atom -5580.205651 kJ/mol
# Density = 2.407517 g / cm^3
# Si number density = 24.130094 Si / 1000 Ang^3
#
#
#
# Elastic Constant Matrix: (Units=GPa)
#
#
# Indices 1 2 3 4 5 6 
#
# 1 81.3475 -14.5788 8.5592 0.0000 0.5526 0.0000
# 2 -14.5788 122.4175 -2.3965 0.0000 -12.9874 0.0000
# 3 8.5592 -2.3965 104.1850 0.0000 7.6399 0.0000
# 4 0.0000 0.0000 0.0000 21.7607 0.0000 -15.0407
# 5 0.5526 -12.9874 7.6399 0.0000 43.3754 0.0000
# 6 0.0000 0.0000 0.0000 -15.0407 0.0000 -5.8226
#
#
#
# Elastic Compliance Matrix: (Units=1/GPa)
#
#
# Indices 1 2 3 4 5 6 
#
# 1 0.012675 0.001540 -0.001041 0.000000 0.000483 0.000000
# 2 0.001540 0.008624 -0.000118 0.000000 0.002583 0.000000
# 3 -0.001041 -0.000118 0.009809 0.000000 -0.001750 0.000000
# 4 0.000000 0.000000 0.000000 0.016498 0.000000 -0.042617
# 5 0.000483 0.002583 -0.001750 0.000000 0.024130 0.000000
# 6 0.000000 0.000000 0.000000 -0.042617 0.000000 -0.061658
#
#
# Mechanical properties :
#
#
# Convention : Reuss Voigt Hill
#
# Bulk Modulus (GPa) = 31.37587 32.34642 31.86115
# Shear Modulus (GPa) = 250.75004 32.95376 141.85190
#
# Velocity S-wave (km/s) = 10.20497 3.69951 7.67554
# Velocity P-wave (km/s) = 12.32422 5.62873 9.58042
#
# Compressibility (1/GPa) = 0.03187162
#
# Stress axis : x y z
#
# Youngs Moduli (GPa) = 78.89370 115.95584 101.94243
#
# Poissons Ratio (x) = -0.17862 0.10615
# Poissons Ratio (y) = -0.12153 0.01199
# Poissons Ratio (z) = 0.08215 0.01364
#
# Static dielectric constant tensor:
#      x y z
#    x 2.024990 0.000000 0.000750 
#    y 0.000000 2.101140 0.000000 
#    z 0.000750 0.000000 1.854610 
# 
# From -- ./inp_files/28320.got.cif
#   From: 2010.05.17/outbox.cif.g08.bks.cpg/sg5_15_cif.got.tgz:28320.got - 2010.06.03 18:56:24.
