data_PCOD9122064
_publ_section_title
;
Structure prediction by ZEFSAII (Michael W. Deem and Ramdas Pophale) SiO2 
 PCOD9122064
Probable space group: C 2
;
_chemical_formula_sum "Si O2"
_cell_formula_units_Z 32
_cell_length_a 12.686306
_cell_length_b 11.635886
_cell_length_c 12.264786
_cell_angle_alpha 90.000000
_cell_angle_beta 65.836735
_cell_angle_gamma 90.000000
_cell_volume 1651.854081
_symmetry_space_group_name_H-M "C 2"
_symmetry_group_IT_number 5
_symmetry_cell_setting 'monoclinic'
loop_
_space_group_symop_operation_xyz
x,y,z
-x,y,-z
1/2+x,1/2+y,z
1/2-x,1/2+y,-z
loop_
_atom_site_type_symbol
_atom_site_label
_atom_site_fract_x
_atom_site_fract_y
_atom_site_fract_z
Si Si1 0.621756 0.966190 0.389677
Si Si2 0.869392 0.509761 0.018861
Si Si3 0.382964 0.266077 0.979890
Si Si4 0.137673 0.718314 0.420783
Si Si5 0.346323 0.405309 0.771941
Si Si6 0.852102 0.331785 0.839351
Si Si7 0.179776 0.235424 0.470773
Si Si8 0.446308 0.638338 0.680060
O O1 0.500000 0.981242 0.500000
O O2 0.607506 0.906737 0.279669
O O3 0.682595 0.870314 0.438652
O O4 0.669621 0.093732 0.357230
O O5 0.771091 0.475241 0.147716
O O6 0.844032 0.633778 0.975756
O O7 0.876352 0.402400 0.936004
O O8 0.000000 0.524877 0.000000
O O9 0.383232 0.334888 0.865315
O O10 0.500000 0.271763 0.000000
O O11 0.285055 0.316678 0.100714
O O12 0.170959 0.818988 0.322163
O O13 0.207073 0.716423 0.505414
O O14 0.000000 0.728691 0.500000
O O15 0.440524 0.502706 0.701001
O O16 0.912036 0.208719 0.802157
O O17 0.153008 0.170619 0.367779
O O18 0.066926 0.192192 0.586595
#
# Coordination Sequence:
#
# PCOD9122064 Si02
#       8
#     4   4   4   4   4   4   4   4
#     4  10  20  41  62  89 118 164 212 252 309 386
#     4  10  22  39  63  88 121 164 210 257 313 372
#     4  10  22  41  61  90 123 167 205 256 326 369
#     4  11  27  40  60  96 131 163 207 266 326 373
#     4  11  24  41  62  96 129 161 212 269 315 381
#     4  10  19  38  62  84 119 155 206 257 298 372
#     4  10  22  41  66  88 125 168 212 253 320 384
#     4  10  21  40  65  92 119 167 212 257 311 378
#
# _framework density 19.372170000000001
#
# number of rings (size 3 to 8) (size 9 to 14) (size 15 to 20)
#    0.000    1.750    3.750    0.750    5.250    3.000 
#    2.250    0.625    0.000    0.000    0.000    0.000 
#    0.000    0.000    0.000    0.000    0.000    0.000 
#
# Total GULP energy -89110.916516 kJ/mol
# GULP energy per Si atom -5569.432282 kJ/mol
# Density = 1.932808 g / cm^3
# Si number density = 19.372170 Si / 1000 Ang^3
#
#
#
# Elastic Constant Matrix: (Units=GPa)
#
#
# Indices 1 2 3 4 5 6 
#
# 1 72.6483 11.1972 9.9604 0.0000 2.8364 0.0000
# 2 11.1972 127.3127 22.6126 0.0000 -0.6137 0.0000
# 3 9.9604 22.6126 59.4691 0.0000 -7.6296 0.0000
# 4 0.0000 0.0000 0.0000 36.2805 0.0000 -2.2846
# 5 2.8364 -0.6137 -7.6296 0.0000 12.2278 0.0000
# 6 0.0000 0.0000 0.0000 -2.2846 0.0000 18.0184
#
#
#
# Elastic Compliance Matrix: (Units=1/GPa)
#
#
# Indices 1 2 3 4 5 6 
#
# 1 0.014470 -0.000804 -0.002776 0.000000 -0.005129 0.000000
# 2 -0.000804 0.008501 -0.003282 0.000000 -0.001435 0.000000
# 3 -0.002776 -0.003282 0.020207 0.000000 0.013088 0.000000
# 4 0.000000 0.000000 0.000000 0.027785 0.000000 0.003523
# 5 -0.005129 -0.001435 0.013088 0.000000 0.091065 0.000000
# 6 0.000000 0.000000 0.000000 0.003523 0.000000 0.055946
#
#
# Mechanical properties :
#
#
# Convention : Reuss Voigt Hill
#
# Bulk Modulus (GPa) = 33.95051 38.55230 36.25141
# Shear Modulus (GPa) = 20.70260 27.68267 24.19263
#
# Velocity S-wave (km/s) = 3.27261 3.78430 3.53772
# Velocity P-wave (km/s) = 5.64300 6.24809 5.95324
#
# Compressibility (1/GPa) = 0.02945463
#
# Stress axis : x y z
#
# Youngs Moduli (GPa) = 69.10989 117.62739 49.48695
#
# Poissons Ratio (x) = 0.09461 0.13736
# Poissons Ratio (y) = 0.05559 0.16241
# Poissons Ratio (z) = 0.19183 0.38604
#
# Static dielectric constant tensor:
#      x y z
#    x 1.633210 0.000000 -0.000580 
#    y 0.000000 1.737950 0.000000 
#    z -0.000580 0.000000 1.685370 
# 
# From -- ./inp_files/39418.got.cif
#   From: 2010.05.17/outbox.cif.g08.bks.cpg/sg5_20_cif.got.tgz:39418.got - 2010.06.03 18:56:24.
