data_PCOD9122296
_publ_section_title
;
Structure prediction by ZEFSAII (Michael W. Deem and Ramdas Pophale) SiO2 
 PCOD9122296
Probable space group: C 2
;
_chemical_formula_sum "Si O2"
_cell_formula_units_Z 32
_cell_length_a 24.312797
_cell_length_b 15.239336
_cell_length_c 9.548049
_cell_angle_alpha 90.000000
_cell_angle_beta 153.755597
_cell_angle_gamma 90.000000
_cell_volume 1564.355318
_symmetry_space_group_name_H-M "C 2"
_symmetry_group_IT_number 5
_symmetry_cell_setting 'monoclinic'
loop_
_space_group_symop_operation_xyz
x,y,z
-x,y,-z
1/2+x,1/2+y,z
1/2-x,1/2+y,-z
loop_
_atom_site_type_symbol
_atom_site_label
_atom_site_fract_x
_atom_site_fract_y
_atom_site_fract_z
Si Si1 0.875512 0.779060 0.763634
Si Si2 0.402169 0.926014 0.589575
Si Si3 0.358110 0.582292 0.705969
Si Si4 0.853446 0.455551 0.173444
Si Si5 0.192117 0.614954 0.569203
Si Si6 0.856679 0.659171 0.214741
Si Si7 0.800665 0.417586 0.762541
Si Si8 0.269174 0.747425 0.320081
O O1 0.872192 0.687298 0.674736
O O2 0.757919 0.834077 0.444332
O O3 0.860117 0.766384 0.893358
O O4 0.000000 0.826818 0.000000
O O5 0.325373 0.934102 0.268245
O O6 0.448852 0.924505 0.081685
O O7 0.355609 0.832390 0.535929
O O8 0.368997 0.018728 0.583715
O O9 0.325731 0.603972 0.795322
O O10 0.268581 0.503385 0.452939
O O11 0.326750 0.666515 0.538109
O O12 0.500000 0.558646 0.000000
O O13 0.841864 0.559592 0.123341
O O14 0.000000 0.433531 0.500000
O O15 0.780711 0.409176 0.884017
O O16 0.175378 0.648496 0.692193
O O17 0.000000 0.682396 0.500000
O O18 0.763294 0.719974 0.912539
#
# Coordination Sequence:
#
# PCOD9122296 Si02
#       8
#     4   4   4   4   4   4   4   4
#     4  11  25  39  61  97 131 167 219 264 325 395
#     4  10  23  40  66  96 128 164 225 270 323 387
#     4  11  25  43  64  94 137 173 213 268 332 385
#     4   8  17  36  62  91 121 160 213 259 313 380
#     4  10  24  41  68  94 130 170 220 261 325 388
#     4  10  19  40  68  97 128 169 216 265 321 388
#     4  11  22  41  68  95 126 177 213 274 324 386
#     4  11  24  40  65  98 131 168 211 276 328 376
#
# _framework density 20.45571
#
# number of rings (size 3 to 8) (size 9 to 14) (size 15 to 20)
#    0.000    1.750    1.250    2.625    8.750    1.000 
#    0.000    0.625    0.000    0.000    0.000    0.000 
#    0.000    0.000    0.000    0.000    0.000    0.000 
#
# Total GULP energy -89191.897554 kJ/mol
# GULP energy per Si atom -5574.493597 kJ/mol
# Density = 2.040915 g / cm^3
# Si number density = 20.455710 Si / 1000 Ang^3
#
#
#
# Elastic Constant Matrix: (Units=GPa)
#
#
# Indices 1 2 3 4 5 6 
#
# 1 122.3087 32.5078 64.4844 0.0000 0.2912 0.0000
# 2 32.5078 124.3497 41.0391 0.0000 -2.0899 0.0000
# 3 64.4844 41.0391 80.5598 0.0000 2.7325 0.0000
# 4 0.0000 0.0000 0.0000 -8.5557 0.0000 24.4784
# 5 0.2912 -2.0899 2.7325 0.0000 28.8594 0.0000
# 6 0.0000 0.0000 0.0000 24.4784 0.0000 -1.0465
#
#
#
# Elastic Compliance Matrix: (Units=1/GPa)
#
#
# Indices 1 2 3 4 5 6 
#
# 1 0.014172 0.000079 -0.011416 0.000000 0.000944 0.000000
# 2 0.000079 0.009707 -0.005048 0.000000 0.001180 0.000000
# 3 -0.011416 -0.005048 0.024209 0.000000 -0.002543 0.000000
# 4 0.000000 0.000000 0.000000 0.001773 0.000000 0.041472
# 5 0.000944 0.001180 -0.002543 0.000000 0.034967 0.000000
# 6 0.000000 0.000000 0.000000 0.041472 0.000000 0.014495
#
#
# Mechanical properties :
#
#
# Convention : Reuss Voigt Hill
#
# Bulk Modulus (GPa) = 65.28621 67.03119 66.15870
# Shear Modulus (GPa) = 36.44332 16.46387 26.45360
#
# Velocity S-wave (km/s) = 4.22545 2.84007 3.60003
# Velocity P-wave (km/s) = 7.46934 6.60263 7.04932
#
# Compressibility (1/GPa) = 0.01531717
#
# Stress axis : x y z
#
# Youngs Moduli (GPa) = 70.56374 103.01731 41.30739
#
# Poissons Ratio (x) = -0.00810 0.47156
# Poissons Ratio (y) = -0.00555 0.20852
# Poissons Ratio (z) = 0.80554 0.52003
#
# Static dielectric constant tensor:
#      x y z
#    x 1.844310 0.000000 -0.010860 
#    y 0.000000 1.722090 0.000000 
#    z -0.010860 0.000000 1.704560 
# 
# From -- ./inp_files/29865.got.cif
#   From: 2010.05.17/outbox.cif.g08.bks.cpg/sg5_15_cif.got.tgz:29865.got - 2010.06.03 18:56:24.
