data_PCOD9122060
_publ_section_title
;
Structure prediction by ZEFSAII (Michael W. Deem and Ramdas Pophale) SiO2 
 PCOD9122060
Probable space group: C 2
;
_chemical_formula_sum "Si O2"
_cell_formula_units_Z 28
_cell_length_a 8.287613
_cell_length_b 11.881188
_cell_length_c 13.541532
_cell_angle_alpha 90.000000
_cell_angle_beta 118.854210
_cell_angle_gamma 90.000000
_cell_volume 1167.850104
_symmetry_space_group_name_H-M "C 2"
_symmetry_group_IT_number 5
_symmetry_cell_setting 'monoclinic'
loop_
_space_group_symop_operation_xyz
x,y,z
-x,y,-z
1/2+x,1/2+y,z
1/2-x,1/2+y,-z
loop_
_atom_site_type_symbol
_atom_site_label
_atom_site_fract_x
_atom_site_fract_y
_atom_site_fract_z
Si Si1 0.255891 0.724930 0.221658
Si Si2 0.011099 0.542835 0.607032
Si Si3 0.453303 0.047679 0.172200
Si Si4 0.181637 0.891881 0.018450
Si Si5 0.284753 0.735974 0.446862
Si Si6 0.304122 0.762619 0.884080
Si Si7 0.183688 0.237034 0.331440
O O1 0.203493 0.796152 0.109351
O O2 0.226111 0.782669 0.321768
O O3 0.472321 0.698440 0.277480
O O4 0.134220 0.612014 0.191338
O O5 0.034843 0.483160 0.718748
O O6 0.177543 0.631439 0.638851
O O7 0.000000 0.477162 0.500000
O O8 0.834517 0.622320 0.574776
O O9 0.297676 0.142749 0.143252
O O10 0.364576 0.964687 0.069277
O O11 0.168172 0.839578 0.907489
O O12 0.000000 0.956626 0.000000
O O13 0.500000 0.709927 0.500000
O O14 0.261864 0.795173 0.547665
O O15 0.309013 0.799911 0.771453
O O16 0.500000 0.756558 0.000000
#
# Coordination Sequence:
#
# PCOD9122060 Si02
#       7
#     4   4   4   4   4   4   4
#     4  10  19  38  61  89 126 163 215 270 322 391
#     4   8  15  31  57  90 120 161 209 265 322 385
#     4  10  22  39  63  88 123 173 210 265 334 379
#     4  12  24  42  62  94 132 172 224 271 322 395
#     4   8  15  29  57  93 118 159 214 259 324 391
#     4  11  21  39  59  87 126 167 215 268 316 384
#     4   9  17  32  60  89 122 162 213 265 323 388
#
# _framework density 23.975677999999998
#
# number of rings (size 3 to 8) (size 9 to 14) (size 15 to 20)
#    0.000    2.286    2.857    0.429    0.000    0.000 
#    2.571    2.143    0.000    0.000    0.000   15.000 
#    0.000    0.000    0.000    0.000    0.000    0.000 
#
# Total GULP energy -78106.354152 kJ/mol
# GULP energy per Si atom -5579.025297 kJ/mol
# Density = 2.392111 g / cm^3
# Si number density = 23.975678 Si / 1000 Ang^3
#
#
#
# Elastic Constant Matrix: (Units=GPa)
#
#
# Indices 1 2 3 4 5 6 
#
# 1 122.9041 26.8102 54.7057 0.0000 -12.2230 0.0000
# 2 26.8102 34.9950 25.2872 0.0000 -9.3369 0.0000
# 3 54.7057 25.2872 131.3892 0.0000 -36.8951 0.0000
# 4 0.0000 0.0000 0.0000 24.5910 0.0000 1.5106
# 5 -12.2230 -9.3369 -36.8951 0.0000 51.3778 0.0000
# 6 0.0000 0.0000 0.0000 1.5106 0.0000 17.4879
#
#
#
# Elastic Compliance Matrix: (Units=1/GPa)
#
#
# Indices 1 2 3 4 5 6 
#
# 1 0.011005 -0.006034 -0.003750 0.000000 -0.001171 0.000000
# 2 -0.006034 0.036635 -0.003848 0.000000 0.002459 0.000000
# 3 -0.003750 -0.003848 0.011857 0.000000 0.006923 0.000000
# 4 0.000000 0.000000 0.000000 0.040882 0.000000 -0.003531
# 5 -0.001171 0.002459 0.006923 0.000000 0.024604 0.000000
# 6 0.000000 0.000000 0.000000 -0.003531 0.000000 0.057487
#
#
# Mechanical properties :
#
#
# Convention : Reuss Voigt Hill
#
# Bulk Modulus (GPa) = 31.02365 55.87716 43.45040
# Shear Modulus (GPa) = 22.67797 30.85701 26.76749
#
# Velocity S-wave (km/s) = 3.07884 3.59139 3.34495
# Velocity P-wave (km/s) = 5.06031 6.36819 5.75155
#
# Compressibility (1/GPa) = 0.03223347
#
# Stress axis : x y z
#
# Youngs Moduli (GPa) = 90.86534 27.29639 84.33921
#
# Poissons Ratio (x) = 0.16471 0.31625
# Poissons Ratio (y) = 0.54831 0.32452
# Poissons Ratio (z) = 0.34072 0.10503
#
# Static dielectric constant tensor:
#      x y z
#    x 1.911220 0.000000 -0.011620 
#    y 0.000000 1.874070 0.000000 
#    z -0.011620 0.000000 2.006330 
# 
# From -- ./inp_files/50778.got.cif
#   From: 2010.05.17/outbox.cif.g08.bks.cpg/sg5_26_cif.got.tgz:50778.got - 2010.06.03 18:56:24.
