data_PCOD9122896
_publ_section_title
;
Structure prediction by ZEFSAII (Michael W. Deem and Ramdas Pophale) SiO2 
 PCOD9122896
Probable space group: C 2
;
_chemical_formula_sum "Si O2"
_cell_formula_units_Z 26
_cell_length_a 7.356969
_cell_length_b 15.308935
_cell_length_c 10.309272
_cell_angle_alpha 90.000000
_cell_angle_beta 93.497060
_cell_angle_gamma 90.000000
_cell_volume 1158.944030
_symmetry_space_group_name_H-M "C 2"
_symmetry_group_IT_number 5
_symmetry_cell_setting 'monoclinic'
loop_
_space_group_symop_operation_xyz
x,y,z
-x,y,-z
1/2+x,1/2+y,z
1/2-x,1/2+y,-z
loop_
_atom_site_type_symbol
_atom_site_label
_atom_site_fract_x
_atom_site_fract_y
_atom_site_fract_z
Si Si1 0.543385 0.678180 0.657819
Si Si2 0.867473 0.356422 0.253790
Si Si3 0.644842 0.490615 0.620251
Si Si4 0.000000 0.454168 0.500000
Si Si5 0.708943 0.993131 0.958320
Si Si6 0.714907 0.363540 0.829988
Si Si7 0.324709 0.688549 0.897644
O O1 0.500000 0.687867 0.500000
O O2 0.674354 0.754783 0.720262
O O3 0.611467 0.581270 0.691824
O O4 0.370025 0.685786 0.745179
O O5 0.764490 0.426566 0.161399
O O6 0.886170 0.395786 0.396739
O O7 0.069059 0.358258 0.196916
O O8 0.500000 0.490098 0.500000
O O9 0.627352 0.398881 0.694389
O O10 0.849985 0.503025 0.576629
O O11 0.759982 0.092290 0.932378
O O12 0.500000 0.993889 0.000000
O O13 0.816069 0.944509 0.076522
O O14 0.685820 0.270700 0.897807
O O15 0.500000 0.707185 0.000000
#
# Coordination Sequence:
#
# PCOD9122896 Si02
#       7
#     4   4   4   2   4   4   4
#     4  10  20  36  62  95 124 167 219 261 315 397
#     4   9  18  35  63  87 120 173 210 256 327 385
#     4  10  22  38  67  91 132 168 223 266 319 381
#     4  10  20  38  62  86 126 178 212 254 322 384
#     4  10  21  38  65  93 126 162 217 274 325 385
#     4   9  19  39  62  90 122 167 215 265 319 398
#     4  11  22  39  68  93 123 173 218 264 333 395
#
# _framework density 22.434215999999999
#
# number of rings (size 3 to 8) (size 9 to 14) (size 15 to 20)
#    0.000    2.154    0.769    3.231    4.308    0.000 
#    0.000    2.308   23.692    0.000    0.000    0.000 
#    0.000    0.000    0.000    0.000    0.000    0.000 
#
# Total GULP energy -72403.042959 kJ/mol
# GULP energy per Si atom -5569.464843 kJ/mol
# Density = 2.238315 g / cm^3
# Si number density = 22.434216 Si / 1000 Ang^3
#
#
#
# Elastic Constant Matrix: (Units=GPa)
#
#
# Indices 1 2 3 4 5 6 
#
# 1 34.8024 20.7630 4.5043 0.0000 -0.5782 0.0000
# 2 20.7630 209.6505 53.3919 0.0000 12.0183 0.0000
# 3 4.5043 53.3919 102.8505 0.0000 -0.2770 0.0000
# 4 0.0000 0.0000 0.0000 147.5557 0.0000 -42.6700
# 5 -0.5782 12.0183 -0.2770 0.0000 23.8573 0.0000
# 6 0.0000 0.0000 0.0000 -42.6700 0.0000 41.8002
#
#
#
# Elastic Compliance Matrix: (Units=1/GPa)
#
#
# Indices 1 2 3 4 5 6 
#
# 1 0.030676 -0.003267 0.000359 0.000000 0.002393 0.000000
# 2 -0.003267 0.006038 -0.003000 0.000000 -0.003156 0.000000
# 3 0.000359 -0.003000 0.011269 0.000000 0.001651 0.000000
# 4 0.000000 0.000000 0.000000 0.009616 0.000000 0.009816
# 5 0.002393 -0.003156 0.001651 0.000000 0.043583 0.000000
# 6 0.000000 0.000000 0.000000 0.009816 0.000000 0.033943
#
#
# Mechanical properties :
#
#
# Convention : Reuss Voigt Hill
#
# Bulk Modulus (GPa) = 27.64927 56.06909 41.85918
# Shear Modulus (GPa) = 31.44729 60.55225 45.99977
#
# Velocity S-wave (km/s) = 3.74806 5.20092 4.53308
# Velocity P-wave (km/s) = 5.57512 7.81749 6.78952
#
# Compressibility (1/GPa) = 0.03616732
#
# Stress axis : x y z
#
# Youngs Moduli (GPa) = 32.59902 165.61001 88.73924
#
# Poissons Ratio (x) = 0.54098 -0.03184
# Poissons Ratio (y) = 0.10649 0.26622
# Poissons Ratio (z) = -0.01170 0.49684
#
# Static dielectric constant tensor:
#      x y z
#    x 1.882970 0.000000 -0.028200 
#    y 0.000000 1.884080 0.000000 
#    z -0.028200 0.000000 1.843340 
# 
# From -- ./inp_files/35935.got.cif
#   From: 2010.05.17/outbox.cif.g08.bks.cpg/sg5_18_cif.got.tgz:35935.got - 2010.06.03 18:56:24.
