data_PCOD9122800
_publ_section_title
;
Structure prediction by ZEFSAII (Michael W. Deem and Ramdas Pophale) SiO2 
 PCOD9122800
Probable space group: C 2
;
_chemical_formula_sum "Si O2"
_cell_formula_units_Z 30
_cell_length_a 11.358749
_cell_length_b 8.781650
_cell_length_c 14.904470
_cell_angle_alpha 90.000000
_cell_angle_beta 89.425468
_cell_angle_gamma 90.000000
_cell_volume 1486.624649
_symmetry_space_group_name_H-M "C 2"
_symmetry_group_IT_number 5
_symmetry_cell_setting 'monoclinic'
loop_
_space_group_symop_operation_xyz
x,y,z
-x,y,-z
1/2+x,1/2+y,z
1/2-x,1/2+y,-z
loop_
_atom_site_type_symbol
_atom_site_label
_atom_site_fract_x
_atom_site_fract_y
_atom_site_fract_z
Si Si1 0.065082 0.196640 0.228585
Si Si2 0.716423 0.417702 0.232401
Si Si3 0.875142 0.615991 0.839706
Si Si4 0.871402 0.567844 0.088373
Si Si5 0.500000 0.851203 0.500000
Si Si6 0.343643 0.708184 0.351635
Si Si7 0.810544 0.336593 0.935441
Si Si8 0.150440 0.465387 0.339399
O O1 0.089771 0.253773 0.127054
O O2 0.148402 0.299010 0.293172
O O3 0.934853 0.213988 0.267688
O O4 0.103621 0.024180 0.239209
O O5 0.683781 0.278125 0.167769
O O6 0.815545 0.519996 0.184248
O O7 0.754792 0.344146 0.325812
O O8 0.784163 0.487312 0.875273
O O9 0.909533 0.566152 0.738507
O O10 0.992576 0.609658 0.898112
O O11 0.793686 0.712931 0.055251
O O12 0.853271 0.419841 0.025220
O O13 0.413978 0.748002 0.440383
O O14 0.575357 0.950632 0.429812
O O15 0.273317 0.550235 0.355111
#
# Coordination Sequence:
#
# PCOD9122800 Si02
#       8
#     4   4   4   4   2   4   4   4
#     4   9  20  38  58  84 114 151 195 235 285 343
#     4  10  21  36  59  85 110 150 194 233 285 339
#     4  10  21  38  57  81 111 149 191 232 283 342
#     4  11  21  37  56  81 117 150 190 242 286 333
#     4  10  20  36  58  88 118 148 188 236 288 344
#     4  10  21  39  60  84 119 153 189 237 287 344
#     4  10  21  36  57  83 113 153 192 236 289 335
#     4   9  20  39  61  84 115 152 189 234 289 343
#
# _framework density 20.179942
#
# number of rings (size 3 to 8) (size 9 to 14) (size 15 to 20)
#    0.000    2.133    0.000    3.600    0.000    6.400 
#    0.000   10.667    0.000    1.600    0.000    0.000 
#    0.000    0.000    0.000    0.000    0.000    0.000 
#
# Total GULP energy -83626.917575 kJ/mol
# GULP energy per Si atom -5575.127838 kJ/mol
# Density = 2.013401 g / cm^3
# Si number density = 20.179942 Si / 1000 Ang^3
#
#
#
# Elastic Constant Matrix: (Units=GPa)
#
#
# Indices 1 2 3 4 5 6 
#
# 1 79.6004 44.8153 42.0241 0.0000 14.3299 0.0000
# 2 44.8153 107.8233 18.7390 0.0000 12.2297 0.0000
# 3 42.0241 18.7390 95.4770 0.0000 8.5417 0.0000
# 4 0.0000 0.0000 0.0000 15.9272 0.0000 2.3594
# 5 14.3299 12.2297 8.5417 0.0000 32.5482 0.0000
# 6 0.0000 0.0000 0.0000 2.3594 0.0000 32.7068
#
#
#
# Elastic Compliance Matrix: (Units=1/GPa)
#
#
# Indices 1 2 3 4 5 6 
#
# 1 0.021400 -0.007029 -0.007612 0.000000 -0.004783 0.000000
# 2 -0.007029 0.012245 0.000845 0.000000 -0.001728 0.000000
# 3 -0.007612 0.000845 0.013709 0.000000 -0.000564 0.000000
# 4 0.000000 0.000000 0.000000 0.063464 0.000000 -0.004578
# 5 -0.004783 -0.001728 -0.000564 0.000000 0.033627 0.000000
# 6 0.000000 0.000000 0.000000 -0.004578 0.000000 0.030905
#
#
# Mechanical properties :
#
#
# Convention : Reuss Voigt Hill
#
# Bulk Modulus (GPa) = 50.60161 54.89529 52.74845
# Shear Modulus (GPa) = 23.86323 28.05794 25.96058
#
# Velocity S-wave (km/s) = 3.44251 3.73284 3.59061
# Velocity P-wave (km/s) = 6.39772 6.77058 6.58679
#
# Compressibility (1/GPa) = 0.01976222
#
# Stress axis : x y z
#
# Youngs Moduli (GPa) = 46.72976 81.66512 72.94733
#
# Poissons Ratio (x) = 0.57404 0.55524
# Poissons Ratio (y) = 0.32847 -0.06165
# Poissons Ratio (z) = 0.35569 -0.06902
#
# Static dielectric constant tensor:
#      x y z
#    x 1.739430 0.000000 -0.009770 
#    y 0.000000 1.722550 0.000000 
#    z -0.009770 0.000000 1.752810 
# 
# From -- ./inp_files/52278.got.cif
#   From: 2010.05.17/outbox.cif.g08.bks.cpg/sg5_27_cif.got.tgz:52278.got - 2010.06.03 18:56:24.
