data_PCOD9122056
_publ_section_title
;
Structure prediction by ZEFSAII (Michael W. Deem and Ramdas Pophale) SiO2 
 PCOD9122056
Probable space group: C 2
;
_chemical_formula_sum "Si O2"
_cell_formula_units_Z 28
_cell_length_a 23.519802
_cell_length_b 11.355281
_cell_length_c 8.049152
_cell_angle_alpha 90.000000
_cell_angle_beta 33.701949
_cell_angle_gamma 90.000000
_cell_volume 1192.820392
_symmetry_space_group_name_H-M "C 2"
_symmetry_group_IT_number 5
_symmetry_cell_setting 'monoclinic'
loop_
_space_group_symop_operation_xyz
x,y,z
-x,y,-z
1/2+x,1/2+y,z
1/2-x,1/2+y,-z
loop_
_atom_site_type_symbol
_atom_site_label
_atom_site_fract_x
_atom_site_fract_y
_atom_site_fract_z
Si Si1 0.653054 0.411730 0.627298
Si Si2 0.685247 0.461005 0.923345
Si Si3 0.371566 0.565514 0.615064
Si Si4 0.389930 0.833649 0.545807
Si Si5 0.500000 0.002126 0.500000
Si Si6 0.818731 0.570376 0.117073
Si Si7 0.181606 0.652697 0.548496
Si Si8 0.000000 0.464640 0.000000
O O1 0.635571 0.425757 0.866934
O O2 0.598186 0.499994 0.630923
O O3 0.772777 0.448697 0.305429
O O4 0.640345 0.278712 0.598058
O O5 0.778427 0.372129 0.745418
O O6 0.732473 0.591430 0.770706
O O7 0.617433 0.483014 0.251630
O O8 0.410582 0.697779 0.533292
O O9 0.249210 0.586864 0.881303
O O10 0.411406 0.916601 0.650436
O O11 0.476520 0.879350 0.209043
O O12 0.438307 0.077643 0.784829
O O13 0.783567 0.662345 0.343884
O O14 0.094797 0.553661 0.771924
#
# Coordination Sequence:
#
# PCOD9122056 Si02
#       8
#     4   4   4   4   2   4   4   2
#     4   9  21  40  60  92 125 165 213 262 314 377
#     4  10  21  35  63  93 120 164 213 251 319 371
#     4  10  22  39  60  97 124 168 215 257 315 377
#     4  11  22  40  62  93 131 163 214 267 314 386
#     4  12  20  38  62  96 134 160 210 274 312 370
#     4   9  20  37  58  91 126 157 207 254 318 360
#     4  10  19  38  61  85 126 159 207 267 309 374
#     4  10  22  38  62  92 114 168 208 258 332 372
#
# _framework density 23.473776000000001
#
# number of rings (size 3 to 8) (size 9 to 14) (size 15 to 20)
#    0.857    1.143    2.857    0.857    4.000    0.000 
#    2.571    0.714    0.000    0.000    0.000    0.000 
#    0.000    0.000    0.000    0.000    0.000    0.000 
#
# Total GULP energy -77994.129554 kJ/mol
# GULP energy per Si atom -5571.009254 kJ/mol
# Density = 2.342035 g / cm^3
# Si number density = 23.473776 Si / 1000 Ang^3
#
#
#
# Elastic Constant Matrix: (Units=GPa)
#
#
# Indices 1 2 3 4 5 6 
#
# 1 64.9228 -2.8729 28.3298 0.0000 19.1509 0.0000
# 2 -2.8729 82.0367 6.6094 0.0000 11.5725 0.0000
# 3 28.3298 6.6094 41.6084 0.0000 5.0182 0.0000
# 4 0.0000 0.0000 0.0000 9.7917 0.0000 4.8998
# 5 19.1509 11.5725 5.0182 0.0000 36.1138 0.0000
# 6 0.0000 0.0000 0.0000 4.8998 0.0000 25.2878
#
#
#
# Elastic Compliance Matrix: (Units=1/GPa)
#
#
# Indices 1 2 3 4 5 6 
#
# 1 0.027201 0.004252 -0.017586 0.000000 -0.013343 0.000000
# 2 0.004252 0.013532 -0.004322 0.000000 -0.005990 0.000000
# 3 -0.017586 -0.004322 0.036006 0.000000 0.005708 0.000000
# 4 0.000000 0.000000 0.000000 0.113092 0.000000 -0.021913
# 5 -0.013343 -0.005990 0.005708 0.000000 0.035893 0.000000
# 6 0.000000 0.000000 0.000000 -0.021913 0.000000 0.043791
#
#
# Mechanical properties :
#
#
# Convention : Reuss Voigt Hill
#
# Bulk Modulus (GPa) = 24.13974 28.07782 26.10878
# Shear Modulus (GPa) = 15.69190 24.67210 20.18200
#
# Velocity S-wave (km/s) = 2.58832 3.24551 2.93536
# Velocity P-wave (km/s) = 4.38618 5.10213 4.75764
#
# Compressibility (1/GPa) = 0.04142546
#
# Stress axis : x y z
#
# Youngs Moduli (GPa) = 36.76323 73.90007 27.77331
#
# Poissons Ratio (x) = -0.31420 0.48843
# Poissons Ratio (y) = -0.15631 0.12003
# Poissons Ratio (z) = 0.64653 0.31939
#
# Static dielectric constant tensor:
#      x y z
#    x 2.040670 0.000000 0.016890 
#    y 0.000000 1.866060 0.000000 
#    z 0.016890 0.000000 1.937560 
# 
# From -- ./inp_files/31909.got.cif
#   From: 2010.05.17/outbox.cif.g08.bks.cpg/sg5_16_cif.got.tgz:31909.got - 2010.06.03 18:56:24.
