data_PCOD9122339
_publ_section_title
;
Structure prediction by ZEFSAII (Michael W. Deem and Ramdas Pophale) SiO2 
 PCOD9122339
Probable space group: C 2
;
_chemical_formula_sum "Si O2"
_cell_formula_units_Z 16
_cell_length_a 6.992320
_cell_length_b 12.765181
_cell_length_c 7.938610
_cell_angle_alpha 90.000000
_cell_angle_beta 79.526082
_cell_angle_gamma 90.000000
_cell_volume 696.779648
_symmetry_space_group_name_H-M "C 2"
_symmetry_group_IT_number 5
_symmetry_cell_setting 'monoclinic'
loop_
_space_group_symop_operation_xyz
x,y,z
-x,y,-z
1/2+x,1/2+y,z
1/2-x,1/2+y,-z
loop_
_atom_site_type_symbol
_atom_site_label
_atom_site_fract_x
_atom_site_fract_y
_atom_site_fract_z
Si Si1 0.435315 0.994880 0.322554
Si Si2 0.315062 0.651816 0.444612
Si Si3 0.364158 0.482193 0.169796
Si Si4 0.892258 0.834319 0.693399
O O1 0.500000 0.955310 0.500000
O O2 0.278079 0.919749 0.264776
O O3 0.333197 0.105457 0.391245
O O4 0.633080 0.992914 0.183577
O O5 0.500000 0.706125 0.500000
O O6 0.396308 0.551400 0.332043
O O7 0.212235 0.723599 0.320964
O O8 0.444115 0.365239 0.197210
O O9 0.500000 0.523753 0.000000
O O10 0.000000 0.849629 0.500000
#
# Coordination Sequence:
#
# PCOD9122339 Si02
#       4
#     4   4   4   4
#     4  10  19  41  67  93 129 168 218 275 319 376
#     4  11  22  43  73  99 126 175 228 272 325 385
#     4  11  24  44  63  96 141 171 212 272 336 393
#     4  12  21  40  71  99 127 171 226 271 318 389
#
# _framework density 22.962783000000002
#
# number of rings (size 3 to 8) (size 9 to 14) (size 15 to 20)
#    0.000    1.000    7.500    3.000    0.000    1.000 
#    4.500    0.000    0.000    0.000    0.000    0.000 
#    0.000    0.000    0.000    0.000    0.000    0.000 
#
# Total GULP energy -44604.755391 kJ/mol
# GULP energy per Si atom -5575.594424 kJ/mol
# Density = 2.291052 g / cm^3
# Si number density = 22.962783 Si / 1000 Ang^3
#
#
#
# Elastic Constant Matrix: (Units=GPa)
#
#
# Indices 1 2 3 4 5 6 
#
# 1 123.4974 35.4975 23.3740 0.0000 -41.8685 0.0000
# 2 35.4975 94.9804 -3.3930 0.0000 -6.4296 0.0000
# 3 23.3740 -3.3930 84.5016 0.0000 -38.2343 0.0000
# 4 0.0000 0.0000 0.0000 7.0898 0.0000 3.0971
# 5 -41.8685 -6.4296 -38.2343 0.0000 35.7089 0.0000
# 6 0.0000 0.0000 0.0000 3.0971 0.0000 42.5455
#
#
#
# Elastic Compliance Matrix: (Units=1/GPa)
#
#
# Indices 1 2 3 4 5 6 
#
# 1 0.017211 -0.004312 0.007459 0.000000 0.027390 0.000000
# 2 -0.004312 0.012021 0.000713 0.000000 -0.002128 0.000000
# 3 0.007459 0.000713 0.026797 0.000000 0.037566 0.000000
# 4 0.000000 0.000000 0.000000 0.145679 0.000000 -0.010605
# 5 0.027390 -0.002128 0.037566 0.000000 0.099958 0.000000
# 6 0.000000 0.000000 0.000000 -0.010605 0.000000 0.024276
#
#
# Mechanical properties :
#
#
# Convention : Reuss Voigt Hill
#
# Bulk Modulus (GPa) = 15.68654 45.99295 30.83974
# Shear Modulus (GPa) = 14.72877 33.56893 24.14885
#
# Velocity S-wave (km/s) = 2.53537 3.82761 3.24644
# Velocity P-wave (km/s) = 3.92644 6.29340 5.24518
#
# Compressibility (1/GPa) = 0.06374891
#
# Stress axis : x y z
#
# Youngs Moduli (GPa) = 58.10374 83.18572 37.31782
#
# Poissons Ratio (x) = 0.35867 -0.27836
# Poissons Ratio (y) = 0.25052 -0.02659
# Poissons Ratio (z) = -0.43341 -0.05927
#
# Static dielectric constant tensor:
#      x y z
#    x 1.995540 0.000000 0.026970 
#    y 0.000000 1.924630 0.000000 
#    z 0.026970 0.000000 1.838170 
# 
# From -- ./inp_files/11721.got.cif
#   From: 2010.05.17/outbox.cif.g08.bks.cpg/sg5_6_cif.got.tgz:11721.got - 2010.06.03 18:56:24.
