data_PCOD9122825
_publ_section_title
;
Structure prediction by ZEFSAII (Michael W. Deem and Ramdas Pophale) SiO2 
 PCOD9122825
Probable space group: C 2
;
_chemical_formula_sum "Si O2"
_cell_formula_units_Z 28
_cell_length_a 5.136022
_cell_length_b 35.373905
_cell_length_c 9.275816
_cell_angle_alpha 90.000000
_cell_angle_beta 59.903470
_cell_angle_gamma 90.000000
_cell_volume 1458.039792
_symmetry_space_group_name_H-M "C 2"
_symmetry_group_IT_number 5
_symmetry_cell_setting 'monoclinic'
loop_
_space_group_symop_operation_xyz
x,y,z
-x,y,-z
1/2+x,1/2+y,z
1/2-x,1/2+y,-z
loop_
_atom_site_type_symbol
_atom_site_label
_atom_site_fract_x
_atom_site_fract_y
_atom_site_fract_z
Si Si1 0.892037 0.897120 0.190639
Si Si2 0.852219 0.522342 0.384236
Si Si3 0.229542 0.439376 0.689890
Si Si4 0.147745 0.820761 0.614763
Si Si5 0.358265 0.088614 0.879857
Si Si6 0.857969 0.671418 0.880795
Si Si7 0.141430 0.754262 0.120240
O O1 0.559531 0.914976 0.274262
O O2 0.886085 0.859399 0.286826
O O3 0.126843 0.925923 0.199961
O O4 0.000000 0.888367 0.000000
O O5 0.500000 0.531894 0.500000
O O6 0.863051 0.483215 0.292239
O O7 0.000000 0.515787 0.500000
O O8 0.020554 0.555731 0.255171
O O9 0.500000 0.434446 0.500000
O O10 0.500000 0.812148 0.500000
O O11 0.000000 0.825697 0.500000
O O12 0.984192 0.787110 0.744918
O O13 0.436843 0.130449 0.794677
O O14 0.500000 0.085549 0.000000
O O15 0.000000 0.085984 0.000000
O O16 0.935027 0.712411 0.794948
O O17 0.500000 0.671377 0.000000
O O18 0.000000 0.671466 0.000000
O O19 0.500000 0.757332 0.000000
O O20 0.000000 0.757149 0.000000
#
# Coordination Sequence:
#
# PCOD9122825 Si02
#       7
#     4   4   4   4   4   4   4
#     4  12  25  41  62  87 112 145 193 239 280 332
#     4  11  23  39  58  84 118 154 188 229 288 343
#     4  11  23  42  62  82 114 154 189 230 287 343
#     4  12  25  40  59  85 119 152 185 229 288 343
#     4  10  20  36  59  86 115 150 194 236 277 331
#     4   8  16  32  56  83 111 147 187 231 281 329
#     4  10  20  38  62  85 113 150 194 236 277 331
#
# _framework density 19.203866000000001
#
# number of rings (size 3 to 8) (size 9 to 14) (size 15 to 20)
#    0.000    1.429    0.000    6.857    0.000    2.857 
#    0.000    1.429    0.000    0.000    0.000    0.000 
#    0.000    0.000    0.000    0.000    0.000    0.000 
#
# Total GULP energy -78218.747449 kJ/mol
# GULP energy per Si atom -5587.053389 kJ/mol
# Density = 1.916016 g / cm^3
# Si number density = 19.203866 Si / 1000 Ang^3
#
#
#
# Elastic Constant Matrix: (Units=GPa)
#
#
# Indices 1 2 3 4 5 6 
#
# 1 164.2318 56.5234 42.0922 0.0000 4.1209 0.0000
# 2 56.5234 178.6330 77.5153 0.0000 -14.0859 0.0000
# 3 42.0922 77.5153 76.6154 0.0000 4.4123 0.0000
# 4 0.0000 0.0000 0.0000 152.5942 0.0000 5.1692
# 5 4.1209 -14.0859 4.4123 0.0000 25.7921 0.0000
# 6 0.0000 0.0000 0.0000 5.1692 0.0000 30.2173
#
#
#
# Elastic Compliance Matrix: (Units=1/GPa)
#
#
# Indices 1 2 3 4 5 6 
#
# 1 0.007229 -0.001264 -0.002612 0.000000 -0.001399 0.000000
# 2 -0.001264 0.011751 -0.011691 0.000000 0.008619 0.000000
# 3 -0.002612 -0.011691 0.026924 0.000000 -0.010573 0.000000
# 4 0.000000 0.000000 0.000000 0.006592 0.000000 -0.001128
# 5 -0.001399 0.008619 -0.010573 0.000000 0.045511 0.000000
# 6 0.000000 0.000000 0.000000 -0.001128 0.000000 0.033287
#
#
# Mechanical properties :
#
#
# Convention : Reuss Voigt Hill
#
# Bulk Modulus (GPa) = 67.70430 85.74911 76.72671
# Shear Modulus (GPa) = 29.87776 57.94401 43.91089
#
# Velocity S-wave (km/s) = 3.94867 5.49896 4.78699
# Velocity P-wave (km/s) = 7.49142 9.22318 8.40204
#
# Compressibility (1/GPa) = 0.01477011
#
# Stress axis : x y z
#
# Youngs Moduli (GPa) = 138.34070 85.10110 37.14179
#
# Poissons Ratio (x) = 0.10759 0.09700
# Poissons Ratio (y) = 0.17490 0.43421
# Poissons Ratio (z) = 0.36130 0.99488
#
# Static dielectric constant tensor:
#      x y z
#    x 1.655140 0.000000 0.007110 
#    y 0.000000 1.700930 0.000000 
#    z 0.007110 0.000000 1.625880 
# 
# From -- ./inp_files/13294.got.cif
#   From: 2010.05.17/outbox.cif.g08.bks.cpg/sg5_7_cif.got.tgz:13294.got - 2010.06.03 18:56:24.
