data_PCOD9122856
_publ_section_title
;
Structure prediction by ZEFSAII (Michael W. Deem and Ramdas Pophale) SiO2 
 PCOD9122856
Probable space group: C 2
;
_chemical_formula_sum "Si O2"
_cell_formula_units_Z 32
_cell_length_a 12.039515
_cell_length_b 11.523645
_cell_length_c 9.952305
_cell_angle_alpha 90.000000
_cell_angle_beta 80.967033
_cell_angle_gamma 90.000000
_cell_volume 1363.649682
_symmetry_space_group_name_H-M "C 2"
_symmetry_group_IT_number 5
_symmetry_cell_setting 'monoclinic'
loop_
_space_group_symop_operation_xyz
x,y,z
-x,y,-z
1/2+x,1/2+y,z
1/2-x,1/2+y,-z
loop_
_atom_site_type_symbol
_atom_site_label
_atom_site_fract_x
_atom_site_fract_y
_atom_site_fract_z
Si Si1 0.510034 0.186950 0.770272
Si Si2 0.446175 0.425017 0.691146
Si Si3 0.592247 0.872451 0.767899
Si Si4 0.084209 0.152897 0.599864
Si Si5 0.321711 0.183277 0.036603
Si Si6 0.262180 0.476355 0.524719
Si Si7 0.580809 0.970160 0.360180
Si Si8 0.254676 0.430416 0.958511
O O1 0.519421 0.312559 0.703826
O O2 0.419222 0.190387 0.907088
O O3 0.453388 0.100520 0.674066
O O4 0.624429 0.156563 0.827645
O O5 0.519977 0.541188 0.672007
O O6 0.371885 0.416884 0.569032
O O7 0.354877 0.429840 0.828541
O O8 0.611949 0.743450 0.709777
O O9 0.667460 0.951650 0.653153
O O10 0.462776 0.900349 0.760795
O O11 0.638502 0.898460 0.904445
O O12 0.000000 0.198029 0.500000
O O13 0.196179 0.107978 0.504533
O O14 0.274851 0.316035 0.046757
O O15 0.252829 0.067611 0.002270
O O16 0.204720 0.446686 0.392998
O O17 0.500000 0.940228 0.500000
#
# Coordination Sequence:
#
# PCOD9122856 Si02
#       8
#     4   4   4   4   4   4   4   4
#     4  10  21  41  62  86 127 164 207 262 316 373
#     4   9  21  39  58  88 127 165 202 257 311 378
#     4  10  20  39  59  86 128 160 202 265 309 369
#     4  10  20  37  57  87 131 169 204 249 313 376
#     4  10  22  41  66  90 122 166 216 269 318 378
#     4   9  20  33  57  91 118 162 206 236 309 376
#     4  10  20  36  60  91 121 160 199 250 314 368
#     4  10  21  42  66  90 123 162 215 269 323 373
#
# _framework density 23.466439000000001
#
# number of rings (size 3 to 8) (size 9 to 14) (size 15 to 20)
#    0.000    2.250    1.250    1.125    5.250    2.500 
#    4.500    0.000    0.000    0.000    0.000    0.000 
#    0.000    0.000    0.000    0.000    0.000    0.000 
#
# Total GULP energy -89174.936490 kJ/mol
# GULP energy per Si atom -5573.433531 kJ/mol
# Density = 2.341303 g / cm^3
# Si number density = 23.466439 Si / 1000 Ang^3
#
#
#
# Elastic Constant Matrix: (Units=GPa)
#
#
# Indices 1 2 3 4 5 6 
#
# 1 72.5541 36.7044 22.4336 0.0000 15.0740 0.0000
# 2 36.7044 166.1502 46.4353 0.0000 3.9021 0.0000
# 3 22.4336 46.4353 55.9447 0.0000 7.1535 0.0000
# 4 0.0000 0.0000 0.0000 24.2161 0.0000 19.8910
# 5 15.0740 3.9021 7.1535 0.0000 20.9141 0.0000
# 6 0.0000 0.0000 0.0000 19.8910 0.0000 5.9006
#
#
#
# Elastic Compliance Matrix: (Units=1/GPa)
#
#
# Indices 1 2 3 4 5 6 
#
# 1 0.018805 -0.002853 -0.003668 0.000000 -0.011767 0.000000
# 2 -0.002853 0.008282 -0.006061 0.000000 0.002584 0.000000
# 3 -0.003668 -0.006061 0.024986 0.000000 -0.004772 0.000000
# 4 0.000000 0.000000 0.000000 -0.023345 0.000000 0.078695
# 5 -0.011767 0.002584 -0.004772 0.000000 0.057446 0.000000
# 6 0.000000 0.000000 0.000000 0.078695 0.000000 -0.095806
#
#
# Mechanical properties :
#
#
# Convention : Reuss Voigt Hill
#
# Bulk Modulus (GPa) = 37.16104 56.19951 46.68027
# Shear Modulus (GPa) = 204.07308 22.81122 113.44215
#
# Velocity S-wave (km/s) = 9.33556 3.12120 6.96041
# Velocity P-wave (km/s) = 11.49233 6.08195 9.19412
#
# Compressibility (1/GPa) = 0.02690991
#
# Stress axis : x y z
#
# Youngs Moduli (GPa) = 53.17775 120.74414 40.02175
#
# Poissons Ratio (x) = 0.34444 0.14681
# Poissons Ratio (y) = 0.15170 0.24256
# Poissons Ratio (z) = 0.19507 0.73179
#
# Static dielectric constant tensor:
#      x y z
#    x 1.947270 0.000000 0.019670 
#    y 0.000000 1.922360 0.000000 
#    z 0.019670 0.000000 1.902710 
# 
# From -- ./inp_files/39184.got.cif
#   From: 2010.05.17/outbox.cif.g08.bks.cpg/sg5_20_cif.got.tgz:39184.got - 2010.06.03 18:56:24.
