data_PCOD9122286
_publ_section_title
;
Structure prediction by ZEFSAII (Michael W. Deem and Ramdas Pophale) SiO2 
 PCOD9122286
Probable space group: C 2
;
_chemical_formula_sum "Si O2"
_cell_formula_units_Z 32
_cell_length_a 19.797020
_cell_length_b 15.039437
_cell_length_c 14.076978
_cell_angle_alpha 90.000000
_cell_angle_beta 161.373323
_cell_angle_gamma 90.000000
_cell_volume 1338.679158
_symmetry_space_group_name_H-M "C 2"
_symmetry_group_IT_number 5
_symmetry_cell_setting 'monoclinic'
loop_
_space_group_symop_operation_xyz
x,y,z
-x,y,-z
1/2+x,1/2+y,z
1/2-x,1/2+y,-z
loop_
_atom_site_type_symbol
_atom_site_label
_atom_site_fract_x
_atom_site_fract_y
_atom_site_fract_z
Si Si1 0.186586 0.036980 0.627336
Si Si2 0.959023 0.922895 0.730906
Si Si3 0.814606 0.545527 0.004170
Si Si4 0.958168 0.372917 0.711495
Si Si5 0.791339 0.768957 0.280824
Si Si6 0.740904 0.697815 0.572063
Si Si7 0.059227 0.093328 0.968048
Si Si8 0.010447 0.740555 0.764972
O O1 0.325106 0.027899 0.905086
O O2 0.262599 0.127006 0.681602
O O3 0.935025 0.045366 0.310438
O O4 0.177727 0.957794 0.540948
O O5 0.769745 0.902153 0.552314
O O6 0.106593 0.840142 0.896825
O O7 0.091025 0.001843 0.954946
O O8 0.893006 0.644982 0.133863
O O9 0.938592 0.457539 0.204368
O O10 0.901922 0.280283 0.583563
O O11 0.108956 0.333007 0.996827
O O12 0.000000 0.796034 0.500000
O O13 0.830409 0.762714 0.445940
O O14 0.739722 0.665866 0.190641
O O15 0.633547 0.641612 0.342993
O O16 0.943596 0.731070 0.785693
O O17 0.000000 0.082107 0.000000
#
# Coordination Sequence:
#
# PCOD9122286 Si02
#       8
#     4   4   4   4   4   4   4   4
#     4  10  23  41  61  86 127 166 210 260 325 376
#     4  10  23  41  65  93 123 170 215 269 313 376
#     4  11  24  38  61  92 126 169 204 266 321 388
#     4  10  23  40  63  98 119 164 214 263 314 372
#     4  11  25  39  67  97 131 168 208 268 330 382
#     4   9  20  39  62  89 120 164 210 263 310 371
#     4  10  19  40  66  92 126 163 212 268 315 384
#     4  11  23  40  62  93 126 165 215 260 323 383
#
# _framework density 23.904157000000001
#
# number of rings (size 3 to 8) (size 9 to 14) (size 15 to 20)
#    0.000    1.750    1.250    2.250    8.750    4.000 
#    4.500    0.000    2.750    0.000    0.000    0.000 
#    0.000    0.000    0.000    0.000    0.000    0.000 
#
# Total GULP energy -89187.139999 kJ/mol
# GULP energy per Si atom -5574.196250 kJ/mol
# Density = 2.384975 g / cm^3
# Si number density = 23.904157 Si / 1000 Ang^3
#
#
#
# Elastic Constant Matrix: (Units=GPa)
#
#
# Indices 1 2 3 4 5 6 
#
# 1 34.5416 11.2471 -2.3928 0.0000 -1.0622 0.0000
# 2 11.2471 199.0264 30.3862 0.0000 -3.1601 0.0000
# 3 -2.3928 30.3862 34.0287 0.0000 4.4975 0.0000
# 4 0.0000 0.0000 0.0000 27.6934 0.0000 0.2993
# 5 -1.0622 -3.1601 4.4975 0.0000 18.5048 0.0000
# 6 0.0000 0.0000 0.0000 0.2993 0.0000 -13.5361
#
#
#
# Elastic Compliance Matrix: (Units=1/GPa)
#
#
# Indices 1 2 3 4 5 6 
#
# 1 0.030004 -0.002323 0.004142 0.000000 0.000319 0.000000
# 2 -0.002323 0.006096 -0.005917 0.000000 0.002346 0.000000
# 3 0.004142 -0.005917 0.036228 0.000000 -0.009578 0.000000
# 4 0.000000 0.000000 0.000000 0.036101 0.000000 0.000798
# 5 0.000319 0.002346 -0.009578 0.000000 0.056787 0.000000
# 6 0.000000 0.000000 0.000000 0.000798 0.000000 -0.073859
#
#
# Mechanical properties :
#
#
# Convention : Reuss Voigt Hill
#
# Bulk Modulus (GPa) = 15.59295 38.45307 27.02301
# Shear Modulus (GPa) = 41.34609 21.75617 31.55113
#
# Velocity S-wave (km/s) = 4.16343 3.02013 3.63699
# Velocity P-wave (km/s) = 5.44513 5.31816 5.38202
#
# Compressibility (1/GPa) = 0.06413153
#
# Stress axis : x y z
#
# Youngs Moduli (GPa) = 33.32924 164.03191 27.60307
#
# Poissons Ratio (x) = 0.38101 -0.11433
# Poissons Ratio (y) = 0.07742 0.16333
# Poissons Ratio (z) = -0.13804 0.97061
#
# Static dielectric constant tensor:
#      x y z
#    x 1.973940 0.000000 0.012920 
#    y 0.000000 1.981710 0.000000 
#    z 0.012920 0.000000 1.935520 
# 
# From -- ./inp_files/57190.got.cif
#   From: 2010.05.17/outbox.cif.g08.bks.cpg/sg5_29_cif.got.tgz:57190.got - 2010.06.03 18:56:24.
