data_PCOD9122377
_publ_section_title
;
Structure prediction by ZEFSAII (Michael W. Deem and Ramdas Pophale) SiO2 
 PCOD9122377
Probable space group: C 2
;
_chemical_formula_sum "Si O2"
_cell_formula_units_Z 20
_cell_length_a 9.530191
_cell_length_b 12.363365
_cell_length_c 12.159633
_cell_angle_alpha 90.000000
_cell_angle_beta 139.396581
_cell_angle_gamma 90.000000
_cell_volume 932.436651
_symmetry_space_group_name_H-M "C 2"
_symmetry_group_IT_number 5
_symmetry_cell_setting 'monoclinic'
loop_
_space_group_symop_operation_xyz
x,y,z
-x,y,-z
1/2+x,1/2+y,z
1/2-x,1/2+y,-z
loop_
_atom_site_type_symbol
_atom_site_label
_atom_site_fract_x
_atom_site_fract_y
_atom_site_fract_z
Si Si1 0.747959 0.161850 0.105236
Si Si2 0.823639 0.353652 0.298747
Si Si3 0.008969 0.965605 0.636995
Si Si4 0.442457 0.258917 0.207975
Si Si5 0.453078 0.057399 0.595638
O O1 0.864686 0.260412 0.235856
O O2 0.857855 0.053232 0.213572
O O3 0.500000 0.154634 0.000000
O O4 0.738208 0.198564 0.972268
O O5 0.591334 0.326493 0.211665
O O6 0.854707 0.472245 0.265773
O O7 0.000000 0.344029 0.500000
O O8 0.000000 0.981767 0.500000
O O9 0.101636 0.847733 0.724694
O O10 0.762784 0.986358 0.527110
O O11 0.567425 0.158611 0.336774
O O12 0.500000 0.096685 0.500000
#
# Coordination Sequence:
#
# PCOD9122377 Si02
#       5
#     4   4   4   4   4
#     4  10  23  41  67  95 139 180 228 278 358 412
#     4  10  19  42  69  94 127 183 224 277 343 414
#     4  12  24  43  71 100 137 184 234 287 345 417
#     4  11  23  41  66 102 139 174 228 289 345 409
#     4  11  23  43  72 100 134 178 240 282 342 419
#
# _framework density 21.449176999999999
#
# number of rings (size 3 to 8) (size 9 to 14) (size 15 to 20)
#    0.000    1.200    4.000    4.800    2.800    0.000 
#    0.000    1.000    0.000    0.000    0.000    0.000 
#    0.000    0.000    0.000    0.000    0.000    0.000 
#
# Total GULP energy -55765.001065 kJ/mol
# GULP energy per Si atom -5576.500107 kJ/mol
# Density = 2.140036 g / cm^3
# Si number density = 21.449177 Si / 1000 Ang^3
#
#
#
# Elastic Constant Matrix: (Units=GPa)
#
#
# Indices 1 2 3 4 5 6 
#
# 1 57.2178 8.1705 20.4850 0.0000 -4.6069 0.0000
# 2 8.1705 154.8831 53.3686 -0.0001 -3.5887 0.0000
# 3 20.4850 53.3686 97.0487 -0.0001 -15.8344 0.0000
# 4 0.0000 -0.0001 -0.0001 -1.3402 -0.0001 -5.3641
# 5 -4.6069 -3.5887 -15.8344 -0.0001 15.8879 0.0000
# 6 0.0000 0.0000 0.0000 -5.3641 0.0000 16.2676
#
#
#
# Elastic Compliance Matrix: (Units=1/GPa)
#
#
# Indices 1 2 3 4 5 6 
#
# 1 0.018969 0.000400 -0.003955 0.000000 0.001649 0.000000
# 2 0.000400 0.008101 -0.005042 0.000000 -0.003079 0.000000
# 3 -0.003955 -0.005042 0.016168 -0.000001 0.013828 0.000000
# 4 0.000000 0.000000 -0.000001 -0.321653 -0.000002 -0.106062
# 5 0.001649 -0.003079 0.013828 -0.000002 0.076505 -0.000001
# 6 0.000000 0.000000 0.000000 -0.106062 -0.000001 0.026499
#
#
# Mechanical properties :
#
#
# Convention : Reuss Voigt Hill
#
# Bulk Modulus (GPa) = 38.39587 52.57753 45.48670
# Shear Modulus (GPa) = -33.43660 21.30476 -6.06592
#
# Velocity S-wave (km/s) = -3.95254 3.15503 -1.68350
# Velocity P-wave (km/s) = 1.70012 6.15127 4.18017
#
# Compressibility (1/GPa) = 0.02604447
#
# Stress axis : x y z
#
# Youngs Moduli (GPa) = 52.71858 123.43643 61.85178
#
# Poissons Ratio (x) = -0.04942 0.24463
# Poissons Ratio (y) = -0.02111 0.31185
# Poissons Ratio (z) = 0.20850 0.62236
#
# Static dielectric constant tensor:
#      x y z
#    x 1.837660 0.000000 -0.030490 
#    y 0.000000 1.798000 0.000000 
#    z -0.030490 0.000000 1.938660 
# 
# From -- ./inp_files/18779.got.cif
#   From: 2010.05.17/outbox.cif.g08.bks.cpg/sg5_10_cif.got.tgz:18779.got - 2010.06.03 18:56:24.
