data_PCOD9122500
_publ_section_title
;
Structure prediction by ZEFSAII (Michael W. Deem and Ramdas Pophale) SiO2 
 PCOD9122500
Probable space group: C 2
;
_chemical_formula_sum "Si O2"
_cell_formula_units_Z 32
_cell_length_a 25.482741
_cell_length_b 5.535221
_cell_length_c 15.162981
_cell_angle_alpha 90.000000
_cell_angle_beta 129.527851
_cell_angle_gamma 90.000000
_cell_volume 1649.672149
_symmetry_space_group_name_H-M "C 2"
_symmetry_group_IT_number 5
_symmetry_cell_setting 'monoclinic'
loop_
_space_group_symop_operation_xyz
x,y,z
-x,y,-z
1/2+x,1/2+y,z
1/2-x,1/2+y,-z
loop_
_atom_site_type_symbol
_atom_site_label
_atom_site_fract_x
_atom_site_fract_y
_atom_site_fract_z
Si Si1 0.463153 0.739340 0.224800
Si Si2 0.155428 0.666350 0.337607
Si Si3 0.582208 0.359135 0.092763
Si Si4 0.932025 0.354700 0.988903
Si Si5 0.213816 0.938449 0.559423
Si Si6 0.951730 0.761919 0.311382
Si Si7 0.395785 0.823781 0.571595
Si Si8 0.597568 0.200682 0.550270
O O1 0.449038 0.790763 0.107660
O O2 0.430020 0.495121 0.229855
O O3 0.542656 0.675615 0.322759
O O4 0.451377 0.998512 0.262185
O O5 0.109332 0.805295 0.219212
O O6 0.202490 0.829588 0.450151
O O7 0.206524 0.483064 0.342159
O O8 0.110373 0.532736 0.362151
O O9 0.500000 0.376808 0.000000
O O10 0.608066 0.620271 0.089359
O O11 0.600621 0.120285 0.055847
O O12 0.000000 0.372671 0.000000
O O13 0.167741 0.791068 0.580311
O O14 0.174519 0.190297 0.512791
O O15 0.905921 0.740425 0.350033
O O16 0.028511 0.806384 0.432196
O O17 0.410789 0.924086 0.490380
#
# Coordination Sequence:
#
# PCOD9122500 Si02
#       8
#     4   4   4   4   4   4   4   4
#     4  11  21  35  58  84 116 153 189 236 302 343
#     4  11  23  35  56  85 121 163 196 229 289 354
#     4  10  22  36  56  80 115 157 193 239 277 333
#     4  10  21  35  54  83 113 149 189 235 288 342
#     4  11  21  35  54  83 119 158 193 233 283 360
#     4  10  21  35  57  83 116 154 191 247 287 351
#     4  10  20  34  53  78 120 154 189 231 282 357
#     4   9  21  34  52  81 115 154 197 234 292 343
#
# _framework density 19.397794000000001
#
# number of rings (size 3 to 8) (size 9 to 14) (size 15 to 20)
#    0.000    1.750    2.500    2.250    7.000    1.000 
#    0.000    0.000    0.000    0.000    0.000    3.500 
#    0.000    0.000    0.000    0.000    0.000    0.000 
#
# Total GULP energy -89074.472136 kJ/mol
# GULP energy per Si atom -5567.154508 kJ/mol
# Density = 1.935364 g / cm^3
# Si number density = 19.397794 Si / 1000 Ang^3
#
#
#
# Elastic Constant Matrix: (Units=GPa)
#
#
# Indices 1 2 3 4 5 6 
#
# 1 47.7429 5.3505 22.8707 0.0000 -12.1806 0.0000
# 2 5.3505 85.6520 19.1644 -0.0001 -14.1979 0.0001
# 3 22.8707 19.1644 67.2254 0.0000 -22.2542 0.0000
# 4 0.0000 -0.0001 0.0000 14.5464 0.0000 -1.8461
# 5 -12.1806 -14.1979 -22.2542 0.0000 25.9940 0.0000
# 6 0.0000 0.0001 0.0000 -1.8461 0.0000 13.8084
#
#
#
# Elastic Compliance Matrix: (Units=1/GPa)
#
#
# Indices 1 2 3 4 5 6 
#
# 1 0.025843 0.001046 -0.006827 0.000000 0.006836 0.000000
# 2 0.001046 0.013050 -0.002169 0.000000 0.005761 0.000000
# 3 -0.006827 -0.002169 0.022838 0.000000 0.015168 0.000000
# 4 0.000000 0.000000 0.000000 0.069932 0.000000 0.009350
# 5 0.006836 0.005761 0.015168 0.000000 0.057806 0.000000
# 6 0.000000 0.000000 0.000000 0.009350 0.000000 0.073670
#
#
# Mechanical properties :
#
#
# Convention : Reuss Voigt Hill
#
# Bulk Modulus (GPa) = 21.81937 32.82127 27.32032
# Shear Modulus (GPa) = 16.98860 21.08541 19.03701
#
# Velocity S-wave (km/s) = 2.96260 3.30055 3.13613
# Velocity P-wave (km/s) = 4.79328 5.61085 5.21810
#
# Compressibility (1/GPa) = 0.04583084
#
# Stress axis : x y z
#
# Youngs Moduli (GPa) = 38.69539 76.62766 43.78762
#
# Poissons Ratio (x) = -0.08018 0.29895
# Poissons Ratio (y) = -0.04049 0.09498
# Poissons Ratio (z) = 0.26418 0.16621
#
# Static dielectric constant tensor:
#      x y z
#    x 1.703120 0.000000 -0.015830 
#    y 0.000000 1.826890 0.000000 
#    z -0.015830 0.000000 1.675360 
# 
# From -- ./inp_files/47056.got.cif
#   From: 2010.05.17/outbox.cif.g08.bks.cpg/sg5_24_cif.got.tgz:47056.got - 2010.06.03 18:56:24.
