data_PCOD9122891
_publ_section_title
;
Structure prediction by ZEFSAII (Michael W. Deem and Ramdas Pophale) SiO2 
 PCOD9122891
Probable space group: C 2
;
_chemical_formula_sum "Si O2"
_cell_formula_units_Z 26
_cell_length_a 21.076205
_cell_length_b 8.380477
_cell_length_c 8.818112
_cell_angle_alpha 90.000000
_cell_angle_beta 123.774706
_cell_angle_gamma 90.000000
_cell_volume 1294.666641
_symmetry_space_group_name_H-M "C 2"
_symmetry_group_IT_number 5
_symmetry_cell_setting 'monoclinic'
loop_
_space_group_symop_operation_xyz
x,y,z
-x,y,-z
1/2+x,1/2+y,z
1/2-x,1/2+y,-z
loop_
_atom_site_type_symbol
_atom_site_label
_atom_site_fract_x
_atom_site_fract_y
_atom_site_fract_z
Si Si1 0.736633 0.201830 0.064736
Si Si2 0.886831 0.492420 0.925743
Si Si3 0.761567 0.269430 0.631350
Si Si4 0.000000 0.794195 0.500000
Si Si5 0.693295 0.923781 0.610641
Si Si6 0.962439 0.535054 0.704377
Si Si7 0.836412 0.913202 0.272546
O O1 0.668765 0.121946 0.072141
O O2 0.774765 0.356313 0.191354
O O3 0.802171 0.069658 0.151605
O O4 0.700097 0.260236 0.860807
O O5 0.836019 0.336230 0.820337
O O6 0.918388 0.560773 0.806922
O O7 0.957996 0.459049 0.131957
O O8 0.780917 0.298026 0.482657
O O9 0.694382 0.388909 0.598101
O O10 0.732747 0.091449 0.621384
O O11 0.984710 0.683732 0.627535
O O12 0.925768 0.899954 0.378624
O O13 0.601688 0.941791 0.478247
#
# Coordination Sequence:
#
# PCOD9122891 Si02
#       7
#     4   4   4   2   4   4   4
#     4  11  23  40  61  90 119 165 206 257 303 358
#     4   9  20  39  60  90 123 164 207 248 295 363
#     4  10  20  36  62  90 120 158 206 253 291 359
#     4  12  22  38  60  92 126 168 194 256 304 370
#     4  11  21  39  64  92 119 163 207 252 301 363
#     4  10  20  36  63  90 125 165 200 243 308 366
#     4  11  23  39  60  88 125 158 208 252 305 360
#
# _framework density 20.08239
#
# number of rings (size 3 to 8) (size 9 to 14) (size 15 to 20)
#    0.000    1.538    3.077    3.692    0.000    0.000 
#    0.000    5.385    0.000    9.231    0.000    0.000 
#    0.000    0.000    0.000    0.000    0.000    0.000 
#
# Total GULP energy -72543.843875 kJ/mol
# GULP energy per Si atom -5580.295683 kJ/mol
# Density = 2.003668 g / cm^3
# Si number density = 20.082390 Si / 1000 Ang^3
#
#
#
# Elastic Constant Matrix: (Units=GPa)
#
#
# Indices 1 2 3 4 5 6 
#
# 1 88.6642 19.4436 44.5036 0.0000 35.2209 0.0000
# 2 19.4436 71.8899 13.9972 0.0000 15.8801 0.0000
# 3 44.5036 13.9972 82.8356 0.0000 28.9710 0.0000
# 4 0.0000 0.0000 0.0000 27.0041 0.0000 3.4681
# 5 35.2209 15.8801 28.9710 0.0000 31.7199 0.0000
# 6 0.0000 0.0000 0.0000 3.4681 0.0000 31.8175
#
#
#
# Elastic Compliance Matrix: (Units=1/GPa)
#
#
# Indices 1 2 3 4 5 6 
#
# 1 0.021368 -0.000642 -0.004681 0.000000 -0.019129 0.000000
# 2 -0.000642 0.015660 0.000281 0.000000 -0.007384 0.000000
# 3 -0.004681 0.000281 0.018765 0.000000 -0.012082 0.000000
# 4 0.000000 0.000000 0.000000 0.037557 0.000000 -0.004094
# 5 -0.019129 -0.007384 -0.012082 0.000000 0.067498 0.000000
# 6 0.000000 0.000000 0.000000 -0.004094 0.000000 0.031875
#
#
# Mechanical properties :
#
#
# Convention : Reuss Voigt Hill
#
# Bulk Modulus (GPa) = 21.87757 44.36430 33.12094
# Shear Modulus (GPa) = 22.93110 29.13797 26.03454
#
# Velocity S-wave (km/s) = 3.38279 3.81323 3.60444
# Velocity P-wave (km/s) = 5.11618 6.44412 5.81816
#
# Compressibility (1/GPa) = 0.04570891
#
# Stress axis : x y z
#
# Youngs Moduli (GPa) = 46.79906 63.85643 53.29068
#
# Poissons Ratio (x) = 0.04101 0.24946
# Poissons Ratio (y) = 0.03006 -0.01499
# Poissons Ratio (z) = 0.21907 -0.01796
#
# Static dielectric constant tensor:
#      x y z
#    x 1.730570 0.000000 -0.030770 
#    y 0.000000 1.692470 0.000000 
#    z -0.030770 0.000000 1.755070 
# 
# From -- ./inp_files/26685.got.cif
#   From: 2010.05.17/outbox.cif.g08.bks.cpg/sg5_14_cif.got.tgz:26685.got - 2010.06.03 18:56:24.
