data_PCOD9122801
_publ_section_title
;
Structure prediction by ZEFSAII (Michael W. Deem and Ramdas Pophale) SiO2 
 PCOD9122801
Probable space group: C 2
;
_chemical_formula_sum "Si O2"
_cell_formula_units_Z 18
_cell_length_a 12.309685
_cell_length_b 6.926354
_cell_length_c 7.257123
_cell_angle_alpha 90.000000
_cell_angle_beta 90.594613
_cell_angle_gamma 90.000000
_cell_volume 618.717956
_symmetry_space_group_name_H-M "C 2"
_symmetry_group_IT_number 5
_symmetry_cell_setting 'monoclinic'
loop_
_space_group_symop_operation_xyz
x,y,z
-x,y,-z
1/2+x,1/2+y,z
1/2-x,1/2+y,-z
loop_
_atom_site_type_symbol
_atom_site_label
_atom_site_fract_x
_atom_site_fract_y
_atom_site_fract_z
Si Si1 0.500000 0.568881 0.000000
Si Si2 0.272062 0.598237 0.868539
Si Si3 0.812334 0.525542 0.731355
Si Si4 0.042328 0.634337 0.786842
Si Si5 0.586705 0.577372 0.655527
O O1 0.612735 0.489845 0.098836
O O2 0.449175 0.693773 0.163934
O O3 0.306282 0.800680 0.780525
O O4 0.160804 0.535836 0.764636
O O5 0.226267 0.621673 0.075884
O O6 0.933086 0.579156 0.675437
O O7 0.711615 0.585776 0.600066
O O8 0.068868 0.858679 0.735858
O O9 0.000000 0.620792 0.000000
O O10 0.500000 0.615591 0.500000
#
# Coordination Sequence:
#
# PCOD9122801 Si02
#       5
#     2   4   4   4   4
#     4  10  20  36  58  88 118 152 198 238 290 346
#     4   9  19  31  58  87 119 151 193 238 292 339
#     4   9  19  35  57  88 117 154 195 238 290 347
#     4   9  17  35  60  82 115 152 194 233 288 345
#     4  10  20  38  58  83 118 156 192 238 291 345
#
# _framework density 29.092414999999999
#
# number of rings (size 3 to 8) (size 9 to 14) (size 15 to 20)
#    0.000    2.667    1.111    0.000    7.778    0.000 
#    8.000    0.000    0.000    1.333    0.000    0.000 
#    0.000    0.000    0.000    0.000    0.000    0.000 
#
# Total GULP energy -50256.745613 kJ/mol
# GULP energy per Si atom -5584.082846 kJ/mol
# Density = 2.902620 g / cm^3
# Si number density = 29.092415 Si / 1000 Ang^3
#
#
#
# Elastic Constant Matrix: (Units=GPa)
#
#
# Indices 1 2 3 4 5 6 
#
# 1 393.5972 51.2985 58.7612 0.0000 54.9671 0.0000
# 2 51.2985 103.8325 6.4608 0.0000 -1.5689 0.0000
# 3 58.7612 6.4608 102.6896 0.0000 2.3659 0.0000
# 4 0.0000 0.0000 0.0000 3.5021 0.0000 1.9709
# 5 54.9671 -1.5689 2.3659 0.0000 65.4218 0.0000
# 6 0.0000 0.0000 0.0000 1.9709 0.0000 49.5791
#
#
#
# Elastic Compliance Matrix: (Units=1/GPa)
#
#
# Indices 1 2 3 4 5 6 
#
# 1 0.003416 -0.001619 -0.001787 0.000000 -0.002844 0.000000
# 2 -0.001619 0.010441 0.000233 0.000000 0.001602 0.000000
# 3 -0.001787 0.000233 0.010720 0.000000 0.001119 0.000000
# 4 0.000000 0.000000 0.000000 0.292078 0.000000 -0.011611
# 5 -0.002844 0.001602 0.001119 0.000000 0.017673 0.000000
# 6 0.000000 0.000000 0.000000 -0.011611 0.000000 0.020631
#
#
# Mechanical properties :
#
#
# Convention : Reuss Voigt Hill
#
# Bulk Modulus (GPa) = 54.85658 92.57336 73.71497
# Shear Modulus (GPa) = 13.60980 55.94050 34.77515
#
# Velocity S-wave (km/s) = 2.16524 4.38979 3.46111
# Velocity P-wave (km/s) = 5.01477 7.58836 6.43161
#
# Compressibility (1/GPa) = 0.01822936
#
# Stress axis : x y z
#
# Youngs Moduli (GPa) = 292.76528 95.77950 93.28108
#
# Poissons Ratio (x) = 0.15510 0.16671
# Poissons Ratio (y) = 0.47408 -0.02172
# Poissons Ratio (z) = 0.52321 -0.02230
#
# Static dielectric constant tensor:
#      x y z
#    x 2.336490 0.000000 0.021060 
#    y 0.000000 2.339270 0.000000 
#    z 0.021060 0.000000 2.400440 
# 
# From -- ./inp_files/18009.got.cif
#   From: 2010.05.17/outbox.cif.g08.bks.cpg/sg5_10_cif.got.tgz:18009.got - 2010.06.03 18:56:24.
