data_PCOD9122310
_publ_section_title
;
Structure prediction by ZEFSAII (Michael W. Deem and Ramdas Pophale) SiO2 
 PCOD9122310
Probable space group: C 2
;
_chemical_formula_sum "Si O2"
_cell_formula_units_Z 20
_cell_length_a 14.422123
_cell_length_b 9.131709
_cell_length_c 10.515043
_cell_angle_alpha 90.000000
_cell_angle_beta 34.060055
_cell_angle_gamma 90.000000
_cell_volume 775.582633
_symmetry_space_group_name_H-M "C 2"
_symmetry_group_IT_number 5
_symmetry_cell_setting 'monoclinic'
loop_
_space_group_symop_operation_xyz
x,y,z
-x,y,-z
1/2+x,1/2+y,z
1/2-x,1/2+y,-z
loop_
_atom_site_type_symbol
_atom_site_label
_atom_site_fract_x
_atom_site_fract_y
_atom_site_fract_z
Si Si1 0.256527 0.644720 0.462361
Si Si2 0.390516 0.411790 0.474273
Si Si3 0.319755 0.139747 0.180494
Si Si4 0.216425 0.738584 0.059208
Si Si5 0.953533 0.454443 0.696449
O O1 0.391095 0.524327 0.352205
O O2 0.249074 0.783575 0.379125
O O3 0.215009 0.719957 0.646894
O O4 0.104593 0.543104 0.586992
O O5 0.322556 0.519325 0.659238
O O6 0.562881 0.329659 0.288318
O O7 0.317949 0.226084 0.053281
O O8 0.500000 0.072379 0.000000
O O9 0.389256 0.824592 0.860649
O O10 0.194659 0.575969 0.139788
O O11 0.000000 0.408268 0.500000
#
# Coordination Sequence:
#
# PCOD9122310 Si02
#       5
#     4   4   4   4   4
#     4   9  21  41  65  95 128 161 219 266 306 380
#     4   9  20  38  70  92 120 167 220 257 310 378
#     4  10  19  40  74  86 125 172 215 261 314 370
#     4  11  24  44  64  92 133 172 206 268 322 377
#     4  11  26  41  62  97 134 166 208 266 326 382
#
# _framework density 25.787064999999998
#
# number of rings (size 3 to 8) (size 9 to 14) (size 15 to 20)
#    1.200    0.800    4.000    0.000    2.800    6.400 
#    0.000    0.000    0.000    0.000    0.000    0.000 
#    0.000    0.000    0.000    0.000    0.000    0.000 
#
# Total GULP energy -55771.820749 kJ/mol
# GULP energy per Si atom -5577.182075 kJ/mol
# Density = 2.572837 g / cm^3
# Si number density = 25.787065 Si / 1000 Ang^3
#
#
#
# Elastic Constant Matrix: (Units=GPa)
#
#
# Indices 1 2 3 4 5 6 
#
# 1 51.2054 -8.1158 0.2143 0.0000 0.0494 0.0000
# 2 -8.1158 96.9760 18.4015 0.0000 -7.9446 0.0000
# 3 0.2143 18.4015 74.5136 0.0000 -0.5912 0.0000
# 4 0.0000 0.0000 0.0000 50.7331 0.0000 4.0576
# 5 0.0494 -7.9446 -0.5912 0.0000 24.7550 0.0000
# 6 0.0000 0.0000 0.0000 4.0576 0.0000 46.5150
#
#
#
# Elastic Compliance Matrix: (Units=1/GPa)
#
#
# Indices 1 2 3 4 5 6 
#
# 1 0.019815 0.001795 -0.000496 0.000000 0.000525 0.000000
# 2 0.001795 0.011277 -0.002762 0.000000 0.003550 0.000000
# 3 -0.000496 -0.002762 0.014100 0.000000 -0.000549 0.000000
# 4 0.000000 0.000000 0.000000 0.019849 0.000000 -0.001732
# 5 0.000525 0.003550 -0.000549 0.000000 0.041521 0.000000
# 6 0.000000 0.000000 0.000000 -0.001732 0.000000 0.021650
#
#
# Mechanical properties :
#
#
# Convention : Reuss Voigt Hill
#
# Bulk Modulus (GPa) = 23.65940 27.07723 25.36831
# Shear Modulus (GPa) = 34.42911 38.54693 36.48802
#
# Velocity S-wave (km/s) = 3.65791 3.87048 3.76569
# Velocity P-wave (km/s) = 5.19954 5.52243 5.36342
#
# Compressibility (1/GPa) = 0.04226650
#
# Stress axis : x y z
#
# Youngs Moduli (GPa) = 50.46591 88.67638 70.92444
#
# Poissons Ratio (x) = -0.15922 0.03520
# Poissons Ratio (y) = -0.09061 0.19589
# Poissons Ratio (z) = 0.02504 0.24492
#
# Static dielectric constant tensor:
#      x y z
#    x 2.089220 0.000000 -0.050140 
#    y 0.000000 2.025570 0.000000 
#    z -0.050140 0.000000 2.057890 
# 
# From -- ./inp_files/38035.got.cif
#   From: 2010.05.17/outbox.cif.g08.bks.cpg/sg5_20_cif.got.tgz:38035.got - 2010.06.03 18:56:24.
