data_PCOD9122647
_publ_section_title
;
Structure prediction by ZEFSAII (Michael W. Deem and Ramdas Pophale) SiO2 
 PCOD9122647
Probable space group: C 2
;
_chemical_formula_sum "Si O2"
_cell_formula_units_Z 24
_cell_length_a 18.352371
_cell_length_b 7.300653
_cell_length_c 9.795039
_cell_angle_alpha 90.000000
_cell_angle_beta 49.725578
_cell_angle_gamma 90.000000
_cell_volume 1001.290544
_symmetry_space_group_name_H-M "C 2"
_symmetry_group_IT_number 5
_symmetry_cell_setting 'monoclinic'
loop_
_space_group_symop_operation_xyz
x,y,z
-x,y,-z
1/2+x,1/2+y,z
1/2-x,1/2+y,-z
loop_
_atom_site_type_symbol
_atom_site_label
_atom_site_fract_x
_atom_site_fract_y
_atom_site_fract_z
Si Si1 0.864580 0.364690 0.787655
Si Si2 0.430331 0.253843 0.702080
Si Si3 0.796679 0.157395 0.635928
Si Si4 0.685148 0.482138 0.660170
Si Si5 0.228731 0.180955 0.861599
Si Si6 0.413587 0.211798 0.035062
O O1 0.938761 0.529426 0.697161
O O2 0.870168 0.215381 0.662756
O O3 0.852495 0.261582 0.944285
O O4 0.766508 0.480552 0.869925
O O5 0.500000 0.321760 0.500000
O O6 0.324638 0.295231 0.773122
O O7 0.433914 0.289084 0.859413
O O8 0.773955 0.344668 0.577688
O O9 0.828756 0.019957 0.480650
O O10 0.691807 0.116126 0.831097
O O11 0.601143 0.374727 0.837871
O O12 0.704677 0.655578 0.733438
O O13 0.500000 0.099693 0.000000
#
# Coordination Sequence:
#
# PCOD9122647 Si02
#       6
#     4   4   4   4   4   4
#     4   9  18  35  59  81 114 146 199 233 274 340
#     4  10  20  35  57  83 117 152 192 235 284 338
#     4   9  18  36  56  85 112 150 191 231 277 343
#     4   9  20  34  58  85 112 150 195 227 284 343
#     4   9  17  35  56  81 110 151 197 232 267 340
#     4  10  21  37  54  85 121 149 187 239 289 343
#
# _framework density 23.969065000000001
#
# number of rings (size 3 to 8) (size 9 to 14) (size 15 to 20)
#    2.000    0.667    1.667    0.000    2.333    2.667 
#    0.000    3.333    0.000    2.000    0.000    0.000 
#    0.000    0.000    0.000    0.000    0.000    0.000 
#
# Total GULP energy -66816.834529 kJ/mol
# GULP energy per Si atom -5568.069544 kJ/mol
# Density = 2.391451 g / cm^3
# Si number density = 23.969065 Si / 1000 Ang^3
#
#
#
# Elastic Constant Matrix: (Units=GPa)
#
#
# Indices 1 2 3 4 5 6 
#
# 1 62.4574 -1.4702 34.2162 0.0000 13.7195 0.0000
# 2 -1.4702 54.2158 30.3668 0.0000 11.4695 0.0000
# 3 34.2162 30.3668 159.5900 0.0000 32.5166 0.0000
# 4 0.0000 0.0000 0.0000 46.3285 0.0000 16.1278
# 5 13.7195 11.4695 32.5166 0.0000 31.1448 0.0000
# 6 0.0000 0.0000 0.0000 16.1278 0.0000 19.9500
#
#
#
# Elastic Compliance Matrix: (Units=1/GPa)
#
#
# Indices 1 2 3 4 5 6 
#
# 1 0.019462 0.003882 -0.003650 0.000000 -0.006192 0.000000
# 2 0.003882 0.021916 -0.003823 0.000000 -0.005790 0.000000
# 3 -0.003650 -0.003823 0.009097 0.000000 -0.006482 0.000000
# 4 0.000000 0.000000 0.000000 0.030039 0.000000 -0.024284
# 5 -0.006192 -0.005790 -0.006482 0.000000 0.043735 0.000000
# 6 0.000000 0.000000 0.000000 -0.024284 0.000000 0.069757
#
#
# Mechanical properties :
#
#
# Convention : Reuss Voigt Hill
#
# Bulk Modulus (GPa) = 23.09809 44.72098 33.90953
# Shear Modulus (GPa) = 23.18923 33.69467 28.44195
#
# Velocity S-wave (km/s) = 3.11378 3.75341 3.44846
# Velocity P-wave (km/s) = 4.75238 6.12229 5.48031
#
# Compressibility (1/GPa) = 0.04329363
#
# Stress axis : x y z
#
# Youngs Moduli (GPa) = 51.38245 45.62856 109.93103
#
# Poissons Ratio (x) = -0.17713 0.40120
# Poissons Ratio (y) = -0.19946 0.42025
# Poissons Ratio (z) = 0.18753 0.17443
#
# Static dielectric constant tensor:
#      x y z
#    x 1.970730 0.000000 -0.055520 
#    y 0.000000 2.052560 0.000000 
#    z -0.055520 0.000000 1.925760 
# 
# From -- ./inp_files/29249.got.cif
#   From: 2010.05.17/outbox.cif.g08.bks.cpg/sg5_15_cif.got.tgz:29249.got - 2010.06.03 18:56:24.
