data_PCOD9122266
_publ_section_title
;
Structure prediction by ZEFSAII (Michael W. Deem and Ramdas Pophale) SiO2 
 PCOD9122266
Probable space group: C 2
;
_chemical_formula_sum "Si O2"
_cell_formula_units_Z 30
_cell_length_a 16.683265
_cell_length_b 7.171496
_cell_length_c 9.488296
_cell_angle_alpha 90.000000
_cell_angle_beta 99.752979
_cell_angle_gamma 90.000000
_cell_volume 1118.810375
_symmetry_space_group_name_H-M "C 2"
_symmetry_group_IT_number 5
_symmetry_cell_setting 'monoclinic'
loop_
_space_group_symop_operation_xyz
x,y,z
-x,y,-z
1/2+x,1/2+y,z
1/2-x,1/2+y,-z
loop_
_atom_site_type_symbol
_atom_site_label
_atom_site_fract_x
_atom_site_fract_y
_atom_site_fract_z
Si Si1 0.031969 0.029120 0.800733
Si Si2 0.309980 0.617515 0.319333
Si Si3 0.973304 0.581838 0.189959
Si Si4 0.874368 0.046546 0.896218
Si Si5 0.339185 0.305422 0.511723
Si Si6 0.805545 0.543997 0.234360
Si Si7 0.000000 0.662566 0.500000
Si Si8 0.350043 0.124492 0.822490
O O1 0.097228 0.073407 0.700800
O O2 0.937523 0.090215 0.787099
O O3 0.027508 0.806131 0.820458
O O4 0.079244 0.110687 0.951341
O O5 0.303762 0.508269 0.467720
O O6 0.240991 0.542189 0.186055
O O7 0.303997 0.840845 0.306478
O O8 0.878078 0.531987 0.139230
O O9 0.981262 0.536277 0.359381
O O10 0.060683 0.525926 0.147038
O O11 0.781881 0.104766 0.850265
O O12 0.863464 0.821622 0.901665
O O13 0.322013 0.188942 0.364691
O O14 0.435216 0.307389 0.537265
O O15 0.331119 0.189630 0.653342
#
# Coordination Sequence:
#
# PCOD9122266 Si02
#       8
#     4   4   4   4   4   4   2   4
#     4  10  19  40  64  88 122 165 211 252 313 364
#     4  11  22  37  60  92 119 163 209 250 301 371
#     4   9  17  37  63  84 123 165 194 251 308 356
#     4   9  21  38  64  89 122 167 207 257 307 371
#     4  10  20  39  60  86 128 164 195 252 312 361
#     4  10  21  38  60  93 122 158 204 254 304 360
#     4   8  14  32  60  78 114 160 190 230 302 356
#     4   9  21  37  63  89 126 162 206 249 310 374
#
# _framework density 26.814197
#
# number of rings (size 3 to 8) (size 9 to 14) (size 15 to 20)
#    0.000    2.400    2.667    0.000    3.733    2.133 
#    2.400    4.000    0.000    1.600    0.000    0.000 
#    0.000    0.000    0.000    0.000    0.000    0.000 
#
# Total GULP energy -83530.390674 kJ/mol
# GULP energy per Si atom -5568.692712 kJ/mol
# Density = 2.675317 g / cm^3
# Si number density = 26.814197 Si / 1000 Ang^3
#
#
#
# Elastic Constant Matrix: (Units=GPa)
#
#
# Indices 1 2 3 4 5 6 
#
# 1 179.6263 8.8347 13.4307 0.0000 25.0919 0.0000
# 2 8.8347 83.8583 -9.9041 0.0000 5.7368 0.0000
# 3 13.4307 -9.9041 55.0766 0.0000 12.1252 0.0000
# 4 0.0000 0.0000 0.0000 17.0716 0.0000 2.2609
# 5 25.0919 5.7368 12.1252 0.0000 44.8048 0.0000
# 6 0.0000 0.0000 0.0000 2.2609 0.0000 26.8985
#
#
#
# Elastic Compliance Matrix: (Units=1/GPa)
#
#
# Indices 1 2 3 4 5 6 
#
# 1 0.006094 -0.000536 -0.000900 0.000000 -0.003101 0.000000
# 2 -0.000536 0.012456 0.002824 0.000000 -0.002059 0.000000
# 3 -0.000900 0.002824 0.020047 0.000000 -0.005283 0.000000
# 4 0.000000 0.000000 0.000000 0.059236 0.000000 -0.004979
# 5 -0.003101 -0.002059 -0.005283 0.000000 0.025749 0.000000
# 6 0.000000 0.000000 0.000000 -0.004979 0.000000 0.037595
#
#
# Mechanical properties :
#
#
# Convention : Reuss Voigt Hill
#
# Bulk Modulus (GPa) = 24.17094 38.14262 31.15678
# Shear Modulus (GPa) = 29.03741 38.16831 33.60286
#
# Velocity S-wave (km/s) = 3.29433 3.77694 3.54386
# Velocity P-wave (km/s) = 4.84809 5.76854 5.32823
#
# Compressibility (1/GPa) = 0.04137200
#
# Stress axis : x y z
#
# Youngs Moduli (GPa) = 164.09899 80.28441 49.88337
#
# Poissons Ratio (x) = 0.04305 0.04489
# Poissons Ratio (y) = 0.08798 -0.14086
# Poissons Ratio (z) = 0.14766 -0.22671
#
# Static dielectric constant tensor:
#      x y z
#    x 2.408560 0.000000 -0.014690 
#    y 0.000000 2.117740 0.000000 
#    z -0.014690 0.000000 2.259030 
# 
# From -- ./inp_files/44192.got.cif
#   From: 2010.05.17/outbox.cif.g08.bks.cpg/sg5_23_cif.got.tgz:44192.got - 2010.06.03 18:56:24.
