data_PCOD9122724
_publ_section_title
;
Structure prediction by ZEFSAII (Michael W. Deem and Ramdas Pophale) SiO2 
 PCOD9122724
Probable space group: C 2
;
_chemical_formula_sum "Si O2"
_cell_formula_units_Z 24
_cell_length_a 13.473747
_cell_length_b 13.930364
_cell_length_c 7.556820
_cell_angle_alpha 90.000000
_cell_angle_beta 136.514048
_cell_angle_gamma 90.000000
_cell_volume 976.090078
_symmetry_space_group_name_H-M "C 2"
_symmetry_group_IT_number 5
_symmetry_cell_setting 'monoclinic'
loop_
_space_group_symop_operation_xyz
x,y,z
-x,y,-z
1/2+x,1/2+y,z
1/2-x,1/2+y,-z
loop_
_atom_site_type_symbol
_atom_site_label
_atom_site_fract_x
_atom_site_fract_y
_atom_site_fract_z
Si Si1 0.500000 0.606501 0.000000
Si Si2 0.460858 0.937469 0.150077
Si Si3 0.936434 0.657104 0.221918
Si Si4 0.344502 0.439156 0.301627
Si Si5 0.500000 0.289655 0.000000
Si Si6 0.607263 0.656898 0.781552
Si Si7 0.776021 0.943932 0.634016
O O1 0.477634 0.666313 0.145950
O O2 0.644337 0.540610 0.197242
O O3 0.439802 0.052397 0.136688
O O4 0.607760 0.926306 0.449931
O O5 0.500000 0.909200 0.000000
O O6 0.299961 0.898290 0.976875
O O7 0.000000 0.651452 0.500000
O O8 0.022028 0.725683 0.200934
O O9 0.770566 0.689959 0.007494
O O10 0.500000 0.386867 0.500000
O O11 0.375526 0.542665 0.248956
O O12 0.304896 0.448466 0.458615
O O13 0.635366 0.359302 0.162110
O O14 0.500000 0.701208 0.500000
#
# Coordination Sequence:
#
# PCOD9122724 Si02
#       7
#     2   4   4   4   2   4   4
#     4  11  18  32  60  96 126 167 220 285 324 382
#     4   9  18  35  67  99 124 161 223 280 314 380
#     4  11  23  41  66  96 130 179 222 270 333 402
#     4   9  16  33  60  97 125 159 211 277 319 372
#     4  11  26  42  64  88 146 179 210 269 348 398
#     4  10  20  35  64  99 129 164 222 285 325 378
#     4  10  20  36  60  96 127 173 216 267 331 389
#
# _framework density 24.587893000000001
#
# number of rings (size 3 to 8) (size 9 to 14) (size 15 to 20)
#    0.000    2.000    4.167    1.000    0.000    2.000 
#    0.000    0.000   14.667    0.000    0.000    0.000 
#    0.000    0.000    0.000    0.000    0.000    0.000 
#
# Total GULP energy -67070.027937 kJ/mol
# GULP energy per Si atom -5589.168995 kJ/mol
# Density = 2.453193 g / cm^3
# Si number density = 24.587893 Si / 1000 Ang^3
#
#
#
# Elastic Constant Matrix: (Units=GPa)
#
#
# Indices 1 2 3 4 5 6 
#
# 1 90.8864 10.6629 46.1025 0.0000 4.4815 0.0000
# 2 10.6629 35.1165 -14.4963 0.0000 5.4614 0.0000
# 3 46.1025 -14.4963 164.4163 0.0000 48.7766 0.0000
# 4 0.0000 0.0000 0.0000 -21.3855 0.0000 -12.4777
# 5 4.4815 5.4614 48.7766 0.0000 72.0333 0.0000
# 6 0.0000 0.0000 0.0000 -12.4777 0.0000 5.9363
#
#
#
# Elastic Compliance Matrix: (Units=1/GPa)
#
#
# Indices 1 2 3 4 5 6 
#
# 1 0.014653 -0.007415 -0.005830 0.000000 0.003598 0.000000
# 2 -0.007415 0.034825 0.007253 0.000000 -0.007090 0.000000
# 3 -0.005830 0.007253 0.010526 0.000000 -0.007315 0.000000
# 4 0.000000 0.000000 0.000000 -0.021003 0.000000 -0.044146
# 5 0.003598 -0.007090 -0.007315 0.000000 0.019150 0.000000
# 6 0.000000 0.000000 0.000000 -0.044146 0.000000 0.075663
#
#
# Mechanical properties :
#
#
# Convention : Reuss Voigt Hill
#
# Bulk Modulus (GPa) = 20.82456 41.66194 31.24325
# Shear Modulus (GPa) = 30.90154 27.86015 29.38085
#
# Velocity S-wave (km/s) = 3.54895 3.36978 3.46053
# Velocity P-wave (km/s) = 5.02805 5.66758 5.35736
#
# Compressibility (1/GPa) = 0.04802022
#
# Stress axis : x y z
#
# Youngs Moduli (GPa) = 68.24766 28.71489 94.99860
#
# Poissons Ratio (x) = 0.21293 0.55383
# Poissons Ratio (y) = 0.50608 -0.68905
# Poissons Ratio (z) = 0.39787 -0.20828
#
# Static dielectric constant tensor:
#      x y z
#    x 1.950030 0.000000 0.036530 
#    y 0.000000 1.920010 0.000000 
#    z 0.036530 0.000000 1.981840 
# 
# From -- ./inp_files/24764.got.cif
#   From: 2010.05.17/outbox.cif.g08.bks.cpg/sg5_13_cif.got.tgz:24764.got - 2010.06.03 18:56:24.
