data_PCOD9122620
_publ_section_title
;
Structure prediction by ZEFSAII (Michael W. Deem and Ramdas Pophale) SiO2 
 PCOD9122620
Probable space group: C 2
;
_chemical_formula_sum "Si O2"
_cell_formula_units_Z 20
_cell_length_a 5.296823
_cell_length_b 24.579474
_cell_length_c 7.159898
_cell_angle_alpha 90.000000
_cell_angle_beta 97.385961
_cell_angle_gamma 90.000000
_cell_volume 924.434984
_symmetry_space_group_name_H-M "C 2"
_symmetry_group_IT_number 5
_symmetry_cell_setting 'monoclinic'
loop_
_space_group_symop_operation_xyz
x,y,z
-x,y,-z
1/2+x,1/2+y,z
1/2-x,1/2+y,-z
loop_
_atom_site_type_symbol
_atom_site_label
_atom_site_fract_x
_atom_site_fract_y
_atom_site_fract_z
Si Si1 0.355380 0.488810 0.710218
Si Si2 0.540362 0.365171 0.226643
Si Si3 0.644227 0.030282 0.287322
Si Si4 0.500000 0.703022 0.500000
Si Si5 0.462612 0.801021 0.772957
Si Si6 0.500000 0.130020 0.500000
O O1 0.456920 0.427683 0.713710
O O2 0.251024 0.507767 0.497495
O O3 0.591076 0.526295 0.797287
O O4 0.093519 0.494257 0.801480
O O5 0.312881 0.328441 0.286516
O O6 0.816753 0.339866 0.284680
O O7 0.500000 0.365320 0.000000
O O8 0.530442 0.089486 0.324459
O O9 0.506142 0.743606 0.677299
O O10 0.252214 0.666135 0.510998
O O11 0.500000 0.796027 0.000000
#
# Coordination Sequence:
#
# PCOD9122620 Si02
#       6
#     4   4   4   2   4   2
#     4   9  16  29  50  75  99 139 172 198 267 332
#     4  10  20  35  53  76 116 153 176 220 275 326
#     4   9  18  31  51  77 109 132 168 235 268 307
#     4  12  22  36  63  80 101 150 194 228 276 334
#     4  10  23  39  54  82 116 143 183 234 273 318
#     4  10  20  36  55  80 105 138 190 236 280 320
#
# _framework density 21.634834999999999
#
# number of rings (size 3 to 8) (size 9 to 14) (size 15 to 20)
#    0.000    2.400    0.000    4.800    0.000    4.800 
#    0.000    0.000    0.000   15.600    0.000    0.000 
#    0.000    0.000    0.000    0.000    0.000    0.000 
#
# Total GULP energy -55774.227990 kJ/mol
# GULP energy per Si atom -5577.422799 kJ/mol
# Density = 2.158559 g / cm^3
# Si number density = 21.634835 Si / 1000 Ang^3
#
#
#
# Elastic Constant Matrix: (Units=GPa)
#
#
# Indices 1 2 3 4 5 6 
#
# 1 225.8134 68.2456 28.0318 0.0000 -3.0106 0.0000
# 2 68.2456 127.6297 10.4750 0.0000 -5.6301 0.0000
# 3 28.0318 10.4750 65.2212 0.0000 -14.0183 0.0000
# 4 0.0000 0.0000 0.0000 144.8946 0.0000 -18.0770
# 5 -3.0106 -5.6301 -14.0183 0.0000 20.6048 0.0000
# 6 0.0000 0.0000 0.0000 -18.0770 0.0000 63.5362
#
#
#
# Elastic Compliance Matrix: (Units=1/GPa)
#
#
# Indices 1 2 3 4 5 6 
#
# 1 0.005549 -0.002848 -0.002249 0.000000 -0.001498 0.000000
# 2 -0.002848 0.009443 0.000202 0.000000 0.002302 0.000000
# 3 -0.002249 0.000202 0.018984 0.000000 0.012642 0.000000
# 4 0.000000 0.000000 0.000000 0.007156 0.000000 0.002036
# 5 -0.001498 0.002302 0.012642 0.000000 0.057543 0.000000
# 6 0.000000 0.000000 0.000000 0.002036 0.000000 0.016318
#
#
# Mechanical properties :
#
#
# Convention : Reuss Voigt Hill
#
# Bulk Modulus (GPa) = 41.34789 70.24101 55.79445
# Shear Modulus (GPa) = 37.63786 66.60124 52.11955
#
# Velocity S-wave (km/s) = 4.17548 5.55438 4.91354
# Velocity P-wave (km/s) = 6.51148 8.58323 7.61811
#
# Compressibility (1/GPa) = 0.02418503
#
# Stress axis : x y z
#
# Youngs Moduli (GPa) = 180.22871 105.89683 52.67625
#
# Poissons Ratio (x) = 0.30163 0.11848
# Poissons Ratio (y) = 0.51335 -0.01066
# Poissons Ratio (z) = 0.40537 -0.02142
#
# Static dielectric constant tensor:
#      x y z
#    x 1.955070 0.000000 -0.143150 
#    y 0.000000 1.773410 0.000000 
#    z -0.143150 0.000000 1.941170 
# 
# From -- ./inp_files/12202.got.cif
#   From: 2010.05.17/outbox.cif.g08.bks.cpg/sg5_7_cif.got.tgz:12202.got - 2010.06.03 18:56:24.
