data_PCOD9122142
_publ_section_title
;
Structure prediction by ZEFSAII (Michael W. Deem and Ramdas Pophale) SiO2 
 PCOD9122142
Probable space group: C 2
;
_chemical_formula_sum "Si O2"
_cell_formula_units_Z 24
_cell_length_a 7.932956
_cell_length_b 12.534659
_cell_length_c 13.980204
_cell_angle_alpha 90.000000
_cell_angle_beta 133.450360
_cell_angle_gamma 90.000000
_cell_volume 1009.206496
_symmetry_space_group_name_H-M "C 2"
_symmetry_group_IT_number 5
_symmetry_cell_setting 'monoclinic'
loop_
_space_group_symop_operation_xyz
x,y,z
-x,y,-z
1/2+x,1/2+y,z
1/2-x,1/2+y,-z
loop_
_atom_site_type_symbol
_atom_site_label
_atom_site_fract_x
_atom_site_fract_y
_atom_site_fract_z
Si Si1 0.957356 0.428280 0.768329
Si Si2 0.213516 0.974951 0.281417
Si Si3 0.397947 0.633311 0.612577
Si Si4 0.000000 0.947701 0.500000
Si Si5 0.408829 0.146212 0.859140
Si Si6 0.500000 0.799486 0.500000
Si Si7 0.350414 0.352819 0.040901
O O1 0.130932 0.462632 0.751713
O O2 0.720230 0.385254 0.629013
O O3 0.905883 0.540699 0.796872
O O4 0.089359 0.361404 0.901417
O O5 0.310349 0.877423 0.381105
O O6 0.948876 0.947676 0.145820
O O7 0.236830 0.084987 0.348814
O O8 0.417118 0.527115 0.552738
O O9 0.639450 0.678288 0.751732
O O10 0.357555 0.724356 0.518014
O O11 0.572885 0.240525 0.884420
O O12 0.500000 0.123238 0.000000
O O13 0.500000 0.356505 0.000000
#
# Coordination Sequence:
#
# PCOD9122142 Si02
#       7
#     4   4   4   2   4   2   4
#     4  10  21  38  68 101 134 179 232 290 342 423
#     4  11  21  39  69 100 134 179 238 285 354 413
#     4  10  21  38  66  94 133 182 231 279 344 418
#     4   9  20  38  62  93 134 181 226 272 354 399
#     4  10  19  38  67  95 133 184 224 281 357 410
#     4  11  22  40  66  97 140 195 224 282 354 427
#     4   9  19  36  63  99 125 176 233 275 345 419
#
# _framework density 23.78106
#
# number of rings (size 3 to 8) (size 9 to 14) (size 15 to 20)
#    0.000    2.000    1.667    2.000    0.000    0.000 
#    0.000    0.000   18.333    9.000    0.000    0.000 
#    0.000    0.000    0.000    0.000    0.000    0.000 
#
# Total GULP energy -66957.711618 kJ/mol
# GULP energy per Si atom -5579.809302 kJ/mol
# Density = 2.372693 g / cm^3
# Si number density = 23.781060 Si / 1000 Ang^3
#
#
#
# Elastic Constant Matrix: (Units=GPa)
#
#
# Indices 1 2 3 4 5 6 
#
# 1 25.3327 10.4777 8.9778 0.0000 -6.7571 0.0000
# 2 10.4777 64.7193 14.8472 0.0000 -2.1789 0.0000
# 3 8.9778 14.8472 149.0646 0.0000 20.8057 0.0001
# 4 0.0000 0.0000 0.0000 39.1278 0.0000 -6.9473
# 5 -6.7571 -2.1789 20.8057 0.0000 35.8039 0.0000
# 6 0.0000 0.0000 0.0001 -6.9473 0.0000 28.1267
#
#
#
# Elastic Compliance Matrix: (Units=1/GPa)
#
#
# Indices 1 2 3 4 5 6 
#
# 1 0.046134 -0.006291 -0.003606 0.000000 0.010419 0.000000
# 2 -0.006291 0.016809 -0.001385 0.000000 0.000640 0.000000
# 3 -0.003606 -0.001385 0.007803 0.000000 -0.005299 0.000000
# 4 0.000000 0.000000 0.000000 0.026730 0.000000 0.006602
# 5 0.010419 0.000640 -0.005299 0.000000 0.033015 0.000000
# 6 0.000000 0.000000 0.000000 0.006602 0.000000 0.037184
#
#
# Mechanical properties :
#
#
# Convention : Reuss Voigt Hill
#
# Bulk Modulus (GPa) = 20.75433 34.19133 27.47283
# Shear Modulus (GPa) = 24.23669 34.26594 29.25132
#
# Velocity S-wave (km/s) = 3.19589 3.80003 3.51098
# Velocity P-wave (km/s) = 4.72911 5.80193 5.29277
#
# Compressibility (1/GPa) = 0.04818272
#
# Stress axis : x y z
#
# Youngs Moduli (GPa) = 21.67606 59.49195 128.15136
#
# Poissons Ratio (x) = 0.37425 0.46214
# Poissons Ratio (y) = 0.13636 0.17745
# Poissons Ratio (z) = 0.07817 0.08238
#
# Static dielectric constant tensor:
#      x y z
#    x 2.047320 0.000000 0.041610 
#    y 0.000000 1.914710 0.000000 
#    z 0.041610 0.000000 1.972000 
# 
# From -- ./inp_files/51032.got.cif
#   From: 2010.05.17/outbox.cif.g08.bks.cpg/sg5_26_cif.got.tgz:51032.got - 2010.06.03 18:56:24.
