data_PCOD9122925
_publ_section_title
;
Structure prediction by ZEFSAII (Michael W. Deem and Ramdas Pophale) SiO2 
 PCOD9122925
Probable space group: C 2
;
_chemical_formula_sum "Si O2"
_cell_formula_units_Z 24
_cell_length_a 16.311575
_cell_length_b 8.989565
_cell_length_c 7.955040
_cell_angle_alpha 90.000000
_cell_angle_beta 85.706924
_cell_angle_gamma 90.000000
_cell_volume 1163.206125
_symmetry_space_group_name_H-M "C 2"
_symmetry_group_IT_number 5
_symmetry_cell_setting 'monoclinic'
loop_
_space_group_symop_operation_xyz
x,y,z
-x,y,-z
1/2+x,1/2+y,z
1/2-x,1/2+y,-z
loop_
_atom_site_type_symbol
_atom_site_label
_atom_site_fract_x
_atom_site_fract_y
_atom_site_fract_z
Si Si1 0.543934 0.820150 0.819954
Si Si2 0.774792 0.490950 0.882568
Si Si3 0.893016 0.312917 0.663863
Si Si4 0.224145 0.794658 0.594057
Si Si5 0.738219 0.815464 0.791899
Si Si6 0.928037 0.580915 0.400813
O O1 0.481277 0.747103 0.693412
O O2 0.639957 0.781362 0.798640
O O3 0.541789 0.995982 0.770152
O O4 0.500000 0.785445 0.000000
O O5 0.859617 0.402999 0.832626
O O6 0.720509 0.422872 0.736956
O O7 0.780234 0.665564 0.854946
O O8 0.747881 0.443652 0.072327
O O9 0.813600 0.219715 0.620207
O O10 0.901250 0.442321 0.523481
O O11 0.230147 0.847059 0.400313
O O12 0.148584 0.684345 0.621822
O O13 0.000000 0.655572 0.500000
#
# Coordination Sequence:
#
# PCOD9122925 Si02
#       6
#     4   4   4   4   4   4
#     4  11  20  36  59  93 122 162 210 265 299 368
#     4  10  24  37  62  96 119 167 211 249 319 376
#     4   9  19  36  58  91 115 159 217 247 305 374
#     4  10  20  40  64  88 126 161 210 260 312 362
#     4  12  23  38  68  91 131 164 210 266 309 376
#     4  10  20  36  64  88 120 159 217 257 305 374
#
# _framework density 20.632628
#
# number of rings (size 3 to 8) (size 9 to 14) (size 15 to 20)
#    1.000    0.667    5.000    0.000    2.333    0.000 
#    0.000    0.000   11.000    0.000    0.000    0.000 
#    0.000    0.000    0.000    0.000    0.000    0.000 
#
# Total GULP energy -66807.152489 kJ/mol
# GULP energy per Si atom -5567.262707 kJ/mol
# Density = 2.058567 g / cm^3
# Si number density = 20.632628 Si / 1000 Ang^3
#
#
#
# Elastic Constant Matrix: (Units=GPa)
#
#
# Indices 1 2 3 4 5 6 
#
# 1 82.1738 10.3099 2.6262 0.0000 13.6781 0.0000
# 2 10.3099 23.1785 10.9496 0.0000 10.5060 0.0000
# 3 2.6262 10.9496 96.6280 0.0000 -1.4416 0.0000
# 4 0.0000 0.0000 0.0000 19.9347 0.0000 2.7514
# 5 13.6781 10.5060 -1.4416 0.0000 25.5065 0.0000
# 6 0.0000 0.0000 0.0000 2.7514 0.0000 34.2360
#
#
#
# Elastic Compliance Matrix: (Units=1/GPa)
#
#
# Indices 1 2 3 4 5 6 
#
# 1 0.013573 -0.003317 -0.000081 0.000000 -0.005917 0.000000
# 2 -0.003317 0.058048 -0.006824 0.000000 -0.022517 0.000000
# 3 -0.000081 -0.006824 0.011176 0.000000 0.003486 0.000000
# 4 0.000000 0.000000 0.000000 0.050726 0.000000 -0.004077
# 5 -0.005917 -0.022517 0.003486 0.000000 0.051850 0.000000
# 6 0.000000 0.000000 0.000000 -0.004077 0.000000 0.029537
#
#
# Mechanical properties :
#
#
# Convention : Reuss Voigt Hill
#
# Bulk Modulus (GPa) = 16.03749 27.75019 21.89384
# Shear Modulus (GPa) = 19.52061 27.80841 23.66451
#
# Velocity S-wave (km/s) = 3.07922 3.67521 3.39033
# Velocity P-wave (km/s) = 4.52016 5.61145 5.09511
#
# Compressibility (1/GPa) = 0.06235389
#
# Stress axis : x y z
#
# Youngs Moduli (GPa) = 73.67565 17.22705 89.47412
#
# Poissons Ratio (x) = 0.05714 0.00727
# Poissons Ratio (y) = 0.24438 0.61054
# Poissons Ratio (z) = 0.00599 0.11755
#
# Static dielectric constant tensor:
#      x y z
#    x 1.790520 0.000000 0.017630 
#    y 0.000000 1.714140 0.000000 
#    z 0.017630 0.000000 1.844500 
# 
# From -- ./inp_files/26502.got.cif
#   From: 2010.05.17/outbox.cif.g08.bks.cpg/sg5_14_cif.got.tgz:26502.got - 2010.06.03 18:56:24.
