data_PCOD9122362
_publ_section_title
;
Structure prediction by ZEFSAII (Michael W. Deem and Ramdas Pophale) SiO2 
 PCOD9122362
Probable space group: C 2
;
_chemical_formula_sum "Si O2"
_cell_formula_units_Z 32
_cell_length_a 22.320895
_cell_length_b 9.614574
_cell_length_c 14.199908
_cell_angle_alpha 90.000000
_cell_angle_beta 30.929729
_cell_angle_gamma 90.000000
_cell_volume 1566.313945
_symmetry_space_group_name_H-M "C 2"
_symmetry_group_IT_number 5
_symmetry_cell_setting 'monoclinic'
loop_
_space_group_symop_operation_xyz
x,y,z
-x,y,-z
1/2+x,1/2+y,z
1/2-x,1/2+y,-z
loop_
_atom_site_type_symbol
_atom_site_label
_atom_site_fract_x
_atom_site_fract_y
_atom_site_fract_z
Si Si1 0.626384 0.473610 0.572497
Si Si2 0.038139 0.659231 0.692524
Si Si3 0.862330 0.260484 0.907143
Si Si4 0.399214 0.974521 0.215398
Si Si5 0.519453 0.672348 0.862306
Si Si6 0.228060 0.556751 0.952408
Si Si7 0.611539 0.655861 0.418539
Si Si8 0.555952 0.934134 0.525433
O O1 0.575205 0.318858 0.637108
O O2 0.764736 0.480234 0.368104
O O3 0.590557 0.547797 0.718277
O O4 0.576278 0.571571 0.558082
O O5 0.078698 0.589377 0.734977
O O6 0.092165 0.568219 0.534490
O O7 0.900284 0.625472 0.870479
O O8 0.804761 0.136878 0.926091
O O9 0.906918 0.203214 0.947608
O O10 0.964850 0.341548 0.710759
O O11 0.775050 0.390813 0.032859
O O12 0.413783 0.819153 0.236862
O O13 0.500000 0.988205 0.000000
O O14 0.500000 0.649564 0.000000
O O15 0.284653 0.582966 0.775464
O O16 0.500000 0.660460 0.500000
O O17 0.651390 0.815293 0.380511
O O18 0.500000 0.972154 0.500000
#
# Coordination Sequence:
#
# PCOD9122362 Si02
#       8
#     4   4   4   4   4   4   4   4
#     4  12  25  42  69 100 133 178 234 295 334 412
#     4  11  25  42  64 100 135 171 227 289 339 410
#     4  11  22  43  68  98 140 180 222 286 345 411
#     4  11  23  47  70  92 131 182 234 282 346 408
#     4  11  24  46  69  95 141 191 230 275 348 417
#     4  11  23  40  69 102 132 181 224 285 350 411
#     4  11  21  40  66  96 131 179 229 274 352 419
#     4  10  19  42  65  93 134 175 217 270 354 406
#
# _framework density 20.430132
#
# number of rings (size 3 to 8) (size 9 to 14) (size 15 to 20)
#    0.000    1.000    6.250    1.500    5.250    1.000 
#    2.250    5.000    0.000    0.000    0.000    0.000 
#    0.000    0.000    0.000    0.000    0.000    0.000 
#
# Total GULP energy -89288.412631 kJ/mol
# GULP energy per Si atom -5580.525789 kJ/mol
# Density = 2.038363 g / cm^3
# Si number density = 20.430132 Si / 1000 Ang^3
#
#
#
# Elastic Constant Matrix: (Units=GPa)
#
#
# Indices 1 2 3 4 5 6 
#
# 1 117.6796 57.5001 35.8758 0.0000 11.0339 0.0000
# 2 57.5001 142.8533 37.2698 0.0000 14.1353 -0.0001
# 3 35.8758 37.2698 55.2505 0.0000 5.3786 0.0000
# 4 0.0000 0.0000 0.0000 2.2897 0.0000 -40.7420
# 5 11.0339 14.1353 5.3786 0.0000 36.8653 0.0000
# 6 0.0000 -0.0001 0.0000 -40.7420 0.0000 -33.7388
#
#
#
# Elastic Compliance Matrix: (Units=1/GPa)
#
#
# Indices 1 2 3 4 5 6 
#
# 1 0.011852 -0.003216 -0.005377 0.000000 -0.001530 0.000000
# 2 -0.003216 0.009593 -0.004178 0.000000 -0.002106 0.000000
# 3 -0.005377 -0.004178 0.024444 0.000000 -0.000355 0.000000
# 4 0.000000 0.000000 0.000000 0.019422 0.000000 -0.023453
# 5 -0.001530 -0.002106 -0.000355 0.000000 0.028443 0.000000
# 6 0.000000 0.000000 0.000000 -0.023453 0.000000 -0.001318
#
#
# Mechanical properties :
#
#
# Convention : Reuss Voigt Hill
#
# Bulk Modulus (GPa) = 49.14934 64.11943 56.63439
# Shear Modulus (GPa) = 40.07696 13.42576 26.75136
#
# Velocity S-wave (km/s) = 4.43387 2.56628 3.62250
# Velocity P-wave (km/s) = 7.09378 6.34302 6.72888
#
# Compressibility (1/GPa) = 0.02034615
#
# Stress axis : x y z
#
# Youngs Moduli (GPa) = 84.37453 104.24150 40.91033
#
# Poissons Ratio (x) = 0.33527 0.21999
# Poissons Ratio (y) = 0.27137 0.17091
# Poissons Ratio (z) = 0.45371 0.43549
#
# Static dielectric constant tensor:
#      x y z
#    x 1.840990 0.000000 0.005360 
#    y 0.000000 1.716100 0.000000 
#    z 0.005360 0.000000 1.784320 
# 
# From -- ./inp_files/57695.got.cif
#   From: 2010.05.17/outbox.cif.g08.bks.cpg/sg5_29_cif.got.tgz:57695.got - 2010.06.03 18:56:24.
