data_PCOD9122622
_publ_section_title
;
Structure prediction by ZEFSAII (Michael W. Deem and Ramdas Pophale) SiO2 
 PCOD9122622
Probable space group: C 2
;
_chemical_formula_sum "Si O2"
_cell_formula_units_Z 32
_cell_length_a 15.921584
_cell_length_b 16.925797
_cell_length_c 5.161858
_cell_angle_alpha 90.000000
_cell_angle_beta 89.688892
_cell_angle_gamma 90.000000
_cell_volume 1391.025371
_symmetry_space_group_name_H-M "C 2"
_symmetry_group_IT_number 5
_symmetry_cell_setting 'monoclinic'
loop_
_space_group_symop_operation_xyz
x,y,z
-x,y,-z
1/2+x,1/2+y,z
1/2-x,1/2+y,-z
loop_
_atom_site_type_symbol
_atom_site_label
_atom_site_fract_x
_atom_site_fract_y
_atom_site_fract_z
Si Si1 0.321463 0.567300 0.479156
Si Si2 0.588214 0.026168 0.879785
Si Si3 0.591189 0.887333 0.559074
Si Si4 0.801667 0.296402 0.079465
Si Si5 0.193881 0.704208 0.489462
Si Si6 0.590614 0.207699 0.974407
Si Si7 0.400593 0.643311 0.964106
Si Si8 0.272517 0.936252 0.806498
O O1 0.238245 0.619929 0.533580
O O2 0.379445 0.583019 0.728936
O O3 0.289583 0.481094 0.387133
O O4 0.367871 0.604082 0.229634
O O5 0.578996 0.119119 0.864262
O O6 0.592442 0.981378 0.608965
O O7 0.500000 0.995303 0.000000
O O8 0.671569 0.001003 0.038382
O O9 0.500000 0.857860 0.500000
O O10 0.619107 0.845737 0.818831
O O11 0.661012 0.880177 0.342169
O O12 0.761247 0.257309 0.336961
O O13 0.842011 0.221699 0.925081
O O14 0.738817 0.368531 0.998868
O O15 0.156498 0.738250 0.757775
O O16 0.124730 0.697992 0.263912
O O17 0.500000 0.247794 0.000000
O O18 0.500000 0.660333 0.000000
#
# Coordination Sequence:
#
# PCOD9122622 Si02
#       8
#     4   4   4   4   4   4   4   4
#     4  11  24  43  70 100 138 187 235 289 344 419
#     4  10  20  35  53  93 134 178 216 267 336 412
#     4  11  23  35  60  93 140 185 220 274 349 440
#     4  10  27  38  66  99 140 186 230 293 364 426
#     4  11  22  42  61  97 136 177 233 286 342 418
#     4  11  23  37  66  92 131 178 229 282 336 408
#     4  11  26  46  71 101 140 187 239 296 353 418
#     4  11  23  40  62 100 140 185 227 282 351 427
#
# _framework density 23.00461
#
# number of rings (size 3 to 8) (size 9 to 14) (size 15 to 20)
#    0.000    1.250    2.500    3.000   10.500    0.000 
#    0.000    0.000    0.000    0.750    0.000    0.000 
#    0.000    0.000    0.000    0.000    0.000    0.000 
#
# Total GULP energy -89276.822141 kJ/mol
# GULP energy per Si atom -5579.801384 kJ/mol
# Density = 2.295225 g / cm^3
# Si number density = 23.004610 Si / 1000 Ang^3
#
#
#
# Elastic Constant Matrix: (Units=GPa)
#
#
# Indices 1 2 3 4 5 6 
#
# 1 89.3404 27.1380 13.9237 0.0000 8.2106 0.0000
# 2 27.1380 74.3479 16.9938 0.0000 2.7792 0.0000
# 3 13.9237 16.9938 78.6129 0.0000 8.0539 0.0000
# 4 0.0000 0.0000 0.0000 29.3739 0.0000 12.7312
# 5 8.2106 2.7792 8.0539 0.0000 37.0461 0.0000
# 6 0.0000 0.0000 0.0000 12.7312 0.0000 9.0534
#
#
#
# Elastic Compliance Matrix: (Units=1/GPa)
#
#
# Indices 1 2 3 4 5 6 
#
# 1 0.012904 -0.004372 -0.001106 0.000000 -0.002292 0.000000
# 2 -0.004372 0.015636 -0.002644 0.000000 0.000371 0.000000
# 3 -0.001106 -0.002644 0.013749 0.000000 -0.002546 0.000000
# 4 0.000000 0.000000 0.000000 0.087177 0.000000 -0.122591
# 5 -0.002292 0.000371 -0.002546 0.000000 0.028027 0.000000
# 6 0.000000 0.000000 0.000000 -0.122591 0.000000 0.282848
#
#
# Mechanical properties :
#
#
# Convention : Reuss Voigt Hill
#
# Bulk Modulus (GPa) = 38.39262 39.82358 39.10810
# Shear Modulus (GPa) = 10.74655 27.37771 19.06213
#
# Velocity S-wave (km/s) = 2.16370 3.45352 2.88170
# Velocity P-wave (km/s) = 4.79244 5.76638 5.30182
#
# Compressibility (1/GPa) = 0.02604667
#
# Stress axis : x y z
#
# Youngs Moduli (GPa) = 77.49512 63.95306 72.73406
#
# Poissons Ratio (x) = 0.27959 0.08042
# Poissons Ratio (y) = 0.33879 0.19229
# Poissons Ratio (z) = 0.08569 0.16908
#
# Static dielectric constant tensor:
#      x y z
#    x 1.955490 0.000000 -0.040130 
#    y 0.000000 1.907380 0.000000 
#    z -0.040130 0.000000 1.968260 
# 
# From -- ./inp_files/7309.got.cif
#   From: 2010.05.17/outbox.cif.g08.bks.cpg/sg5_4_cif.got.tgz:7309.got - 2010.06.03 18:56:24.
