data_PCOD9122441
_publ_section_title
;
Structure prediction by ZEFSAII (Michael W. Deem and Ramdas Pophale) SiO2 
 PCOD9122441
Probable space group: C 2
;
_chemical_formula_sum "Si O2"
_cell_formula_units_Z 26
_cell_length_a 12.090584
_cell_length_b 23.447303
_cell_length_c 5.432817
_cell_angle_alpha 90.000000
_cell_angle_beta 55.613079
_cell_angle_gamma 90.000000
_cell_volume 1271.003676
_symmetry_space_group_name_H-M "C 2"
_symmetry_group_IT_number 5
_symmetry_cell_setting 'monoclinic'
loop_
_space_group_symop_operation_xyz
x,y,z
-x,y,-z
1/2+x,1/2+y,z
1/2-x,1/2+y,-z
loop_
_atom_site_type_symbol
_atom_site_label
_atom_site_fract_x
_atom_site_fract_y
_atom_site_fract_z
Si Si1 0.789784 0.640620 0.103088
Si Si2 0.662758 0.325454 0.279572
Si Si3 0.412915 0.567333 0.862116
Si Si4 0.500000 0.097515 0.500000
Si Si5 0.660088 0.455339 0.272541
Si Si6 0.644657 0.027870 0.690476
Si Si7 0.337028 0.260976 0.217838
O O1 0.932263 0.638049 0.784683
O O2 0.677278 0.624280 0.044698
O O3 0.794455 0.584220 0.260764
O O4 0.778578 0.697291 0.273923
O O5 0.500000 0.325284 0.500000
O O6 0.708003 0.390713 0.177727
O O7 0.703742 0.296006 0.486557
O O8 0.704166 0.290667 0.986290
O O9 0.500000 0.569272 0.500000
O O10 0.334201 0.506502 0.935093
O O11 0.500000 0.566469 0.000000
O O12 0.606564 0.053414 0.476353
O O13 0.500000 0.449362 0.500000
O O14 0.746560 0.479619 0.392775
O O15 0.500000 0.013988 0.000000
O O16 0.500000 0.258164 0.000000
#
# Coordination Sequence:
#
# PCOD9122441 Si02
#       7
#     4   4   4   2   4   4   4
#     4  10  22  34  58  85 120 150 192 242 295 355
#     4   9  20  34  51  81 111 147 189 238 285 336
#     4  10  23  38  58  87 118 157 196 240 297 351
#     4  10  20  32  58  88 116 148 190 234 304 358
#     4   9  19  36  58  82 116 149 195 243 287 346
#     4   9  19  36  52  87 116 151 187 240 296 352
#     4  10  20  34  54  81 114 148 187 235 293 340
#
# _framework density 20.456272999999999
#
# number of rings (size 3 to 8) (size 9 to 14) (size 15 to 20)
#    0.000    2.462    0.000    1.385   11.846    4.308 
#    5.538    0.000    0.000    2.769    0.000    0.000 
#    0.000    0.000    0.000    0.000    0.000    0.000 
#
# Total GULP energy -72391.048234 kJ/mol
# GULP energy per Si atom -5568.542172 kJ/mol
# Density = 2.040971 g / cm^3
# Si number density = 20.456273 Si / 1000 Ang^3
#
#
#
# Elastic Constant Matrix: (Units=GPa)
#
#
# Indices 1 2 3 4 5 6 
#
# 1 86.0736 40.7499 30.4991 0.0000 28.2180 0.0000
# 2 40.7499 121.4503 25.9899 0.0000 11.7267 0.0000
# 3 30.4991 25.9899 75.2162 0.0000 16.4302 0.0000
# 4 0.0000 0.0000 0.0000 14.9884 0.0000 2.7098
# 5 28.2180 11.7267 16.4302 0.0000 32.1585 0.0000
# 6 0.0000 0.0000 0.0000 2.7098 0.0000 25.2970
#
#
#
# Elastic Compliance Matrix: (Units=1/GPa)
#
#
# Indices 1 2 3 4 5 6 
#
# 1 0.019407 -0.004477 -0.003331 0.000000 -0.013695 0.000000
# 2 -0.004477 0.010026 -0.001923 0.000000 0.001255 0.000000
# 3 -0.003331 -0.001923 0.016342 0.000000 -0.004725 0.000000
# 4 0.000000 0.000000 0.000000 0.068036 0.000000 -0.007288
# 5 -0.013695 0.001255 -0.004725 0.000000 0.045070 0.000000
# 6 0.000000 0.000000 0.000000 -0.007288 0.000000 0.040311
#
#
# Mechanical properties :
#
#
# Convention : Reuss Voigt Hill
#
# Bulk Modulus (GPa) = 38.00211 53.02421 45.51316
# Shear Modulus (GPa) = 21.98515 26.85551 24.42033
#
# Velocity S-wave (km/s) = 3.28188 3.62722 3.45886
# Velocity P-wave (km/s) = 5.74269 6.59692 6.18457
#
# Compressibility (1/GPa) = 0.02631433
#
# Stress axis : x y z
#
# Youngs Moduli (GPa) = 51.52686 99.73803 61.19021
#
# Poissons Ratio (x) = 0.44648 0.20383
# Poissons Ratio (y) = 0.23066 0.11769
# Poissons Ratio (z) = 0.17164 0.19183
#
# Static dielectric constant tensor:
#      x y z
#    x 1.856560 0.000000 -0.017540 
#    y 0.000000 1.740850 0.000000 
#    z -0.017540 0.000000 1.800450 
# 
# From -- ./inp_files/5436.got.cif
#   From: 2010.05.17/outbox.cif.g08.bks.cpg/sg5_3_cif.got.tgz:5436.got - 2010.06.03 18:56:24.
