data_PCOD9122948
_publ_section_title
;
Structure prediction by ZEFSAII (Michael W. Deem and Ramdas Pophale) SiO2 
 PCOD9122948
Probable space group: C 2
;
_chemical_formula_sum "Si O2"
_cell_formula_units_Z 30
_cell_length_a 14.963970
_cell_length_b 17.108687
_cell_length_c 12.200048
_cell_angle_alpha 90.000000
_cell_angle_beta 150.257640
_cell_angle_gamma 90.000000
_cell_volume 1549.511901
_symmetry_space_group_name_H-M "C 2"
_symmetry_group_IT_number 5
_symmetry_cell_setting 'monoclinic'
loop_
_space_group_symop_operation_xyz
x,y,z
-x,y,-z
1/2+x,1/2+y,z
1/2-x,1/2+y,-z
loop_
_atom_site_type_symbol
_atom_site_label
_atom_site_fract_x
_atom_site_fract_y
_atom_site_fract_z
Si Si1 0.327972 0.379560 0.123359
Si Si2 0.000000 0.988713 0.500000
Si Si3 0.350341 0.018908 0.764079
Si Si4 0.994604 0.607608 0.262579
Si Si5 0.289841 0.718206 0.668375
Si Si6 0.505933 0.939583 0.376570
Si Si7 0.203265 0.207386 0.067828
Si Si8 0.217972 0.876669 0.479483
O O1 0.402785 0.432489 0.305067
O O2 0.258492 0.295194 0.090465
O O3 0.505508 0.370117 0.237793
O O4 0.170162 0.418343 0.883857
O O5 0.166555 0.039904 0.631625
O O6 0.272699 0.957101 0.595753
O O7 0.468405 0.081640 0.822997
O O8 0.500000 0.978750 0.000000
O O9 0.035376 0.530974 0.379145
O O10 0.806748 0.645144 0.101991
O O11 0.141484 0.672888 0.443151
O O12 0.249971 0.701646 0.753263
O O13 0.272907 0.809196 0.622347
O O14 0.489055 0.694701 0.842208
O O15 0.500000 0.931613 0.500000
O O16 0.662158 0.881240 0.500649
#
# Coordination Sequence:
#
# PCOD9122948 Si02
#       8
#     4   2   4   4   4   4   4   4
#     4  11  21  38  67  97 121 156 211 267 311 361
#     4  10  20  36  66 100 120 154 212 270 314 354
#     4  10  22  38  62  91 126 164 205 257 313 377
#     4  11  24  40  59  91 131 162 203 254 324 375
#     4  11  22  36  62  93 123 154 204 263 319 364
#     4  11  24  42  62  89 131 173 206 248 308 389
#     4  11  22  36  63  92 122 157 200 266 320 362
#     4  10  21  37  65  95 118 155 213 265 307 361
#
# _framework density 19.360937
#
# number of rings (size 3 to 8) (size 9 to 14) (size 15 to 20)
#    0.000    1.333    2.667    4.400    1.867    4.800 
#    0.000    1.333    1.467    0.000    0.000    0.000 
#    0.000    0.000    0.000    0.000    0.000    0.000 
#
# Total GULP energy -83620.966679 kJ/mol
# GULP energy per Si atom -5574.731112 kJ/mol
# Density = 1.931687 g / cm^3
# Si number density = 19.360937 Si / 1000 Ang^3
#
#
#
# Elastic Constant Matrix: (Units=GPa)
#
#
# Indices 1 2 3 4 5 6 
#
# 1 126.1432 19.7488 43.1723 0.0000 23.9689 0.0000
# 2 19.7488 28.7274 7.0408 0.0000 14.4767 0.0000
# 3 43.1723 7.0408 56.9052 0.0000 13.5500 0.0000
# 4 0.0000 0.0000 0.0000 5.0880 0.0000 8.0848
# 5 23.9689 14.4767 13.5500 0.0000 28.5074 0.0000
# 6 0.0000 0.0000 0.0000 8.0848 0.0000 29.6071
#
#
#
# Elastic Compliance Matrix: (Units=1/GPa)
#
#
# Indices 1 2 3 4 5 6 
#
# 1 0.011996 -0.004196 -0.007541 0.000000 -0.004371 0.000000
# 2 -0.004196 0.048250 0.002489 0.000000 -0.022158 0.000000
# 3 -0.007541 0.002489 0.024557 0.000000 -0.006596 0.000000
# 4 0.000000 0.000000 0.000000 0.347195 0.000000 -0.094809
# 5 -0.004371 -0.022158 -0.006596 0.000000 0.053141 0.000000
# 6 0.000000 0.000000 0.000000 -0.094809 0.000000 0.059665
#
#
# Mechanical properties :
#
#
# Convention : Reuss Voigt Hill
#
# Bulk Modulus (GPa) = 15.08105 39.07771 27.07938
# Shear Modulus (GPa) = 8.54114 22.09476 15.31795
#
# Velocity S-wave (km/s) = 2.10264 3.38183 2.81584
# Velocity P-wave (km/s) = 3.70151 5.95623 4.95872
#
# Compressibility (1/GPa) = 0.06630840
#
# Stress axis : x y z
#
# Youngs Moduli (GPa) = 83.36267 20.72529 40.72202
#
# Poissons Ratio (x) = 0.08696 0.30708
# Poissons Ratio (y) = 0.34976 -0.10137
# Poissons Ratio (z) = 0.62863 -0.05159
#
# Static dielectric constant tensor:
#      x y z
#    x 1.776590 0.000000 0.008760 
#    y 0.000000 1.687300 0.000000 
#    z 0.008760 0.000000 1.677190 
# 
# From -- ./inp_files/43317.got.cif
#   From: 2010.05.17/outbox.cif.g08.bks.cpg/sg5_22_cif.got.tgz:43317.got - 2010.06.03 18:56:24.
