data_PCOD9122063
_publ_section_title
;
Structure prediction by ZEFSAII (Michael W. Deem and Ramdas Pophale) SiO2 
 PCOD9122063
Probable space group: C 2
;
_chemical_formula_sum "Si O2"
_cell_formula_units_Z 28
_cell_length_a 18.075763
_cell_length_b 5.035138
_cell_length_c 16.860853
_cell_angle_alpha 90.000000
_cell_angle_beta 108.155125
_cell_angle_gamma 90.000000
_cell_volume 1458.176429
_symmetry_space_group_name_H-M "C 2"
_symmetry_group_IT_number 5
_symmetry_cell_setting 'monoclinic'
loop_
_space_group_symop_operation_xyz
x,y,z
-x,y,-z
1/2+x,1/2+y,z
1/2-x,1/2+y,-z
loop_
_atom_site_type_symbol
_atom_site_label
_atom_site_fract_x
_atom_site_fract_y
_atom_site_fract_z
Si Si1 0.193925 0.743760 0.716945
Si Si2 0.232074 0.714994 0.035117
Si Si3 0.465286 0.349470 0.401375
Si Si4 0.348031 0.745725 0.208496
Si Si5 0.008739 0.350659 0.310403
Si Si6 0.921662 0.808338 0.920235
Si Si7 0.879324 0.309917 0.795001
O O1 0.129370 0.818054 0.628618
O O2 0.181710 0.432141 0.729704
O O3 0.285783 0.804612 0.748711
O O4 0.160669 0.936324 0.774934
O O5 0.293659 0.818968 0.119007
O O6 0.147374 0.778615 0.038852
O O7 0.247118 0.402527 0.031518
O O8 0.500000 0.321454 0.500000
O O9 0.491307 0.625886 0.370234
O O10 0.499645 0.126325 0.353578
O O11 0.436666 0.821989 0.225402
O O12 0.082953 0.311462 0.280027
O O13 0.909319 0.563602 0.855116
O O14 0.906317 0.063725 0.859201
O O15 0.000000 0.814567 0.000000
#
# Coordination Sequence:
#
# PCOD9122063 Si02
#       7
#     4   4   4   4   4   4   4
#     4  10  19  38  62  81 111 156 188 230 289 345
#     4  12  24  37  58  82 113 149 205 246 292 339
#     4  10  21  41  63  92 122 148 189 239 290 354
#     4  10  20  38  55  81 110 152 198 236 279 345
#     4  10  23  36  64  89 115 156 196 231 295 348
#     4  12  27  41  57  85 122 161 196 253 306 327
#     4  12  22  43  60  85 122 155 201 243 288 362
#
# _framework density 19.202065999999999
#
# number of rings (size 3 to 8) (size 9 to 14) (size 15 to 20)
#    0.000    1.143    2.857    3.429    4.000    0.000 
#    0.000    1.429    0.000    0.000    0.000    0.000 
#    0.000    0.000    0.000    0.000    0.000    0.000 
#
# Total GULP energy -78029.479174 kJ/mol
# GULP energy per Si atom -5573.534227 kJ/mol
# Density = 1.915836 g / cm^3
# Si number density = 19.202066 Si / 1000 Ang^3
#
#
#
# Elastic Constant Matrix: (Units=GPa)
#
#
# Indices 1 2 3 4 5 6 
#
# 1 51.9824 5.1643 40.3104 0.0000 7.6091 0.0000
# 2 5.1643 108.7624 10.5708 -0.0001 4.8390 0.0000
# 3 40.3104 10.5708 93.9313 0.0000 35.2177 0.0000
# 4 0.0000 -0.0001 0.0000 22.9891 0.0000 1.1256
# 5 7.6091 4.8390 35.2177 0.0000 27.2359 0.0000
# 6 0.0000 0.0000 0.0000 1.1256 0.0000 22.7957
#
#
#
# Elastic Compliance Matrix: (Units=1/GPa)
#
#
# Indices 1 2 3 4 5 6 
#
# 1 0.032617 -0.000333 -0.020508 0.000000 0.017465 0.000000
# 2 -0.000333 0.009304 -0.000620 0.000000 -0.000758 0.000000
# 3 -0.020508 -0.000620 0.033633 0.000000 -0.037650 0.000000
# 4 0.000000 0.000000 0.000000 0.043604 0.000000 -0.002153
# 5 0.017465 -0.000758 -0.037650 0.000000 0.080655 0.000000
# 6 0.000000 0.000000 0.000000 -0.002153 0.000000 0.043974
#
#
# Mechanical properties :
#
#
# Convention : Reuss Voigt Hill
#
# Bulk Modulus (GPa) = 30.64420 40.75190 35.69805
# Shear Modulus (GPa) = 16.80177 27.84621 22.32399
#
# Velocity S-wave (km/s) = 2.96125 3.81224 3.41337
# Velocity P-wave (km/s) = 5.26169 6.37544 5.84516
#
# Compressibility (1/GPa) = 0.03263261
#
# Stress axis : x y z
#
# Youngs Moduli (GPa) = 30.65855 107.47895 29.73261
#
# Poissons Ratio (x) = 0.03574 0.60977
# Poissons Ratio (y) = 0.01020 0.01843
# Poissons Ratio (z) = 0.62876 0.06663
#
# Static dielectric constant tensor:
#      x y z
#    x 1.663670 0.000000 0.027660 
#    y 0.000000 1.682770 0.000000 
#    z 0.027660 0.000000 1.639920 
# 
# From -- ./inp_files/55327.got.cif
#   From: 2010.05.17/outbox.cif.g08.bks.cpg/sg5_28_cif.got.tgz:55327.got - 2010.06.03 18:56:24.
