data_PCOD9122243
_publ_section_title
;
Structure prediction by ZEFSAII (Michael W. Deem and Ramdas Pophale) SiO2 
 PCOD9122243
Probable space group: C 2
;
_chemical_formula_sum "Si O2"
_cell_formula_units_Z 32
_cell_length_a 12.787284
_cell_length_b 8.895314
_cell_length_c 11.369184
_cell_angle_alpha 90.000000
_cell_angle_beta 92.369646
_cell_angle_gamma 90.000000
_cell_volume 1292.103652
_symmetry_space_group_name_H-M "C 2"
_symmetry_group_IT_number 5
_symmetry_cell_setting 'monoclinic'
loop_
_space_group_symop_operation_xyz
x,y,z
-x,y,-z
1/2+x,1/2+y,z
1/2-x,1/2+y,-z
loop_
_atom_site_type_symbol
_atom_site_label
_atom_site_fract_x
_atom_site_fract_y
_atom_site_fract_z
Si Si1 0.390558 0.125000 0.179152
Si Si2 0.841549 0.218939 0.799170
Si Si3 0.874209 0.849866 0.518158
Si Si4 0.118486 0.952101 0.041696
Si Si5 0.377871 0.697780 0.527043
Si Si6 0.882192 0.735291 0.776799
Si Si7 0.173328 0.497573 0.074008
Si Si8 0.386726 0.016084 0.430026
O O1 0.284155 0.215515 0.194322
O O2 0.493117 0.225338 0.199888
O O3 0.395538 0.009817 0.288770
O O4 0.382401 0.057607 0.047747
O O5 0.883324 0.062322 0.848212
O O6 0.871154 0.229103 0.665804
O O7 0.875232 0.336181 0.899696
O O8 0.859125 0.815083 0.655617
O O9 0.842305 0.687248 0.455407
O O10 0.000000 0.853732 0.500000
O O11 0.841083 0.025635 0.492864
O O12 0.164863 0.804828 0.106165
O O13 0.203598 0.001338 0.951471
O O14 0.000000 0.931141 0.000000
O O15 0.500000 0.694550 0.500000
O O16 0.337004 0.855533 0.467377
O O17 0.842166 0.567915 0.795715
O O18 0.500000 0.020067 0.500000
#
# Coordination Sequence:
#
# PCOD9122243 Si02
#       8
#     4   4   4   4   4   4   4   4
#     4  11  24  44  74 105 137 195 243 287 370 449
#     4  11  24  45  66 101 149 174 237 309 354 433
#     4  10  19  39  71 101 137 187 242 291 356 419
#     4  11  23  43  67  98 139 183 234 292 362 434
#     4  10  22  42  68 100 143 188 241 304 350 425
#     4  12  21  43  75  99 140 193 232 291 369 440
#     4  11  25  42  68 104 143 180 237 302 362 442
#     4  10  20  42  73  97 143 189 242 291 359 422
#
# _framework density 24.765813999999999
#
# number of rings (size 3 to 8) (size 9 to 14) (size 15 to 20)
#    0.000    1.250    3.750    4.125    1.750    1.000 
#    2.250    0.000   11.000    0.000    0.000    0.000 
#    0.000    0.000    0.000    0.000    0.000    0.000 
#
# Total GULP energy -89238.336665 kJ/mol
# GULP energy per Si atom -5577.396042 kJ/mol
# Density = 2.470945 g / cm^3
# Si number density = 24.765814 Si / 1000 Ang^3
#
#
#
# Elastic Constant Matrix: (Units=GPa)
#
#
# Indices 1 2 3 4 5 6 
#
# 1 50.7515 31.1336 35.5633 0.0000 -9.6332 0.0000
# 2 31.1336 138.6268 62.6129 0.0000 5.2261 0.0000
# 3 35.5633 62.6129 143.1616 0.0000 -11.5429 0.0000
# 4 0.0000 0.0000 0.0000 11.1172 0.0000 -39.1457
# 5 -9.6332 5.2261 -11.5429 0.0000 28.8758 0.0000
# 6 0.0000 0.0000 0.0000 -39.1457 0.0000 34.3017
#
#
#
# Elastic Compliance Matrix: (Units=1/GPa)
#
#
# Indices 1 2 3 4 5 6 
#
# 1 0.026852 -0.004514 -0.004038 0.000000 0.008161 0.000000
# 2 -0.004514 0.010064 -0.003667 0.000000 -0.004793 0.000000
# 3 -0.004038 -0.003667 0.009854 0.000000 0.003256 0.000000
# 4 0.000000 0.000000 0.000000 -0.029800 0.000000 -0.034009
# 5 0.008161 -0.004793 0.003256 0.000000 0.039523 0.000000
# 6 0.000000 0.000000 0.000000 -0.034009 0.000000 -0.009658
#
#
# Mechanical properties :
#
#
# Convention : Reuss Voigt Hill
#
# Bulk Modulus (GPa) = 44.77818 65.68439 55.23128
# Shear Modulus (GPa) = 63.51885 28.40759 45.96322
#
# Velocity S-wave (km/s) = 5.06986 3.39048 4.31271
# Velocity P-wave (km/s) = 7.23818 6.47356 6.86652
#
# Compressibility (1/GPa) = 0.02233231
#
# Stress axis : x y z
#
# Youngs Moduli (GPa) = 37.24151 99.36094 101.47758
#
# Poissons Ratio (x) = 0.44855 0.40976
# Poissons Ratio (y) = 0.16812 0.37209
# Poissons Ratio (z) = 0.15038 0.36433
#
# Static dielectric constant tensor:
#      x y z
#    x 1.984110 0.000000 -0.054890 
#    y 0.000000 2.071370 0.000000 
#    z -0.054890 0.000000 1.908100 
# 
# From -- ./inp_files/41983.got.cif
#   From: 2010.05.17/outbox.cif.g08.bks.cpg/sg5_21_cif.got.tgz:41983.got - 2010.06.03 18:56:24.
