data_PCOD9122042
_publ_section_title
;
Structure prediction by ZEFSAII (Michael W. Deem and Ramdas Pophale) SiO2 
 PCOD9122042
Probable space group: C 2
;
_chemical_formula_sum "Si O2"
_cell_formula_units_Z 26
_cell_length_a 12.651615
_cell_length_b 20.170522
_cell_length_c 9.419245
_cell_angle_alpha 90.000000
_cell_angle_beta 32.058438
_cell_angle_gamma 90.000000
_cell_volume 1275.842234
_symmetry_space_group_name_H-M "C 2"
_symmetry_group_IT_number 5
_symmetry_cell_setting 'monoclinic'
loop_
_space_group_symop_operation_xyz
x,y,z
-x,y,-z
1/2+x,1/2+y,z
1/2-x,1/2+y,-z
loop_
_atom_site_type_symbol
_atom_site_label
_atom_site_fract_x
_atom_site_fract_y
_atom_site_fract_z
Si Si1 0.684230 0.283590 0.204836
Si Si2 0.406667 0.914454 0.956094
Si Si3 0.724238 0.404388 0.648536
Si Si4 0.785329 0.165110 0.300663
Si Si5 0.000000 0.564014 0.500000
Si Si6 0.672684 0.463567 0.989454
Si Si7 0.414546 0.254908 0.251375
O O1 0.500000 0.316412 0.500000
O O2 0.740840 0.220458 0.232304
O O3 0.598607 0.261307 0.151793
O O4 0.858363 0.336507 0.008702
O O5 0.571942 0.926772 0.650140
O O6 0.213796 0.948831 0.107102
O O7 0.500000 0.933672 0.000000
O O8 0.735281 0.405448 0.806415
O O9 0.670784 0.330048 0.661815
O O10 0.561930 0.458529 0.778189
O O11 0.613844 0.110089 0.483960
O O12 0.747068 0.205093 0.492107
O O13 0.000000 0.138991 0.000000
O O14 0.183243 0.522762 0.223514
O O15 0.500000 0.235549 0.000000
#
# Coordination Sequence:
#
# PCOD9122042 Si02
#       7
#     4   4   4   4   2   4   4
#     4  10  19  38  59  96 134 171 211 262 335 401
#     4  12  22  34  62  94 135 165 209 274 333 385
#     4  11  21  40  63  95 133 166 210 273 333 396
#     4  11  24  42  68  94 127 180 223 263 328 395
#     4  12  24  46  68  86 128 180 236 258 292 420
#     4  11  24  39  61  93 122 174 222 255 320 386
#     4  11  19  37  67 101 132 159 212 285 339 381
#
# _framework density 20.378695
#
# number of rings (size 3 to 8) (size 9 to 14) (size 15 to 20)
#    0.000    0.923    6.923    3.231    2.154    0.000 
#    0.000    3.077    0.000    1.846    0.000    0.000 
#    0.000    0.000    0.000    0.000    0.000    0.000 
#
# Total GULP energy -72424.736612 kJ/mol
# GULP energy per Si atom -5571.133586 kJ/mol
# Density = 2.033231 g / cm^3
# Si number density = 20.378695 Si / 1000 Ang^3
#
#
#
# Elastic Constant Matrix: (Units=GPa)
#
#
# Indices 1 2 3 4 5 6 
#
# 1 109.4499 10.0381 27.5549 0.0002 16.0989 -0.0001
# 2 10.0381 68.9709 11.1307 0.0008 -10.4419 -0.0002
# 3 27.5549 11.1307 82.0738 0.0006 -8.8911 0.0000
# 4 0.0002 0.0008 0.0006 26.2646 -0.0003 -9.4071
# 5 16.0989 -10.4419 -8.8911 -0.0003 35.6419 0.0000
# 6 -0.0001 -0.0002 0.0000 -9.4071 0.0000 27.2934
#
#
#
# Elastic Compliance Matrix: (Units=1/GPa)
#
#
# Indices 1 2 3 4 5 6 
#
# 1 0.011402 -0.001997 -0.004295 0.000000 -0.006807 0.000000
# 2 -0.001997 0.015734 -0.000890 0.000000 0.005289 0.000000
# 3 -0.004295 -0.000890 0.014315 0.000000 0.005250 0.000000
# 4 0.000000 0.000000 0.000000 0.043436 0.000000 0.014971
# 5 -0.006807 0.005289 0.005250 0.000000 0.033991 0.000000
# 6 0.000000 0.000000 0.000000 0.014971 0.000000 0.041799
#
#
# Mechanical properties :
#
#
# Convention : Reuss Voigt Hill
#
# Bulk Modulus (GPa) = 36.91695 39.77134 38.34415
# Shear Modulus (GPa) = 27.16352 31.95803 29.56077
#
# Velocity S-wave (km/s) = 3.65490 3.96436 3.81277
# Velocity P-wave (km/s) = 5.99715 6.36501 6.18382
#
# Compressibility (1/GPa) = 0.02708783
#
# Stress axis : x y z
#
# Youngs Moduli (GPa) = 87.70309 63.55671 69.85439
#
# Poissons Ratio (x) = 0.12692 0.30000
# Poissons Ratio (y) = 0.17513 0.06220
# Poissons Ratio (z) = 0.37665 0.05659
#
# Static dielectric constant tensor:
#      x y z
#    x 1.766120 0.000000 -0.046830 
#    y 0.000000 1.744080 0.000000 
#    z -0.046830 0.000000 1.797740 
# 
# From -- ./inp_files/21886.got.cif
#   From: 2010.05.17/outbox.cif.g08.bks.cpg/sg5_11_cif.got.tgz:21886.got - 2010.06.03 18:56:24.
