data_PCOD9122844
_publ_section_title
;
Structure prediction by ZEFSAII (Michael W. Deem and Ramdas Pophale) SiO2 
 PCOD9122844
Probable space group: C 2
;
_chemical_formula_sum "Si O2"
_cell_formula_units_Z 32
_cell_length_a 16.418048
_cell_length_b 13.912472
_cell_length_c 8.455035
_cell_angle_alpha 90.000000
_cell_angle_beta 119.509932
_cell_angle_gamma 90.000000
_cell_volume 1680.720155
_symmetry_space_group_name_H-M "C 2"
_symmetry_group_IT_number 5
_symmetry_cell_setting 'monoclinic'
loop_
_space_group_symop_operation_xyz
x,y,z
-x,y,-z
1/2+x,1/2+y,z
1/2-x,1/2+y,-z
loop_
_atom_site_type_symbol
_atom_site_label
_atom_site_fract_x
_atom_site_fract_y
_atom_site_fract_z
Si Si1 0.782315 0.563110 0.370048
Si Si2 0.865137 0.400642 0.251797
Si Si3 0.059994 0.551941 0.902424
Si Si4 0.238824 0.549648 0.286492
Si Si5 0.596277 0.679414 0.673286
Si Si6 0.248532 0.347557 0.159514
Si Si7 0.610401 0.672563 0.061390
Si Si8 0.917060 0.710056 0.311780
O O1 0.815062 0.459051 0.341935
O O2 0.795959 0.568549 0.570047
O O3 0.677216 0.594910 0.214619
O O4 0.853693 0.633523 0.347578
O O5 0.941069 0.467900 0.231824
O O6 0.897736 0.295302 0.332583
O O7 0.210211 0.386006 0.957852
O O8 0.040020 0.651642 0.794437
O O9 0.162741 0.565742 0.076143
O O10 0.000000 0.528283 0.000000
O O11 0.322107 0.623140 0.336362
O O12 0.264292 0.436983 0.291019
O O13 0.500000 0.648896 0.500000
O O14 0.608580 0.655536 0.870772
O O15 0.167811 0.273037 0.142153
O O16 0.343390 0.292822 0.209051
O O17 0.500000 0.677020 0.000000
O O18 0.000000 0.746054 0.500000
#
# Coordination Sequence:
#
# PCOD9122844 Si02
#       8
#     4   4   4   4   4   4   4   4
#     4  10  21  37  59  84 114 147 184 232 285 337
#     4   9  20  37  57  82 114 148 184 233 284 333
#     4  10  20  36  60  87 114 143 182 232 285 338
#     4  11  22  37  57  82 113 150 190 233 279 332
#     4  11  23  37  58  84 114 150 191 236 281 334
#     4   9  20  37  57  80 112 151 188 231 279 331
#     4  10  20  38  60  85 115 147 185 232 285 339
#     4  10  20  37  58  82 113 148 183 227 280 336
#
# _framework density 19.039456999999999
#
# number of rings (size 3 to 8) (size 9 to 14) (size 15 to 20)
#    0.000    2.000    0.000    5.250    0.000   11.000 
#    0.000    2.500    0.000    1.500    0.000    0.000 
#    0.000    0.000    0.000    0.000    0.000    0.000 
#
# Total GULP energy -89201.015360 kJ/mol
# GULP energy per Si atom -5575.063460 kJ/mol
# Density = 1.899612 g / cm^3
# Si number density = 19.039457 Si / 1000 Ang^3
#
#
#
# Elastic Constant Matrix: (Units=GPa)
#
#
# Indices 1 2 3 4 5 6 
#
# 1 71.9735 7.4549 0.3021 0.0000 -2.3263 0.0000
# 2 7.4549 24.5200 5.3482 0.0000 -7.4147 0.0000
# 3 0.3021 5.3482 42.6016 0.0000 0.9951 0.0000
# 4 0.0000 0.0000 0.0000 11.8455 0.0000 -5.2943
# 5 -2.3263 -7.4147 0.9951 0.0000 37.7609 0.0000
# 6 0.0000 0.0000 0.0000 -5.2943 0.0000 12.7590
#
#
#
# Elastic Compliance Matrix: (Units=1/GPa)
#
#
# Indices 1 2 3 4 5 6 
#
# 1 0.014354 -0.004466 0.000459 0.000000 -0.000005 0.000000
# 2 -0.004466 0.046148 -0.005971 0.000000 0.008944 0.000000
# 3 0.000459 -0.005971 0.024261 0.000000 -0.001783 0.000000
# 4 0.000000 0.000000 0.000000 0.103642 0.000000 0.043006
# 5 -0.000005 0.008944 -0.001783 0.000000 0.028285 0.000000
# 6 0.000000 0.000000 0.000000 0.043006 0.000000 0.096221
#
#
# Mechanical properties :
#
#
# Convention : Reuss Voigt Hill
#
# Bulk Modulus (GPa) = 15.43008 18.36729 16.89868
# Shear Modulus (GPa) = 14.10560 20.87240 17.48900
#
# Velocity S-wave (km/s) = 2.72483 3.31459 3.03407
# Velocity P-wave (km/s) = 4.24517 4.93118 4.60098
#
# Compressibility (1/GPa) = 0.06480849
#
# Stress axis : x y z
#
# Youngs Moduli (GPa) = 69.66464 21.66962 41.21801
#
# Poissons Ratio (x) = 0.09677 -0.01892
# Poissons Ratio (y) = 0.31111 0.24609
# Poissons Ratio (z) = -0.03197 0.12938
#
# Static dielectric constant tensor:
#      x y z
#    x 1.692670 0.000000 0.006000 
#    y 0.000000 1.688390 0.000000 
#    z 0.006000 0.000000 1.641860 
# 
# From -- ./inp_files/24633.got.cif
#   From: 2010.05.17/outbox.cif.g08.bks.cpg/sg5_13_cif.got.tgz:24633.got - 2010.06.03 18:56:24.
