data_PCOD9122884
_publ_section_title
;
Structure prediction by ZEFSAII (Michael W. Deem and Ramdas Pophale) SiO2 
 PCOD9122884
Probable space group: C 2
;
_chemical_formula_sum "Si O2"
_cell_formula_units_Z 24
_cell_length_a 8.736819
_cell_length_b 16.838321
_cell_length_c 11.162126
_cell_angle_alpha 90.000000
_cell_angle_beta 46.163505
_cell_angle_gamma 90.000000
_cell_volume 1184.476764
_symmetry_space_group_name_H-M "C 2"
_symmetry_group_IT_number 5
_symmetry_cell_setting 'monoclinic'
loop_
_space_group_symop_operation_xyz
x,y,z
-x,y,-z
1/2+x,1/2+y,z
1/2-x,1/2+y,-z
loop_
_atom_site_type_symbol
_atom_site_label
_atom_site_fract_x
_atom_site_fract_y
_atom_site_fract_z
Si Si1 0.369606 0.322630 0.950301
Si Si2 0.362198 0.545216 0.327227
Si Si3 0.497135 0.941434 0.124728
Si Si4 0.053152 0.881293 0.332648
Si Si5 0.665362 0.658760 0.017668
Si Si6 0.481477 0.060124 0.689304
O O1 0.496981 0.324944 0.754273
O O2 0.233211 0.242840 0.032146
O O3 0.500000 0.328676 0.000000
O O4 0.218488 0.399612 0.028747
O O5 0.458894 0.467435 0.341029
O O6 0.204393 0.528211 0.299284
O O7 0.189688 0.589213 0.506024
O O8 0.550068 0.600219 0.174385
O O9 0.309710 0.880520 0.198495
O O10 0.435471 0.989141 0.274080
O O11 0.500000 0.991722 0.000000
O O12 0.000000 0.862927 0.500000
O O13 0.867325 0.618914 0.843248
O O14 0.500000 0.671986 0.000000
#
# Coordination Sequence:
#
# PCOD9122884 Si02
#       6
#     4   4   4   4   4   4
#     4  11  24  42  61  89 124 173 213 257 320 376
#     4  10  21  38  64  93 124 160 206 260 313 371
#     4  10  20  36  62  88 120 159 207 257 310 371
#     4  11  21  39  64  95 124 160 208 265 312 370
#     4  10  21  40  62  87 128 169 208 252 313 383
#     4  10  20  38  62  95 122 161 206 257 315 370
#
# _framework density 20.262111999999998
#
# number of rings (size 3 to 8) (size 9 to 14) (size 15 to 20)
#    0.000    1.667    1.667    4.500    0.000    3.333 
#    9.000    0.000    0.000    0.000    0.000    0.000 
#    0.000    0.000    0.000    0.000    0.000    0.000 
#
# Total GULP energy -66824.780759 kJ/mol
# GULP energy per Si atom -5568.731730 kJ/mol
# Density = 2.021599 g / cm^3
# Si number density = 20.262112 Si / 1000 Ang^3
#
#
#
# Elastic Constant Matrix: (Units=GPa)
#
#
# Indices 1 2 3 4 5 6 
#
# 1 84.4382 35.9444 49.2113 0.0000 17.6101 0.0000
# 2 35.9444 44.9843 27.8787 0.0000 6.3937 0.0000
# 3 49.2113 27.8787 138.9419 0.0000 16.1234 0.0000
# 4 0.0000 0.0000 0.0000 11.9264 0.0000 0.1454
# 5 17.6101 6.3937 16.1234 0.0000 35.5054 0.0000
# 6 0.0000 0.0000 0.0000 0.1454 0.0000 26.7350
#
#
#
# Elastic Compliance Matrix: (Units=1/GPa)
#
#
# Indices 1 2 3 4 5 6 
#
# 1 0.021335 -0.013617 -0.004097 0.000000 -0.006269 0.000000
# 2 -0.013617 0.034271 -0.002239 0.000000 0.001599 0.000000
# 3 -0.004097 -0.002239 0.009305 0.000000 -0.001791 0.000000
# 4 0.000000 0.000000 0.000000 0.083853 0.000000 -0.000456
# 5 -0.006269 0.001599 -0.001791 0.000000 0.031799 0.000000
# 6 0.000000 0.000000 0.000000 -0.000456 0.000000 0.037407
#
#
# Mechanical properties :
#
#
# Convention : Reuss Voigt Hill
#
# Bulk Modulus (GPa) = 39.99195 54.93701 47.46448
# Shear Modulus (GPa) = 18.78204 25.18870 21.98537
#
# Velocity S-wave (km/s) = 3.04789 3.52965 3.29758
# Velocity P-wave (km/s) = 5.67154 6.61689 6.16237
#
# Compressibility (1/GPa) = 0.02500504
#
# Stress axis : x y z
#
# Youngs Moduli (GPa) = 46.87170 29.17904 107.46603
#
# Poissons Ratio (x) = 0.39735 0.44025
# Poissons Ratio (y) = 0.63828 0.24061
# Poissons Ratio (z) = 0.19202 0.06533
#
# Static dielectric constant tensor:
#      x y z
#    x 1.732350 0.000000 0.027170 
#    y 0.000000 1.708800 0.000000 
#    z 0.027170 0.000000 1.829200 
# 
# From -- ./inp_files/36777.got.cif
#   From: 2010.05.17/outbox.cif.g08.bks.cpg/sg5_19_cif.got.tgz:36777.got - 2010.06.03 18:56:24.
