data_PCOD9122558
_publ_section_title
;
Structure prediction by ZEFSAII (Michael W. Deem and Ramdas Pophale) SiO2 
 PCOD9122558
Probable space group: C 2
;
_chemical_formula_sum "Si O2"
_cell_formula_units_Z 30
_cell_length_a 7.467694
_cell_length_b 11.551031
_cell_length_c 24.537259
_cell_angle_alpha 90.000000
_cell_angle_beta 136.709507
_cell_angle_gamma 90.000000
_cell_volume 1451.329191
_symmetry_space_group_name_H-M "C 2"
_symmetry_group_IT_number 5
_symmetry_cell_setting 'monoclinic'
loop_
_space_group_symop_operation_xyz
x,y,z
-x,y,-z
1/2+x,1/2+y,z
1/2-x,1/2+y,-z
loop_
_atom_site_type_symbol
_atom_site_label
_atom_site_fract_x
_atom_site_fract_y
_atom_site_fract_z
Si Si1 0.906722 0.928820 0.616022
Si Si2 0.170253 0.698684 0.894662
Si Si3 0.356302 0.583361 0.247458
Si Si4 0.680099 0.576495 0.970729
Si Si5 0.000000 0.751738 0.500000
Si Si6 0.861553 0.450760 0.557828
Si Si7 0.664688 0.954066 0.102766
Si Si8 0.434919 0.169010 0.367320
O O1 0.646826 0.933116 0.595511
O O2 0.828477 0.961454 0.536957
O O3 0.998953 0.795848 0.639333
O O4 0.103167 0.020135 0.686031
O O5 0.378168 0.605081 0.915945
O O6 0.258316 0.826625 0.898607
O O7 0.884169 0.671204 0.809104
O O8 0.185913 0.679309 0.963674
O O9 0.284821 0.485991 0.187124
O O10 0.631312 0.641321 0.292561
O O11 0.729107 0.549033 0.918034
O O12 0.849981 0.470170 0.033648
O O13 0.251870 0.834329 0.560335
O O14 0.999226 0.677080 0.553627
O O15 0.888213 0.556510 0.606342
#
# Coordination Sequence:
#
# PCOD9122558 Si02
#       8
#     4   4   4   4   2   4   4   4
#     4   9  19  37  56  79 113 149 186 231 276 327
#     4  10  21  38  59  82 112 145 175 226 280 317
#     4  10  22  37  54  83 117 148 182 220 275 340
#     4   9  18  37  60  80 101 136 183 219 260 325
#     4  10  20  34  58  82 104 146 194 236 278 320
#     4   9  19  36  57  81 107 142 195 238 272 322
#     4  10  21  38  57  82 113 140 180 226 269 328
#     4  10  20  37  56  79 113 149 186 234 279 320
#
# _framework density 20.670705000000002
#
# number of rings (size 3 to 8) (size 9 to 14) (size 15 to 20)
#    0.000    2.400    0.000    3.200    0.000    6.400 
#    0.000   28.000    0.000    0.000    0.000    0.000 
#    0.000    0.000    0.000    0.000    0.000    0.000 
#
# Total GULP energy -83536.058998 kJ/mol
# GULP energy per Si atom -5569.070600 kJ/mol
# Density = 2.062366 g / cm^3
# Si number density = 20.670705 Si / 1000 Ang^3
#
#
#
# Elastic Constant Matrix: (Units=GPa)
#
#
# Indices 1 2 3 4 5 6 
#
# 1 54.2735 33.4682 9.0712 0.0000 14.6707 0.0000
# 2 33.4682 122.2909 35.3960 0.0000 22.2613 0.0000
# 3 9.0712 35.3960 80.8442 0.0000 23.7811 0.0000
# 4 0.0000 0.0000 0.0000 20.9766 0.0000 5.6102
# 5 14.6707 22.2613 23.7811 0.0000 30.3116 0.0000
# 6 0.0000 0.0000 0.0000 5.6102 0.0000 34.1843
#
#
#
# Elastic Compliance Matrix: (Units=1/GPa)
#
#
# Indices 1 2 3 4 5 6 
#
# 1 0.024012 -0.005575 0.002549 0.000000 -0.009527 0.000000
# 2 -0.005575 0.011218 -0.003453 0.000000 -0.002831 0.000000
# 3 0.002549 -0.003453 0.017176 0.000000 -0.012173 0.000000
# 4 0.000000 0.000000 0.000000 0.049861 0.000000 -0.008183
# 5 -0.009527 -0.002831 -0.012173 0.000000 0.049232 0.000000
# 6 0.000000 0.000000 0.000000 -0.008183 0.000000 0.030596
#
#
# Mechanical properties :
#
#
# Convention : Reuss Voigt Hill
#
# Bulk Modulus (GPa) = 25.34960 45.91992 35.63476
# Shear Modulus (GPa) = 24.01501 29.05936 26.53719
#
# Velocity S-wave (km/s) = 3.41220 3.75350 3.58691
# Velocity P-wave (km/s) = 5.27393 6.40689 5.86782
#
# Compressibility (1/GPa) = 0.03944835
#
# Stress axis : x y z
#
# Youngs Moduli (GPa) = 41.64505 89.14355 58.21980
#
# Poissons Ratio (x) = 0.49699 -0.14841
# Poissons Ratio (y) = 0.23218 0.20104
# Poissons Ratio (z) = -0.10616 0.30783
#
# Static dielectric constant tensor:
#      x y z
#    x 1.814800 0.000000 -0.012710 
#    y 0.000000 1.769630 0.000000 
#    z -0.012710 0.000000 1.744980 
# 
# From -- ./inp_files/59499.got.cif
#   From: 2010.05.17/outbox.cif.g08.bks.cpg/sg5_30_cif.got.tgz:59499.got - 2010.06.03 18:56:24.
