data_PCOD9122074
_publ_section_title
;
Structure prediction by ZEFSAII (Michael W. Deem and Ramdas Pophale) SiO2 
 PCOD9122074
Probable space group: C 2
;
_chemical_formula_sum "Si O2"
_cell_formula_units_Z 28
_cell_length_a 21.543113
_cell_length_b 15.329278
_cell_length_c 8.728807
_cell_angle_alpha 90.000000
_cell_angle_beta 150.783622
_cell_angle_gamma 90.000000
_cell_volume 1407.025642
_symmetry_space_group_name_H-M "C 2"
_symmetry_group_IT_number 5
_symmetry_cell_setting 'monoclinic'
loop_
_space_group_symop_operation_xyz
x,y,z
-x,y,-z
1/2+x,1/2+y,z
1/2-x,1/2+y,-z
loop_
_atom_site_type_symbol
_atom_site_label
_atom_site_fract_x
_atom_site_fract_y
_atom_site_fract_z
Si Si1 0.711736 0.998920 0.128710
Si Si2 0.359343 0.364857 0.632758
Si Si3 0.491197 0.842258 0.308375
Si Si4 0.354156 0.551570 0.131457
Si Si5 0.797839 0.212277 0.795439
Si Si6 0.635918 0.097118 0.248926
Si Si7 0.784064 0.428432 0.390537
O O1 0.827234 0.953216 0.471145
O O2 0.763363 0.032516 0.079885
O O3 0.651352 0.072680 0.106025
O O4 0.605254 0.924003 0.885356
O O5 0.313482 0.284679 0.428619
O O6 0.270791 0.368485 0.593244
O O7 0.500000 0.360101 0.000000
O O8 0.500000 0.806843 0.500000
O O9 0.620279 0.877147 0.513245
O O10 0.425589 0.768841 0.062855
O O11 0.500000 0.552714 0.500000
O O12 0.314559 0.642401 0.966569
O O13 0.325008 0.475352 0.944797
O O14 0.752734 0.156555 0.553363
O O15 0.644628 0.007733 0.367493
O O16 0.500000 0.137489 0.000000
#
# Coordination Sequence:
#
# PCOD9122074 Si02
#       7
#     4   4   4   4   4   4   4
#     4  10  21  36  67  91 113 164 214 250 312 357
#     4  10  21  41  62  91 123 165 208 261 298 376
#     4  11  20  40  64  94 122 163 207 263 298 384
#     4  11  22  42  60  91 126 163 203 265 302 372
#     4  10  24  38  59  87 134 161 196 257 323 346
#     4  10  19  38  62  92 122 160 204 258 296 375
#     4  10  21  37  70  91 117 164 215 245 312 362
#
# _framework density 19.900136
#
# number of rings (size 3 to 8) (size 9 to 14) (size 15 to 20)
#    0.000    1.714    2.857    1.714    0.000    0.000 
#    7.714    0.000    3.143    0.000    0.000    0.000 
#    0.000    0.000    0.000    0.000    0.000    0.000 
#
# Total GULP energy -78144.194903 kJ/mol
# GULP energy per Si atom -5581.728207 kJ/mol
# Density = 1.985484 g / cm^3
# Si number density = 19.900136 Si / 1000 Ang^3
#
#
#
# Elastic Constant Matrix: (Units=GPa)
#
#
# Indices 1 2 3 4 5 6 
#
# 1 79.4612 29.9798 17.4078 0.0000 -6.2164 0.0000
# 2 29.9798 77.1303 34.9692 0.0000 4.1655 0.0000
# 3 17.4078 34.9692 111.0992 0.0000 -0.6497 0.0000
# 4 0.0000 0.0000 0.0000 29.6948 0.0000 -11.4985
# 5 -6.2164 4.1655 -0.6497 0.0000 23.3839 0.0000
# 6 0.0000 0.0000 0.0000 -11.4985 0.0000 10.1215
#
#
#
# Elastic Compliance Matrix: (Units=1/GPa)
#
#
# Indices 1 2 3 4 5 6 
#
# 1 0.015369 -0.006035 -0.000479 0.000000 0.005147 0.000000
# 2 -0.006035 0.017682 -0.004649 0.000000 -0.004883 0.000000
# 3 -0.000479 -0.004649 0.010545 0.000000 0.000994 0.000000
# 4 0.000000 0.000000 0.000000 0.060125 0.000000 0.068304
# 5 0.005147 -0.004883 0.000994 0.000000 0.045030 0.000000
# 6 0.000000 0.000000 0.000000 0.068304 0.000000 0.176396
#
#
# Mechanical properties :
#
#
# Convention : Reuss Voigt Hill
#
# Bulk Modulus (GPa) = 47.00954 48.04492 47.52723
# Shear Modulus (GPa) = 14.10190 24.99563 19.54877
#
# Velocity S-wave (km/s) = 2.66490 3.54793 3.13764
# Velocity P-wave (km/s) = 5.75699 6.40150 6.08778
#
# Compressibility (1/GPa) = 0.02127228
#
# Stress axis : x y z
#
# Youngs Moduli (GPa) = 65.06526 56.55457 94.83252
#
# Poissons Ratio (x) = 0.34130 0.04538
# Poissons Ratio (y) = 0.39266 0.44083
# Poissons Ratio (z) = 0.03114 0.26289
#
# Static dielectric constant tensor:
#      x y z
#    x 1.657530 0.000000 -0.015420 
#    y 0.000000 1.720340 0.000000 
#    z -0.015420 0.000000 1.723390 
# 
# From -- ./inp_files/29872.got.cif
#   From: 2010.05.17/outbox.cif.g08.bks.cpg/sg5_15_cif.got.tgz:29872.got - 2010.06.03 18:56:24.
