data_PCOD9122102
_publ_section_title
;
Structure prediction by ZEFSAII (Michael W. Deem and Ramdas Pophale) SiO2 
 PCOD9122102
Probable space group: C 2
;
_chemical_formula_sum "Si O2"
_cell_formula_units_Z 26
_cell_length_a 21.943765
_cell_length_b 13.900098
_cell_length_c 8.330198
_cell_angle_alpha 90.000000
_cell_angle_beta 34.551168
_cell_angle_gamma 90.000000
_cell_volume 1441.040339
_symmetry_space_group_name_H-M "C 2"
_symmetry_group_IT_number 5
_symmetry_cell_setting 'monoclinic'
loop_
_space_group_symop_operation_xyz
x,y,z
-x,y,-z
1/2+x,1/2+y,z
1/2-x,1/2+y,-z
loop_
_atom_site_type_symbol
_atom_site_label
_atom_site_fract_x
_atom_site_fract_y
_atom_site_fract_z
Si Si1 0.068618 0.771200 0.010283
Si Si2 0.000000 0.092346 0.000000
Si Si3 0.109622 0.427941 0.868699
Si Si4 0.276976 0.043992 0.646402
Si Si5 0.549190 0.470396 0.217478
Si Si6 0.499914 0.072553 0.684590
Si Si7 0.796653 0.224400 0.371968
O O1 0.028531 0.667420 0.154428
O O2 0.044931 0.857368 0.184320
O O3 0.196215 0.758594 0.698999
O O4 0.000000 0.794763 0.000000
O O5 0.893199 0.159855 0.237514
O O6 0.005764 0.028936 0.152582
O O7 0.196439 0.486420 0.575118
O O8 0.149963 0.320988 0.811170
O O9 0.000000 0.424786 0.000000
O O10 0.082017 0.489199 0.085195
O O11 0.382311 0.037482 0.523396
O O12 0.254629 0.154335 0.649067
O O13 0.173573 0.000260 0.952905
O O14 0.500000 0.490855 0.500000
O O15 0.500000 0.095969 0.500000
#
# Coordination Sequence:
#
# PCOD9122102 Si02
#       7
#     4   2   4   4   4   4   4
#     4  12  21  40  65  93 124 164 215 257 317 374
#     4  10  24  42  66  92 126 172 214 250 324 374
#     4  10  19  38  64  87 120 162 209 251 307 382
#     4  10  21  40  62  86 122 166 206 262 306 373
#     4  11  24  42  64  95 132 162 210 263 318 380
#     4  11  23  40  59  93 128 165 213 261 313 370
#     4  11  20  38  68  91 116 165 215 257 309 382
#
# _framework density 18.04252
#
# number of rings (size 3 to 8) (size 9 to 14) (size 15 to 20)
#    0.000    1.231    6.154    0.923    0.000    1.231 
#    2.769    3.077    0.000    0.000    0.000    0.000 
#    0.000    0.000    0.000    0.000    0.000    0.000 
#
# Total GULP energy -72503.606843 kJ/mol
# GULP energy per Si atom -5577.200526 kJ/mol
# Density = 1.800145 g / cm^3
# Si number density = 18.042520 Si / 1000 Ang^3
#
#
#
# Elastic Constant Matrix: (Units=GPa)
#
#
# Indices 1 2 3 4 5 6 
#
# 1 54.4872 15.5556 40.2870 0.0000 4.4948 0.0000
# 2 15.5556 97.8546 30.4437 0.0000 1.7892 0.0000
# 3 40.2870 30.4437 122.2059 0.0000 -3.7460 0.0000
# 4 0.0000 0.0000 0.0000 23.0267 0.0000 -6.8738
# 5 4.4948 1.7892 -3.7460 0.0000 23.3272 0.0000
# 6 0.0000 0.0000 0.0000 -6.8738 0.0000 19.1365
#
#
#
# Elastic Compliance Matrix: (Units=1/GPa)
#
#
# Indices 1 2 3 4 5 6 
#
# 1 0.025297 -0.001363 -0.008186 0.000000 -0.006084 0.000000
# 2 -0.001363 0.011191 -0.002368 0.000000 -0.000976 0.000000
# 3 -0.008186 -0.002368 0.011583 0.000000 0.003619 0.000000
# 4 0.000000 0.000000 0.000000 0.048644 0.000000 0.017473
# 5 -0.006084 -0.000976 0.003619 0.000000 0.044697 0.000000
# 6 0.000000 0.000000 0.000000 0.017473 0.000000 0.058532
#
#
# Mechanical properties :
#
#
# Convention : Reuss Voigt Hill
#
# Bulk Modulus (GPa) = 41.26388 49.68003 45.47196
# Shear Modulus (GPa) = 21.56504 25.64885 23.60694
#
# Velocity S-wave (km/s) = 3.46097 3.77447 3.62111
# Velocity P-wave (km/s) = 6.23627 6.82571 6.53763
#
# Compressibility (1/GPa) = 0.02423427
#
# Stress axis : x y z
#
# Youngs Moduli (GPa) = 39.53051 89.36076 86.33647
#
# Poissons Ratio (x) = 0.12182 0.70678
# Poissons Ratio (y) = 0.05389 0.20447
# Poissons Ratio (z) = 0.32361 0.21163
#
# Static dielectric constant tensor:
#      x y z
#    x 1.612490 0.000000 -0.014300 
#    y 0.000000 1.612040 0.000000 
#    z -0.014300 0.000000 1.624860 
# 
# From -- ./inp_files/20134.got.cif
#   From: 2010.05.17/outbox.cif.g08.bks.cpg/sg5_11_cif.got.tgz:20134.got - 2010.06.03 18:56:24.
