data_PCOD9122002
_publ_section_title
;
Structure prediction by ZEFSAII (Michael W. Deem and Ramdas Pophale) SiO2 
 PCOD9122002
Probable space group: C 2
;
_chemical_formula_sum "Si O2"
_cell_formula_units_Z 30
_cell_length_a 7.685691
_cell_length_b 13.767602
_cell_length_c 21.648131
_cell_angle_alpha 90.000000
_cell_angle_beta 36.863523
_cell_angle_gamma 90.000000
_cell_volume 1374.195264
_symmetry_space_group_name_H-M "C 2"
_symmetry_group_IT_number 5
_symmetry_cell_setting 'monoclinic'
loop_
_space_group_symop_operation_xyz
x,y,z
-x,y,-z
1/2+x,1/2+y,z
1/2-x,1/2+y,-z
loop_
_atom_site_type_symbol
_atom_site_label
_atom_site_fract_x
_atom_site_fract_y
_atom_site_fract_z
Si Si1 0.868546 0.383380 0.321228
Si Si2 0.326613 0.121185 0.890084
Si Si3 0.332140 0.897950 0.887443
Si Si4 0.698005 0.300178 0.561083
Si Si5 0.000000 0.003903 0.500000
Si Si6 0.310929 0.625912 0.437803
Si Si7 0.592295 0.672058 0.240555
Si Si8 0.747742 0.710120 0.779082
O O1 0.545550 0.379574 0.383768
O O2 0.796952 0.443895 0.401870
O O3 0.106557 0.413228 0.203473
O O4 0.947019 0.271146 0.306108
O O5 0.564660 0.182086 0.859852
O O6 0.332172 0.152006 0.816325
O O7 0.382696 0.008995 0.894503
O O8 0.000000 0.144675 0.000000
O O9 0.554227 0.810308 0.843666
O O10 0.000000 0.872992 0.000000
O O11 0.752249 0.232258 0.486008
O O12 0.541549 0.237516 0.659374
O O13 0.000000 0.338504 0.500000
O O14 0.062050 0.069823 0.540687
O O15 0.523591 0.607061 0.319264
O O16 0.000000 0.594995 0.500000
O O17 0.443973 0.651287 0.217234
#
# Coordination Sequence:
#
# PCOD9122002 Si02
#       8
#     4   4   4   4   2   4   4   4
#     4  10  22  40  62  91 130 174 216 269 340 386
#     4  11  24  41  69 101 125 173 228 274 344 406
#     4   9  21  41  66  96 136 167 220 288 326 396
#     4  10  19  37  65  89 122 173 213 264 321 398
#     4  12  26  36  60  96 134 172 216 282 330 394
#     4  12  21  37  61  93 130 168 216 264 325 397
#     4  10  22  41  66  92 128 174 221 275 326 411
#     4  10  23  40  68  96 132 180 216 275 345 395
#
# _framework density 21.830957999999999
#
# number of rings (size 3 to 8) (size 9 to 14) (size 15 to 20)
#    0.000    1.867    3.333    2.400    5.600    0.533 
#    0.000    6.667    0.000    0.000    0.000    0.000 
#    0.000    0.000    0.000    0.000    0.000    0.000 
#
# Total GULP energy -83562.857451 kJ/mol
# GULP energy per Si atom -5570.857163 kJ/mol
# Density = 2.178127 g / cm^3
# Si number density = 21.830958 Si / 1000 Ang^3
#
#
#
# Elastic Constant Matrix: (Units=GPa)
#
#
# Indices 1 2 3 4 5 6 
#
# 1 92.4427 24.0068 14.6167 -0.0024 -14.8709 0.0012
# 2 24.0068 45.2233 -1.4896 -0.0012 -5.7875 -0.0009
# 3 14.6167 -1.4896 93.9172 0.0012 -16.4774 -0.0044
# 4 -0.0024 -0.0012 0.0012 24.5944 0.0007 7.0978
# 5 -14.8709 -5.7875 -16.4774 0.0007 34.5586 0.0020
# 6 0.0012 -0.0009 -0.0044 7.0978 0.0020 2.5336
#
#
#
# Elastic Compliance Matrix: (Units=1/GPa)
#
#
# Indices 1 2 3 4 5 6 
#
# 1 0.013421 -0.006670 -0.001503 0.000027 0.003942 -0.000090
# 2 -0.006670 0.026019 0.001868 -0.000018 0.002378 0.000063
# 3 -0.001503 0.001868 0.011843 -0.000030 0.005313 0.000103
# 4 0.000027 -0.000018 -0.000030 0.212312 0.000025 -0.594786
# 5 0.003942 0.002378 0.005313 0.000025 0.033564 -0.000090
# 6 -0.000090 0.000063 0.000103 -0.594786 -0.000090 2.060972
#
#
# Mechanical properties :
#
#
# Convention : Reuss Voigt Hill
#
# Bulk Modulus (GPa) = 25.85726 33.98344 29.92035
# Shear Modulus (GPa) = 2.09764 25.30061 13.69912
#
# Velocity S-wave (km/s) = 0.98130 3.40800 2.50773
# Velocity P-wave (km/s) = 3.62684 5.57552 4.70321
#
# Compressibility (1/GPa) = 0.03867387
#
# Stress axis : x y z
#
# Youngs Moduli (GPa) = 74.50808 38.43345 84.43547
#
# Poissons Ratio (x) = 0.25634 0.12691
# Poissons Ratio (y) = 0.49695 -0.15772
# Poissons Ratio (z) = 0.11199 -0.07179
#
# Static dielectric constant tensor:
#      x y z
#    x 1.821480 0.000000 0.046560 
#    y 0.000000 1.957930 0.000000 
#    z 0.046560 0.000000 1.936740 
# 
# From -- ./inp_files/68007.got.cif
#   From: 2010.05.17/outbox.cif.g08.bks.cpg/sg5_35_cif.got.tgz:68007.got - 2010.06.03 18:56:24.
