data_PCOD9122141
_publ_section_title
;
Structure prediction by ZEFSAII (Michael W. Deem and Ramdas Pophale) SiO2 
 PCOD9122141
Probable space group: C 2
;
_chemical_formula_sum "Si O2"
_cell_formula_units_Z 32
_cell_length_a 7.944285
_cell_length_b 26.777797
_cell_length_c 13.846723
_cell_angle_alpha 90.000000
_cell_angle_beta 29.274706
_cell_angle_gamma 90.000000
_cell_volume 1440.400391
_symmetry_space_group_name_H-M "C 2"
_symmetry_group_IT_number 5
_symmetry_cell_setting 'monoclinic'
loop_
_space_group_symop_operation_xyz
x,y,z
-x,y,-z
1/2+x,1/2+y,z
1/2-x,1/2+y,-z
loop_
_atom_site_type_symbol
_atom_site_label
_atom_site_fract_x
_atom_site_fract_y
_atom_site_fract_z
Si Si1 0.346126 0.947970 0.390899
Si Si2 0.373392 0.704170 0.760517
Si Si3 0.512266 0.172861 0.228791
Si Si4 0.196563 0.772674 0.574622
Si Si5 0.366474 0.631385 0.214827
Si Si6 0.389981 0.522568 0.165591
Si Si7 0.720193 0.922197 0.018891
Si Si8 0.984430 0.879902 0.711752
O O1 0.635159 0.924338 0.175151
O O2 0.000000 0.955557 0.500000
O O3 0.279838 0.910988 0.511967
O O4 0.510557 0.998895 0.348042
O O5 0.604713 0.752338 0.619281
O O6 0.597847 0.666551 0.711357
O O7 0.291730 0.679573 0.696687
O O8 0.000000 0.713937 0.000000
O O9 0.535986 0.228089 0.264784
O O10 0.536612 0.137512 0.310082
O O11 0.818685 0.152728 0.007752
O O12 0.500000 0.783234 0.500000
O O13 0.990767 0.823709 0.670103
O O14 0.413931 0.573268 0.212820
O O15 0.500000 0.535239 0.000000
O O16 0.636298 0.477524 0.076770
O O17 0.349866 0.908389 0.160981
O O18 0.962122 0.884017 0.838758
#
# Coordination Sequence:
#
# PCOD9122141 Si02
#       8
#     4   4   4   4   4   4   4   4
#     4   9  20  40  61  91 135 171 224 281 332 409
#     4   9  20  41  61  94 133 166 229 280 336 419
#     4   9  19  39  61  91 126 168 214 280 331 405
#     4  10  22  40  64  88 130 173 217 284 355 400
#     4  10  19  38  68  92 128 176 218 272 347 408
#     4  10  19  38  67  93 131 178 218 278 350 405
#     4   9  21  39  61  90 131 166 219 273 336 401
#     4  10  21  42  62  92 129 171 221 278 337 411
#
# _framework density 22.216044
#
# number of rings (size 3 to 8) (size 9 to 14) (size 15 to 20)
#    0.000    2.500    1.250    0.000    1.750    2.500 
#   20.250    4.375    0.000    0.000    0.000    0.000 
#    0.000    0.000    0.000    0.000    0.000    0.000 
#
# Total GULP energy -89159.044690 kJ/mol
# GULP energy per Si atom -5572.440293 kJ/mol
# Density = 2.216548 g / cm^3
# Si number density = 22.216044 Si / 1000 Ang^3
#
#
#
# Elastic Constant Matrix: (Units=GPa)
#
#
# Indices 1 2 3 4 5 6 
#
# 1 71.7323 35.8573 29.6818 0.0000 1.8584 0.0000
# 2 35.8573 131.1853 53.8399 0.0000 8.5774 0.0000
# 3 29.6818 53.8399 125.2603 0.0000 8.9762 0.0000
# 4 0.0000 0.0000 0.0000 21.9711 0.0000 -14.9628
# 5 1.8584 8.5774 8.9762 0.0000 39.5220 0.0000
# 6 0.0000 0.0000 0.0000 -14.9628 0.0000 59.2798
#
#
#
# Elastic Compliance Matrix: (Units=1/GPa)
#
#
# Indices 1 2 3 4 5 6 
#
# 1 0.016745 -0.003604 -0.002458 0.000000 0.000553 0.000000
# 2 -0.003604 0.010081 -0.003389 0.000000 -0.001249 0.000000
# 3 -0.002458 -0.003389 0.010127 0.000000 -0.001449 0.000000
# 4 0.000000 0.000000 0.000000 0.054962 0.000000 0.013873
# 5 0.000553 -0.001249 -0.001449 0.000000 0.025876 0.000000
# 6 0.000000 0.000000 0.000000 0.013873 0.000000 0.020371
#
#
# Mechanical properties :
#
#
# Convention : Reuss Voigt Hill
#
# Bulk Modulus (GPa) = 55.40646 62.99287 59.19967
# Shear Modulus (GPa) = 30.65942 38.07452 34.36697
#
# Velocity S-wave (km/s) = 3.71894 4.14433 3.93739
# Velocity P-wave (km/s) = 6.59050 7.16358 6.88301
#
# Compressibility (1/GPa) = 0.01804844
#
# Stress axis : x y z
#
# Youngs Moduli (GPa) = 59.71813 99.20012 98.75013
#
# Poissons Ratio (x) = 0.35754 0.24277
# Poissons Ratio (y) = 0.21524 0.33470
# Poissons Ratio (z) = 0.14681 0.33622
#
# Static dielectric constant tensor:
#      x y z
#    x 1.886410 0.000000 -0.009860 
#    y 0.000000 1.773410 0.000000 
#    z -0.009860 0.000000 1.932870 
# 
# From -- ./inp_files/51688.got.cif
#   From: 2010.05.17/outbox.cif.g08.bks.cpg/sg5_26_cif.got.tgz:51688.got - 2010.06.03 18:56:24.
