data_PCOD9122632
_publ_section_title
;
Structure prediction by ZEFSAII (Michael W. Deem and Ramdas Pophale) SiO2 
 PCOD9122632
Probable space group: C 2
;
_chemical_formula_sum "Si O2"
_cell_formula_units_Z 28
_cell_length_a 23.947334
_cell_length_b 12.451030
_cell_length_c 5.484189
_cell_angle_alpha 90.000000
_cell_angle_beta 63.213914
_cell_angle_gamma 90.000000
_cell_volume 1459.748728
_symmetry_space_group_name_H-M "C 2"
_symmetry_group_IT_number 5
_symmetry_cell_setting 'monoclinic'
loop_
_space_group_symop_operation_xyz
x,y,z
-x,y,-z
1/2+x,1/2+y,z
1/2-x,1/2+y,-z
loop_
_atom_site_type_symbol
_atom_site_label
_atom_site_fract_x
_atom_site_fract_y
_atom_site_fract_z
Si Si1 0.667685 0.337050 0.891480
Si Si2 0.267029 0.007637 0.526154
Si Si3 0.161905 0.315846 0.789242
Si Si4 0.292209 0.234213 0.694430
Si Si5 0.159749 0.107605 0.447441
Si Si6 0.564539 0.694613 0.247210
Si Si7 0.063503 0.981477 0.962783
O O1 0.721207 0.428370 0.765498
O O2 0.672663 0.279571 0.616798
O O3 0.678647 0.262455 0.102754
O O4 0.603062 0.400397 0.046863
O O5 0.283496 0.108892 0.658706
O O6 0.226921 0.052520 0.370896
O O7 0.325298 0.934142 0.335827
O O8 0.223531 0.289476 0.827645
O O9 0.163736 0.220454 0.585056
O O10 0.096511 0.294132 0.048672
O O11 0.124334 0.142915 0.273020
O O12 0.111471 0.022998 0.662580
O O13 0.500000 0.728090 0.500000
O O14 0.544210 0.592604 0.127732
O O15 0.000000 0.928628 0.000000
#
# Coordination Sequence:
#
# PCOD9122632 Si02
#       7
#     4   4   4   4   4   4   4
#     4  10  23  37  59  91 125 159 204 254 306 374
#     4   9  20  39  57  83 128 163 201 249 315 375
#     4   9  21  34  54  85 121 163 196 251 307 369
#     4  10  22  39  57  89 125 160 203 252 306 370
#     4   9  19  36  51  84 120 153 202 249 303 369
#     4  11  21  33  59  86 125 162 204 257 308 375
#     4  10  20  35  55  87 120 161 198 256 315 371
#
# _framework density 19.181383
#
# number of rings (size 3 to 8) (size 9 to 14) (size 15 to 20)
#    0.000    2.286    1.429    0.857   12.000    2.286 
#    0.000    0.000    0.000    0.000    3.714    1.000 
#    0.000    0.000    0.000    0.000    0.000    0.000 
#
# Total GULP energy -78014.573330 kJ/mol
# GULP energy per Si atom -5572.469524 kJ/mol
# Density = 1.913773 g / cm^3
# Si number density = 19.181383 Si / 1000 Ang^3
#
#
#
# Elastic Constant Matrix: (Units=GPa)
#
#
# Indices 1 2 3 4 5 6 
#
# 1 70.1123 31.3588 36.6267 0.0000 1.0449 0.0000
# 2 31.3588 101.3025 43.2873 0.0000 -4.4090 0.0000
# 3 36.6267 43.2873 66.3620 0.0000 -3.8693 0.0000
# 4 0.0000 0.0000 0.0000 22.0289 0.0000 2.3026
# 5 1.0449 -4.4090 -3.8693 0.0000 29.3216 0.0000
# 6 0.0000 0.0000 0.0000 2.3026 0.0000 23.0014
#
#
#
# Elastic Compliance Matrix: (Units=1/GPa)
#
#
# Indices 1 2 3 4 5 6 
#
# 1 0.020516 -0.002158 -0.010054 0.000000 -0.002382 0.000000
# 2 -0.002158 0.013936 -0.007833 0.000000 0.001139 0.000000
# 3 -0.010054 -0.007833 0.025879 0.000000 0.002595 0.000000
# 4 0.000000 0.000000 0.000000 0.045875 0.000000 -0.004592
# 5 -0.002382 0.001139 0.002595 0.000000 0.034703 0.000000
# 6 0.000000 0.000000 0.000000 -0.004592 0.000000 0.043935
#
#
# Mechanical properties :
#
#
# Convention : Reuss Voigt Hill
#
# Bulk Modulus (GPa) = 49.40712 51.14693 50.27702
# Shear Modulus (GPa) = 21.58133 23.30400 22.44266
#
# Velocity S-wave (km/s) = 3.35792 3.48936 3.42427
# Velocity P-wave (km/s) = 6.39124 6.55416 6.47321
#
# Compressibility (1/GPa) = 0.02024000
#
# Stress axis : x y z
#
# Youngs Moduli (GPa) = 48.74235 71.75614 38.64187
#
# Poissons Ratio (x) = 0.15487 0.38852
# Poissons Ratio (y) = 0.10520 0.30267
# Poissons Ratio (z) = 0.49007 0.56205
#
# Static dielectric constant tensor:
#      x y z
#    x 1.747940 0.000000 0.016890 
#    y 0.000000 1.663910 0.000000 
#    z 0.016890 0.000000 1.775250 
# 
# From -- ./inp_files/9467.got.cif
#   From: 2010.05.17/outbox.cif.g08.bks.cpg/sg5_5_cif.got.tgz:9467.got - 2010.06.03 18:56:24.
