data_PCOD9122032
_publ_section_title
;
Structure prediction by ZEFSAII (Michael W. Deem and Ramdas Pophale) SiO2 
 PCOD9122032
Probable space group: C 2
;
_chemical_formula_sum "Si O2"
_cell_formula_units_Z 28
_cell_length_a 13.555278
_cell_length_b 22.074299
_cell_length_c 5.474186
_cell_angle_alpha 90.000000
_cell_angle_beta 65.080743
_cell_angle_gamma 90.000000
_cell_volume 1485.509646
_symmetry_space_group_name_H-M "C 2"
_symmetry_group_IT_number 5
_symmetry_cell_setting 'monoclinic'
loop_
_space_group_symop_operation_xyz
x,y,z
-x,y,-z
1/2+x,1/2+y,z
1/2-x,1/2+y,-z
loop_
_atom_site_type_symbol
_atom_site_label
_atom_site_fract_x
_atom_site_fract_y
_atom_site_fract_z
Si Si1 0.626588 0.589740 0.917637
Si Si2 0.612212 0.957530 0.035194
Si Si3 0.731274 0.551165 0.291280
Si Si4 0.385658 0.820916 0.978853
Si Si5 0.500000 0.734525 0.500000
Si Si6 0.392955 0.145551 0.238583
Si Si7 0.688694 0.710295 0.667752
Si Si8 0.500000 0.049706 0.500000
O O1 0.684236 0.565706 0.608396
O O2 0.664922 0.659829 0.899259
O O3 0.500000 0.586994 0.000000
O O4 0.651774 0.555572 0.143394
O O5 0.644940 0.888811 0.063232
O O6 0.585109 0.003508 0.284008
O O7 0.500000 0.957008 0.000000
O O8 0.706318 0.987905 0.778184
O O9 0.821501 0.602865 0.138196
O O10 0.415362 0.778712 0.722337
O O11 0.500000 0.826898 0.000000
O O12 0.312686 0.778473 0.228554
O O13 0.582281 0.701182 0.600979
O O14 0.305120 0.192608 0.434015
O O15 0.438176 0.095551 0.383042
O O16 0.500000 0.172281 0.000000
#
# Coordination Sequence:
#
# PCOD9122032 Si02
#       8
#     4   4   4   4   2   4   4   2
#     4  11  24  38  61  89 121 159 201 256 308 369
#     4  11  20  34  57  86 124 153 198 252 310 375
#     4  11  22  38  59  91 118 160 200 251 314 367
#     4   9  20  35  53  85 116 158 197 249 306 364
#     4  10  19  38  56  84 114 155 202 248 306 358
#     4  11  23  35  58  88 124 159 194 252 310 374
#     4  10  23  35  58  84 121 156 201 247 304 372
#     4  12  19  36  56  90 124 161 198 254 320 370
#
# _framework density 18.848748000000001
#
# number of rings (size 3 to 8) (size 9 to 14) (size 15 to 20)
#    0.000    1.429    2.857    3.857    8.000    0.000 
#    0.000    0.000    0.000    0.857    7.429    0.000 
#    0.000    0.000    0.000    0.000    0.000    0.000 
#
# Total GULP energy -78041.174285 kJ/mol
# GULP energy per Si atom -5574.369592 kJ/mol
# Density = 1.880585 g / cm^3
# Si number density = 18.848748 Si / 1000 Ang^3
#
#
#
# Elastic Constant Matrix: (Units=GPa)
#
#
# Indices 1 2 3 4 5 6 
#
# 1 81.8952 30.5742 26.7514 0.0000 -6.9986 0.0000
# 2 30.5742 118.8838 48.0380 0.0000 -13.5832 0.0000
# 3 26.7514 48.0380 72.1055 0.0000 -12.5642 0.0000
# 4 0.0000 0.0000 0.0000 3.8225 0.0000 1.3939
# 5 -6.9986 -13.5832 -12.5642 0.0000 39.1592 0.0000
# 6 0.0000 0.0000 0.0000 1.3939 0.0000 13.9500
#
#
#
# Elastic Compliance Matrix: (Units=1/GPa)
#
#
# Indices 1 2 3 4 5 6 
#
# 1 0.014279 -0.002059 -0.003819 0.000000 0.000612 0.000000
# 2 -0.002059 0.011905 -0.006898 0.000000 0.001548 0.000000
# 3 -0.003819 -0.006898 0.020491 0.000000 0.003499 0.000000
# 4 0.000000 0.000000 0.000000 0.271500 0.000000 -0.027128
# 5 0.000612 0.001548 0.003499 0.000000 0.027306 0.000000
# 6 0.000000 0.000000 0.000000 -0.027128 0.000000 0.074395
#
#
# Mechanical properties :
#
#
# Convention : Reuss Voigt Hill
#
# Bulk Modulus (GPa) = 47.34134 53.73461 50.53798
# Shear Modulus (GPa) = 11.05045 22.55440 16.80243
#
# Velocity S-wave (km/s) = 2.42393 3.46294 2.98893
# Velocity P-wave (km/s) = 5.74499 6.67529 6.22753
#
# Compressibility (1/GPa) = 0.02112319
#
# Stress axis : x y z
#
# Youngs Moduli (GPa) = 70.03127 83.99647 48.80279
#
# Poissons Ratio (x) = 0.17296 0.18638
# Poissons Ratio (y) = 0.14420 0.33663
# Poissons Ratio (z) = 0.26746 0.57939
#
# Static dielectric constant tensor:
#      x y z
#    x 1.692080 0.000000 0.040920 
#    y 0.000000 1.674750 0.000000 
#    z 0.040920 0.000000 1.792050 
# 
# From -- ./inp_files/5621.got.cif
#   From: 2010.05.17/outbox.cif.g08.bks.cpg/sg5_3_cif.got.tgz:5621.got - 2010.06.03 18:56:24.
