data_PCOD9122930
_publ_section_title
;
Structure prediction by ZEFSAII (Michael W. Deem and Ramdas Pophale) SiO2 
 PCOD9122930
Probable space group: C 2
;
_chemical_formula_sum "Si O2"
_cell_formula_units_Z 32
_cell_length_a 20.395805
_cell_length_b 14.002115
_cell_length_c 13.446719
_cell_angle_alpha 90.000000
_cell_angle_beta 154.613151
_cell_angle_gamma 90.000000
_cell_volume 1646.388967
_symmetry_space_group_name_H-M "C 2"
_symmetry_group_IT_number 5
_symmetry_cell_setting 'monoclinic'
loop_
_space_group_symop_operation_xyz
x,y,z
-x,y,-z
1/2+x,1/2+y,z
1/2-x,1/2+y,-z
loop_
_atom_site_type_symbol
_atom_site_label
_atom_site_fract_x
_atom_site_fract_y
_atom_site_fract_z
Si Si1 0.588782 0.639810 0.882506
Si Si2 0.933537 0.297304 0.801250
Si Si3 0.373579 0.610107 0.405587
Si Si4 0.695039 0.933794 0.129746
Si Si5 0.832595 0.329864 0.291886
Si Si6 0.818749 0.792901 0.126543
Si Si7 0.421112 0.461059 0.998037
Si Si8 0.881969 0.846919 0.567478
O O1 0.498810 0.725415 0.810905
O O2 0.468201 0.598462 0.637273
O O3 0.740396 0.691650 0.047056
O O4 0.625542 0.559375 0.013101
O O5 0.751475 0.291496 0.557219
O O6 0.000000 0.269152 0.000000
O O7 0.019398 0.398120 0.894892
O O8 0.500000 0.577969 0.500000
O O9 0.226676 0.546786 0.175207
O O10 0.344056 0.722576 0.350126
O O11 0.777635 0.872084 0.154935
O O12 0.780590 0.904975 0.349116
O O13 0.727413 0.394567 0.216235
O O14 0.000000 0.369160 0.500000
O O15 0.761081 0.324543 0.084609
O O16 0.996000 0.791708 0.335548
O O17 0.500000 0.475281 0.000000
O O18 0.529689 0.407462 0.227638
#
# Coordination Sequence:
#
# PCOD9122930 Si02
#       8
#     4   4   4   4   4   4   4   4
#     4  11  21  40  63  91 120 166 207 252 312 375
#     4   9  21  39  63  88 124 161 206 251 311 371
#     4  11  20  36  64  91 123 156 209 263 315 362
#     4  10  20  36  64  94 117 160 204 260 310 369
#     4  10  22  40  60  92 123 164 208 255 314 372
#     4  10  20  36  65  93 121 156 207 257 313 368
#     4  11  25  40  61  88 132 171 202 248 323 377
#     4  10  20  39  60  92 123 162 204 257 312 365
#
# _framework density 19.436475999999999
#
# number of rings (size 3 to 8) (size 9 to 14) (size 15 to 20)
#    0.000    1.750    3.750    1.500    3.500    0.000 
#    0.000    9.375    0.000    0.000    0.000    0.000 
#    0.000    0.000    0.000    0.000    0.000    0.000 
#
# Total GULP energy -89125.399499 kJ/mol
# GULP energy per Si atom -5570.337469 kJ/mol
# Density = 1.939224 g / cm^3
# Si number density = 19.436476 Si / 1000 Ang^3
#
#
#
# Elastic Constant Matrix: (Units=GPa)
#
#
# Indices 1 2 3 4 5 6 
#
# 1 102.4601 34.4413 25.0425 0.0000 15.8728 0.0000
# 2 34.4413 57.6636 17.9701 0.0000 8.7543 0.0000
# 3 25.0425 17.9701 51.9476 0.0000 21.5753 0.0000
# 4 0.0000 0.0000 0.0000 -8.2872 0.0000 -22.0005
# 5 15.8728 8.7543 21.5753 0.0000 38.5889 0.0000
# 6 0.0000 0.0000 0.0000 -22.0005 0.0000 11.2871
#
#
#
# Elastic Compliance Matrix: (Units=1/GPa)
#
#
# Indices 1 2 3 4 5 6 
#
# 1 0.013040 -0.006481 -0.003162 0.000000 -0.002126 0.000000
# 2 -0.006481 0.022679 -0.004808 0.000000 0.000209 0.000000
# 3 -0.003162 -0.004808 0.027930 0.000000 -0.013225 0.000000
# 4 0.000000 0.000000 0.000000 -0.019543 0.000000 -0.038092
# 5 -0.002126 0.000209 -0.013225 0.000000 0.034135 0.000000
# 6 0.000000 0.000000 0.000000 -0.038092 0.000000 0.014349
#
#
# Mechanical properties :
#
#
# Convention : Reuss Voigt Hill
#
# Bulk Modulus (GPa) = 28.77749 40.77544 34.77647
# Shear Modulus (GPa) = 37.57288 17.29227 27.43257
#
# Velocity S-wave (km/s) = 4.40149 2.98599 3.76093
# Velocity P-wave (km/s) = 6.37721 5.73694 6.06553
#
# Compressibility (1/GPa) = 0.03474938
#
# Stress axis : x y z
#
# Youngs Moduli (GPa) = 76.68444 44.09280 35.80375
#
# Poissons Ratio (x) = 0.28576 0.11320
# Poissons Ratio (y) = 0.49697 0.17214
# Poissons Ratio (z) = 0.24244 0.21200
#
# Static dielectric constant tensor:
#      x y z
#    x 1.726710 0.000000 0.036100 
#    y 0.000000 1.720540 0.000000 
#    z 0.036100 0.000000 1.748030 
# 
# From -- ./inp_files/45011.got.cif
#   From: 2010.05.17/outbox.cif.g08.bks.cpg/sg5_23_cif.got.tgz:45011.got - 2010.06.03 18:56:24.
