data_PCOD9122769
_publ_section_title
;
Structure prediction by ZEFSAII (Michael W. Deem and Ramdas Pophale) SiO2 
 PCOD9122769
Probable space group: C 2
;
_chemical_formula_sum "Si O2"
_cell_formula_units_Z 12
_cell_length_a 6.910899
_cell_length_b 13.974472
_cell_length_c 8.053049
_cell_angle_alpha 90.000000
_cell_angle_beta 140.352441
_cell_angle_gamma 90.000000
_cell_volume 496.242654
_symmetry_space_group_name_H-M "C 2"
_symmetry_group_IT_number 5
_symmetry_cell_setting 'monoclinic'
loop_
_space_group_symop_operation_xyz
x,y,z
-x,y,-z
1/2+x,1/2+y,z
1/2-x,1/2+y,-z
loop_
_atom_site_type_symbol
_atom_site_label
_atom_site_fract_x
_atom_site_fract_y
_atom_site_fract_z
Si Si1 0.142739 0.578430 0.274743
Si Si2 0.664887 0.889178 0.926721
Si Si3 0.165731 0.787923 0.433829
O O1 0.500000 0.549364 0.500000
O O2 0.127267 0.678356 0.358537
O O3 0.065786 0.492647 0.792401
O O4 0.000000 0.596005 0.000000
O O5 0.510968 0.811529 0.705799
O O6 0.500000 0.886662 0.000000
O O7 0.004236 0.860288 0.198492
O O8 0.000000 0.801996 0.500000
#
# Coordination Sequence:
#
# PCOD9122769 Si02
#       3
#     4   4   4
#     4  11  21  36  58  84 109 142 184 227 269 320
#     4   9  18  34  56  78 106 146 183 213 264 335
#     4  10  20  36  57  80 108 144 183 222 267 323
#
# _framework density 24.181716000000002
#
# number of rings (size 3 to 8) (size 9 to 14) (size 15 to 20)
#    0.000    2.000    0.000    7.000    0.000    0.000 
#    0.000    5.000    0.000    0.000    0.000    0.000 
#    0.000    0.000    0.000    0.000    0.000    0.000 
#
# Total GULP energy -33552.599639 kJ/mol
# GULP energy per Si atom -5592.099940 kJ/mol
# Density = 2.412668 g / cm^3
# Si number density = 24.181716 Si / 1000 Ang^3
#
#
#
# Elastic Constant Matrix: (Units=GPa)
#
#
# Indices 1 2 3 4 5 6 
#
# 1 72.2417 1.8930 33.3385 0.0013 28.0400 -0.0001
# 2 1.8930 170.9206 82.6315 -0.0003 1.6090 -0.0003
# 3 33.3385 82.6315 175.6492 0.0007 6.1978 0.0004
# 4 0.0013 -0.0003 0.0007 50.8682 0.0010 -0.7309
# 5 28.0400 1.6090 6.1978 0.0010 21.9123 0.0002
# 6 -0.0001 -0.0003 0.0004 -0.7309 0.0002 24.5984
#
#
#
# Elastic Compliance Matrix: (Units=1/GPa)
#
#
# Indices 1 2 3 4 5 6 
#
# 1 0.031720 0.002926 -0.006017 0.000000 -0.039104 0.000001
# 2 0.002926 0.007847 -0.004136 0.000000 -0.003150 0.000000
# 3 -0.006017 -0.004136 0.008584 0.000000 0.005576 0.000000
# 4 0.000000 0.000000 0.000000 0.019667 -0.000001 0.000584
# 5 -0.039104 -0.003150 0.005576 -0.000001 0.094329 -0.000001
# 6 0.000001 0.000000 0.000000 0.000584 -0.000001 0.040670
#
#
# Mechanical properties :
#
#
# Convention : Reuss Voigt Hill
#
# Bulk Modulus (GPa) = 29.67586 72.72638 51.20112
# Shear Modulus (GPa) = 21.88131 39.53903 30.71017
#
# Velocity S-wave (km/s) = 3.01137 4.04800 3.56754
# Velocity P-wave (km/s) = 4.93860 7.21031 6.17974
#
# Compressibility (1/GPa) = 0.03369742
#
# Stress axis : x y z
#
# Youngs Moduli (GPa) = 31.52554 127.43079 116.49379
#
# Poissons Ratio (x) = -0.37284 0.70097
# Poissons Ratio (y) = -0.09224 0.48180
# Poissons Ratio (z) = 0.18970 0.52703
#
# Static dielectric constant tensor:
#      x y z
#    x 1.998630 0.000000 -0.006400 
#    y 0.000000 1.920240 0.000000 
#    z -0.006400 0.000000 1.884390 
# 
# From -- ./inp_files/1672.got.cif
#   From: 2010.05.17/outbox.cif.g08.bks.cpg/sg5_1_cif.got.tgz:1672.got - 2010.06.03 18:56:24.
