data_PCOD9122813
_publ_section_title
;
Structure prediction by ZEFSAII (Michael W. Deem and Ramdas Pophale) SiO2 
 PCOD9122813
Probable space group: C 2
;
_chemical_formula_sum "Si O2"
_cell_formula_units_Z 24
_cell_length_a 13.081900
_cell_length_b 8.748810
_cell_length_c 8.650623
_cell_angle_alpha 90.000000
_cell_angle_beta 89.155472
_cell_angle_gamma 90.000000
_cell_volume 989.965400
_symmetry_space_group_name_H-M "C 2"
_symmetry_group_IT_number 5
_symmetry_cell_setting 'monoclinic'
loop_
_space_group_symop_operation_xyz
x,y,z
-x,y,-z
1/2+x,1/2+y,z
1/2-x,1/2+y,-z
loop_
_atom_site_type_symbol
_atom_site_label
_atom_site_fract_x
_atom_site_fract_y
_atom_site_fract_z
Si Si1 0.983105 0.552790 0.757213
Si Si2 0.194071 0.441025 0.076588
Si Si3 0.806221 0.000402 0.385936
Si Si4 0.614737 0.606200 0.064882
Si Si5 0.135369 0.676392 0.545626
Si Si6 0.489593 0.703264 0.319297
O O1 0.902072 0.559473 0.900434
O O2 0.924755 0.611222 0.603369
O O3 0.090125 0.635319 0.716224
O O4 0.009003 0.373340 0.747963
O O5 0.234345 0.429617 0.253214
O O6 0.152564 0.277802 0.022847
O O7 0.291873 0.496717 0.978729
O O8 0.861089 0.857946 0.463035
O O9 0.743482 0.098229 0.510439
O O10 0.885477 0.110901 0.297885
O O11 0.584322 0.613019 0.245289
O O12 0.500000 0.575659 0.000000
O O13 0.500000 0.720871 0.500000
#
# Coordination Sequence:
#
# PCOD9122813 Si02
#       6
#     4   4   4   4   4   4
#     4   9  20  41  61  90 142 172 230 286 338 412
#     4  10  24  47  65 100 135 188 240 284 344 437
#     4  11  23  38  66  98 141 181 241 283 359 413
#     4  11  24  50  72  96 145 190 231 292 354 415
#     4  10  20  36  58  96 134 178 218 293 338 409
#     4  11  22  41  71  98 136 186 228 296 353 410
#
# _framework density 24.243272000000001
#
# number of rings (size 3 to 8) (size 9 to 14) (size 15 to 20)
#    0.000    1.667    3.333    1.000    7.000    1.333 
#    9.000    0.000    0.000    0.000    0.000    0.000 
#    0.000    0.000    0.000    0.000    0.000    0.000 
#
# Total GULP energy -66979.710987 kJ/mol
# GULP energy per Si atom -5581.642582 kJ/mol
# Density = 2.418809 g / cm^3
# Si number density = 24.243272 Si / 1000 Ang^3
#
#
#
# Elastic Constant Matrix: (Units=GPa)
#
#
# Indices 1 2 3 4 5 6 
#
# 1 106.7249 35.0793 34.5023 0.0000 -36.7461 0.0000
# 2 35.0793 82.9400 13.4408 0.0000 -21.1475 0.0000
# 3 34.5023 13.4408 43.7126 0.0000 -45.7049 0.0000
# 4 0.0000 0.0000 0.0000 25.3153 0.0000 -12.0262
# 5 -36.7461 -21.1475 -45.7049 0.0000 67.9520 0.0000
# 6 0.0000 0.0000 0.0000 -12.0262 0.0000 43.3369
#
#
#
# Elastic Compliance Matrix: (Units=1/GPa)
#
#
# Indices 1 2 3 4 5 6 
#
# 1 0.013933 -0.004425 -0.010779 0.000000 -0.001093 0.000000
# 2 -0.004425 0.014509 0.004214 0.000000 0.004957 0.000000
# 3 -0.010779 0.004214 0.085481 0.000000 0.052977 0.000000
# 4 0.000000 0.000000 0.000000 0.045500 0.000000 0.012626
# 5 -0.001093 0.004957 0.052977 0.000000 0.051301 0.000000
# 6 0.000000 0.000000 0.000000 0.012626 0.000000 0.026579
#
#
# Mechanical properties :
#
#
# Convention : Reuss Voigt Hill
#
# Bulk Modulus (GPa) = 10.87623 44.38028 27.62826
# Shear Modulus (GPa) = 17.24557 37.34450 27.29504
#
# Velocity S-wave (km/s) = 2.67002 3.92906 3.35906
# Velocity P-wave (km/s) = 3.74184 6.23934 5.14445
#
# Compressibility (1/GPa) = 0.09194359
#
# Stress axis : x y z
#
# Youngs Moduli (GPa) = 71.77376 68.92117 11.69856
#
# Poissons Ratio (x) = 0.30495 0.12610
# Poissons Ratio (y) = 0.31757 -0.04930
# Poissons Ratio (z) = 0.77366 -0.29045
#
# Static dielectric constant tensor:
#      x y z
#    x 2.103290 0.000000 0.033300 
#    y 0.000000 1.869770 0.000000 
#    z 0.033300 0.000000 2.005140 
# 
# From -- ./inp_files/41292.got.cif
#   From: 2010.05.17/outbox.cif.g08.bks.cpg/sg5_21_cif.got.tgz:41292.got - 2010.06.03 18:56:24.
