data_PCOD9122236
_publ_section_title
;
Structure prediction by ZEFSAII (Michael W. Deem and Ramdas Pophale) SiO2 
 PCOD9122236
Probable space group: C 2
;
_chemical_formula_sum "Si O2"
_cell_formula_units_Z 32
_cell_length_a 20.254856
_cell_length_b 11.567871
_cell_length_c 16.326333
_cell_angle_alpha 90.000000
_cell_angle_beta 22.844782
_cell_angle_gamma 90.000000
_cell_volume 1485.138785
_symmetry_space_group_name_H-M "C 2"
_symmetry_group_IT_number 5
_symmetry_cell_setting 'monoclinic'
loop_
_space_group_symop_operation_xyz
x,y,z
-x,y,-z
1/2+x,1/2+y,z
1/2-x,1/2+y,-z
loop_
_atom_site_type_symbol
_atom_site_label
_atom_site_fract_x
_atom_site_fract_y
_atom_site_fract_z
Si Si1 0.135615 0.772580 0.459969
Si Si2 0.513312 0.036123 0.118088
Si Si3 0.143581 0.101429 0.901213
Si Si4 0.211328 0.032154 0.330954
Si Si5 0.052538 0.189976 0.281219
Si Si6 0.433353 0.776858 0.251541
Si Si7 0.397319 0.120016 0.818141
Si Si8 0.626350 0.922183 0.279470
O O1 0.211435 0.675983 0.311509
O O2 0.260148 0.775084 0.396893
O O3 0.953465 0.730448 0.700676
O O4 0.148056 0.899256 0.406644
O O5 0.354917 0.046388 0.237687
O O6 0.504432 0.114732 0.208213
O O7 0.510177 0.904403 0.153384
O O8 0.686048 0.056146 0.869547
O O9 0.212902 0.989300 0.867472
O O10 0.056049 0.188112 0.064564
O O11 0.000000 0.069217 0.000000
O O12 0.058517 0.116297 0.528969
O O13 0.930311 0.240207 0.349453
O O14 0.146267 0.297398 0.216987
O O15 0.200021 0.117497 0.068055
O O16 0.442251 0.009253 0.711715
O O17 0.500000 0.910860 0.500000
#
# Coordination Sequence:
#
# PCOD9122236 Si02
#       8
#     4   4   4   4   4   4   4   4
#     4  10  21  39  69 102 127 171 228 276 333 396
#     4  10  21  43  67  99 127 175 223 279 343 397
#     4  10  20  41  70 101 132 173 230 284 337 406
#     4  10  23  43  70  94 134 174 227 278 333 403
#     4  12  27  42  63  96 141 177 216 276 339 401
#     4  10  19  39  69  99 132 165 219 286 336 395
#     4  12  25  40  65  95 135 174 223 275 327 409
#     4  12  26  45  63  95 139 180 218 270 345 398
#
# _framework density 21.546807999999999
#
# number of rings (size 3 to 8) (size 9 to 14) (size 15 to 20)
#    0.000    1.250    5.000    0.750    3.500    0.000 
#    0.000    3.750    0.000    0.000    0.000    0.000 
#    0.000    0.000    0.000    0.000    0.000    0.000 
#
# Total GULP energy -89464.936828 kJ/mol
# GULP energy per Si atom -5591.558552 kJ/mol
# Density = 2.149777 g / cm^3
# Si number density = 21.546808 Si / 1000 Ang^3
#
#
#
# Elastic Constant Matrix: (Units=GPa)
#
#
# Indices 1 2 3 4 5 6 
#
# 1 93.3812 20.2720 10.2852 0.0001 14.4624 0.0000
# 2 20.2720 78.8195 26.1072 0.0001 5.8836 -0.0001
# 3 10.2852 26.1072 81.7631 0.0002 13.1334 0.0000
# 4 0.0001 0.0001 0.0002 29.7845 -0.0001 1.3841
# 5 14.4624 5.8836 13.1334 -0.0001 28.0801 0.0000
# 6 0.0000 -0.0001 0.0000 1.3841 0.0000 21.2488
#
#
#
# Elastic Compliance Matrix: (Units=1/GPa)
#
#
# Indices 1 2 3 4 5 6 
#
# 1 0.012186 -0.002797 0.000297 0.000000 -0.005829 0.000000
# 2 -0.002797 0.014852 -0.004457 0.000000 0.000413 0.000000
# 3 0.000297 -0.004457 0.014587 0.000000 -0.006041 0.000000
# 4 0.000000 0.000000 0.000000 0.033676 0.000000 -0.002194
# 5 -0.005829 0.000413 -0.006041 0.000000 0.041354 0.000000
# 6 0.000000 0.000000 0.000000 -0.002194 0.000000 0.047204
#
#
# Mechanical properties :
#
#
# Convention : Reuss Voigt Hill
#
# Bulk Modulus (GPa) = 36.08850 40.81029 38.44939
# Shear Modulus (GPa) = 26.73641 28.97598 27.85619
#
# Velocity S-wave (km/s) = 3.52640 3.67112 3.59948
# Velocity P-wave (km/s) = 5.77632 6.07872 5.92945
#
# Compressibility (1/GPa) = 0.02770966
#
# Stress axis : x y z
#
# Youngs Moduli (GPa) = 82.06033 67.33078 68.55597
#
# Poissons Ratio (x) = 0.18835 -0.02033
# Poissons Ratio (y) = 0.22955 0.30554
# Poissons Ratio (z) = -0.02434 0.30008
#
# Static dielectric constant tensor:
#      x y z
#    x 1.833990 0.000000 -0.036650 
#    y 0.000000 1.737370 0.000000 
#    z -0.036650 0.000000 1.753500 
# 
# From -- ./inp_files/63406.got.cif
#   From: 2010.05.17/outbox.cif.g08.bks.cpg/sg5_32_cif.got.tgz:63406.got - 2010.06.03 18:56:24.
