data_PCOD9122300
_publ_section_title
;
Structure prediction by ZEFSAII (Michael W. Deem and Ramdas Pophale) SiO2 
 PCOD9122300
Probable space group: C 2
;
_chemical_formula_sum "Si O2"
_cell_formula_units_Z 28
_cell_length_a 15.098194
_cell_length_b 9.616152
_cell_length_c 14.743299
_cell_angle_alpha 90.000000
_cell_angle_beta 143.006138
_cell_angle_gamma 90.000000
_cell_volume 1288.019005
_symmetry_space_group_name_H-M "C 2"
_symmetry_group_IT_number 5
_symmetry_cell_setting 'monoclinic'
loop_
_space_group_symop_operation_xyz
x,y,z
-x,y,-z
1/2+x,1/2+y,z
1/2-x,1/2+y,-z
loop_
_atom_site_type_symbol
_atom_site_label
_atom_site_fract_x
_atom_site_fract_y
_atom_site_fract_z
Si Si1 0.515447 0.698420 0.662369
Si Si2 0.228252 0.133215 0.672637
Si Si3 0.476604 0.956519 0.878176
Si Si4 0.096033 0.895848 0.227893
Si Si5 0.586338 0.652120 0.927883
Si Si6 0.929160 0.670118 0.198542
Si Si7 0.075734 0.497656 0.463158
O O1 0.626594 0.643003 0.677001
O O2 0.358465 0.657403 0.491832
O O3 0.557969 0.647997 0.795916
O O4 0.505795 0.865594 0.650240
O O5 0.341883 0.262253 0.776117
O O6 0.305298 0.986424 0.723864
O O7 0.517698 0.797253 0.903000
O O8 0.555683 0.056217 0.870201
O O9 0.500000 0.004357 0.000000
O O10 0.987630 0.818171 0.210398
O O11 0.249611 0.966828 0.386948
O O12 0.997549 0.016778 0.103680
O O13 0.759549 0.662771 0.088843
O O14 0.035495 0.625766 0.367091
O O15 0.000000 0.509192 0.500000
#
# Coordination Sequence:
#
# PCOD9122300 Si02
#       7
#     4   4   4   4   4   4   4
#     4  10  19  40  69  93 130 173 228 272 339 394
#     4   9  20  41  67  94 126 177 228 278 324 409
#     4  11  24  42  64  96 137 174 227 272 338 397
#     4  10  24  41  67 101 130 179 228 266 341 403
#     4  12  25  41  67  97 142 176 219 282 335 408
#     4  11  25  45  68  98 139 182 223 275 347 402
#     4  11  22  44  70  99 134 172 234 285 332 402
#
# _framework density 21.738809
#
# number of rings (size 3 to 8) (size 9 to 14) (size 15 to 20)
#    0.000    1.429    4.286    1.714    6.000    1.143 
#    0.000    2.143    0.000    0.000    0.000    0.000 
#    0.000    0.000    0.000    0.000    0.000    0.000 
#
# Total GULP energy -78155.248937 kJ/mol
# GULP energy per Si atom -5582.517781 kJ/mol
# Density = 2.168933 g / cm^3
# Si number density = 21.738809 Si / 1000 Ang^3
#
#
#
# Elastic Constant Matrix: (Units=GPa)
#
#
# Indices 1 2 3 4 5 6 
#
# 1 64.1648 37.2009 46.9640 0.0000 15.3884 0.0000
# 2 37.2009 109.6304 42.0823 0.0000 23.2375 0.0000
# 3 46.9640 42.0823 75.1878 0.0000 10.4205 0.0000
# 4 0.0000 0.0000 0.0000 20.0453 0.0000 14.7939
# 5 15.3884 23.2375 10.4205 0.0000 44.3292 0.0000
# 6 0.0000 0.0000 0.0000 14.7939 0.0000 3.1224
#
#
#
# Elastic Compliance Matrix: (Units=1/GPa)
#
#
# Indices 1 2 3 4 5 6 
#
# 1 0.030945 -0.002864 -0.017000 0.000000 -0.005245 0.000000
# 2 -0.002864 0.012921 -0.004799 0.000000 -0.004651 0.000000
# 3 -0.017000 -0.004799 0.026294 0.000000 0.002236 0.000000
# 4 0.000000 0.000000 0.000000 -0.019981 0.000000 0.094670
# 5 -0.005245 -0.004651 0.002236 0.000000 0.026292 0.000000
# 6 0.000000 0.000000 0.000000 0.094670 0.000000 -0.128274
#
#
# Mechanical properties :
#
#
# Convention : Reuss Voigt Hill
#
# Bulk Modulus (GPa) = 47.99076 55.71972 51.85524
# Shear Modulus (GPa) = 1119.38227 21.68176 570.53201
#
# Velocity S-wave (km/s) = 22.71654 3.16155 16.21784
# Velocity P-wave (km/s) = 26.64919 6.24614 19.35450
#
# Compressibility (1/GPa) = 0.02083734
#
# Stress axis : x y z
#
# Youngs Moduli (GPa) = 32.31488 77.39267 38.03105
#
# Poissons Ratio (x) = 0.22162 0.64651
# Poissons Ratio (y) = 0.09253 0.18250
# Poissons Ratio (z) = 0.54934 0.37138
#
# Static dielectric constant tensor:
#      x y z
#    x 1.834500 0.000000 -0.012630 
#    y 0.000000 1.775790 0.000000 
#    z -0.012630 0.000000 1.859910 
# 
# From -- ./inp_files/54323.got.cif
#   From: 2010.05.17/outbox.cif.g08.bks.cpg/sg5_28_cif.got.tgz:54323.got - 2010.06.03 18:56:24.
