data_PCOD9122642
_publ_section_title
;
Structure prediction by ZEFSAII (Michael W. Deem and Ramdas Pophale) SiO2 
 PCOD9122642
Probable space group: C 2
;
_chemical_formula_sum "Si O2"
_cell_formula_units_Z 28
_cell_length_a 23.501663
_cell_length_b 5.711018
_cell_length_c 21.484401
_cell_angle_alpha 90.000000
_cell_angle_beta 27.289855
_cell_angle_gamma 90.000000
_cell_volume 1322.109209
_symmetry_space_group_name_H-M "C 2"
_symmetry_group_IT_number 5
_symmetry_cell_setting 'monoclinic'
loop_
_space_group_symop_operation_xyz
x,y,z
-x,y,-z
1/2+x,1/2+y,z
1/2-x,1/2+y,-z
loop_
_atom_site_type_symbol
_atom_site_label
_atom_site_fract_x
_atom_site_fract_y
_atom_site_fract_z
Si Si1 0.335785 0.285070 0.611455
Si Si2 0.694861 0.972248 0.982017
Si Si3 0.428354 0.215212 0.338430
Si Si4 0.367687 0.474338 0.928102
Si Si5 0.102144 0.996076 0.319280
Si Si6 0.067270 0.385023 0.552391
Si Si7 0.767627 0.500937 0.398386
O O1 0.466827 0.375095 0.454372
O O2 0.332755 0.401140 0.681645
O O3 0.225644 0.374041 0.674644
O O4 0.359006 0.012623 0.575818
O O5 0.743874 0.988291 0.005758
O O6 0.809730 0.940704 0.823567
O O7 0.619464 0.727562 0.052338
O O8 0.642365 0.235351 0.021593
O O9 0.520906 0.419545 0.228173
O O10 0.301810 0.321950 0.488361
O O11 0.391188 0.079706 0.312044
O O12 0.473455 0.045102 0.349438
O O13 0.054486 0.262303 0.357757
O O14 0.170849 0.212686 0.480959
#
# Coordination Sequence:
#
# PCOD9122642 Si02
#       7
#     4   4   4   4   4   4   4
#     4   9  21  36  55  91 116 157 198 249 315 366
#     4  10  22  39  56  86 120 160 201 251 303 366
#     4  11  21  35  60  91 124 158 201 255 311 372
#     4  10  23  36  58  86 122 157 203 249 306 361
#     4  10  21  37  59  86 122 157 203 249 312 368
#     4  10  20  35  60  88 123 159 196 255 307 383
#     4  10  20  35  56  90 117 156 197 247 317 364
#
# _framework density 21.178280999999998
#
# number of rings (size 3 to 8) (size 9 to 14) (size 15 to 20)
#    0.000    2.000    1.429    2.571   10.000    4.571 
#    0.000    0.000    0.000    0.857    0.000    0.000 
#    0.000    0.000    0.000    0.000    0.000    0.000 
#
# Total GULP energy -77981.947451 kJ/mol
# GULP energy per Si atom -5570.139104 kJ/mol
# Density = 2.113008 g / cm^3
# Si number density = 21.178281 Si / 1000 Ang^3
#
#
#
# Elastic Constant Matrix: (Units=GPa)
#
#
# Indices 1 2 3 4 5 6 
#
# 1 101.3402 41.3087 9.3802 -0.0123 16.3232 0.0000
# 2 41.3087 115.4208 18.5084 -0.0357 12.4644 0.0113
# 3 9.3802 18.5084 44.7590 -0.0311 19.0561 0.0128
# 4 -0.0123 -0.0357 -0.0311 28.8962 0.0170 -2.1491
# 5 16.3232 12.4644 19.0561 0.0170 16.0259 -0.0034
# 6 0.0000 0.0113 0.0128 -2.1491 -0.0034 18.8041
#
#
#
# Elastic Compliance Matrix: (Units=1/GPa)
#
#
# Indices 1 2 3 4 5 6 
#
# 1 0.013999 -0.004033 0.007026 0.000020 -0.019475 -0.000004
# 2 -0.004033 0.010676 -0.003612 0.000007 0.000099 -0.000003
# 3 0.007026 -0.003612 0.049041 0.000086 -0.062661 -0.000033
# 4 0.000020 0.000007 0.000086 0.034904 -0.000164 0.003989
# 5 -0.019475 0.000099 -0.062661 -0.000164 0.156667 0.000052
# 6 -0.000004 -0.000003 -0.000033 0.003989 0.000052 0.053636
#
#
# Mechanical properties :
#
#
# Convention : Reuss Voigt Hill
#
# Bulk Modulus (GPa) = 13.79755 44.43495 29.11625
# Shear Modulus (GPa) = 14.52140 25.56675 20.04408
#
# Velocity S-wave (km/s) = 2.62138 3.47827 3.07977
# Velocity P-wave (km/s) = 3.96122 6.09574 5.14049
#
# Compressibility (1/GPa) = 0.07247666
#
# Stress axis : x y z
#
# Youngs Moduli (GPa) = 71.43605 93.66863 20.39119
#
# Poissons Ratio (x) = 0.37781 -0.14327
# Poissons Ratio (y) = 0.28814 0.07365
# Poissons Ratio (z) = -0.50190 0.33830
#
# Static dielectric constant tensor:
#      x y z
#    x 1.781530 -0.000020 -0.004060 
#    y -0.000020 1.970140 0.000020 
#    z -0.004060 0.000020 1.750480 
# 
# From -- ./inp_files/67228.got.cif
#   From: 2010.05.17/outbox.cif.g08.bks.cpg/sg5_34_cif.got.tgz:67228.got - 2010.06.03 18:56:24.
