data_PCOD9122080
_publ_section_title
;
Structure prediction by ZEFSAII (Michael W. Deem and Ramdas Pophale) SiO2 
 PCOD9122080
Probable space group: C 2
;
_chemical_formula_sum "Si O2"
_cell_formula_units_Z 32
_cell_length_a 19.257002
_cell_length_b 8.842725
_cell_length_c 26.796689
_cell_angle_alpha 90.000000
_cell_angle_beta 16.494970
_cell_angle_gamma 90.000000
_cell_volume 1295.594217
_symmetry_space_group_name_H-M "C 2"
_symmetry_group_IT_number 5
_symmetry_cell_setting 'monoclinic'
loop_
_space_group_symop_operation_xyz
x,y,z
-x,y,-z
1/2+x,1/2+y,z
1/2-x,1/2+y,-z
loop_
_atom_site_type_symbol
_atom_site_label
_atom_site_fract_x
_atom_site_fract_y
_atom_site_fract_z
Si Si1 0.280461 0.714630 0.826597
Si Si2 0.095422 0.388092 0.355627
Si Si3 0.894383 0.762052 0.294476
Si Si4 0.367724 0.665219 0.134549
Si Si5 0.015090 0.879654 0.319862
Si Si6 0.565156 0.220800 0.075489
Si Si7 0.885096 0.383543 0.203081
Si Si8 0.680201 0.422205 0.444635
O O1 0.408836 0.821087 0.697767
O O2 0.418655 0.555076 0.730820
O O3 0.000000 0.689408 0.000000
O O4 0.249197 0.770000 0.905111
O O5 0.175192 0.559595 0.294801
O O6 0.305062 0.292014 0.238289
O O7 0.835009 0.369281 0.560039
O O8 0.963698 0.808511 0.302113
O O9 0.093368 0.770521 0.113334
O O10 0.782381 0.592939 0.371934
O O11 0.242410 0.789488 0.186123
O O12 0.493102 0.754103 0.093246
O O13 0.500000 0.567394 0.000000
O O14 0.814418 0.865051 0.502293
O O15 0.535741 0.038930 0.094662
O O16 0.830721 0.338370 0.297606
O O17 0.608522 0.420314 0.372203
#
# Coordination Sequence:
#
# PCOD9122080 Si02
#       8
#     4   4   4   4   4   4   4   4
#     4  10  19  38  67  86 107 158 210 243 289 362
#     4  11  21  37  62  87 122 156 195 250 301 355
#     4  11  22  37  60  88 120 156 197 246 298 356
#     4  11  22  37  58  91 124 153 197 255 309 350
#     4  11  22  37  62  85 121 157 203 245 297 368
#     4  10  19  38  63  86 110 155 206 248 287 357
#     4   9  17  34  62  83 108 147 205 255 287 343
#     4   9  17  36  58  84 111 153 201 240 295 351
#
# _framework density 24.699092
#
# number of rings (size 3 to 8) (size 9 to 14) (size 15 to 20)
#    0.000    1.750    2.500    4.875    1.750    0.000 
#    9.000    2.500    2.750    0.000    0.000    0.000 
#    0.000    0.000    0.000    0.000    0.000    0.000 
#
# Total GULP energy -89489.821287 kJ/mol
# GULP energy per Si atom -5593.113830 kJ/mol
# Density = 2.464288 g / cm^3
# Si number density = 24.699092 Si / 1000 Ang^3
#
#
#
# Elastic Constant Matrix: (Units=GPa)
#
#
# Indices 1 2 3 4 5 6 
#
# 1 153.9977 24.7065 45.2837 0.0890 45.5558 -0.0430
# 2 24.7065 60.8350 13.2901 0.0714 16.2195 0.0090
# 3 45.2837 13.2901 111.2937 0.1094 40.9817 -0.0988
# 4 0.0890 0.0714 0.1094 14.9263 -0.0229 14.4825
# 5 45.5558 16.2195 40.9817 -0.0229 50.7463 0.0061
# 6 -0.0430 0.0090 -0.0988 14.4825 0.0061 31.5375
#
#
#
# Elastic Compliance Matrix: (Units=1/GPa)
#
#
# Indices 1 2 3 4 5 6 
#
# 1 0.009063 -0.001649 -0.000980 -0.000109 -0.006818 0.000061
# 2 -0.001649 0.018269 0.000135 -0.000143 -0.004468 0.000060
# 3 -0.000980 0.000135 0.012895 -0.000259 -0.009577 0.000160
# 4 -0.000109 -0.000143 -0.000259 0.120844 0.000414 -0.055494
# 5 -0.006818 -0.004468 -0.009577 0.000414 0.034989 -0.000235
# 6 0.000061 0.000060 0.000160 -0.055494 -0.000235 0.057193
#
#
# Mechanical properties :
#
#
# Convention : Reuss Voigt Hill
#
# Bulk Modulus (GPa) = 28.37767 54.74300 41.56034
# Shear Modulus (GPa) = 18.51936 35.63176 27.07556
#
# Velocity S-wave (km/s) = 2.74122 3.80232 3.31451
# Velocity P-wave (km/s) = 4.64040 6.44119 5.61348
#
# Compressibility (1/GPa) = 0.03523897
#
# Stress axis : x y z
#
# Youngs Moduli (GPa) = 110.33543 54.73604 77.55017
#
# Poissons Ratio (x) = 0.09025 0.07601
# Poissons Ratio (y) = 0.18193 -0.01044
# Poissons Ratio (z) = 0.10814 -0.00737
#
# Static dielectric constant tensor:
#      x y z
#    x 2.005380 0.000010 0.014440 
#    y 0.000010 1.884490 0.000150 
#    z 0.014440 0.000150 2.063700 
# 
# From -- ./inp_files/71070.got.cif
#   From: 2010.05.17/outbox.cif.g08.bks.cpg/sg5_36_cif.got.tgz:71070.got - 2010.06.03 18:56:24.
