data_PCOD9122005
_publ_section_title
;
Structure prediction by ZEFSAII (Michael W. Deem and Ramdas Pophale) SiO2 
 PCOD9122005
Probable space group: C 2
;
_chemical_formula_sum "Si O2"
_cell_formula_units_Z 28
_cell_length_a 13.294276
_cell_length_b 7.549410
_cell_length_c 13.564896
_cell_angle_alpha 90.000000
_cell_angle_beta 59.925317
_cell_angle_gamma 90.000000
_cell_volume 1178.141570
_symmetry_space_group_name_H-M "C 2"
_symmetry_group_IT_number 5
_symmetry_cell_setting 'monoclinic'
loop_
_space_group_symop_operation_xyz
x,y,z
-x,y,-z
1/2+x,1/2+y,z
1/2-x,1/2+y,-z
loop_
_atom_site_type_symbol
_atom_site_label
_atom_site_fract_x
_atom_site_fract_y
_atom_site_fract_z
Si Si1 0.578418 0.561480 0.262091
Si Si2 0.487274 0.109319 0.612483
Si Si3 0.858085 0.249263 0.447802
Si Si4 0.909473 0.926770 0.964038
Si Si5 0.267639 0.909236 0.786831
Si Si6 0.429729 0.199595 0.216150
Si Si7 0.768648 0.963571 0.645580
O O1 0.448536 0.615777 0.353238
O O2 0.589897 0.510337 0.143426
O O3 0.654116 0.737276 0.238820
O O4 0.638720 0.435136 0.313656
O O5 0.500000 0.197419 0.500000
O O6 0.532246 0.205485 0.688975
O O7 0.569225 0.929132 0.563416
O O8 0.355350 0.050069 0.699337
O O9 0.759290 0.312267 0.420071
O O10 0.808960 0.138397 0.563833
O O11 0.960998 0.730845 0.910116
O O12 0.787940 0.944372 0.079031
O O13 0.000000 0.002956 0.000000
O O14 0.159312 0.855322 0.771021
O O15 0.355298 0.019502 0.244363
#
# Coordination Sequence:
#
# PCOD9122005 Si02
#       7
#     4   4   4   4   4   4   4
#     4  10  21  41  63  90 129 168 220 271 337 391
#     4  10  19  37  65  94 125 168 211 268 326 399
#     4  10  21  39  65  96 135 173 212 274 336 396
#     4  10  22  41  61  87 125 169 217 279 328 388
#     4   9  20  39  65  85 122 169 211 265 330 388
#     4   9  20  37  58  90 123 160 215 258 324 385
#     4  10  21  40  66  95 131 177 215 269 340 397
#
# _framework density 23.766242999999999
#
# number of rings (size 3 to 8) (size 9 to 14) (size 15 to 20)
#    0.000    2.286    0.000    3.000    4.000    0.000 
#   10.286    0.000    0.000    0.000    0.000    0.000 
#    0.000    0.000    0.000    0.000    0.000    0.000 
#
# Total GULP energy -78246.765535 kJ/mol
# GULP energy per Si atom -5589.054681 kJ/mol
# Density = 2.371215 g / cm^3
# Si number density = 23.766243 Si / 1000 Ang^3
#
#
#
# Elastic Constant Matrix: (Units=GPa)
#
#
# Indices 1 2 3 4 5 6 
#
# 1 101.3247 20.3023 61.2446 0.0000 30.2610 0.0000
# 2 20.3023 53.9876 30.0458 0.0000 10.5097 0.0000
# 3 61.2446 30.0458 183.8749 0.0000 13.4470 0.0000
# 4 0.0000 0.0000 0.0000 35.8218 0.0000 1.0300
# 5 30.2610 10.5097 13.4470 0.0000 57.5392 0.0000
# 6 0.0000 0.0000 0.0000 1.0300 0.0000 19.9918
#
#
#
# Elastic Compliance Matrix: (Units=1/GPa)
#
#
# Indices 1 2 3 4 5 6 
#
# 1 0.014644 -0.001991 -0.004085 0.000000 -0.006383 0.000000
# 2 -0.001991 0.021167 -0.002635 0.000000 -0.002204 0.000000
# 3 -0.004085 -0.002635 0.007160 0.000000 0.000957 0.000000
# 4 0.000000 0.000000 0.000000 0.027957 0.000000 -0.001440
# 5 -0.006383 -0.002204 0.000957 0.000000 0.020915 0.000000
# 6 0.000000 0.000000 0.000000 -0.001440 0.000000 0.050095
#
#
# Mechanical properties :
#
#
# Convention : Reuss Voigt Hill
#
# Bulk Modulus (GPa) = 39.14045 62.48583 50.81314
# Shear Modulus (GPa) = 29.78406 37.84354 33.81380
#
# Velocity S-wave (km/s) = 3.54391 3.99472 3.77605
# Velocity P-wave (km/s) = 5.76632 6.90116 6.35910
#
# Compressibility (1/GPa) = 0.02554902
#
# Stress axis : x y z
#
# Youngs Moduli (GPa) = 68.28792 47.24445 139.66883
#
# Poissons Ratio (x) = 0.09404 0.57061
# Poissons Ratio (y) = 0.13593 0.36796
# Poissons Ratio (z) = 0.27899 0.12447
#
# Static dielectric constant tensor:
#      x y z
#    x 1.966030 0.000000 -0.026120 
#    y 0.000000 1.981020 0.000000 
#    z -0.026120 0.000000 1.901560 
# 
# From -- ./inp_files/41885.got.cif
#   From: 2010.05.17/outbox.cif.g08.bks.cpg/sg5_21_cif.got.tgz:41885.got - 2010.06.03 18:56:24.
