data_PCOD9122638
_publ_section_title
;
Structure prediction by ZEFSAII (Michael W. Deem and Ramdas Pophale) SiO2 
 PCOD9122638
Probable space group: C 2
;
_chemical_formula_sum "Si O2"
_cell_formula_units_Z 26
_cell_length_a 5.484881
_cell_length_b 27.463111
_cell_length_c 7.165449
_cell_angle_alpha 90.000000
_cell_angle_beta 99.835742
_cell_angle_gamma 90.000000
_cell_volume 1063.480441
_symmetry_space_group_name_H-M "C 2"
_symmetry_group_IT_number 5
_symmetry_cell_setting 'monoclinic'
loop_
_space_group_symop_operation_xyz
x,y,z
-x,y,-z
1/2+x,1/2+y,z
1/2-x,1/2+y,-z
loop_
_atom_site_type_symbol
_atom_site_label
_atom_site_fract_x
_atom_site_fract_y
_atom_site_fract_z
Si Si1 0.000000 0.698630 0.500000
Si Si2 0.424825 0.890030 0.777451
Si Si3 0.471676 0.001413 0.272602
Si Si4 0.037444 0.049701 0.732307
Si Si5 0.435103 0.658072 0.712968
Si Si6 0.793734 0.741883 0.822781
Si Si7 0.914935 0.853805 0.791936
O O1 0.142585 0.665390 0.665616
O O2 0.153846 0.733344 0.388509
O O3 0.425094 0.948257 0.769972
O O4 0.667938 0.878614 0.686013
O O5 0.166539 0.861697 0.707295
O O6 0.500000 0.875399 0.000000
O O7 0.500000 0.005119 0.500000
O O8 0.677032 0.035581 0.204533
O O9 0.182696 0.016438 0.207977
O O10 0.000000 0.047965 0.500000
O O11 0.004679 0.105387 0.791932
O O12 0.500000 0.657676 0.500000
O O13 0.559852 0.706121 0.815912
O O14 0.811346 0.800226 0.832828
O O15 0.000000 0.725996 0.000000
O O16 0.000000 0.877854 0.000000
#
# Coordination Sequence:
#
# PCOD9122638 Si02
#       7
#     2   4   4   4   4   4   4
#     4  10  22  38  64  88 124 168 210 254 318 370
#     4  10  20  38  59  80 116 156 200 249 312 369
#     4  10  20  35  56  86 113 152 201 252 307 366
#     4   9  19  33  59  83 118 158 199 247 309 373
#     4   9  20  36  60  90 120 162 210 253 308 378
#     4  10  22  40  62  91 129 165 212 260 312 379
#     4   9  20  37  60  85 113 161 202 244 310 378
#
# _framework density 24.448028999999998
#
# number of rings (size 3 to 8) (size 9 to 14) (size 15 to 20)
#    0.000    2.462    0.000    0.923    9.692    0.615 
#    2.769    0.769    3.385    0.000    0.000    0.000 
#    0.000    0.000    0.000    0.000    0.000    0.000 
#
# Total GULP energy -72393.638767 kJ/mol
# GULP energy per Si atom -5568.741444 kJ/mol
# Density = 2.439238 g / cm^3
# Si number density = 24.448029 Si / 1000 Ang^3
#
#
#
# Elastic Constant Matrix: (Units=GPa)
#
#
# Indices 1 2 3 4 5 6 
#
# 1 147.3904 49.6893 25.9437 0.0000 24.7858 0.0000
# 2 49.6893 122.0584 2.1433 0.0000 24.5451 0.0000
# 3 25.9437 2.1433 78.9576 0.0000 -7.1837 0.0000
# 4 0.0000 0.0000 0.0000 21.8414 0.0000 0.4212
# 5 24.7858 24.5451 -7.1837 0.0000 39.3243 0.0000
# 6 0.0000 0.0000 0.0000 0.4212 0.0000 22.4534
#
#
#
# Elastic Compliance Matrix: (Units=1/GPa)
#
#
# Indices 1 2 3 4 5 6 
#
# 1 0.009058 -0.002698 -0.003325 0.000000 -0.004633 0.000000
# 2 -0.002698 0.010222 0.000186 0.000000 -0.004646 0.000000
# 3 -0.003325 0.000186 0.014168 0.000000 0.004567 0.000000
# 4 0.000000 0.000000 0.000000 0.045801 0.000000 -0.000859
# 5 -0.004633 -0.004646 0.004567 0.000000 0.032084 0.000000
# 6 0.000000 0.000000 0.000000 -0.000859 0.000000 0.044553
#
#
# Mechanical properties :
#
#
# Convention : Reuss Voigt Hill
#
# Bulk Modulus (GPa) = 45.92173 55.99546 50.95859
# Shear Modulus (GPa) = 28.60126 34.76581 31.68354
#
# Velocity S-wave (km/s) = 3.42406 3.77507 3.60384
# Velocity P-wave (km/s) = 5.86996 6.47728 6.18108
#
# Compressibility (1/GPa) = 0.02177618
#
# Stress axis : x y z
#
# Youngs Moduli (GPa) = 110.39394 97.82841 70.58188
#
# Poissons Ratio (x) = 0.26390 0.23466
# Poissons Ratio (y) = 0.29780 -0.01314
# Poissons Ratio (z) = 0.36703 -0.01822
#
# Static dielectric constant tensor:
#      x y z
#    x 2.167140 0.000000 0.023070 
#    y 0.000000 1.977650 0.000000 
#    z 0.023070 0.000000 1.986910 
# 
# From -- ./inp_files/13065.got.cif
#   From: 2010.05.17/outbox.cif.g08.bks.cpg/sg5_7_cif.got.tgz:13065.got - 2010.06.03 18:56:24.
