data_PCOD9122830
_publ_section_title
;
Structure prediction by ZEFSAII (Michael W. Deem and Ramdas Pophale) SiO2 
 PCOD9122830
Probable space group: C 2
;
_chemical_formula_sum "Si O2"
_cell_formula_units_Z 28
_cell_length_a 13.783694
_cell_length_b 7.446354
_cell_length_c 14.370211
_cell_angle_alpha 90.000000
_cell_angle_beta 51.820368
_cell_angle_gamma 90.000000
_cell_volume 1159.410849
_symmetry_space_group_name_H-M "C 2"
_symmetry_group_IT_number 5
_symmetry_cell_setting 'monoclinic'
loop_
_space_group_symop_operation_xyz
x,y,z
-x,y,-z
1/2+x,1/2+y,z
1/2-x,1/2+y,-z
loop_
_atom_site_type_symbol
_atom_site_label
_atom_site_fract_x
_atom_site_fract_y
_atom_site_fract_z
Si Si1 0.333733 0.014870 0.830133
Si Si2 0.605587 0.048813 0.676448
Si Si3 0.228736 0.046440 0.266732
Si Si4 0.302565 0.635121 0.257063
Si Si5 0.000000 0.262463 0.000000
Si Si6 0.344272 0.438675 0.426951
Si Si7 0.744908 0.403227 0.072575
Si Si8 0.000000 0.099402 0.500000
O O1 0.474568 0.954039 0.747403
O O2 0.275742 0.004820 0.762936
O O3 0.333838 0.226899 0.858329
O O4 0.247169 0.939109 0.962607
O O5 0.612729 0.241369 0.625018
O O6 0.640049 0.085949 0.764001
O O7 0.712603 0.941333 0.558355
O O8 0.229326 0.828839 0.293092
O O9 0.208237 0.055593 0.168876
O O10 0.129567 0.164897 0.381318
O O11 0.430561 0.659089 0.124456
O O12 0.326877 0.557691 0.344342
O O13 0.886809 0.366622 0.019422
O O14 0.446184 0.504462 0.439805
#
# Coordination Sequence:
#
# PCOD9122830 Si02
#       8
#     4   4   4   4   2   4   4   2
#     4  10  22  39  61  90 121 159 197 240 293 349
#     4  11  23  39  61  88 117 154 199 243 295 350
#     4   9  20  39  59  84 116 158 198 243 293 343
#     4  10  21  37  59  86 119 156 197 243 294 347
#     4   8  18  36  58  82 116 162 200 242 290 338
#     4  11  23  40  60  86 116 154 197 246 295 351
#     4  10  20  36  59  87 121 159 198 241 291 346
#     4  10  20  36  60  80 108 150 196 236 292 348
#
# _framework density 24.150196999999999
#
# number of rings (size 3 to 8) (size 9 to 14) (size 15 to 20)
#    0.000    2.286    0.000    5.143    0.000    6.286 
#    0.000   11.429    0.000    0.857    0.000    0.000 
#    0.000    0.000    0.000    0.000    0.000    0.000 
#
# Total GULP energy -78078.270575 kJ/mol
# GULP energy per Si atom -5577.019327 kJ/mol
# Density = 2.409523 g / cm^3
# Si number density = 24.150197 Si / 1000 Ang^3
#
#
#
# Elastic Constant Matrix: (Units=GPa)
#
#
# Indices 1 2 3 4 5 6 
#
# 1 99.9673 6.0368 35.5361 0.0000 19.9655 0.0000
# 2 6.0368 34.9445 32.5684 0.0000 19.6360 0.0000
# 3 35.5361 32.5684 131.4524 0.0000 12.2491 0.0000
# 4 0.0000 0.0000 0.0000 33.9805 0.0000 7.1758
# 5 19.9655 19.6360 12.2491 0.0000 61.0207 0.0000
# 6 0.0000 0.0000 0.0000 7.1758 0.0000 14.6558
#
#
#
# Elastic Compliance Matrix: (Units=1/GPa)
#
#
# Indices 1 2 3 4 5 6 
#
# 1 0.012008 0.003981 -0.003818 0.000000 -0.004443 0.000000
# 2 0.003981 0.046218 -0.011230 0.000000 -0.013921 0.000000
# 3 -0.003818 -0.011230 0.011178 0.000000 0.002619 0.000000
# 4 0.000000 0.000000 0.000000 0.032822 0.000000 -0.016071
# 5 -0.004443 -0.013921 0.002619 0.000000 0.021796 0.000000
# 6 0.000000 0.000000 0.000000 -0.016071 0.000000 0.076101
#
#
# Mechanical properties :
#
#
# Convention : Reuss Voigt Hill
#
# Bulk Modulus (GPa) = 21.15542 46.07186 33.61364
# Shear Modulus (GPa) = 21.00727 34.74625 27.87676
#
# Velocity S-wave (km/s) = 2.95254 3.79721 3.40120
# Velocity P-wave (km/s) = 4.51689 6.19223 5.41968
#
# Compressibility (1/GPa) = 0.04726921
#
# Stress axis : x y z
#
# Youngs Moduli (GPa) = 83.28010 21.63666 89.46301
#
# Poissons Ratio (x) = -0.08614 0.34161
# Poissons Ratio (y) = -0.33156 1.00466
# Poissons Ratio (z) = 0.31800 0.24298
#
# Static dielectric constant tensor:
#      x y z
#    x 1.914880 0.000000 0.034330 
#    y 0.000000 2.015440 0.000000 
#    z 0.034330 0.000000 2.004190 
# 
# From -- ./inp_files/52405.got.cif
#   From: 2010.05.17/outbox.cif.g08.bks.cpg/sg5_27_cif.got.tgz:52405.got - 2010.06.03 18:56:24.
