data_PCOD9122629
_publ_section_title
;
Structure prediction by ZEFSAII (Michael W. Deem and Ramdas Pophale) SiO2 
 PCOD9122629
Probable space group: C 2
;
_chemical_formula_sum "Si O2"
_cell_formula_units_Z 20
_cell_length_a 22.583463
_cell_length_b 4.629679
_cell_length_c 6.694792
_cell_angle_alpha 90.000000
_cell_angle_beta 104.423683
_cell_angle_gamma 90.000000
_cell_volume 677.905708
_symmetry_space_group_name_H-M "C 2"
_symmetry_group_IT_number 5
_symmetry_cell_setting 'monoclinic'
loop_
_space_group_symop_operation_xyz
x,y,z
-x,y,-z
1/2+x,1/2+y,z
1/2-x,1/2+y,-z
loop_
_atom_site_type_symbol
_atom_site_label
_atom_site_fract_x
_atom_site_fract_y
_atom_site_fract_z
Si Si1 0.053463 0.428510 0.667681
Si Si2 0.880086 0.804050 0.621046
Si Si3 0.276468 0.155436 0.275806
Si Si4 0.172823 0.152725 0.914065
Si Si5 0.550443 0.853700 0.162421
O O1 0.086809 0.647190 0.544129
O O2 0.102990 0.238936 0.825634
O O3 0.006283 0.550880 0.789083
O O4 0.000000 0.258592 0.500000
O O5 0.808487 0.770716 0.502914
O O6 0.899381 0.605635 0.823053
O O7 0.907420 0.118485 0.683289
O O8 0.313354 0.325584 0.131160
O O9 0.293519 0.827794 0.237015
O O10 0.206780 0.207458 0.151860
O O11 0.500000 0.668300 0.000000
#
# Coordination Sequence:
#
# PCOD9122629 Si02
#       5
#     4   4   4   4   4
#     4   9  19  32  53  78 103 135 175 214 254 307
#     4  10  20  35  55  77 104 142 181 217 258 315
#     4   9  16  29  47  73 102 130 168 215 261 298
#     4   9  17  27  46  75 104 129 165 218 260 297
#     4  11  23  37  54  79 112 142 172 218 272 317
#
# _framework density 29.50263
#
# number of rings (size 3 to 8) (size 9 to 14) (size 15 to 20)
#    0.000    2.400    0.000    4.200    0.000   15.200 
#    0.000    0.000    0.000    2.400    0.000    0.000 
#    0.000    0.000    0.000    0.000    0.000    0.000 
#
# Total GULP energy -55693.212330 kJ/mol
# GULP energy per Si atom -5569.321233 kJ/mol
# Density = 2.943548 g / cm^3
# Si number density = 29.502630 Si / 1000 Ang^3
#
#
#
# Elastic Constant Matrix: (Units=GPa)
#
#
# Indices 1 2 3 4 5 6 
#
# 1 125.4468 8.7886 37.7728 0.0000 24.8585 0.0000
# 2 8.7886 107.9518 29.9329 0.0000 2.4377 0.0000
# 3 37.7728 29.9329 219.1684 0.0000 82.6231 0.0000
# 4 0.0000 0.0000 0.0000 44.5018 0.0000 5.8024
# 5 24.8585 2.4377 82.6231 0.0000 64.4503 0.0000
# 6 0.0000 0.0000 0.0000 5.8024 0.0000 16.9305
#
#
#
# Elastic Compliance Matrix: (Units=1/GPa)
#
#
# Indices 1 2 3 4 5 6 
#
# 1 0.008685 -0.000552 -0.000322 0.000000 -0.002916 0.000000
# 2 -0.000552 0.009886 -0.002311 0.000000 0.002802 0.000000
# 3 -0.000322 -0.002311 0.009394 0.000000 -0.011831 0.000000
# 4 0.000000 0.000000 0.000000 0.023522 0.000000 -0.008061
# 5 -0.002916 0.002802 -0.011831 0.000000 0.031702 0.000000
# 6 0.000000 0.000000 0.000000 -0.008061 0.000000 0.061828
#
#
# Mechanical properties :
#
#
# Convention : Reuss Voigt Hill
#
# Bulk Modulus (GPa) = 46.30907 67.28396 56.79652
# Shear Modulus (GPa) = 31.52871 50.24805 40.88838
#
# Velocity S-wave (km/s) = 3.27261 4.13143 3.72684
# Velocity P-wave (km/s) = 5.47819 6.75380 6.14916
#
# Compressibility (1/GPa) = 0.02159404
#
# Stress axis : x y z
#
# Youngs Moduli (GPa) = 115.14107 101.15367 106.45000
#
# Poissons Ratio (x) = 0.05582 0.03430
# Poissons Ratio (y) = 0.06354 0.24605
# Poissons Ratio (z) = 0.03710 0.23381
#
# Static dielectric constant tensor:
#      x y z
#    x 2.788090 0.000000 -0.877980 
#    y 0.000000 2.199680 0.000000 
#    z -0.877980 0.000000 3.996530 
# 
# From -- ./inp_files/30133.got.cif
#   From: 2010.05.17/outbox.cif.g08.bks.cpg/sg5_16_cif.got.tgz:30133.got - 2010.06.03 18:56:24.
