data_PCOD9122308
_publ_section_title
;
Structure prediction by ZEFSAII (Michael W. Deem and Ramdas Pophale) SiO2 
 PCOD9122308
Probable space group: C 2
;
_chemical_formula_sum "Si O2"
_cell_formula_units_Z 28
_cell_length_a 21.143315
_cell_length_b 8.210029
_cell_length_c 19.251981
_cell_angle_alpha 90.000000
_cell_angle_beta 156.079705
_cell_angle_gamma 90.000000
_cell_volume 1355.024037
_symmetry_space_group_name_H-M "C 2"
_symmetry_group_IT_number 5
_symmetry_cell_setting 'monoclinic'
loop_
_space_group_symop_operation_xyz
x,y,z
-x,y,-z
1/2+x,1/2+y,z
1/2-x,1/2+y,-z
loop_
_atom_site_type_symbol
_atom_site_label
_atom_site_fract_x
_atom_site_fract_y
_atom_site_fract_z
Si Si1 0.675210 0.790870 0.517131
Si Si2 0.146950 0.201002 0.747605
Si Si3 0.329642 0.695344 0.981268
Si Si4 0.695225 0.367911 0.974448
Si Si5 0.673975 0.148520 0.202534
Si Si6 0.386217 0.550502 0.672145
Si Si7 0.657090 0.363275 0.690052
O O1 0.511637 0.791355 0.393271
O O2 0.802945 0.722442 0.699092
O O3 0.650041 0.666852 0.428358
O O4 0.735223 0.962769 0.549872
O O5 0.227230 0.249928 0.755804
O O6 0.109111 0.010852 0.694982
O O7 0.265271 0.227388 0.930203
O O8 0.286683 0.828854 0.996246
O O9 0.264920 0.744326 0.842145
O O10 0.249339 0.531776 0.930651
O O11 0.512902 0.653472 0.170526
O O12 0.513321 0.409731 0.778792
O O13 0.745899 0.966797 0.269234
O O14 0.500000 0.144619 0.000000
O O15 0.500000 0.292680 0.500000
#
# Coordination Sequence:
#
# PCOD9122308 Si02
#       7
#     4   4   4   4   4   4   4
#     4  12  21  46  62 104 136 175 241 271 344 401
#     4  10  19  40  72  99 128 180 223 276 340 413
#     4  10  21  39  66  97 134 172 230 277 345 398
#     4  10  20  39  65  98 132 173 222 277 338 402
#     4  10  22  38  72  95 133 181 224 276 339 418
#     4  10  26  37  68  97 137 182 219 296 330 402
#     4  10  20  39  70  99 126 179 226 276 339 409
#
# _framework density 20.663841000000001
#
# number of rings (size 3 to 8) (size 9 to 14) (size 15 to 20)
#    1.714    0.000    2.857    3.000    0.000    2.286 
#    0.000    2.143    9.429    0.000    0.000    0.000 
#    0.000    0.000    0.000    0.000    0.000    0.000 
#
# Total GULP energy -77997.002069 kJ/mol
# GULP energy per Si atom -5571.214434 kJ/mol
# Density = 2.061681 g / cm^3
# Si number density = 20.663841 Si / 1000 Ang^3
#
#
#
# Elastic Constant Matrix: (Units=GPa)
#
#
# Indices 1 2 3 4 5 6 
#
# 1 41.5060 17.7963 33.2326 0.0000 -7.8715 0.0000
# 2 17.7963 38.5132 20.8072 -0.0001 -0.5048 0.0000
# 3 33.2326 20.8072 115.6825 -0.0001 -13.6469 0.0000
# 4 0.0000 -0.0001 -0.0001 42.0025 0.0000 -9.2504
# 5 -7.8715 -0.5048 -13.6469 0.0000 42.8298 0.0000
# 6 0.0000 0.0000 0.0000 -9.2504 0.0000 3.0830
#
#
#
# Elastic Compliance Matrix: (Units=1/GPa)
#
#
# Indices 1 2 3 4 5 6 
#
# 1 0.036464 -0.012624 -0.007722 0.000000 0.004092 0.000000
# 2 -0.012624 0.033207 -0.002674 0.000000 -0.002781 0.000001
# 3 -0.007722 -0.002674 0.011609 0.000000 0.002248 0.000000
# 4 0.000000 0.000000 0.000000 0.070191 0.000000 0.210609
# 5 0.004092 -0.002781 0.002248 0.000000 0.024784 0.000000
# 6 0.000000 0.000001 0.000000 0.210609 0.000000 0.956294
#
#
# Mechanical properties :
#
#
# Convention : Reuss Voigt Hill
#
# Bulk Modulus (GPa) = 28.37707 37.70820 33.04263
# Shear Modulus (GPa) = 4.20049 25.84077 15.02063
#
# Velocity S-wave (km/s) = 1.42730 3.54012 2.69904
# Velocity P-wave (km/s) = 4.05941 5.91591 5.07330
#
# Compressibility (1/GPa) = 0.03523972
#
# Stress axis : x y z
#
# Youngs Moduli (GPa) = 27.42398 30.11429 86.14113
#
# Poissons Ratio (x) = 0.38017 0.66517
# Poissons Ratio (y) = 0.34620 0.23036
# Poissons Ratio (z) = 0.21176 0.08053
#
# Static dielectric constant tensor:
#      x y z
#    x 1.733220 0.000000 0.003490 
#    y 0.000000 1.773980 0.000000 
#    z 0.003490 0.000000 1.755680 
# 
# From -- ./inp_files/62257.got.cif
#   From: 2010.05.17/outbox.cif.g08.bks.cpg/sg5_32_cif.got.tgz:62257.got - 2010.06.03 18:56:24.
