data_PCOD9122477
_publ_section_title
;
Structure prediction by ZEFSAII (Michael W. Deem and Ramdas Pophale) SiO2 
 PCOD9122477
Probable space group: C 2
;
_chemical_formula_sum "Si O2"
_cell_formula_units_Z 24
_cell_length_a 9.043907
_cell_length_b 11.724658
_cell_length_c 8.416055
_cell_angle_alpha 90.000000
_cell_angle_beta 97.754398
_cell_angle_gamma 90.000000
_cell_volume 884.250226
_symmetry_space_group_name_H-M "C 2"
_symmetry_group_IT_number 5
_symmetry_cell_setting 'monoclinic'
loop_
_space_group_symop_operation_xyz
x,y,z
-x,y,-z
1/2+x,1/2+y,z
1/2-x,1/2+y,-z
loop_
_atom_site_type_symbol
_atom_site_label
_atom_site_fract_x
_atom_site_fract_y
_atom_site_fract_z
Si Si1 0.551889 0.694280 0.335072
Si Si2 0.281215 0.415946 0.891090
Si Si3 0.480319 0.051499 0.831496
Si Si4 0.330335 0.444250 0.562402
Si Si5 0.000000 0.120018 0.000000
Si Si6 0.220688 0.872201 0.769016
Si Si7 0.500000 0.047106 0.500000
O O1 0.500000 0.739719 0.500000
O O2 0.607092 0.568699 0.387939
O O3 0.684902 0.769772 0.287856
O O4 0.454401 0.684348 0.157354
O O5 0.106864 0.450970 0.853721
O O6 0.332798 0.371482 0.726132
O O7 0.366560 0.536165 0.931587
O O8 0.322086 0.347129 0.055885
O O9 0.501453 0.113619 0.666997
O O10 0.323917 0.985043 0.807138
O O11 0.500000 0.114736 0.000000
O O12 0.382268 0.403770 0.394876
O O13 0.150950 0.472544 0.516575
#
# Coordination Sequence:
#
# PCOD9122477 Si02
#       7
#     4   4   4   4   2   4   2
#     4  11  24  35  58  92 122 148 197 247 294 343
#     4   9  18  34  55  78 112 153 189 227 293 346
#     4   8  15  26  48  80  97 133 185 231 268 324
#     4   9  19  36  55  82 116 153 186 244 292 345
#     4  10  22  38  56  86 124 156 186 244 294 358
#     4  10  20  33  59  85 112 152 198 245 284 341
#     4   8  14  28  54  68 102 136 186 218 278 332
#
# _framework density 27.141635999999998
#
# number of rings (size 3 to 8) (size 9 to 14) (size 15 to 20)
#    0.000    2.667    0.000    1.000   10.500    0.000 
#    0.000    0.000    9.167    0.000   26.000    0.000 
#    0.000    0.000    0.000    0.000    0.000    0.000 
#
# Total GULP energy -66982.668820 kJ/mol
# GULP energy per Si atom -5581.889068 kJ/mol
# Density = 2.707986 g / cm^3
# Si number density = 27.141636 Si / 1000 Ang^3
#
#
#
# Elastic Constant Matrix: (Units=GPa)
#
#
# Indices 1 2 3 4 5 6 
#
# 1 45.4913 14.5874 41.2804 0.0000 -19.4156 0.0000
# 2 14.5874 61.5808 37.1904 0.0000 -13.3368 0.0000
# 3 41.2804 37.1904 349.7833 0.0000 -52.9338 0.0000
# 4 0.0000 0.0000 0.0000 29.9629 0.0000 -8.5129
# 5 -19.4156 -13.3368 -52.9338 0.0000 64.1867 0.0000
# 6 0.0000 0.0000 0.0000 -8.5129 0.0000 29.9723
#
#
#
# Elastic Compliance Matrix: (Units=1/GPa)
#
#
# Indices 1 2 3 4 5 6 
#
# 1 0.027557 -0.004088 -0.001925 0.000000 0.005899 0.000000
# 2 -0.004088 0.018284 -0.001227 0.000000 0.001551 0.000000
# 3 -0.001925 -0.001227 0.003530 0.000000 0.002074 0.000000
# 4 0.000000 0.000000 0.000000 0.036304 0.000000 0.010311
# 5 0.005899 0.001551 0.002074 0.000000 0.019397 0.000000
# 6 0.000000 0.000000 0.000000 0.010311 0.000000 0.036293
#
#
# Mechanical properties :
#
#
# Convention : Reuss Voigt Hill
#
# Bulk Modulus (GPa) = 28.65936 71.44130 50.05033
# Shear Modulus (GPa) = 29.85506 49.07753 39.46630
#
# Velocity S-wave (km/s) = 3.32018 4.25691 3.81739
# Velocity P-wave (km/s) = 5.02795 7.10918 6.15714
#
# Compressibility (1/GPa) = 0.03489261
#
# Stress axis : x y z
#
# Youngs Moduli (GPa) = 36.28785 54.69269 283.25009
#
# Poissons Ratio (x) = 0.22357 0.54523
# Poissons Ratio (y) = 0.14834 0.34753
# Poissons Ratio (z) = 0.06985 0.06710
#
# Static dielectric constant tensor:
#      x y z
#    x 2.274680 0.000000 0.040110 
#    y 0.000000 1.995460 0.000000 
#    z 0.040110 0.000000 2.274600 
# 
# From -- ./inp_files/19449.got.cif
#   From: 2010.05.17/outbox.cif.g08.bks.cpg/sg5_10_cif.got.tgz:19449.got - 2010.06.03 18:56:24.
