data_PCOD9122670
_publ_section_title
;
Structure prediction by ZEFSAII (Michael W. Deem and Ramdas Pophale) SiO2 
 PCOD9122670
Probable space group: C 2
;
_chemical_formula_sum "Si O2"
_cell_formula_units_Z 22
_cell_length_a 12.510532
_cell_length_b 7.850661
_cell_length_c 9.779922
_cell_angle_alpha 90.000000
_cell_angle_beta 103.906324
_cell_angle_gamma 90.000000
_cell_volume 932.390697
_symmetry_space_group_name_H-M "C 2"
_symmetry_group_IT_number 5
_symmetry_cell_setting 'monoclinic'
loop_
_space_group_symop_operation_xyz
x,y,z
-x,y,-z
1/2+x,1/2+y,z
1/2-x,1/2+y,-z
loop_
_atom_site_type_symbol
_atom_site_label
_atom_site_fract_x
_atom_site_fract_y
_atom_site_fract_z
Si Si1 0.000000 0.655170 0.000000
Si Si2 0.522361 0.266263 0.309164
Si Si3 0.723166 0.090723 0.951662
Si Si4 0.338030 0.995047 0.338232
Si Si5 0.247141 0.304012 0.466259
Si Si6 0.814200 0.946071 0.221822
O O1 0.031281 0.754994 0.147760
O O2 0.891671 0.553681 0.006676
O O3 0.451460 0.098138 0.338436
O O4 0.636011 0.296854 0.418452
O O5 0.437438 0.418080 0.311481
O O6 0.723167 0.962469 0.823903
O O7 0.715374 0.274206 0.875466
O O8 0.808630 0.082898 0.100531
O O9 0.254614 0.124470 0.390963
O O10 0.343561 0.841313 0.446573
O O11 0.242341 0.439488 0.337931
#
# Coordination Sequence:
#
# PCOD9122670 Si02
#       6
#     2   4   4   4   4   4
#     4   8  18  32  56  82 102 154 186 220 294 332
#     4   9  19  36  57  85 112 148 194 234 279 353
#     4   9  19  35  54  81 113 142 195 228 277 353
#     4   9  20  34  56  87 114 148 193 238 283 346
#     4  10  20  35  59  85 115 151 192 239 290 340
#     4   9  19  34  55  82 110 146 188 233 279 344
#
# _framework density 23.595258000000001
#
# number of rings (size 3 to 8) (size 9 to 14) (size 15 to 20)
#    0.000    3.636    0.000    2.182    7.636    0.000 
#    0.000    0.000   12.000    8.727    0.000    0.000 
#    0.000    0.000    0.000    0.000    0.000    0.000 
#
# Total GULP energy -61235.124933 kJ/mol
# GULP energy per Si atom -5566.829539 kJ/mol
# Density = 2.354155 g / cm^3
# Si number density = 23.595258 Si / 1000 Ang^3
#
#
#
# Elastic Constant Matrix: (Units=GPa)
#
#
# Indices 1 2 3 4 5 6 
#
# 1 63.3135 8.6980 31.4301 0.0000 -8.1760 0.0000
# 2 8.6980 48.7433 21.9401 0.0000 -4.8732 0.0000
# 3 31.4301 21.9401 168.6985 0.0000 -19.9207 0.0000
# 4 0.0000 0.0000 0.0000 41.1897 0.0000 -7.1467
# 5 -8.1760 -4.8732 -19.9207 0.0000 44.9895 0.0000
# 6 0.0000 0.0000 0.0000 -7.1467 0.0000 19.5812
#
#
#
# Elastic Compliance Matrix: (Units=1/GPa)
#
#
# Indices 1 2 3 4 5 6 
#
# 1 0.017676 -0.001688 -0.002866 0.000000 0.001761 0.000000
# 2 -0.001688 0.022011 -0.002430 0.000000 0.001001 0.000000
# 3 -0.002866 -0.002430 0.007054 0.000000 0.002339 0.000000
# 4 0.000000 0.000000 0.000000 0.025919 0.000000 0.009460
# 5 0.001761 0.001001 0.002339 0.000000 0.023692 0.000000
# 6 0.000000 0.000000 0.000000 0.009460 0.000000 0.054522
#
#
# Mechanical properties :
#
#
# Convention : Reuss Voigt Hill
#
# Bulk Modulus (GPa) = 30.51276 44.98795 37.75036
# Shear Modulus (GPa) = 28.44690 35.73123 32.08906
#
# Velocity S-wave (km/s) = 3.47597 3.89567 3.69179
# Velocity P-wave (km/s) = 5.39163 6.27239 5.84861
#
# Compressibility (1/GPa) = 0.03277318
#
# Stress axis : x y z
#
# Youngs Moduli (GPa) = 56.57277 45.43243 141.76527
#
# Poissons Ratio (x) = 0.07670 0.40627
# Poissons Ratio (y) = 0.09551 0.34446
# Poissons Ratio (z) = 0.16213 0.11039
#
# Static dielectric constant tensor:
#      x y z
#    x 1.900090 0.000000 0.005880 
#    y 0.000000 2.074080 0.000000 
#    z 0.005880 0.000000 2.026930 
# 
# From -- ./inp_files/22758.got.cif
#   From: 2010.05.17/outbox.cif.g08.bks.cpg/sg5_12_cif.got.tgz:22758.got - 2010.06.03 18:56:24.
