data_PCOD9122852
_publ_section_title
;
Structure prediction by ZEFSAII (Michael W. Deem and Ramdas Pophale) SiO2 
 PCOD9122852
Probable space group: C 2
;
_chemical_formula_sum "Si O2"
_cell_formula_units_Z 32
_cell_length_a 22.718236
_cell_length_b 7.376615
_cell_length_c 18.447698
_cell_angle_alpha 90.000000
_cell_angle_beta 156.451690
_cell_angle_gamma 90.000000
_cell_volume 1235.136003
_symmetry_space_group_name_H-M "C 2"
_symmetry_group_IT_number 5
_symmetry_cell_setting 'monoclinic'
loop_
_space_group_symop_operation_xyz
x,y,z
-x,y,-z
1/2+x,1/2+y,z
1/2-x,1/2+y,-z
loop_
_atom_site_type_symbol
_atom_site_label
_atom_site_fract_x
_atom_site_fract_y
_atom_site_fract_z
Si Si1 0.664277 0.244120 0.020199
Si Si2 0.734209 0.194368 0.261369
Si Si3 0.968044 0.675313 0.543279
Si Si4 0.858605 0.834101 0.689729
Si Si5 0.435472 0.677795 0.695121
Si Si6 0.771572 0.145223 0.927088
Si Si7 0.832098 0.262579 0.828861
Si Si8 0.478048 0.576837 0.360835
O O1 0.683508 0.275077 0.128389
O O2 0.685829 0.438753 0.008890
O O3 0.805974 0.123170 0.161708
O O4 0.492511 0.202805 0.814050
O O5 0.662315 0.282866 0.250308
O O6 0.911013 0.212700 0.472670
O O7 0.690977 0.979935 0.208068
O O8 0.097015 0.632835 0.745323
O O9 0.000000 0.592645 0.500000
O O10 0.794788 0.663168 0.361711
O O11 0.001026 0.889328 0.575720
O O12 0.705332 0.802929 0.475050
O O13 0.905890 0.039825 0.727238
O O14 0.448748 0.564947 0.635482
O O15 0.599556 0.760062 0.888772
O O16 0.792968 0.207865 0.867514
O O17 0.000000 0.218216 0.000000
#
# Coordination Sequence:
#
# PCOD9122852 Si02
#       8
#     4   4   4   4   4   4   4   4
#     4  11  21  38  62  91 123 158 207 267 321 363
#     4  10  21  39  64  92 120 161 208 257 320 373
#     4   9  19  37  59  86 114 150 203 258 310 364
#     4  10  23  42  63  89 126 166 212 263 312 382
#     4  10  24  43  59  88 126 169 214 255 313 379
#     4  10  23  37  55  87 126 158 198 256 310 371
#     4  10  20  36  60  90 117 151 201 253 309 365
#     4  10  21  38  61  85 120 165 210 255 305 379
#
# _framework density 25.908079000000001
#
# number of rings (size 3 to 8) (size 9 to 14) (size 15 to 20)
#    0.000    2.000    0.000    3.750    0.000   12.000 
#    0.000    8.750    0.000    0.000    0.000    0.000 
#    0.000    0.000    0.000    0.000    0.000    0.000 
#
# Total GULP energy -89348.296132 kJ/mol
# GULP energy per Si atom -5584.268508 kJ/mol
# Density = 2.584911 g / cm^3
# Si number density = 25.908079 Si / 1000 Ang^3
#
#
#
# Elastic Constant Matrix: (Units=GPa)
#
#
# Indices 1 2 3 4 5 6 
#
# 1 82.8764 17.4071 21.3019 0.0000 17.2284 0.0000
# 2 17.4071 42.5791 5.5868 0.0000 7.9393 0.0000
# 3 21.3019 5.5868 208.4818 0.0000 40.6486 0.0000
# 4 0.0000 0.0000 0.0000 33.1567 0.0000 3.1358
# 5 17.2284 7.9393 40.6486 0.0000 43.3743 0.0000
# 6 0.0000 0.0000 0.0000 3.1358 0.0000 25.7393
#
#
#
# Elastic Compliance Matrix: (Units=1/GPa)
#
#
# Indices 1 2 3 4 5 6 
#
# 1 0.014105 -0.004910 -0.000480 0.000000 -0.004254 0.000000
# 2 -0.004910 0.026037 0.000432 0.000000 -0.003220 0.000000
# 3 -0.000480 0.000432 0.005888 0.000000 -0.005406 0.000000
# 4 0.000000 0.000000 0.000000 0.030511 0.000000 -0.003717
# 5 -0.004254 -0.003220 -0.005406 0.000000 0.030401 0.000000
# 6 0.000000 0.000000 0.000000 -0.003717 0.000000 0.039304
#
#
# Mechanical properties :
#
#
# Convention : Reuss Voigt Hill
#
# Bulk Modulus (GPa) = 27.69092 46.94764 37.31928
# Shear Modulus (GPa) = 29.72624 39.76350 34.74487
#
# Velocity S-wave (km/s) = 3.39096 3.92189 3.66605
# Velocity P-wave (km/s) = 5.10322 6.21840 5.68821
#
# Compressibility (1/GPa) = 0.03611292
#
# Stress axis : x y z
#
# Youngs Moduli (GPa) = 70.89568 38.40703 169.83112
#
# Poissons Ratio (x) = 0.18859 0.08156
# Poissons Ratio (y) = 0.34812 -0.07334
# Poissons Ratio (z) = 0.03405 -0.01659
#
# Static dielectric constant tensor:
#      x y z
#    x 2.035860 0.000000 0.044570 
#    y 0.000000 2.043650 0.000000 
#    z 0.044570 0.000000 2.196210 
# 
# From -- ./inp_files/67585.got.cif
#   From: 2010.05.17/outbox.cif.g08.bks.cpg/sg5_34_cif.got.tgz:67585.got - 2010.06.03 18:56:24.
