data_PCOD9122933
_publ_section_title
;
Structure prediction by ZEFSAII (Michael W. Deem and Ramdas Pophale) SiO2 
 PCOD9122933
Probable space group: C 2
;
_chemical_formula_sum "Si O2"
_cell_formula_units_Z 26
_cell_length_a 16.281184
_cell_length_b 7.332386
_cell_length_c 22.006949
_cell_angle_alpha 90.000000
_cell_angle_beta 156.677644
_cell_angle_gamma 90.000000
_cell_volume 1040.113784
_symmetry_space_group_name_H-M "C 2"
_symmetry_group_IT_number 5
_symmetry_cell_setting 'monoclinic'
loop_
_space_group_symop_operation_xyz
x,y,z
-x,y,-z
1/2+x,1/2+y,z
1/2-x,1/2+y,-z
loop_
_atom_site_type_symbol
_atom_site_label
_atom_site_fract_x
_atom_site_fract_y
_atom_site_fract_z
Si Si1 0.500000 0.744971 0.000000
Si Si2 0.217664 0.943732 0.408702
Si Si3 0.776353 0.026335 0.261397
Si Si4 0.714022 0.283504 0.903971
Si Si5 0.713854 0.591128 0.594160
Si Si6 0.036954 0.330177 0.308247
Si Si7 0.618054 0.186782 0.979192
O O1 0.676632 0.869406 0.152854
O O2 0.634639 0.658433 0.035540
O O3 0.285342 0.811431 0.398958
O O4 0.380240 0.897282 0.571209
O O5 0.995348 0.851210 0.271157
O O6 0.172520 0.158309 0.374662
O O7 0.791718 0.995987 0.344566
O O8 0.022118 0.052464 0.417960
O O9 0.613835 0.196788 0.150832
O O10 0.845824 0.470071 0.997362
O O11 0.661654 0.244626 0.939168
O O12 0.917258 0.502963 0.702906
O O13 0.800948 0.268502 0.143986
#
# Coordination Sequence:
#
# PCOD9122933 Si02
#       7
#     2   4   4   4   4   4   4
#     4  10  20  36  64  96 124 164 214 280 328 392
#     4  11  22  37  62  97 128 175 223 274 325 410
#     4  10  22  39  65  93 132 175 220 267 343 392
#     4  10  21  38  64  93 129 164 225 267 336 399
#     4  11  22  42  65  93 132 179 217 275 334 402
#     4  11  22  37  65  97 128 169 229 273 330 394
#     4  10  21  38  64  96 124 176 212 277 331 404
#
# _framework density 24.997264000000001
#
# number of rings (size 3 to 8) (size 9 to 14) (size 15 to 20)
#    0.000    1.538    3.077    2.769    4.308    0.000 
#    0.000    3.077   10.154    0.923    4.000    0.000 
#    0.000    0.000    0.000    0.000    0.000    0.000 
#
# Total GULP energy -72424.217884 kJ/mol
# GULP energy per Si atom -5571.093683 kJ/mol
# Density = 2.494037 g / cm^3
# Si number density = 24.997264 Si / 1000 Ang^3
#
#
#
# Elastic Constant Matrix: (Units=GPa)
#
#
# Indices 1 2 3 4 5 6 
#
# 1 82.4253 -12.9155 6.3503 0.0034 -4.7598 -0.0004
# 2 -12.9155 91.4556 -9.9774 -0.0165 -14.6391 0.0021
# 3 6.3503 -9.9774 168.5506 -0.0368 -10.2242 0.0001
# 4 0.0034 -0.0165 -0.0368 20.1338 0.0072 -3.4121
# 5 -4.7598 -14.6391 -10.2242 0.0072 40.4812 -0.0003
# 6 -0.0004 0.0021 0.0001 -3.4121 -0.0003 17.1370
#
#
#
# Elastic Compliance Matrix: (Units=1/GPa)
#
#
# Indices 1 2 3 4 5 6 
#
# 1 0.012605 0.002107 -0.000217 -0.000002 0.002189 0.000000
# 2 0.002107 0.012112 0.000933 0.000010 0.004863 0.000001
# 3 -0.000217 0.000933 0.006109 0.000012 0.001855 0.000002
# 4 -0.000002 0.000010 0.000012 0.051402 -0.000003 0.010234
# 5 0.002189 0.004863 0.001855 -0.000003 0.027187 -0.000001
# 6 0.000000 0.000001 0.000002 0.010234 -0.000001 0.060391
#
#
# Mechanical properties :
#
#
# Convention : Reuss Voigt Hill
#
# Bulk Modulus (GPa) = 27.41952 34.37185 30.89568
# Shear Modulus (GPa) = 28.35760 39.48200 33.91980
#
# Velocity S-wave (km/s) = 3.37178 3.97854 3.68766
# Velocity P-wave (km/s) = 5.11384 5.90637 5.52433
#
# Compressibility (1/GPa) = 0.03647037
#
# Stress axis : x y z
#
# Youngs Moduli (GPa) = 79.33051 82.56278 163.69742
#
# Poissons Ratio (x) = -0.17395 0.03559
# Poissons Ratio (y) = -0.16714 -0.15266
# Poissons Ratio (z) = 0.01725 -0.07700
#
# Static dielectric constant tensor:
#      x y z
#    x 2.150780 0.000000 0.123390 
#    y 0.000000 2.007380 0.000000 
#    z 0.123390 0.000000 2.081940 
# 
# From -- ./inp_files/62230.got.cif
#   From: 2010.05.17/outbox.cif.g08.bks.cpg/sg5_32_cif.got.tgz:62230.got - 2010.06.03 18:56:24.
