data_PCOD9122356
_publ_section_title
;
Structure prediction by ZEFSAII (Michael W. Deem and Ramdas Pophale) SiO2 
 PCOD9122356
Probable space group: C 2
;
_chemical_formula_sum "Si O2"
_cell_formula_units_Z 32
_cell_length_a 11.528753
_cell_length_b 10.880680
_cell_length_c 22.208113
_cell_angle_alpha 90.000000
_cell_angle_beta 145.354880
_cell_angle_gamma 90.000000
_cell_volume 1583.704762
_symmetry_space_group_name_H-M "C 2"
_symmetry_group_IT_number 5
_symmetry_cell_setting 'monoclinic'
loop_
_space_group_symop_operation_xyz
x,y,z
-x,y,-z
1/2+x,1/2+y,z
1/2-x,1/2+y,-z
loop_
_atom_site_type_symbol
_atom_site_label
_atom_site_fract_x
_atom_site_fract_y
_atom_site_fract_z
Si Si1 0.663184 0.179270 0.120260
Si Si2 0.348898 0.367466 0.307535
Si Si3 0.205985 0.384894 0.119452
Si Si4 0.111916 0.775343 0.232931
Si Si5 0.093472 0.091351 0.596829
Si Si6 0.864854 0.222029 0.682517
Si Si7 0.293358 0.191870 0.518883
Si Si8 0.402429 0.990718 0.393384
O O1 0.592619 0.218920 0.157411
O O2 0.892526 0.229520 0.211481
O O3 0.691312 0.032769 0.120905
O O4 0.500000 0.221758 0.000000
O O5 0.221251 0.339423 0.194218
O O6 0.400857 0.508923 0.340760
O O7 0.230015 0.325996 0.315972
O O8 0.556142 0.293145 0.391830
O O9 0.404735 0.336948 0.168786
O O10 0.000000 0.341987 0.000000
O O11 0.195767 0.665623 0.312167
O O12 0.288449 0.879746 0.311613
O O13 0.000000 0.018131 0.500000
O O14 0.905959 0.183198 0.526362
O O15 0.777590 0.229045 0.578109
O O16 0.771681 0.093894 0.667820
O O17 0.420428 0.063999 0.567301
O O18 0.500000 0.956816 0.500000
#
# Coordination Sequence:
#
# PCOD9122356 Si02
#       8
#     4   4   4   4   4   4   4   4
#     4  11  24  44  69  94 128 175 228 283 332 407
#     4  11  23  40  63  94 136 175 216 274 334 406
#     4  11  25  46  68  92 131 180 226 284 344 394
#     4  12  23  41  69  99 128 172 228 276 335 410
#     4  12  24  36  60 100 136 169 215 274 333 407
#     4  10  19  42  64  94 127 178 219 269 339 399
#     4  10  21  38  63  94 136 177 212 264 340 405
#     4   9  20  35  64  94 130 171 216 261 328 412
#
# _framework density 20.205787000000001
#
# number of rings (size 3 to 8) (size 9 to 14) (size 15 to 20)
#    0.000    1.250    3.750    3.000    5.250    1.000 
#    0.000    0.000    0.000    3.750    0.000    0.000 
#    0.000    0.000    0.000    0.000    0.000    0.000 
#
# Total GULP energy -89323.849509 kJ/mol
# GULP energy per Si atom -5582.740594 kJ/mol
# Density = 2.015980 g / cm^3
# Si number density = 20.205787 Si / 1000 Ang^3
#
#
#
# Elastic Constant Matrix: (Units=GPa)
#
#
# Indices 1 2 3 4 5 6 
#
# 1 64.3242 7.3106 40.2048 0.0000 0.3796 0.0000
# 2 7.3106 50.4574 34.3862 0.0000 0.8113 0.0000
# 3 40.2048 34.3862 162.7323 0.0000 -10.6196 0.0000
# 4 0.0000 0.0000 0.0000 28.3955 0.0000 -5.1857
# 5 0.3796 0.8113 -10.6196 0.0000 34.8520 0.0000
# 6 0.0000 0.0000 0.0000 -5.1857 0.0000 10.0832
#
#
#
# Elastic Compliance Matrix: (Units=1/GPa)
#
#
# Indices 1 2 3 4 5 6 
#
# 1 0.018492 0.000626 -0.004811 0.000000 -0.001682 0.000000
# 2 0.000626 0.023321 -0.005222 0.000000 -0.002141 0.000000
# 3 -0.004811 -0.005222 0.008620 0.000000 0.002801 0.000000
# 4 0.000000 0.000000 0.000000 0.038867 0.000000 0.019989
# 5 -0.001682 -0.002141 0.002801 0.000000 0.029614 0.000000
# 6 0.000000 0.000000 0.000000 0.019989 0.000000 0.109455
#
#
# Mechanical properties :
#
#
# Convention : Reuss Voigt Hill
#
# Bulk Modulus (GPa) = 31.62606 49.03522 40.33064
# Shear Modulus (GPa) = 19.40069 27.70698 23.55384
#
# Velocity S-wave (km/s) = 3.10200 3.70704 3.41794
# Velocity P-wave (km/s) = 5.34002 6.53020 5.96487
#
# Compressibility (1/GPa) = 0.03161949
#
# Stress axis : x y z
#
# Youngs Moduli (GPa) = 54.07788 42.87913 116.01104
#
# Poissons Ratio (x) = -0.02685 0.55809
# Poissons Ratio (y) = -0.03387 0.60585
# Poissons Ratio (z) = 0.26015 0.22393
#
# Static dielectric constant tensor:
#      x y z
#    x 1.744110 0.000000 -0.023840 
#    y 0.000000 1.776180 0.000000 
#    z -0.023840 0.000000 1.700140 
# 
# From -- ./inp_files/68400.got.cif
#   From: 2010.05.17/outbox.cif.g08.bks.cpg/sg5_35_cif.got.tgz:68400.got - 2010.06.03 18:56:24.
