data_PCOD9122946
_publ_section_title
;
Structure prediction by ZEFSAII (Michael W. Deem and Ramdas Pophale) SiO2 
 PCOD9122946
Probable space group: C 2
;
_chemical_formula_sum "Si O2"
_cell_formula_units_Z 32
_cell_length_a 8.535056
_cell_length_b 27.001584
_cell_length_c 14.309892
_cell_angle_alpha 90.000000
_cell_angle_beta 27.898153
_cell_angle_gamma 90.000000
_cell_volume 1543.072203
_symmetry_space_group_name_H-M "C 2"
_symmetry_group_IT_number 5
_symmetry_cell_setting 'monoclinic'
loop_
_space_group_symop_operation_xyz
x,y,z
-x,y,-z
1/2+x,1/2+y,z
1/2-x,1/2+y,-z
loop_
_atom_site_type_symbol
_atom_site_label
_atom_site_fract_x
_atom_site_fract_y
_atom_site_fract_z
Si Si1 0.270388 0.094450 0.528113
Si Si2 0.827917 0.164915 0.874175
Si Si3 0.901622 0.325003 0.270687
Si Si4 0.841700 0.006733 0.683486
Si Si5 0.152388 0.588246 0.133827
Si Si6 0.753726 0.896945 0.785264
Si Si7 0.209072 0.309230 0.481849
Si Si8 0.823827 0.240765 0.187070
O O1 0.500000 0.092774 0.500000
O O2 0.434449 0.105723 0.339737
O O3 0.990315 0.133621 0.705040
O O4 0.094317 0.041773 0.606382
O O5 0.112166 0.200455 0.767202
O O6 0.500000 0.189376 0.000000
O O7 0.720838 0.129217 0.017512
O O8 0.500000 0.313503 0.500000
O O9 0.905949 0.380049 0.229723
O O10 0.040013 0.313185 0.298283
O O11 0.011589 0.289057 0.130318
O O12 0.525902 0.041830 0.823614
O O13 0.000000 0.993832 0.500000
O O14 0.798473 0.955410 0.759528
O O15 0.500000 0.573607 0.000000
O O16 0.072277 0.860488 0.630863
O O17 0.500000 0.883696 0.000000
O O18 0.455273 0.261601 0.359777
O O19 0.000000 0.306131 0.500000
O O20 0.000000 0.223541 0.000000
#
# Coordination Sequence:
#
# PCOD9122946 Si02
#       8
#     4   4   4   4   4   4   4   4
#     4  11  24  40  66  90 131 176 224 275 338 389
#     4  12  25  43  67  91 130 174 231 281 337 395
#     4   8  17  38  61  84 125 160 203 261 320 380
#     4  10  22  40  64  95 134 175 223 270 327 404
#     4  11  23  43  64  93 129 177 222 291 327 389
#     4  10  20  36  65  96 128 173 213 266 331 393
#     4  10  21  41  68  94 133 171 211 272 326 402
#     4  10  22  41  63  93 126 166 214 275 331 390
#
# _framework density 20.737850000000002
#
# number of rings (size 3 to 8) (size 9 to 14) (size 15 to 20)
#    0.000    2.000    2.500    3.000    1.750    3.000 
#    0.000    4.375    0.000    0.750    0.000    0.000 
#    0.000    0.000    0.000    0.000    0.000    0.000 
#
# Total GULP energy -89161.749852 kJ/mol
# GULP energy per Si atom -5572.609366 kJ/mol
# Density = 2.069065 g / cm^3
# Si number density = 20.737850 Si / 1000 Ang^3
#
#
#
# Elastic Constant Matrix: (Units=GPa)
#
#
# Indices 1 2 3 4 5 6 
#
# 1 95.1736 17.7573 31.6918 0.0000 -13.1255 0.0000
# 2 17.7573 79.0991 29.7253 0.0000 -0.8046 0.0000
# 3 31.6918 29.7253 57.2336 0.0000 13.0473 0.0000
# 4 0.0000 0.0000 0.0000 14.3371 0.0000 1.8471
# 5 -13.1255 -0.8046 13.0473 0.0000 24.9143 0.0000
# 6 0.0000 0.0000 0.0000 1.8471 0.0000 23.3563
#
#
#
# Elastic Compliance Matrix: (Units=1/GPa)
#
#
# Indices 1 2 3 4 5 6 
#
# 1 0.017179 0.001614 -0.014110 0.000000 0.016492 0.000000
# 2 0.001614 0.016534 -0.011124 0.000000 0.007210 0.000000
# 3 -0.014110 -0.011124 0.037292 0.000000 -0.027322 0.000000
# 4 0.000000 0.000000 0.000000 0.070467 0.000000 -0.005573
# 5 0.016492 0.007210 -0.027322 0.000000 0.063367 0.000000
# 6 0.000000 0.000000 0.000000 -0.005573 0.000000 0.043256
#
#
# Mechanical properties :
#
#
# Convention : Reuss Voigt Hill
#
# Bulk Modulus (GPa) = 42.08237 43.31723 42.69980
# Shear Modulus (GPa) = 16.48770 22.67701 19.58235
#
# Velocity S-wave (km/s) = 2.82273 3.31041 3.07625
# Velocity P-wave (km/s) = 5.56420 5.96197 5.76652
#
# Compressibility (1/GPa) = 0.02376292
#
# Stress axis : x y z
#
# Youngs Moduli (GPa) = 58.21084 60.48162 26.81575
#
# Poissons Ratio (x) = -0.09760 0.37837
# Poissons Ratio (y) = -0.09394 0.29831
# Poissons Ratio (z) = 0.82136 0.67282
#
# Static dielectric constant tensor:
#      x y z
#    x 1.801630 0.000000 -0.004410 
#    y 0.000000 1.740290 0.000000 
#    z -0.004410 0.000000 1.806400 
# 
# From -- ./inp_files/51672.got.cif
#   From: 2010.05.17/outbox.cif.g08.bks.cpg/sg5_26_cif.got.tgz:51672.got - 2010.06.03 18:56:24.
