data_PCOD9122268
_publ_section_title
;
Structure prediction by ZEFSAII (Michael W. Deem and Ramdas Pophale) SiO2 
 PCOD9122268
Probable space group: C 2
;
_chemical_formula_sum "Si O2"
_cell_formula_units_Z 26
_cell_length_a 20.902809
_cell_length_b 14.220645
_cell_length_c 5.133949
_cell_angle_alpha 90.000000
_cell_angle_beta 123.010033
_cell_angle_gamma 90.000000
_cell_volume 1279.727502
_symmetry_space_group_name_H-M "C 2"
_symmetry_group_IT_number 5
_symmetry_cell_setting 'monoclinic'
loop_
_space_group_symop_operation_xyz
x,y,z
-x,y,-z
1/2+x,1/2+y,z
1/2-x,1/2+y,-z
loop_
_atom_site_type_symbol
_atom_site_label
_atom_site_fract_x
_atom_site_fract_y
_atom_site_fract_z
Si Si1 0.570694 0.634440 0.473944
Si Si2 0.843855 0.376606 0.772771
Si Si3 0.000000 0.984437 0.000000
Si Si4 0.292226 0.760849 0.148153
Si Si5 0.500000 0.799753 0.000000
Si Si6 0.000000 0.857639 0.500000
Si Si7 0.879494 0.695927 0.298895
Si Si8 0.588003 0.073246 0.127586
O O1 0.500000 0.604916 0.500000
O O2 0.651237 0.669765 0.763217
O O3 0.568450 0.554192 0.246741
O O4 0.541069 0.731475 0.290025
O O5 0.810964 0.318353 0.454533
O O6 0.850613 0.488110 0.744692
O O7 0.933970 0.353888 0.999001
O O8 0.804603 0.334703 0.941039
O O9 0.019044 0.919606 0.795936
O O10 0.206910 0.722764 0.957923
O O11 0.929720 0.789998 0.410751
O O12 0.886934 0.645209 0.592187
O O13 0.910950 0.626156 0.146007
O O14 0.500000 0.045187 0.000000
#
# Coordination Sequence:
#
# PCOD9122268 Si02
#       8
#     4   4   2   4   2   2   4   4
#     4  10  19  40  64  96 131 168 214 264 341 390
#     4  11  22  40  67 105 133 164 221 272 338 407
#     4  11  24  40  67  98 118 172 237 276 306 389
#     4  11  25  43  66 100 138 179 206 275 353 405
#     4   9  18  32  65  92 130 170 197 268 328 411
#     4  12  24  46  68  86 126 182 232 276 316 384
#     4  12  26  48  67  93 139 181 226 273 340 397
#     4  12  23  45  74 101 129 176 230 281 332 400
#
# _framework density 20.316825000000001
#
# number of rings (size 3 to 8) (size 9 to 14) (size 15 to 20)
#    0.000    0.923    4.615    2.769    0.000    0.000 
#    8.308    0.000    0.000    0.000    0.000    0.000 
#    0.000    0.000    0.000    0.000    0.000    0.000 
#
# Total GULP energy -72531.853861 kJ/mol
# GULP energy per Si atom -5579.373374 kJ/mol
# Density = 2.027058 g / cm^3
# Si number density = 20.316825 Si / 1000 Ang^3
#
#
#
# Elastic Constant Matrix: (Units=GPa)
#
#
# Indices 1 2 3 4 5 6 
#
# 1 77.5742 25.1857 32.0943 0.0000 7.9244 0.0000
# 2 25.1857 103.4660 32.9423 0.0000 -0.6125 0.0000
# 3 32.0943 32.9423 83.4553 0.0000 -2.8865 0.0000
# 4 0.0000 0.0000 0.0000 21.3503 0.0000 -15.9322
# 5 7.9244 -0.6125 -2.8865 0.0000 45.7644 0.0000
# 6 0.0000 0.0000 0.0000 -15.9322 0.0000 2.5521
#
#
#
# Elastic Compliance Matrix: (Units=1/GPa)
#
#
# Indices 1 2 3 4 5 6 
#
# 1 0.016197 -0.002223 -0.005461 0.000000 -0.003179 0.000000
# 2 -0.002223 0.011360 -0.003619 0.000000 0.000309 0.000000
# 3 -0.005461 -0.003619 0.015576 0.000000 0.001880 0.000000
# 4 0.000000 0.000000 0.000000 -0.012802 0.000000 -0.079922
# 5 -0.003179 0.000309 0.001880 0.000000 0.022524 0.000000
# 6 0.000000 0.000000 0.000000 -0.079922 0.000000 -0.107101
#
#
# Mechanical properties :
#
#
# Convention : Reuss Voigt Hill
#
# Bulk Modulus (GPa) = 48.71508 49.43778 49.07643
# Shear Modulus (GPa) = -201.62933 25.55157 -88.03888
#
# Velocity S-wave (km/s) = -9.97286 3.55019 -6.58992
# Velocity P-wave (km/s) = 10.42022 6.41805 5.80472
#
# Compressibility (1/GPa) = 0.02052752
#
# Stress axis : x y z
#
# Youngs Moduli (GPa) = 61.74096 88.02803 64.20062
#
# Poissons Ratio (x) = 0.19565 0.35062
# Poissons Ratio (y) = 0.13722 0.23232
# Poissons Ratio (z) = 0.33719 0.31855
#
# Static dielectric constant tensor:
#      x y z
#    x 1.782670 0.000000 0.022360 
#    y 0.000000 1.745700 0.000000 
#    z 0.022360 0.000000 1.723760 
# 
# From -- ./inp_files/10364.got.cif
#   From: 2010.05.17/outbox.cif.g08.bks.cpg/sg5_6_cif.got.tgz:10364.got - 2010.06.03 18:56:24.
