data_PCOD9122387
_publ_section_title
;
Structure prediction by ZEFSAII (Michael W. Deem and Ramdas Pophale) SiO2 
 PCOD9122387
Probable space group: C 2
;
_chemical_formula_sum "Si O2"
_cell_formula_units_Z 28
_cell_length_a 22.233426
_cell_length_b 8.819791
_cell_length_c 7.171578
_cell_angle_alpha 90.000000
_cell_angle_beta 128.127030
_cell_angle_gamma 90.000000
_cell_volume 1106.260882
_symmetry_space_group_name_H-M "C 2"
_symmetry_group_IT_number 5
_symmetry_cell_setting 'monoclinic'
loop_
_space_group_symop_operation_xyz
x,y,z
-x,y,-z
1/2+x,1/2+y,z
1/2-x,1/2+y,-z
loop_
_atom_site_type_symbol
_atom_site_label
_atom_site_fract_x
_atom_site_fract_y
_atom_site_fract_z
Si Si1 0.239100 0.572430 0.780091
Si Si2 0.900258 0.694626 0.708071
Si Si3 0.175008 0.261404 0.773949
Si Si4 0.451810 0.255173 0.253529
Si Si5 0.017719 0.203347 0.315382
Si Si6 0.909157 0.462612 0.076859
Si Si7 0.386740 0.492809 0.904660
O O1 0.166230 0.660471 0.564450
O O2 0.216778 0.397090 0.750590
O O3 0.309686 0.586032 0.769581
O O4 0.270372 0.633001 0.038004
O O5 0.984780 0.705055 0.778729
O O6 0.890638 0.870941 0.749252
O O7 0.888776 0.565663 0.853157
O O8 0.109553 0.200342 0.505376
O O9 0.141472 0.341408 0.902305
O O10 0.500000 0.336974 0.500000
O O11 0.420055 0.093996 0.251536
O O12 0.387205 0.370560 0.073813
O O13 0.000000 0.187393 0.500000
O O14 0.986900 0.368066 0.193277
O O15 0.962906 0.089262 0.096511
#
# Coordination Sequence:
#
# PCOD9122387 Si02
#       7
#     4   4   4   4   4   4   4
#     4  12  27  46  67 109 151 194 243 296 376 433
#     4  11  27  45  69 109 144 195 238 297 381 432
#     4  11  26  43  73 104 147 198 248 299 358 439
#     4  11  23  43  74 100 136 191 243 304 350 436
#     4  10  19  43  69 102 133 192 245 300 341 425
#     4  10  20  42  71  99 141 185 244 289 359 423
#     4  11  24  43  73 101 146 181 243 304 358 426
#
# _framework density 25.310486999999998
#
# number of rings (size 3 to 8) (size 9 to 14) (size 15 to 20)
#    0.000    1.143    2.857    5.143    8.000    0.000 
#    0.000   10.000    0.000    0.000    0.000    0.000 
#    0.000    0.000    0.000    0.000    0.000    0.000 
#
# Total GULP energy -78060.103893 kJ/mol
# GULP energy per Si atom -5575.721707 kJ/mol
# Density = 2.525288 g / cm^3
# Si number density = 25.310487 Si / 1000 Ang^3
#
#
#
# Elastic Constant Matrix: (Units=GPa)
#
#
# Indices 1 2 3 4 5 6 
#
# 1 78.0975 8.8655 44.0979 0.0000 -2.7001 0.0000
# 2 8.8655 112.1743 38.7792 0.0000 12.7206 0.0000
# 3 44.0979 38.7792 120.9723 0.0000 32.3212 0.0000
# 4 0.0000 0.0000 0.0000 51.1990 0.0000 7.7438
# 5 -2.7001 12.7206 32.3212 0.0000 29.5314 0.0000
# 6 0.0000 0.0000 0.0000 7.7438 0.0000 41.4091
#
#
#
# Elastic Compliance Matrix: (Units=1/GPa)
#
#
# Indices 1 2 3 4 5 6 
#
# 1 0.019285 0.000705 -0.010806 0.000000 0.013286 0.000000
# 2 0.000705 0.010078 -0.003314 0.000000 -0.000650 0.000000
# 3 -0.010806 -0.003314 0.018585 0.000000 -0.019901 0.000000
# 4 0.000000 0.000000 0.000000 0.020100 0.000000 -0.003759
# 5 0.013286 -0.000650 -0.019901 0.000000 0.057138 0.000000
# 6 0.000000 0.000000 0.000000 -0.003759 0.000000 0.024852
#
#
# Mechanical properties :
#
#
# Convention : Reuss Voigt Hill
#
# Bulk Modulus (GPa) = 47.35220 54.96991 51.16105
# Shear Modulus (GPa) = 27.18736 39.06134 33.12435
#
# Velocity S-wave (km/s) = 3.28098 3.93273 3.62155
# Velocity P-wave (km/s) = 5.75346 6.51055 6.14368
#
# Compressibility (1/GPa) = 0.02111834
#
# Stress axis : x y z
#
# Youngs Moduli (GPa) = 51.85260 99.22247 53.80701
#
# Poissons Ratio (x) = -0.06993 0.58143
# Poissons Ratio (y) = -0.03654 0.17832
# Poissons Ratio (z) = 0.56031 0.32883
#
# Static dielectric constant tensor:
#      x y z
#    x 2.058750 0.000000 -0.024090 
#    y 0.000000 1.976040 0.000000 
#    z -0.024090 0.000000 1.995080 
# 
# From -- ./inp_files/31678.got.cif
#   From: 2010.05.17/outbox.cif.g08.bks.cpg/sg5_16_cif.got.tgz:31678.got - 2010.06.03 18:56:24.
