data_PCOD9122137
_publ_section_title
;
Structure prediction by ZEFSAII (Michael W. Deem and Ramdas Pophale) SiO2 
 PCOD9122137
Probable space group: C 2
;
_chemical_formula_sum "Si O2"
_cell_formula_units_Z 32
_cell_length_a 20.259746
_cell_length_b 8.911525
_cell_length_c 24.984563
_cell_angle_alpha 90.000000
_cell_angle_beta 159.314122
_cell_angle_gamma 90.000000
_cell_volume 1593.429703
_symmetry_space_group_name_H-M "C 2"
_symmetry_group_IT_number 5
_symmetry_cell_setting 'monoclinic'
loop_
_space_group_symop_operation_xyz
x,y,z
-x,y,-z
1/2+x,1/2+y,z
1/2-x,1/2+y,-z
loop_
_atom_site_type_symbol
_atom_site_label
_atom_site_fract_x
_atom_site_fract_y
_atom_site_fract_z
Si Si1 0.377223 0.796010 0.857872
Si Si2 0.709466 0.842912 0.858001
Si Si3 0.260979 0.315891 0.672237
Si Si4 0.433739 0.909751 0.366390
Si Si5 0.036824 0.338039 0.233525
Si Si6 0.032492 0.751887 0.460746
Si Si7 0.521996 0.570603 0.880975
Si Si8 0.530839 0.066974 0.907667
O O1 0.395681 0.669718 0.825859
O O2 0.160445 0.825190 0.707520
O O3 0.479586 0.943194 0.912911
O O4 0.500000 0.739119 0.000000
O O5 0.675902 0.865298 0.769738
O O6 0.517704 0.846090 0.746036
O O7 0.821523 0.690120 0.958689
O O8 0.824165 0.985961 0.967386
O O9 0.183312 0.389478 0.668026
O O10 0.415229 0.434732 0.771276
O O11 0.346550 0.161411 0.754842
O O12 0.107943 0.301487 0.510540
O O13 0.515201 0.078940 0.428045
O O14 0.261641 0.318442 0.395859
O O15 0.945572 0.473492 0.129677
O O16 0.933160 0.192326 0.129909
O O17 0.000000 0.757760 0.500000
#
# Coordination Sequence:
#
# PCOD9122137 Si02
#       8
#     4   4   4   4   4   4   4   4
#     4  11  22  37  63  98 123 154 207 275 322 361
#     4  11  25  39  63  96 129 173 208 255 315 385
#     4  10  20  37  63  90 121 162 207 260 320 365
#     4  11  20  38  63  93 123 161 215 261 310 376
#     4  11  22  44  65  91 129 172 214 253 313 391
#     4  12  19  41  71  92 116 165 218 264 311 376
#     4  10  19  38  67  86 122 167 211 257 303 384
#     4  10  24  40  60  93 128 167 203 262 327 366
#
# _framework density 20.082466
#
# number of rings (size 3 to 8) (size 9 to 14) (size 15 to 20)
#    0.000    1.250    6.250    1.500    1.750    3.000 
#    2.250    0.000    2.750    0.000    0.000    0.000 
#    0.000    0.000    0.000    0.000    0.000    0.000 
#
# Total GULP energy -89166.918367 kJ/mol
# GULP energy per Si atom -5572.932398 kJ/mol
# Density = 2.003676 g / cm^3
# Si number density = 20.082466 Si / 1000 Ang^3
#
#
#
# Elastic Constant Matrix: (Units=GPa)
#
#
# Indices 1 2 3 4 5 6 
#
# 1 37.9976 12.2098 28.9880 0.0010 -2.6099 -0.0004
# 2 12.2098 38.7226 6.2109 0.0051 9.1570 0.0011
# 3 28.9880 6.2109 101.1595 0.0188 -3.1281 0.0017
# 4 0.0010 0.0051 0.0188 25.9202 0.0005 -3.2528
# 5 -2.6099 9.1570 -3.1281 0.0005 27.7778 -0.0012
# 6 -0.0004 0.0011 0.0017 -3.2528 -0.0012 10.7382
#
#
#
# Elastic Compliance Matrix: (Units=1/GPa)
#
#
# Indices 1 2 3 4 5 6 
#
# 1 0.038255 -0.011970 -0.010029 0.000009 0.006411 0.000008
# 2 -0.011970 0.032168 0.001096 -0.000007 -0.011605 -0.000008
# 3 -0.010029 0.001096 0.012696 -0.000010 0.000126 -0.000005
# 4 0.000009 -0.000007 -0.000010 0.040104 0.000002 0.012148
# 5 0.006411 -0.011605 0.000126 0.000002 0.040442 0.000007
# 6 0.000008 -0.000008 -0.000005 0.012148 0.000007 0.096806
#
#
# Mechanical properties :
#
#
# Convention : Reuss Voigt Hill
#
# Bulk Modulus (GPa) = 24.20540 30.29967 27.25254
# Shear Modulus (GPa) = 15.82040 21.58530 18.70285
#
# Velocity S-wave (km/s) = 2.80977 3.28202 3.05504
# Velocity P-wave (km/s) = 4.75453 5.42979 5.10334
#
# Compressibility (1/GPa) = 0.04131309
#
# Stress axis : x y z
#
# Youngs Moduli (GPa) = 26.14027 31.08726 78.76546
#
# Poissons Ratio (x) = 0.37211 0.78995
# Poissons Ratio (y) = 0.31289 -0.08634
# Poissons Ratio (z) = 0.26217 -0.03408
#
# Static dielectric constant tensor:
#      x y z
#    x 1.731940 0.000000 0.043070 
#    y 0.000000 1.722990 0.000000 
#    z 0.043070 0.000000 1.775720 
# 
# From -- ./inp_files/71108.got.cif
#   From: 2010.05.17/outbox.cif.g08.bks.cpg/sg5_36_cif.got.tgz:71108.got - 2010.06.03 18:56:24.
