data_PCOD9122230
_publ_section_title
;
Structure prediction by ZEFSAII (Michael W. Deem and Ramdas Pophale) SiO2 
 PCOD9122230
Probable space group: C 2
;
_chemical_formula_sum "Si O2"
_cell_formula_units_Z 28
_cell_length_a 8.823771
_cell_length_b 15.500330
_cell_length_c 18.900145
_cell_angle_alpha 90.000000
_cell_angle_beta 149.833408
_cell_angle_gamma 90.000000
_cell_volume 1299.002940
_symmetry_space_group_name_H-M "C 2"
_symmetry_group_IT_number 5
_symmetry_cell_setting 'monoclinic'
loop_
_space_group_symop_operation_xyz
x,y,z
-x,y,-z
1/2+x,1/2+y,z
1/2-x,1/2+y,-z
loop_
_atom_site_type_symbol
_atom_site_label
_atom_site_fract_x
_atom_site_fract_y
_atom_site_fract_z
Si Si1 0.393460 0.205200 0.304016
Si Si2 0.574110 0.039350 0.446240
Si Si3 0.363857 0.250268 0.139183
Si Si4 0.721837 0.146593 0.025618
Si Si5 0.260999 0.969946 0.049976
Si Si6 0.603548 0.412382 0.684932
Si Si7 0.980938 0.926015 0.796047
O O1 0.603399 0.135709 0.427877
O O2 0.414928 0.190287 0.227929
O O3 0.439868 0.308195 0.336353
O O4 0.047775 0.179049 0.183735
O O5 0.500000 0.044765 0.500000
O O6 0.282139 0.992746 0.294587
O O7 0.846817 0.972011 0.547321
O O8 0.603786 0.326701 0.247062
O O9 0.410160 0.219060 0.078782
O O10 0.000000 0.271747 0.000000
O O11 0.500000 0.124332 0.000000
O O12 0.747336 0.068057 0.980637
O O13 0.568877 0.938846 0.209244
O O14 0.000000 0.953663 0.000000
O O15 0.203902 0.922782 0.952126
O O16 0.610947 0.443714 0.770698
#
# Coordination Sequence:
#
# PCOD9122230 Si02
#       7
#     4   4   4   4   4   4   4
#     4  10  20  42  68  92 140 173 218 280 326 394
#     4  10  22  41  69  95 132 184 225 268 324 397
#     4   9  19  36  63  97 132 167 219 273 338 384
#     4  11  22  36  66 101 127 172 222 277 338 393
#     4  12  23  38  66  99 132 168 219 281 335 394
#     4  10  23  42  67  98 132 181 221 267 339 393
#     4  10  19  39  68  93 129 170 217 267 327 403
#
# _framework density 21.554994000000001
#
# number of rings (size 3 to 8) (size 9 to 14) (size 15 to 20)
#    0.000    1.714    1.429    5.143    2.000    2.286 
#    2.571    2.143    6.286    0.000    0.000    0.000 
#    0.000    0.000    0.000    0.000    0.000    0.000 
#
# Total GULP energy -78022.723686 kJ/mol
# GULP energy per Si atom -5573.051692 kJ/mol
# Density = 2.150593 g / cm^3
# Si number density = 21.554994 Si / 1000 Ang^3
#
#
#
# Elastic Constant Matrix: (Units=GPa)
#
#
# Indices 1 2 3 4 5 6 
#
# 1 29.8229 18.8523 18.0324 0.0005 9.9971 0.0003
# 2 18.8523 122.8678 54.6482 -0.0006 9.5528 -0.0002
# 3 18.0324 54.6482 75.0262 0.0014 4.9275 0.0006
# 4 0.0005 -0.0006 0.0014 34.7798 -0.0002 -8.2176
# 5 9.9971 9.5528 4.9275 -0.0002 18.0566 0.0000
# 6 0.0003 -0.0002 0.0006 -8.2176 0.0000 29.5654
#
#
#
# Elastic Compliance Matrix: (Units=1/GPa)
#
#
# Indices 1 2 3 4 5 6 
#
# 1 0.047584 -0.001617 -0.008742 -0.000001 -0.023104 -0.000001
# 2 -0.001617 0.012392 -0.008417 0.000001 -0.003364 0.000000
# 3 -0.008742 -0.008417 0.021332 -0.000001 0.003471 -0.000001
# 4 -0.000001 0.000001 -0.000001 0.030773 0.000000 0.008553
# 5 -0.023104 -0.003364 0.003471 0.000000 0.069006 0.000000
# 6 -0.000001 0.000000 -0.000001 0.008553 0.000000 0.036201
#
#
# Mechanical properties :
#
#
# Convention : Reuss Voigt Hill
#
# Bulk Modulus (GPa) = 22.85293 45.64251 34.24772
# Shear Modulus (GPa) = 18.55815 25.55930 22.05873
#
# Velocity S-wave (km/s) = 2.93741 3.44724 3.20249
# Velocity P-wave (km/s) = 4.70422 6.08814 5.44037
#
# Compressibility (1/GPa) = 0.04375806
#
# Stress axis : x y z
#
# Youngs Moduli (GPa) = 21.01558 80.69776 46.87727
#
# Poissons Ratio (x) = 0.13046 0.40978
# Poissons Ratio (y) = 0.03398 0.39455
# Poissons Ratio (z) = 0.18371 0.67920
#
# Static dielectric constant tensor:
#      x y z
#    x 1.798450 0.000000 -0.002550 
#    y 0.000000 1.967650 0.000000 
#    z -0.002550 0.000000 1.828990 
# 
# From -- ./inp_files/64703.got.cif
#   From: 2010.05.17/outbox.cif.g08.bks.cpg/sg5_33_cif.got.tgz:64703.got - 2010.06.03 18:56:24.
