data_PCOD9122675
_publ_section_title
;
Structure prediction by ZEFSAII (Michael W. Deem and Ramdas Pophale) SiO2 
 PCOD9122675
Probable space group: C 2
;
_chemical_formula_sum "Si O2"
_cell_formula_units_Z 28
_cell_length_a 8.192574
_cell_length_b 20.817149
_cell_length_c 9.994933
_cell_angle_alpha 90.000000
_cell_angle_beta 123.468390
_cell_angle_gamma 90.000000
_cell_volume 1421.957425
_symmetry_space_group_name_H-M "C 2"
_symmetry_group_IT_number 5
_symmetry_cell_setting 'monoclinic'
loop_
_space_group_symop_operation_xyz
x,y,z
-x,y,-z
1/2+x,1/2+y,z
1/2-x,1/2+y,-z
loop_
_atom_site_type_symbol
_atom_site_label
_atom_site_fract_x
_atom_site_fract_y
_atom_site_fract_z
Si Si1 0.232010 0.982540 0.602664
Si Si2 0.295826 0.910684 0.370070
Si Si3 0.123067 0.448582 0.894121
Si Si4 0.676172 0.583761 0.975918
Si Si5 0.316413 0.624560 0.328704
Si Si6 0.051346 0.700201 0.865420
Si Si7 0.084453 0.843244 0.885952
O O1 0.288161 0.965991 0.476905
O O2 0.387507 0.946739 0.769850
O O3 0.000000 0.967869 0.500000
O O4 0.260033 0.056614 0.650432
O O5 0.500000 0.874783 0.500000
O O6 0.305657 0.939895 0.226854
O O7 0.096185 0.870161 0.282956
O O8 0.199429 0.517758 0.979171
O O9 0.232254 0.391373 0.021794
O O10 0.632251 0.608764 0.804293
O O11 0.500000 0.571105 0.000000
O O12 0.801397 0.642098 0.093934
O O13 0.500000 0.641434 0.500000
O O14 0.157590 0.679199 0.284126
O O15 0.128617 0.770338 0.863664
O O16 0.000000 0.699845 0.000000
O O17 0.000000 0.839956 0.000000
#
# Coordination Sequence:
#
# PCOD9122675 Si02
#       7
#     4   4   4   4   4   4   4
#     4  10  21  35  54  86 124 150 193 244 298 354
#     4   9  19  35  54  87 119 156 193 246 297 345
#     4  10  20  35  59  90 114 153 201 249 295 343
#     4  11  22  37  60  86 118 150 199 250 293 351
#     4  10  22  37  58  88 119 158 195 239 305 348
#     4   9  19  39  58  84 119 156 201 244 283 357
#     4   9  18  34  61  87 115 158 205 241 289 354
#
# _framework density 19.691167
#
# number of rings (size 3 to 8) (size 9 to 14) (size 15 to 20)
#    0.000    2.286    1.429    1.286    8.000    0.571 
#    0.000    3.571    0.000    0.000    0.000    0.000 
#    0.000    0.000    0.000    0.000    0.000    0.000 
#
# Total GULP energy -77977.750748 kJ/mol
# GULP energy per Si atom -5569.839339 kJ/mol
# Density = 1.964635 g / cm^3
# Si number density = 19.691167 Si / 1000 Ang^3
#
#
#
# Elastic Constant Matrix: (Units=GPa)
#
#
# Indices 1 2 3 4 5 6 
#
# 1 52.9707 36.1502 33.1710 0.0000 7.3681 0.0000
# 2 36.1502 118.3388 58.6540 0.0000 21.0868 0.0000
# 3 33.1710 58.6540 124.6850 0.0000 31.1480 0.0000
# 4 0.0000 0.0000 0.0000 14.2659 0.0000 3.5079
# 5 7.3681 21.0868 31.1480 0.0000 40.7269 0.0000
# 6 0.0000 0.0000 0.0000 3.5079 0.0000 22.4809
#
#
#
# Elastic Compliance Matrix: (Units=1/GPa)
#
#
# Indices 1 2 3 4 5 6 
#
# 1 0.025432 -0.005890 -0.004460 0.000000 0.001859 0.000000
# 2 -0.005890 0.012538 -0.003679 0.000000 -0.002613 0.000000
# 3 -0.004460 -0.003679 0.012683 0.000000 -0.006989 0.000000
# 4 0.000000 0.000000 0.000000 0.072894 0.000000 -0.011374
# 5 0.001859 -0.002613 -0.006989 0.000000 0.030915 0.000000
# 6 0.000000 0.000000 0.000000 -0.011374 0.000000 0.046257
#
#
# Mechanical properties :
#
#
# Convention : Reuss Voigt Hill
#
# Bulk Modulus (GPa) = 44.25349 61.32723 52.79036
# Shear Modulus (GPa) = 21.15878 26.69601 23.92739
#
# Velocity S-wave (km/s) = 3.28156 3.68603 3.48966
# Velocity P-wave (km/s) = 6.07295 7.02338 6.56539
#
# Compressibility (1/GPa) = 0.02259709
#
# Stress axis : x y z
#
# Youngs Moduli (GPa) = 39.32045 79.75460 78.84586
#
# Poissons Ratio (x) = 0.46975 0.35163
# Poissons Ratio (y) = 0.23159 0.29004
# Poissons Ratio (z) = 0.17536 0.29339
#
# Static dielectric constant tensor:
#      x y z
#    x 1.742860 0.000000 0.035440 
#    y 0.000000 1.682590 0.000000 
#    z 0.035440 0.000000 1.739090 
# 
# From -- ./inp_files/27994.got.cif
#   From: 2010.05.17/outbox.cif.g08.bks.cpg/sg5_14_cif.got.tgz:27994.got - 2010.06.03 18:56:24.
