data_PCOD9122472
_publ_section_title
;
Structure prediction by ZEFSAII (Michael W. Deem and Ramdas Pophale) SiO2 
 PCOD9122472
Probable space group: C 2
;
_chemical_formula_sum "Si O2"
_cell_formula_units_Z 22
_cell_length_a 11.538071
_cell_length_b 20.645777
_cell_length_c 5.267665
_cell_angle_alpha 90.000000
_cell_angle_beta 63.541610
_cell_angle_gamma 90.000000
_cell_volume 1123.390843
_symmetry_space_group_name_H-M "C 2"
_symmetry_group_IT_number 5
_symmetry_cell_setting 'monoclinic'
loop_
_space_group_symop_operation_xyz
x,y,z
-x,y,-z
1/2+x,1/2+y,z
1/2-x,1/2+y,-z
loop_
_atom_site_type_symbol
_atom_site_label
_atom_site_fract_x
_atom_site_fract_y
_atom_site_fract_z
Si Si1 0.145393 0.193420 0.386000
Si Si2 0.281402 0.773640 0.176298
Si Si3 0.500000 0.225184 0.500000
Si Si4 0.844113 0.424460 0.147211
Si Si5 0.846583 0.493344 0.642231
Si Si6 0.613678 0.113819 0.720982
O O1 0.166908 0.233724 0.627674
O O2 0.257913 0.139065 0.265577
O O3 0.000000 0.166932 0.500000
O O4 0.163641 0.241497 0.131740
O O5 0.126672 0.765574 0.315976
O O6 0.314200 0.848949 0.152005
O O7 0.541780 0.176802 0.682970
O O8 0.791095 0.452092 0.463272
O O9 0.795157 0.468760 0.961259
O O10 0.000000 0.429084 0.000000
O O11 0.842110 0.567764 0.553926
O O12 0.000000 0.479168 0.500000
O O13 0.500000 0.080337 0.000000
#
# Coordination Sequence:
#
# PCOD9122472 Si02
#       6
#     4   4   2   4   4   4
#     4  11  23  37  60  91 123 162 193 253 311 366
#     4  11  22  39  60  88 128 154 209 242 312 366
#     4  10  22  36  62  94 116 170 196 264 300 370
#     4  10  20  34  54  85 115 158 193 243 300 351
#     4  10  20  33  56  85 114 150 201 251 292 345
#     4  11  20  37  60  91 125 152 211 253 310 358
#
# _framework density 19.583569000000001
#
# number of rings (size 3 to 8) (size 9 to 14) (size 15 to 20)
#    0.000    1.455    2.727    4.364    0.000    1.455 
#    0.000    0.000    2.000    0.000    9.455    0.000 
#    0.000    0.000    0.000    0.000    0.000    0.000 
#
# Total GULP energy -61392.488899 kJ/mol
# GULP energy per Si atom -5581.135354 kJ/mol
# Density = 1.953900 g / cm^3
# Si number density = 19.583569 Si / 1000 Ang^3
#
#
#
# Elastic Constant Matrix: (Units=GPa)
#
#
# Indices 1 2 3 4 5 6 
#
# 1 113.1541 37.3396 42.9574 0.0000 -3.6699 0.0000
# 2 37.3396 99.3619 38.4393 0.0000 12.2018 0.0000
# 3 42.9574 38.4393 76.0872 0.0000 26.0196 0.0000
# 4 0.0000 0.0000 0.0000 18.1212 0.0000 11.2081
# 5 -3.6699 12.2018 26.0196 0.0000 31.0035 0.0000
# 6 0.0000 0.0000 0.0000 11.2081 0.0000 28.9842
#
#
#
# Elastic Compliance Matrix: (Units=1/GPa)
#
#
# Indices 1 2 3 4 5 6 
#
# 1 0.014106 -0.002622 -0.010608 0.000000 0.011604 0.000000
# 2 -0.002622 0.013003 -0.004533 0.000000 -0.001623 0.000000
# 3 -0.010608 -0.004533 0.029791 0.000000 -0.024474 0.000000
# 4 0.000000 0.000000 0.000000 0.072532 0.000000 -0.028048
# 5 0.011604 -0.001623 -0.024474 0.000000 0.054806 0.000000
# 6 0.000000 0.000000 0.000000 -0.028048 0.000000 0.045348
#
#
# Mechanical properties :
#
#
# Convention : Reuss Voigt Hill
#
# Bulk Modulus (GPa) = 46.78689 58.45286 52.61988
# Shear Modulus (GPa) = 18.36633 26.94624 22.65629
#
# Velocity S-wave (km/s) = 3.06575 3.71342 3.40502
# Velocity P-wave (km/s) = 6.03941 6.94973 6.51050
#
# Compressibility (1/GPa) = 0.02137351
#
# Stress axis : x y z
#
# Youngs Moduli (GPa) = 70.89061 76.90631 33.56696
#
# Poissons Ratio (x) = 0.20168 0.35606
# Poissons Ratio (y) = 0.18590 0.15217
# Poissons Ratio (z) = 0.75198 0.34865
#
# Static dielectric constant tensor:
#      x y z
#    x 1.689480 0.000000 0.025620 
#    y 0.000000 1.683580 0.000000 
#    z 0.025620 0.000000 1.754600 
# 
# From -- ./inp_files/5113.got.cif
#   From: 2010.05.17/outbox.cif.g08.bks.cpg/sg5_3_cif.got.tgz:5113.got - 2010.06.03 18:56:24.
