data_PCOD9122529
_publ_section_title
;
Structure prediction by ZEFSAII (Michael W. Deem and Ramdas Pophale) SiO2 
 PCOD9122529
Probable space group: C 2
;
_chemical_formula_sum "Si O2"
_cell_formula_units_Z 28
_cell_length_a 9.079598
_cell_length_b 9.869912
_cell_length_c 19.472635
_cell_angle_alpha 90.000000
_cell_angle_beta 129.909476
_cell_angle_gamma 90.000000
_cell_volume 1338.546383
_symmetry_space_group_name_H-M "C 2"
_symmetry_group_IT_number 5
_symmetry_cell_setting 'monoclinic'
loop_
_space_group_symop_operation_xyz
x,y,z
-x,y,-z
1/2+x,1/2+y,z
1/2-x,1/2+y,-z
loop_
_atom_site_type_symbol
_atom_site_label
_atom_site_fract_x
_atom_site_fract_y
_atom_site_fract_z
Si Si1 0.198271 0.456100 0.194662
Si Si2 0.339966 0.772838 0.086633
Si Si3 0.301731 0.273742 0.805338
Si Si4 0.905834 0.263789 0.625727
Si Si5 0.500000 0.406118 0.500000
Si Si6 0.000000 0.323726 0.500000
Si Si7 0.094167 0.966055 0.374273
Si Si8 0.660037 0.457003 0.913369
O O1 0.168160 0.614921 0.208166
O O2 0.402497 0.403973 0.284586
O O3 0.209543 0.458273 0.115529
O O4 0.034241 0.351185 0.165692
O O5 0.209546 0.771569 0.115530
O O6 0.369927 0.614921 0.075052
O O7 0.250003 0.864921 0.000001
O O8 0.465762 0.378656 0.834311
O O9 0.097507 0.325870 0.715414
O O10 0.698638 0.328256 0.575054
O O11 0.945697 0.255379 0.555909
O O12 0.897233 0.114922 0.654366
O O13 0.554302 0.474464 0.444090
O O14 0.801363 0.401589 0.424947
#
# Coordination Sequence:
#
# PCOD9122529 Si02
#       8
#     4   4   4   4   2   2   4   4
#     4  10  22  39  58  83 116 151 188 233 282 334
#     4  11  23  39  60  86 114 148 189 232 282 338
#     4  10  22  39  58  83 116 151 188 233 282 334
#     4  10  20  36  56  80 112 147 185 230 278 328
#     4  10  20  34  56  84 110 144 188 228 276 330
#     4  10  20  34  56  84 110 144 188 228 276 330
#     4  10  20  36  56  80 112 147 185 230 278 328
#     4  11  23  39  60  86 114 148 189 232 282 338
#
# _framework density 20.918216000000001
#
# number of rings (size 3 to 8) (size 9 to 14) (size 15 to 20)
#    0.000    1.714    0.000    4.286    0.000    5.714 
#    0.000    7.143    0.000    0.000    0.000    0.000 
#    0.000    0.000    0.000    0.000    0.000    0.000 
#
# Total GULP energy -78033.506640 kJ/mol
# GULP energy per Si atom -5573.821903 kJ/mol
# Density = 2.087061 g / cm^3
# Si number density = 20.918216 Si / 1000 Ang^3
#
#
#
# Elastic Constant Matrix: (Units=GPa)
#
#
# Indices 1 2 3 4 5 6 
#
# 1 80.9079 39.6434 3.2879 0.0000 14.1095 0.0000
# 2 39.6434 99.4640 15.7133 0.0000 22.0104 0.0000
# 3 3.2879 15.7133 82.9173 0.0000 19.4023 0.0000
# 4 0.0000 0.0000 0.0000 -9.5870 0.0000 -10.1226
# 5 14.1095 22.0104 19.4023 0.0000 43.8056 0.0000
# 6 0.0000 0.0000 0.0000 -10.1226 0.0000 -0.8427
#
#
#
# Elastic Compliance Matrix: (Units=1/GPa)
#
#
# Indices 1 2 3 4 5 6 
#
# 1 0.015621 -0.005826 0.001090 0.000000 -0.002587 0.000000
# 2 -0.005826 0.013546 -0.001319 0.000000 -0.004345 0.000000
# 3 0.001090 -0.001319 0.013604 0.000000 -0.005714 0.000000
# 4 0.000000 0.000000 0.000000 0.008928 0.000000 -0.107245
# 5 -0.002587 -0.004345 -0.005714 0.000000 0.028375 0.000000
# 6 0.000000 0.000000 0.000000 -0.107245 0.000000 0.101571
#
#
# Mechanical properties :
#
#
# Convention : Reuss Voigt Hill
#
# Bulk Modulus (GPa) = 32.61488 42.28649 37.45069
# Shear Modulus (GPa) = 24.51268 20.31817 22.41542
#
# Velocity S-wave (km/s) = 3.42692 3.11997 3.27704
# Velocity P-wave (km/s) = 5.59320 5.76524 5.67987
#
# Compressibility (1/GPa) = 0.03066085
#
# Stress axis : x y z
#
# Youngs Moduli (GPa) = 64.01584 73.82306 73.50799
#
# Poissons Ratio (x) = 0.43008 -0.08012
# Poissons Ratio (y) = 0.37295 0.09697
# Poissons Ratio (z) = -0.06977 0.09739
#
# Static dielectric constant tensor:
#      x y z
#    x 1.747280 0.000000 0.023760 
#    y 0.000000 1.739640 0.000000 
#    z 0.023760 0.000000 1.818580 
# 
# From -- ./inp_files/59331.got.cif
#   From: 2010.05.17/outbox.cif.g08.bks.cpg/sg5_30_cif.got.tgz:59331.got - 2010.06.03 18:56:24.
