data_PCOD9122321
_publ_section_title
;
Structure prediction by ZEFSAII (Michael W. Deem and Ramdas Pophale) SiO2 
 PCOD9122321
Probable space group: C 2
;
_chemical_formula_sum "Si O2"
_cell_formula_units_Z 32
_cell_length_a 12.406008
_cell_length_b 8.615087
_cell_length_c 20.086757
_cell_angle_alpha 90.000000
_cell_angle_beta 145.160791
_cell_angle_gamma 90.000000
_cell_volume 1226.442096
_symmetry_space_group_name_H-M "C 2"
_symmetry_group_IT_number 5
_symmetry_cell_setting 'monoclinic'
loop_
_space_group_symop_operation_xyz
x,y,z
-x,y,-z
1/2+x,1/2+y,z
1/2-x,1/2+y,-z
loop_
_atom_site_type_symbol
_atom_site_label
_atom_site_fract_x
_atom_site_fract_y
_atom_site_fract_z
Si Si1 0.752602 0.073070 0.019764
Si Si2 0.101475 0.925507 0.790319
Si Si3 0.331018 0.932864 0.283063
Si Si4 0.386527 0.366585 0.504942
Si Si5 0.910637 0.389612 0.165164
Si Si6 0.729801 0.771976 0.237242
Si Si7 0.622399 0.180402 0.120884
Si Si8 0.783160 0.520313 0.462497
O O1 0.864127 0.939140 0.114470
O O2 0.828384 0.237845 0.083576
O O3 0.538862 0.063027 0.939295
O O4 0.716942 0.031679 0.925928
O O5 0.192152 0.087819 0.808407
O O6 0.252010 0.812087 0.831551
O O7 0.878283 0.930326 0.660879
O O8 0.403991 0.909313 0.242132
O O9 0.196014 0.785136 0.217847
O O10 0.505227 0.950257 0.423062
O O11 0.207666 0.087931 0.229915
O O12 0.500000 0.428667 0.500000
O O13 0.552131 0.304263 0.635995
O O14 0.282820 0.498528 0.494094
O O15 0.282306 0.200668 0.439258
O O16 0.118000 0.371642 0.236462
O O17 0.500000 0.267246 0.000000
#
# Coordination Sequence:
#
# PCOD9122321 Si02
#       8
#     4   4   4   4   4   4   4   4
#     4  11  26  41  66  95 126 175 220 276 341 399
#     4  10  20  43  64  90 131 174 214 276 336 394
#     4  11  23  41  66  98 131 170 217 278 333 399
#     4  10  21  40  67  95 130 179 221 274 335 399
#     4  12  25  43  65  99 129 170 224 280 330 413
#     4  10  24  38  63  96 128 171 215 271 337 394
#     4  10  19  41  63  87 124 171 213 264 337 387
#     4  10  22  40  69  98 132 174 228 277 335 403
#
# _framework density 26.091733000000001
#
# number of rings (size 3 to 8) (size 9 to 14) (size 15 to 20)
#    0.000    1.500    3.750    1.500    5.250    0.000 
#    0.000    0.625    0.000    0.000    0.000    0.000 
#    0.000    0.000    0.000    0.000    0.000    0.000 
#
# Total GULP energy -89069.859361 kJ/mol
# GULP energy per Si atom -5566.866210 kJ/mol
# Density = 2.603235 g / cm^3
# Si number density = 26.091733 Si / 1000 Ang^3
#
#
#
# Elastic Constant Matrix: (Units=GPa)
#
#
# Indices 1 2 3 4 5 6 
#
# 1 82.5693 12.8532 27.0530 0.0000 1.0199 0.0000
# 2 12.8532 38.3817 18.6701 0.0000 -0.1103 0.0000
# 3 27.0530 18.6701 125.5778 0.0000 -3.3968 0.0000
# 4 0.0000 0.0000 0.0000 26.1451 0.0000 -4.1577
# 5 1.0199 -0.1103 -3.3968 0.0000 28.8569 0.0000
# 6 0.0000 0.0000 0.0000 -4.1577 0.0000 35.5601
#
#
#
# Elastic Compliance Matrix: (Units=1/GPa)
#
#
# Indices 1 2 3 4 5 6 
#
# 1 0.013431 -0.003323 -0.002420 0.000000 -0.000772 0.000000
# 2 -0.003323 0.028911 -0.003588 0.000000 -0.000194 0.000000
# 3 -0.002420 -0.003588 0.009049 0.000000 0.001137 0.000000
# 4 0.000000 0.000000 0.000000 0.038973 0.000000 0.004557
# 5 -0.000772 -0.000194 0.001137 0.000000 0.034814 0.000000
# 6 0.000000 0.000000 0.000000 0.004557 0.000000 0.028654
#
#
# Mechanical properties :
#
#
# Convention : Reuss Voigt Hill
#
# Bulk Modulus (GPa) = 30.55345 40.40904 35.48125
# Shear Modulus (GPa) = 27.26233 30.64259 28.95246
#
# Velocity S-wave (km/s) = 3.23594 3.43070 3.33474
# Velocity P-wave (km/s) = 5.06924 5.58693 5.33437
#
# Compressibility (1/GPa) = 0.03272952
#
# Stress axis : x y z
#
# Youngs Moduli (GPa) = 74.45589 34.58842 110.51241
#
# Poissons Ratio (x) = 0.11492 0.26747
# Poissons Ratio (y) = 0.24739 0.39650
# Poissons Ratio (z) = 0.18020 0.12410
#
# Static dielectric constant tensor:
#      x y z
#    x 2.209690 0.000000 -0.028380 
#    y 0.000000 2.169700 0.000000 
#    z -0.028380 0.000000 2.167710 
# 
# From -- ./inp_files/68780.got.cif
#   From: 2010.05.17/outbox.cif.g08.bks.cpg/sg5_35_cif.got.tgz:68780.got - 2010.06.03 18:56:24.
