data_PCOD9122752
_publ_section_title
;
Structure prediction by ZEFSAII (Michael W. Deem and Ramdas Pophale) SiO2 
 PCOD9122752
Probable space group: C 2
;
_chemical_formula_sum "Si O2"
_cell_formula_units_Z 28
_cell_length_a 12.042353
_cell_length_b 7.970677
_cell_length_c 15.593393
_cell_angle_alpha 90.000000
_cell_angle_beta 117.038025
_cell_angle_gamma 90.000000
_cell_volume 1333.156377
_symmetry_space_group_name_H-M "C 2"
_symmetry_group_IT_number 5
_symmetry_cell_setting 'monoclinic'
loop_
_space_group_symop_operation_xyz
x,y,z
-x,y,-z
1/2+x,1/2+y,z
1/2-x,1/2+y,-z
loop_
_atom_site_type_symbol
_atom_site_label
_atom_site_fract_x
_atom_site_fract_y
_atom_site_fract_z
Si Si1 0.000000 0.387270 0.000000
Si Si2 0.032406 0.785362 0.324113
Si Si3 0.309945 0.095161 0.040714
Si Si4 0.500000 0.157998 0.500000
Si Si5 0.399653 0.683829 0.817081
Si Si6 0.921982 0.428701 0.229761
Si Si7 0.281432 0.964981 0.344473
Si Si8 0.101043 0.949760 0.866681
O O1 0.096199 0.279610 0.091189
O O2 0.924252 0.504332 0.035587
O O3 0.016626 0.766989 0.420022
O O4 0.002945 0.598751 0.276135
O O5 0.930770 0.907944 0.242941
O O6 0.168051 0.857411 0.344226
O O7 0.307857 0.990602 0.128663
O O8 0.345644 0.282618 0.074180
O O9 0.196811 0.087709 0.934608
O O10 0.379377 0.038572 0.446565
O O11 0.276358 0.629371 0.724449
O O12 0.469972 0.508498 0.858604
O O13 0.488778 0.792285 0.784196
O O14 0.861074 0.372660 0.298113
#
# Coordination Sequence:
#
# PCOD9122752 Si02
#       8
#     2   4   4   2   4   4   4   4
#     4  10  22  34  56  90 122 172 216 258 316 374
#     4   9  21  42  64  95 121 167 214 266 330 385
#     4  10  20  36  55  87 126 169 211 256 311 379
#     4  10  22  40  68  92 128 160 214 280 332 368
#     4  10  22  39  59  92 127 167 215 261 320 379
#     4   9  20  40  59  89 128 163 209 263 312 381
#     4  10  22  41  67  89 125 170 209 268 330 381
#     4  10  21  39  59  86 134 166 214 257 314 381
#
# _framework density 21.002787999999999
#
# number of rings (size 3 to 8) (size 9 to 14) (size 15 to 20)
#    0.000    2.286    0.000    1.714    8.000    2.857 
#   18.000    2.857    0.000    1.714    0.000    0.000 
#    0.000    0.000    0.000    0.000    0.000    0.000 
#
# Total GULP energy -78080.483528 kJ/mol
# GULP energy per Si atom -5577.177395 kJ/mol
# Density = 2.095498 g / cm^3
# Si number density = 21.002788 Si / 1000 Ang^3
#
#
#
# Elastic Constant Matrix: (Units=GPa)
#
#
# Indices 1 2 3 4 5 6 
#
# 1 79.9582 32.2542 53.7818 0.0000 -1.5639 0.0000
# 2 32.2542 63.2795 43.1393 0.0000 -2.3554 0.0000
# 3 53.7818 43.1393 133.2817 0.0000 6.7010 0.0000
# 4 0.0000 0.0000 0.0000 28.9595 0.0000 5.1836
# 5 -1.5639 -2.3554 6.7010 0.0000 43.0986 0.0000
# 6 0.0000 0.0000 0.0000 5.1836 0.0000 27.1372
#
#
#
# Elastic Compliance Matrix: (Units=1/GPa)
#
#
# Indices 1 2 3 4 5 6 
#
# 1 0.018661 -0.005500 -0.005814 0.000000 0.001281 0.000000
# 2 -0.005500 0.022097 -0.005023 0.000000 0.001789 0.000000
# 3 -0.005814 -0.005023 0.011590 0.000000 -0.002287 0.000000
# 4 0.000000 0.000000 0.000000 0.035753 0.000000 -0.006829
# 5 0.001281 0.001789 -0.002287 0.000000 0.023703 0.000000
# 6 0.000000 0.000000 0.000000 -0.006829 0.000000 0.038154
#
#
# Mechanical properties :
#
#
# Convention : Reuss Voigt Hill
#
# Bulk Modulus (GPa) = 50.82957 59.42999 55.12978
# Shear Modulus (GPa) = 26.42837 29.66199 28.04518
#
# Velocity S-wave (km/s) = 3.55114 3.76212 3.65815
# Velocity P-wave (km/s) = 6.40843 6.87234 6.64444
#
# Compressibility (1/GPa) = 0.01967359
#
# Stress axis : x y z
#
# Youngs Moduli (GPa) = 53.58723 45.25472 86.28334
#
# Poissons Ratio (x) = 0.24892 0.50167
# Poissons Ratio (y) = 0.29475 0.43337
# Poissons Ratio (z) = 0.31157 0.22730
#
# Static dielectric constant tensor:
#      x y z
#    x 1.805090 0.000000 0.013560 
#    y 0.000000 1.788110 0.000000 
#    z 0.013560 0.000000 1.831770 
# 
# From -- ./inp_files/52214.got.cif
#   From: 2010.05.17/outbox.cif.g08.bks.cpg/sg5_27_cif.got.tgz:52214.got - 2010.06.03 18:56:24.
