data_PCOD9122101
_publ_section_title
;
Structure prediction by ZEFSAII (Michael W. Deem and Ramdas Pophale) SiO2 
 PCOD9122101
Probable space group: C 2
;
_chemical_formula_sum "Si O2"
_cell_formula_units_Z 28
_cell_length_a 21.003913
_cell_length_b 10.370781
_cell_length_c 15.613220
_cell_angle_alpha 90.000000
_cell_angle_beta 151.905365
_cell_angle_gamma 90.000000
_cell_volume 1601.621339
_symmetry_space_group_name_H-M "C 2"
_symmetry_group_IT_number 5
_symmetry_cell_setting 'monoclinic'
loop_
_space_group_symop_operation_xyz
x,y,z
-x,y,-z
1/2+x,1/2+y,z
1/2-x,1/2+y,-z
loop_
_atom_site_type_symbol
_atom_site_label
_atom_site_fract_x
_atom_site_fract_y
_atom_site_fract_z
Si Si1 0.000000 0.568531 0.500000
Si Si2 0.171710 0.330157 0.759745
Si Si3 0.873277 0.699474 0.511768
Si Si4 0.902616 0.233755 0.513269
Si Si5 0.755762 0.977701 0.374801
Si Si6 0.739336 0.452703 0.423033
Si Si7 0.018955 0.789834 0.856088
Si Si8 0.500000 0.108372 0.000000
O O1 0.119248 0.471887 0.671382
O O2 0.042531 0.650640 0.468982
O O3 0.155521 0.250283 0.652064
O O4 0.060315 0.271756 0.692648
O O5 0.325550 0.328838 0.971593
O O6 0.808440 0.837052 0.413872
O O7 0.766583 0.586301 0.407077
O O8 0.961508 0.722552 0.702337
O O9 0.822793 0.337938 0.476200
O O10 0.868961 0.090016 0.503713
O O11 0.711020 0.969216 0.420726
O O12 0.632560 0.022911 0.170237
O O13 0.584055 0.406898 0.245463
O O14 0.010832 0.696684 0.928570
#
# Coordination Sequence:
#
# PCOD9122101 Si02
#       8
#     2   4   4   4   4   4   4   2
#     4  10  22  44  62  82 132 166 200 244 308 364
#     4  10  20  38  67  88 111 161 217 245 278 368
#     4  11  23  42  60  91 129 162 192 255 319 353
#     4  10  19  38  64  87 118 165 204 238 303 365
#     4  11  22  37  61  93 125 157 197 253 313 355
#     4  11  19  40  64  86 121 165 198 248 302 363
#     4  11  22  38  68  92 118 157 216 249 292 365
#     4  12  20  38  62  98 120 150 212 262 286 362
#
# _framework density 17.482285000000001
#
# number of rings (size 3 to 8) (size 9 to 14) (size 15 to 20)
#    0.000    1.429    7.143    0.857    0.000    1.143 
#    7.714    1.429    0.000    0.000    0.000    0.000 
#    0.000    0.000    0.000    0.000    0.000    0.000 
#
# Total GULP energy -78103.709750 kJ/mol
# GULP energy per Si atom -5578.836411 kJ/mol
# Density = 1.744249 g / cm^3
# Si number density = 17.482285 Si / 1000 Ang^3
#
#
#
# Elastic Constant Matrix: (Units=GPa)
#
#
# Indices 1 2 3 4 5 6 
#
# 1 104.9761 58.3841 48.5468 0.0000 12.5578 0.0000
# 2 58.3841 144.4648 52.8724 0.0000 11.2213 0.0000
# 3 48.5468 52.8724 122.6560 0.0000 20.2789 0.0000
# 4 0.0000 0.0000 0.0000 19.9736 0.0000 -0.5373
# 5 12.5578 11.2213 20.2789 0.0000 27.9122 0.0000
# 6 0.0000 0.0000 0.0000 -0.5373 0.0000 12.8586
#
#
#
# Elastic Compliance Matrix: (Units=1/GPa)
#
#
# Indices 1 2 3 4 5 6 
#
# 1 0.013578 -0.004137 -0.003245 0.000000 -0.002087 0.000000
# 2 -0.004137 0.009496 -0.002424 0.000000 -0.000195 0.000000
# 3 -0.003245 -0.002424 0.011456 0.000000 -0.005888 0.000000
# 4 0.000000 0.000000 0.000000 0.050123 0.000000 0.002094
# 5 -0.002087 -0.000195 -0.005888 0.000000 0.041122 0.000000
# 6 0.000000 0.000000 0.000000 0.002094 0.000000 0.077856
#
#
# Mechanical properties :
#
#
# Convention : Reuss Voigt Hill
#
# Bulk Modulus (GPa) = 67.03824 76.85595 71.94709
# Shear Modulus (GPa) = 21.90908 26.30179 24.10544
#
# Velocity S-wave (km/s) = 3.54392 3.88297 3.71731
# Velocity P-wave (km/s) = 7.42802 8.01005 7.72452
#
# Compressibility (1/GPa) = 0.01491686
#
# Stress axis : x y z
#
# Youngs Moduli (GPa) = 73.65084 105.30325 87.29291
#
# Poissons Ratio (x) = 0.43567 0.28330
# Poissons Ratio (y) = 0.30472 0.21157
# Poissons Ratio (z) = 0.23903 0.25522
#
# Static dielectric constant tensor:
#      x y z
#    x 1.610020 0.000000 0.011900 
#    y 0.000000 1.596910 0.000000 
#    z 0.011900 0.000000 1.588510 
# 
# From -- ./inp_files/42054.got.cif
#   From: 2010.05.17/outbox.cif.g08.bks.cpg/sg5_22_cif.got.tgz:42054.got - 2010.06.03 18:56:24.
