data_PCOD9122723
_publ_section_title
;
Structure prediction by ZEFSAII (Michael W. Deem and Ramdas Pophale) SiO2 
 PCOD9122723
Probable space group: C 2
;
_chemical_formula_sum "Si O2"
_cell_formula_units_Z 32
_cell_length_a 23.288340
_cell_length_b 5.084001
_cell_length_c 18.752986
_cell_angle_alpha 90.000000
_cell_angle_beta 35.617667
_cell_angle_gamma 90.000000
_cell_volume 1293.052963
_symmetry_space_group_name_H-M "C 2"
_symmetry_group_IT_number 5
_symmetry_cell_setting 'monoclinic'
loop_
_space_group_symop_operation_xyz
x,y,z
-x,y,-z
1/2+x,1/2+y,z
1/2-x,1/2+y,-z
loop_
_atom_site_type_symbol
_atom_site_label
_atom_site_fract_x
_atom_site_fract_y
_atom_site_fract_z
Si Si1 0.850052 0.671730 0.666319
Si Si2 0.836779 0.922911 0.812946
Si Si3 0.817160 0.143882 0.444702
Si Si4 0.036390 0.316818 0.826835
Si Si5 0.661201 0.700984 0.415395
Si Si6 0.147298 0.152575 0.060706
Si Si7 0.390274 0.321943 0.169955
Si Si8 0.185285 0.816229 0.898530
O O1 0.890940 0.423597 0.580500
O O2 0.744452 0.568759 0.805436
O O3 0.900161 0.762770 0.690833
O O4 0.841819 0.919689 0.621526
O O5 0.883602 0.101646 0.827171
O O6 0.769974 0.108719 0.830401
O O7 0.759980 0.748525 0.937496
O O8 0.730426 0.358377 0.520054
O O9 0.898031 0.211727 0.304435
O O10 0.863260 0.167373 0.477135
O O11 0.069780 0.595693 0.820405
O O12 0.926330 0.336004 0.908352
O O13 0.058835 0.098964 0.864793
O O14 0.773030 0.815456 0.305012
O O15 0.140151 0.894908 0.019056
O O16 0.390539 0.241323 0.086376
#
# Coordination Sequence:
#
# PCOD9122723 Si02
#       8
#     4   4   4   4   4   4   4   4
#     4  10  20  35  64  97 114 160 216 265 311 373
#     4  11  21  43  67  92 123 174 222 264 315 382
#     4  12  22  38  66  93 128 174 212 255 327 394
#     4  12  26  43  61  99 132 171 206 270 322 386
#     4  11  19  36  63  95 126 158 213 260 310 389
#     4  11  26  41  65  95 135 170 225 265 321 378
#     4  11  22  40  62  89 135 165 213 255 323 384
#     4  10  22  40  63  92 123 173 214 259 317 379
#
# _framework density 24.747634000000001
#
# number of rings (size 3 to 8) (size 9 to 14) (size 15 to 20)
#    0.000    1.000    6.250    2.250    3.500    0.500 
#    0.000    0.000    0.000    0.750    3.250    0.000 
#    0.000    0.000    0.000    0.000    0.000    0.000 
#
# Total GULP energy -89457.357836 kJ/mol
# GULP energy per Si atom -5591.084865 kJ/mol
# Density = 2.469131 g / cm^3
# Si number density = 24.747634 Si / 1000 Ang^3
#
#
#
# Elastic Constant Matrix: (Units=GPa)
#
#
# Indices 1 2 3 4 5 6 
#
# 1 116.4789 30.5819 31.8159 0.0655 36.3655 -0.0436
# 2 30.5819 115.1417 0.9050 0.0274 16.3205 -0.0343
# 3 31.8159 0.9050 65.8321 -0.0413 32.0349 0.0265
# 4 0.0655 0.0274 -0.0413 20.1506 0.0239 14.7497
# 5 36.3655 16.3205 32.0349 0.0239 51.3562 -0.0180
# 6 -0.0436 -0.0343 0.0265 14.7497 -0.0180 24.2934
#
#
#
# Elastic Compliance Matrix: (Units=1/GPa)
#
#
# Indices 1 2 3 4 5 6 
#
# 1 0.011782 -0.002275 -0.002807 -0.000083 -0.005869 0.000067
# 2 -0.002275 0.009692 0.002414 -0.000001 -0.002975 0.000006
# 3 -0.002807 0.002414 0.022858 0.000171 -0.013038 -0.000140
# 4 -0.000083 -0.000001 0.000171 0.089325 -0.000108 -0.054234
# 5 -0.005869 -0.002975 -0.013038 -0.000108 0.032706 0.000089
# 6 0.000067 0.000006 -0.000140 -0.054234 0.000089 0.074092
#
#
# Mechanical properties :
#
#
# Convention : Reuss Voigt Hill
#
# Bulk Modulus (GPa) = 25.64443 47.11758 36.38100
# Shear Modulus (GPa) = 19.32073 34.77005 27.04539
#
# Velocity S-wave (km/s) = 2.79715 3.75238 3.30941
# Velocity P-wave (km/s) = 4.56256 6.15259 5.41624
#
# Compressibility (1/GPa) = 0.03899482
#
# Stress axis : x y z
#
# Youngs Moduli (GPa) = 84.87793 103.17871 43.74796
#
# Poissons Ratio (x) = 0.23476 0.12280
# Poissons Ratio (y) = 0.19312 -0.10560
# Poissons Ratio (z) = 0.23825 -0.24906
#
# Static dielectric constant tensor:
#      x y z
#    x 2.038470 -0.000040 -0.022290 
#    y -0.000040 2.017170 0.000140 
#    z -0.022290 0.000140 2.029300 
# 
# From -- ./inp_files/62629.got.cif
#   From: 2010.05.17/outbox.cif.g08.bks.cpg/sg5_32_cif.got.tgz:62629.got - 2010.06.03 18:56:24.
