data_PCOD9122865
_publ_section_title
;
Structure prediction by ZEFSAII (Michael W. Deem and Ramdas Pophale) SiO2 
 PCOD9122865
Probable space group: C 2
;
_chemical_formula_sum "Si O2"
_cell_formula_units_Z 24
_cell_length_a 11.447168
_cell_length_b 17.537993
_cell_length_c 5.323557
_cell_angle_alpha 90.000000
_cell_angle_beta 78.189891
_cell_angle_gamma 90.000000
_cell_volume 1046.134929
_symmetry_space_group_name_H-M "C 2"
_symmetry_group_IT_number 5
_symmetry_cell_setting 'monoclinic'
loop_
_space_group_symop_operation_xyz
x,y,z
-x,y,-z
1/2+x,1/2+y,z
1/2-x,1/2+y,-z
loop_
_atom_site_type_symbol
_atom_site_label
_atom_site_fract_x
_atom_site_fract_y
_atom_site_fract_z
Si Si1 0.500000 0.203840 0.500000
Si Si2 0.875933 0.735292 0.110025
Si Si3 0.366411 0.900346 0.616203
Si Si4 0.500000 0.700682 0.000000
Si Si5 0.288702 0.820779 0.160426
Si Si6 0.296252 0.071582 0.673744
Si Si7 0.673198 0.615362 0.238531
O O1 0.426613 0.261698 0.351153
O O2 0.391363 0.142074 0.613484
O O3 0.834368 0.788804 0.904191
O O4 0.758739 0.688830 0.217771
O O5 0.000000 0.688327 0.000000
O O6 0.500000 0.873606 0.500000
O O7 0.333426 0.873583 0.910086
O O8 0.360672 0.991333 0.610302
O O9 0.288592 0.863899 0.425392
O O10 0.612326 0.752650 0.866699
O O11 0.546854 0.647142 0.203816
O O12 0.199195 0.076342 0.491602
O O13 0.230787 0.072683 0.972050
#
# Coordination Sequence:
#
# PCOD9122865 Si02
#       7
#     2   4   4   2   4   4   4
#     4  10  20  36  60  96 116 152 194 258 320 344
#     4  10  21  37  62  91 126 152 202 258 308 362
#     4  12  23  42  63  89 125 164 207 259 294 369
#     4  10  22  42  64  94 128 162 198 260 312 374
#     4  11  25  39  64  93 123 164 207 245 316 363
#     4  11  22  39  63  92 119 160 203 255 307 355
#     4  10  23  37  64  94 124 156 201 254 313 363
#
# _framework density 22.941590999999999
#
# number of rings (size 3 to 8) (size 9 to 14) (size 15 to 20)
#    0.000    1.333    4.167    1.000    2.333    6.000 
#    0.000    0.000   11.000    0.000    0.000    0.000 
#    0.000    0.000    0.000    0.000    0.000    0.000 
#
# Total GULP energy -66827.596410 kJ/mol
# GULP energy per Si atom -5568.966367 kJ/mol
# Density = 2.288937 g / cm^3
# Si number density = 22.941591 Si / 1000 Ang^3
#
#
#
# Elastic Constant Matrix: (Units=GPa)
#
#
# Indices 1 2 3 4 5 6 
#
# 1 132.2610 45.1904 44.2365 0.0000 36.9267 0.0000
# 2 45.1904 42.9929 24.5625 0.0000 15.5771 0.0000
# 3 44.2365 24.5625 130.9973 0.0000 43.2307 0.0000
# 4 0.0000 0.0000 0.0000 22.0661 0.0000 6.0309
# 5 36.9267 15.5771 43.2307 0.0000 51.1927 0.0000
# 6 0.0000 0.0000 0.0000 6.0309 0.0000 24.0186
#
#
#
# Elastic Compliance Matrix: (Units=1/GPa)
#
#
# Indices 1 2 3 4 5 6 
#
# 1 0.013264 -0.011646 -0.000426 0.000000 -0.005664 0.000000
# 2 -0.011646 0.037344 -0.002900 0.000000 -0.000514 0.000000
# 3 -0.000426 -0.002900 0.010992 0.000000 -0.008093 0.000000
# 4 0.000000 0.000000 0.000000 0.048658 0.000000 -0.012218
# 5 -0.005664 -0.000514 -0.008093 0.000000 0.030610 0.000000
# 6 0.000000 0.000000 0.000000 -0.012218 0.000000 0.044702
#
#
# Mechanical properties :
#
#
# Convention : Reuss Voigt Hill
#
# Bulk Modulus (GPa) = 31.59014 59.35889 45.47452
# Shear Modulus (GPa) = 22.11743 32.27294 27.19518
#
# Velocity S-wave (km/s) = 3.10833 3.75473 3.44671
# Velocity P-wave (km/s) = 5.16546 6.68785 5.97534
#
# Compressibility (1/GPa) = 0.03165544
#
# Stress axis : x y z
#
# Youngs Moduli (GPa) = 75.39230 26.77808 90.97454
#
# Poissons Ratio (x) = 0.31186 0.03878
# Poissons Ratio (y) = 0.87804 0.26381
# Poissons Ratio (z) = 0.03213 0.07765
#
# Static dielectric constant tensor:
#      x y z
#    x 1.922880 0.000000 -0.100940 
#    y 0.000000 1.869580 0.000000 
#    z -0.100940 0.000000 2.042010 
# 
# From -- ./inp_files/5174.got.cif
#   From: 2010.05.17/outbox.cif.g08.bks.cpg/sg5_3_cif.got.tgz:5174.got - 2010.06.03 18:56:24.
