data_PCOD9122353
_publ_section_title
;
Structure prediction by ZEFSAII (Michael W. Deem and Ramdas Pophale) SiO2 
 PCOD9122353
Probable space group: C 2
;
_chemical_formula_sum "Si O2"
_cell_formula_units_Z 26
_cell_length_a 20.462199
_cell_length_b 6.420633
_cell_length_c 12.583329
_cell_angle_alpha 90.000000
_cell_angle_beta 47.009183
_cell_angle_gamma 90.000000
_cell_volume 1209.255480
_symmetry_space_group_name_H-M "C 2"
_symmetry_group_IT_number 5
_symmetry_cell_setting 'monoclinic'
loop_
_space_group_symop_operation_xyz
x,y,z
-x,y,-z
1/2+x,1/2+y,z
1/2-x,1/2+y,-z
loop_
_atom_site_type_symbol
_atom_site_label
_atom_site_fract_x
_atom_site_fract_y
_atom_site_fract_z
Si Si1 0.871080 0.399450 0.332008
Si Si2 0.452952 0.507723 0.152311
Si Si3 0.328227 0.156741 0.183314
Si Si4 0.056551 0.652876 0.142246
Si Si5 0.000000 0.162818 0.500000
Si Si6 0.090235 0.758160 0.340278
Si Si7 0.162597 0.424688 0.397138
O O1 0.893765 0.159447 0.287841
O O2 0.822204 0.484799 0.281666
O O3 0.819516 0.447061 0.497509
O O4 0.967377 0.513860 0.236075
O O5 0.394139 0.330024 0.161260
O O6 0.524018 0.385113 0.145423
O O7 0.500000 0.622991 0.000000
O O8 0.236026 0.273090 0.266217
O O9 0.374058 0.080468 0.024339
O O10 0.095061 0.665452 0.217612
O O11 0.932644 0.303542 0.506329
O O12 0.068590 0.005227 0.362624
O O13 0.162026 0.645535 0.336198
O O14 0.000000 0.688208 0.500000
#
# Coordination Sequence:
#
# PCOD9122353 Si02
#       7
#     4   4   4   4   2   4   4
#     4  11  20  37  65  86 123 164 196 241 307 371
#     4   9  19  36  62  90 117 158 196 239 309 370
#     4  10  25  37  57  95 128 150 197 261 305 354
#     4  10  19  42  62  86 124 157 204 253 296 364
#     4  10  20  40  64  84 114 162 206 248 296 358
#     4  10  21  40  63  83 112 163 209 246 289 362
#     4  12  23  40  60  94 122 155 210 250 300 363
#
# _framework density 21.500831999999999
#
# number of rings (size 3 to 8) (size 9 to 14) (size 15 to 20)
#    0.462    1.231    2.308    3.231    2.154    1.231 
#    2.769    0.000    0.000    0.000    0.000    0.000 
#    0.000    0.000    0.000    0.000    0.000    0.000 
#
# Total GULP energy -72489.077397 kJ/mol
# GULP energy per Si atom -5576.082877 kJ/mol
# Density = 2.145190 g / cm^3
# Si number density = 21.500832 Si / 1000 Ang^3
#
#
#
# Elastic Constant Matrix: (Units=GPa)
#
#
# Indices 1 2 3 4 5 6 
#
# 1 39.2202 5.8898 24.9814 0.0026 11.8153 -0.0051
# 2 5.8898 38.9998 4.1024 0.0074 10.8642 -0.0168
# 3 24.9814 4.1024 75.2246 0.0009 21.0531 -0.0033
# 4 0.0026 0.0074 0.0009 18.7211 -0.0007 9.7994
# 5 11.8153 10.8642 21.0531 -0.0007 36.1501 0.0020
# 6 -0.0051 -0.0168 -0.0033 9.7994 0.0020 9.9515
#
#
#
# Elastic Compliance Matrix: (Units=1/GPa)
#
#
# Indices 1 2 3 4 5 6 
#
# 1 0.033438 -0.002793 -0.009711 -0.000017 -0.004434 0.000027
# 2 -0.002793 0.028279 0.001802 -0.000076 -0.008635 0.000123
# 3 -0.009711 0.001802 0.018738 -0.000008 -0.008280 0.000013
# 4 -0.000017 -0.000076 -0.000008 0.110236 0.000041 -0.108551
# 5 -0.004434 -0.008635 -0.008280 0.000041 0.036529 -0.000067
# 6 0.000027 0.000123 0.000013 -0.108551 -0.000067 0.207380
#
#
# Mechanical properties :
#
#
# Convention : Reuss Voigt Hill
#
# Bulk Modulus (GPa) = 16.93479 24.82130 20.87805
# Shear Modulus (GPa) = 10.51111 20.86259 15.68685
#
# Velocity S-wave (km/s) = 2.21344 3.11837 2.70403
# Velocity P-wave (km/s) = 3.79814 4.95328 4.41367
#
# Compressibility (1/GPa) = 0.05905004
#
# Stress axis : x y z
#
# Youngs Moduli (GPa) = 29.90625 35.36187 53.36865
#
# Poissons Ratio (x) = 0.09877 0.51827
# Poissons Ratio (y) = 0.08353 -0.09618
# Poissons Ratio (z) = 0.29043 -0.06373
#
# Static dielectric constant tensor:
#      x y z
#    x 1.786130 0.000000 -0.001860 
#    y 0.000000 1.805040 0.000000 
#    z -0.001860 0.000000 1.814610 
# 
# From -- ./inp_files/45580.got.cif
#   From: 2010.05.17/outbox.cif.g08.bks.cpg/sg5_23_cif.got.tgz:45580.got - 2010.06.03 18:56:24.
