data_PCOD9122174
_publ_section_title
;
Structure prediction by ZEFSAII (Michael W. Deem and Ramdas Pophale) SiO2 
 PCOD9122174
Probable space group: C 2
;
_chemical_formula_sum "Si O2"
_cell_formula_units_Z 26
_cell_length_a 21.048248
_cell_length_b 7.723012
_cell_length_c 8.507827
_cell_angle_alpha 90.000000
_cell_angle_beta 127.695147
_cell_angle_gamma 90.000000
_cell_volume 1094.331590
_symmetry_space_group_name_H-M "C 2"
_symmetry_group_IT_number 5
_symmetry_cell_setting 'monoclinic'
loop_
_space_group_symop_operation_xyz
x,y,z
-x,y,-z
1/2+x,1/2+y,z
1/2-x,1/2+y,-z
loop_
_atom_site_type_symbol
_atom_site_label
_atom_site_fract_x
_atom_site_fract_y
_atom_site_fract_z
Si Si1 0.951850 0.229400 0.577100
Si Si2 0.259737 0.294798 0.086662
Si Si3 0.500000 0.648349 0.000000
Si Si4 0.830560 0.552273 0.627487
Si Si5 0.668822 0.659688 0.223458
Si Si6 0.080924 0.626272 0.539088
Si Si7 0.272514 0.661174 0.269680
O O1 0.995072 0.236810 0.814800
O O2 0.929755 0.419503 0.479365
O O3 0.863050 0.150539 0.471237
O O4 0.000000 0.148115 0.500000
O O5 0.188846 0.199869 0.073629
O O6 0.343576 0.199755 0.250962
O O7 0.264305 0.482879 0.165486
O O8 0.237590 0.307586 0.873209
O O9 0.413991 0.559786 0.880226
O O10 0.746577 0.561113 0.405083
O O11 0.841494 0.354559 0.709447
O O12 0.896145 0.641314 0.613148
O O13 0.803497 0.667539 0.732005
O O14 0.000000 0.696238 0.500000
#
# Coordination Sequence:
#
# PCOD9122174 Si02
#       7
#     4   4   2   4   4   4   4
#     4  11  23  39  66  96 135 172 221 275 332 389
#     4  10  23  38  65  90 130 172 223 270 334 396
#     4  12  20  38  64 100 126 172 218 268 318 398
#     4  10  19  39  61  91 125 168 207 267 324 389
#     4  10  21  37  64  90 125 164 217 263 325 388
#     4  10  21  40  61  94 128 172 213 277 329 390
#     4  11  21  40  62  96 123 178 218 273 330 400
#
# _framework density 23.758794999999999
#
# number of rings (size 3 to 8) (size 9 to 14) (size 15 to 20)
#    0.000    1.538    3.077    1.846    0.000    5.538 
#    0.000    0.000    0.000    3.692    0.000    0.000 
#    0.000    0.000    0.000    0.000    0.000    0.000 
#
# Total GULP energy -72393.032639 kJ/mol
# GULP energy per Si atom -5568.694818 kJ/mol
# Density = 2.370472 g / cm^3
# Si number density = 23.758795 Si / 1000 Ang^3
#
#
#
# Elastic Constant Matrix: (Units=GPa)
#
#
# Indices 1 2 3 4 5 6 
#
# 1 216.0580 15.7376 63.4214 0.0000 -2.2650 0.0000
# 2 15.7376 33.6422 13.8209 0.0000 -7.8916 0.0000
# 3 63.4214 13.8209 82.9357 0.0000 -15.9312 0.0000
# 4 0.0000 0.0000 0.0000 25.6413 0.0000 -6.8605
# 5 -2.2650 -7.8916 -15.9312 0.0000 37.9310 0.0000
# 6 0.0000 0.0000 0.0000 -6.8605 0.0000 17.5230
#
#
#
# Elastic Compliance Matrix: (Units=1/GPa)
#
#
# Indices 1 2 3 4 5 6 
#
# 1 0.006124 -0.001335 -0.004834 0.000000 -0.001942 0.000000
# 2 -0.001335 0.033021 -0.003457 0.000000 0.005339 0.000000
# 3 -0.004834 -0.003457 0.017553 0.000000 0.006364 0.000000
# 4 0.000000 0.000000 0.000000 0.043563 0.000000 0.017056
# 5 -0.001942 0.005339 0.006364 0.000000 0.030031 0.000000
# 6 0.000000 0.000000 0.000000 0.017056 0.000000 0.063745
#
#
# Mechanical properties :
#
#
# Convention : Reuss Voigt Hill
#
# Bulk Modulus (GPa) = 26.70398 57.62174 42.16286
# Shear Modulus (GPa) = 22.14635 32.19612 27.17124
#
# Velocity S-wave (km/s) = 3.05640 3.68520 3.38543
# Velocity P-wave (km/s) = 4.87026 6.51253 5.75032
#
# Compressibility (1/GPa) = 0.03744760
#
# Stress axis : x y z
#
# Youngs Moduli (GPa) = 163.28758 30.28345 56.97157
#
# Poissons Ratio (x) = 0.04042 0.27539
# Poissons Ratio (y) = 0.21792 0.19694
# Poissons Ratio (z) = 0.78931 0.10468
#
# Static dielectric constant tensor:
#      x y z
#    x 2.027880 0.000000 -0.074700 
#    y 0.000000 1.941510 0.000000 
#    z -0.074700 0.000000 1.954640 
# 
# From -- ./inp_files/29093.got.cif
#   From: 2010.05.17/outbox.cif.g08.bks.cpg/sg5_15_cif.got.tgz:29093.got - 2010.06.03 18:56:24.
