data_PCOD9122340
_publ_section_title
;
Structure prediction by ZEFSAII (Michael W. Deem and Ramdas Pophale) SiO2 
 PCOD9122340
Probable space group: C 2
;
_chemical_formula_sum "Si O2"
_cell_formula_units_Z 32
_cell_length_a 14.335572
_cell_length_b 12.149302
_cell_length_c 17.472253
_cell_angle_alpha 90.000000
_cell_angle_beta 150.339746
_cell_angle_gamma 90.000000
_cell_volume 1505.892905
_symmetry_space_group_name_H-M "C 2"
_symmetry_group_IT_number 5
_symmetry_cell_setting 'monoclinic'
loop_
_space_group_symop_operation_xyz
x,y,z
-x,y,-z
1/2+x,1/2+y,z
1/2-x,1/2+y,-z
loop_
_atom_site_type_symbol
_atom_site_label
_atom_site_fract_x
_atom_site_fract_y
_atom_site_fract_z
Si Si1 0.255058 0.366410 0.491432
Si Si2 0.790862 0.428017 0.381140
Si Si3 0.416004 0.359948 0.054980
Si Si4 0.671153 0.404413 0.827042
Si Si5 0.202354 0.191501 0.167727
Si Si6 0.289222 0.126320 0.972539
Si Si7 0.907211 0.524674 0.215342
Si Si8 0.849109 0.169376 0.692366
O O1 0.218889 0.343155 0.555460
O O2 0.468514 0.410191 0.641140
O O3 0.228451 0.258084 0.422073
O O4 0.098884 0.456177 0.356773
O O5 0.631472 0.399205 0.205448
O O6 0.731300 0.546502 0.372500
O O7 0.000000 0.432845 0.500000
O O8 0.364491 0.370778 0.109403
O O9 0.387129 0.234734 0.010589
O O10 0.266041 0.438411 0.907763
O O11 0.781144 0.307153 0.864096
O O12 0.771915 0.522004 0.904303
O O13 0.203351 0.204893 0.259072
O O14 0.365986 0.111970 0.252952
O O15 0.000000 0.142034 0.000000
O O16 0.074711 0.159199 0.842991
O O17 0.390770 0.087929 0.122911
#
# Coordination Sequence:
#
# PCOD9122340 Si02
#       8
#     4   4   4   4   4   4   4   4
#     4  11  25  38  64 100 136 180 219 277 356 411
#     4  11  24  44  68 102 142 172 229 291 341 403
#     4  10  19  41  67  95 133 183 227 270 341 414
#     4  10  23  40  62  98 140 174 224 281 341 411
#     4  12  23  39  68 105 132 166 228 291 335 384
#     4  11  20  42  69  92 129 186 229 270 336 417
#     4  11  21  36  65  98 130 169 222 285 336 397
#     4  12  23  40  69 100 136 177 226 285 343 399
#
# _framework density 21.249849999999999
#
# number of rings (size 3 to 8) (size 9 to 14) (size 15 to 20)
#    0.000    1.000    7.500    0.750    5.250    0.000 
#    0.000    0.000    2.750    0.000    3.250    0.000 
#    0.000    0.000    0.000    0.000    0.000    0.000 
#
# Total GULP energy -89517.779787 kJ/mol
# GULP energy per Si atom -5594.861237 kJ/mol
# Density = 2.120148 g / cm^3
# Si number density = 21.249850 Si / 1000 Ang^3
#
#
#
# Elastic Constant Matrix: (Units=GPa)
#
#
# Indices 1 2 3 4 5 6 
#
# 1 60.4689 33.0049 25.3633 -0.0001 -5.0211 0.0000
# 2 33.0049 138.0540 38.0627 0.0007 2.2357 0.0002
# 3 25.3633 38.0627 96.5463 0.0012 9.1191 0.0004
# 4 -0.0001 0.0007 0.0012 36.9938 0.0004 -5.9762
# 5 -5.0211 2.2357 9.1191 0.0004 30.7654 0.0001
# 6 0.0000 0.0002 0.0004 -5.9762 0.0001 23.6425
#
#
#
# Elastic Compliance Matrix: (Units=1/GPa)
#
#
# Indices 1 2 3 4 5 6 
#
# 1 0.020926 -0.003857 -0.004450 0.000000 0.005015 0.000000
# 2 -0.003857 0.008842 -0.002420 0.000000 -0.000555 0.000000
# 3 -0.004450 -0.002420 0.012894 0.000000 -0.004372 0.000000
# 4 0.000000 0.000000 0.000000 0.028182 0.000000 0.007124
# 5 0.005015 -0.000555 -0.004372 0.000000 0.034659 0.000000
# 6 0.000000 0.000000 0.000000 0.007124 0.000000 0.044097
#
#
# Mechanical properties :
#
#
# Convention : Reuss Voigt Hill
#
# Bulk Modulus (GPa) = 47.15541 54.21457 50.68499
# Shear Modulus (GPa) = 28.07033 31.52290 29.79662
#
# Velocity S-wave (km/s) = 3.63845 3.85572 3.74866
# Velocity P-wave (km/s) = 6.31587 6.73724 6.52996
#
# Compressibility (1/GPa) = 0.02120647
#
# Stress axis : x y z
#
# Youngs Moduli (GPa) = 47.78816 113.09798 77.55543
#
# Poissons Ratio (x) = 0.43621 0.34515
# Poissons Ratio (y) = 0.18432 0.18770
# Poissons Ratio (z) = 0.21268 0.27372
#
# Static dielectric constant tensor:
#      x y z
#    x 1.763830 0.000000 -0.013830 
#    y 0.000000 1.765240 0.000000 
#    z -0.013830 0.000000 1.788250 
# 
# From -- ./inp_files/61719.got.cif
#   From: 2010.05.17/outbox.cif.g08.bks.cpg/sg5_31_cif.got.tgz:61719.got - 2010.06.03 18:56:24.
