data_PCOD9122668
_publ_section_title
;
Structure prediction by ZEFSAII (Michael W. Deem and Ramdas Pophale) SiO2 
 PCOD9122668
Probable space group: C 2
;
_chemical_formula_sum "Si O2"
_cell_formula_units_Z 24
_cell_length_a 20.021494
_cell_length_b 12.189355
_cell_length_c 9.565062
_cell_angle_alpha 90.000000
_cell_angle_beta 25.140259
_cell_angle_gamma 90.000000
_cell_volume 991.712795
_symmetry_space_group_name_H-M "C 2"
_symmetry_group_IT_number 5
_symmetry_cell_setting 'monoclinic'
loop_
_space_group_symop_operation_xyz
x,y,z
-x,y,-z
1/2+x,1/2+y,z
1/2-x,1/2+y,-z
loop_
_atom_site_type_symbol
_atom_site_label
_atom_site_fract_x
_atom_site_fract_y
_atom_site_fract_z
Si Si1 0.682661 0.977070 0.951588
Si Si2 0.029721 0.265088 0.196176
Si Si3 0.989092 0.858321 0.683769
Si Si4 0.278278 0.566381 0.057045
Si Si5 0.533002 0.139109 0.756404
Si Si6 0.834985 0.191788 0.337672
O O1 0.566326 0.875883 0.207171
O O2 0.715247 0.056575 0.020193
O O3 0.599989 0.047207 0.989795
O O4 0.849594 0.924723 0.597118
O O5 0.863723 0.241922 0.436219
O O6 0.091187 0.161112 0.166465
O O7 0.134175 0.272464 0.853578
O O8 0.976726 0.758333 0.812955
O O9 0.000000 0.819671 0.500000
O O10 0.852412 0.948193 0.950564
O O11 0.142010 0.597154 0.420991
O O12 0.661498 0.150236 0.635637
O O13 0.000000 0.120240 0.000000
#
# Coordination Sequence:
#
# PCOD9122668 Si02
#       6
#     4   4   4   4   4   4
#     4  11  20  33  61  87 111 150 188 236 279 336
#     4   8  17  37  53  82 112 148 192 218 286 332
#     4  10  20  36  54  82 120 150 180 231 286 335
#     4  10  20  35  59  80 117 155 176 236 286 331
#     4  11  20  38  58  86 109 148 198 227 277 336
#     4   7  15  35  62  69 110 160 178 229 273 330
#
# _framework density 24.200555000000001
#
# number of rings (size 3 to 8) (size 9 to 14) (size 15 to 20)
#    1.000    1.333    3.333    1.500    2.333    0.000 
#    6.000    1.667    0.000    0.000    0.000    0.000 
#    0.000    0.000    0.000    0.000    0.000    0.000 
#
# Total GULP energy -66951.648149 kJ/mol
# GULP energy per Si atom -5579.304012 kJ/mol
# Density = 2.414547 g / cm^3
# Si number density = 24.200555 Si / 1000 Ang^3
#
#
#
# Elastic Constant Matrix: (Units=GPa)
#
#
# Indices 1 2 3 4 5 6 
#
# 1 107.0924 52.7676 44.9049 0.0000 -30.6797 0.0000
# 2 52.7676 105.2053 22.6699 0.0000 -16.1788 0.0000
# 3 44.9049 22.6699 78.9658 0.0000 -40.5312 0.0000
# 4 0.0000 0.0000 0.0000 21.0152 0.0000 -8.3742
# 5 -30.6797 -16.1788 -40.5312 0.0000 41.4704 0.0000
# 6 0.0000 0.0000 0.0000 -8.3742 0.0000 23.2768
#
#
#
# Elastic Compliance Matrix: (Units=1/GPa)
#
#
# Indices 1 2 3 4 5 6 
#
# 1 0.015673 -0.006128 -0.004874 0.000000 0.004440 0.000000
# 2 -0.006128 0.012631 0.000122 0.000000 0.000514 0.000000
# 3 -0.004874 0.000122 0.027238 0.000000 0.023063 0.000000
# 4 0.000000 0.000000 0.000000 0.055548 0.000000 0.019984
# 5 0.004440 0.000514 0.023063 0.000000 0.050139 0.000000
# 6 0.000000 0.000000 0.000000 0.019984 0.000000 0.050151
#
#
# Mechanical properties :
#
#
# Convention : Reuss Voigt Hill
#
# Bulk Modulus (GPa) = 29.60130 59.10537 44.35334
# Shear Modulus (GPa) = 20.45811 28.54722 24.50267
#
# Velocity S-wave (km/s) = 2.91066 3.43827 3.18541
# Velocity P-wave (km/s) = 4.85326 6.34338 5.64768
#
# Compressibility (1/GPa) = 0.03378230
#
# Stress axis : x y z
#
# Youngs Moduli (GPa) = 63.80379 79.16719 36.71333
#
# Poissons Ratio (x) = 0.48513 0.17896
# Poissons Ratio (y) = 0.39099 -0.00448
# Poissons Ratio (z) = 0.31100 -0.00967
#
# Static dielectric constant tensor:
#      x y z
#    x 1.994800 0.000000 0.029310 
#    y 0.000000 1.892490 0.000000 
#    z 0.029310 0.000000 2.082170 
# 
# From -- ./inp_files/58130.got.cif
#   From: 2010.05.17/outbox.cif.g08.bks.cpg/sg5_30_cif.got.tgz:58130.got - 2010.06.03 18:56:24.
