data_PCOD9122190
_publ_section_title
;
Structure prediction by ZEFSAII (Michael W. Deem and Ramdas Pophale) SiO2 
 PCOD9122190
Probable space group: C 2
;
_chemical_formula_sum "Si O2"
_cell_formula_units_Z 30
_cell_length_a 15.384266
_cell_length_b 4.853271
_cell_length_c 24.331077
_cell_angle_alpha 90.000000
_cell_angle_beta 141.195175
_cell_angle_gamma 90.000000
_cell_volume 1138.442687
_symmetry_space_group_name_H-M "C 2"
_symmetry_group_IT_number 5
_symmetry_cell_setting 'monoclinic'
loop_
_space_group_symop_operation_xyz
x,y,z
-x,y,-z
1/2+x,1/2+y,z
1/2-x,1/2+y,-z
loop_
_atom_site_type_symbol
_atom_site_label
_atom_site_fract_x
_atom_site_fract_y
_atom_site_fract_z
Si Si1 0.564020 0.703990 0.805620
Si Si2 0.339097 0.825314 0.032265
Si Si3 0.744176 0.711067 0.123340
Si Si4 0.065612 0.373045 0.649396
Si Si5 0.738749 0.383370 0.752078
Si Si6 0.227936 0.422405 0.353677
Si Si7 0.000000 0.540850 0.500000
Si Si8 0.306902 0.221103 0.558695
O O1 0.623991 0.402022 0.827146
O O2 0.414391 0.756179 0.706778
O O3 0.684127 0.910497 0.841487
O O4 0.554327 0.758484 0.866951
O O5 0.359334 0.740921 0.979173
O O6 0.204838 0.643121 0.984865
O O7 0.689047 0.832859 0.153752
O O8 0.197765 0.574007 0.715735
O O9 0.015099 0.356154 0.561729
O O10 0.951856 0.567876 0.621284
O O11 0.108062 0.088513 0.698006
O O12 0.783763 0.509457 0.715815
O O13 0.228949 0.678192 0.395626
O O14 0.365280 0.241967 0.433481
O O15 0.204962 0.023806 0.472120
#
# Coordination Sequence:
#
# PCOD9122190 Si02
#       8
#     4   4   4   4   4   4   2   4
#     4  10  21  38  64  91 120 155 202 246 288 351
#     4   8  16  32  60  91 119 152 189 238 292 356
#     4  10  19  39  63  92 123 154 194 239 304 358
#     4  11  24  42  60  81 115 152 204 241 306 347
#     4  11  24  38  61  86 118 157 190 245 298 357
#     4  11  25  42  60  86 119 156 205 249 295 352
#     4  10  24  44  58  84 116 168 192 260 294 364
#     4  12  25  40  60  83 105 147 198 250 295 342
#
# _framework density 26.351787000000002
#
# number of rings (size 3 to 8) (size 9 to 14) (size 15 to 20)
#    0.000    1.600    1.333    3.200    3.733    3.733 
#    0.000    0.667    0.000    0.000    0.000   14.933 
#    0.000    0.000    0.000    0.000    0.000    0.000 
#
# Total GULP energy -83915.366398 kJ/mol
# GULP energy per Si atom -5594.357760 kJ/mol
# Density = 2.629181 g / cm^3
# Si number density = 26.351787 Si / 1000 Ang^3
#
#
#
# Elastic Constant Matrix: (Units=GPa)
#
#
# Indices 1 2 3 4 5 6 
#
# 1 79.1231 1.5363 43.0745 -0.0007 -41.2059 0.0049
# 2 1.5363 120.7383 18.9040 -0.0025 -3.1750 0.0122
# 3 43.0745 18.9040 145.5618 -0.0008 -35.6426 0.0007
# 4 -0.0007 -0.0025 -0.0008 33.0259 0.0001 -9.5618
# 5 -41.2059 -3.1750 -35.6426 0.0001 67.6811 -0.0007
# 6 0.0049 0.0122 0.0007 -9.5618 -0.0007 22.4514
#
#
#
# Elastic Compliance Matrix: (Units=1/GPa)
#
#
# Indices 1 2 3 4 5 6 
#
# 1 0.019865 0.000555 -0.003424 -0.000001 0.010317 -0.000005
# 2 0.000555 0.008472 -0.001245 -0.000001 0.000080 -0.000005
# 3 -0.003424 -0.001245 0.008633 0.000000 0.002403 0.000001
# 4 -0.000001 -0.000001 0.000000 0.034538 0.000000 0.014709
# 5 0.010317 0.000080 0.002403 0.000000 0.022326 -0.000002
# 6 -0.000005 -0.000005 0.000001 0.014709 -0.000002 0.050805
#
#
# Mechanical properties :
#
#
# Convention : Reuss Voigt Hill
#
# Bulk Modulus (GPa) = 34.79285 52.49476 43.64380
# Shear Modulus (GPa) = 30.77891 43.42556 37.10224
#
# Velocity S-wave (km/s) = 3.42131 4.06386 3.75635
# Velocity P-wave (km/s) = 5.37020 6.47950 5.95076
#
# Compressibility (1/GPa) = 0.02874154
#
# Stress axis : x y z
#
# Youngs Moduli (GPa) = 50.34043 118.03122 115.82912
#
# Poissons Ratio (x) = -0.06547 0.39662
# Poissons Ratio (y) = -0.02792 0.14420
# Poissons Ratio (z) = 0.17237 0.14694
#
# Static dielectric constant tensor:
#      x y z
#    x 2.227380 0.000000 -0.023610 
#    y 0.000000 1.947460 0.000000 
#    z -0.023610 0.000000 2.094000 
# 
# From -- ./inp_files/55322.got.cif
#   From: 2010.05.17/outbox.cif.g08.bks.cpg/sg5_28_cif.got.tgz:55322.got - 2010.06.03 18:56:24.
