data_PCOD9122379
_publ_section_title
;
Structure prediction by ZEFSAII (Michael W. Deem and Ramdas Pophale) SiO2 
 PCOD9122379
Probable space group: C 2
;
_chemical_formula_sum "Si O2"
_cell_formula_units_Z 24
_cell_length_a 11.125610
_cell_length_b 14.065971
_cell_length_c 15.272402
_cell_angle_alpha 90.000000
_cell_angle_beta 154.983962
_cell_angle_gamma 90.000000
_cell_volume 1010.670897
_symmetry_space_group_name_H-M "C 2"
_symmetry_group_IT_number 5
_symmetry_cell_setting 'monoclinic'
loop_
_space_group_symop_operation_xyz
x,y,z
-x,y,-z
1/2+x,1/2+y,z
1/2-x,1/2+y,-z
loop_
_atom_site_type_symbol
_atom_site_label
_atom_site_fract_x
_atom_site_fract_y
_atom_site_fract_z
Si Si1 0.500000 0.050740 0.500000
Si Si2 0.561386 0.119159 0.349059
Si Si3 0.500000 0.066280 0.000000
Si Si4 0.089709 0.283490 0.373381
Si Si5 0.779569 0.707728 0.007445
Si Si6 0.221485 0.866056 0.267814
Si Si7 0.958259 0.949808 0.574473
O O1 0.502806 0.109438 0.413170
O O2 0.236790 0.975882 0.309296
O O3 0.827074 0.191070 0.516411
O O4 0.312446 0.156980 0.122395
O O5 0.683988 0.018022 0.401932
O O6 0.412888 0.134928 0.023443
O O7 0.768789 0.000824 0.203440
O O8 0.360311 0.351944 0.553281
O O9 0.819495 0.342050 0.233231
O O10 0.015046 0.243084 0.228011
O O11 0.961769 0.804293 0.126885
O O12 0.500000 0.826780 0.500000
O O13 0.000000 0.933549 0.500000
#
# Coordination Sequence:
#
# PCOD9122379 Si02
#       7
#     2   4   2   4   4   4   4
#     4  10  24  44  70 102 150 194 236 312 374 428
#     4  12  24  47  72 100 150 197 244 309 367 450
#     4  12  24  42  78 114 144 194 256 306 376 450
#     4  12  25  44  72 107 150 189 244 315 373 441
#     4  12  23  42  78 109 142 198 255 305 372 445
#     4  10  19  42  71 105 140 187 248 308 360 436
#     4  12  26  46  74 106 151 194 248 314 376 447
#
# _framework density 23.746600999999998
#
# number of rings (size 3 to 8) (size 9 to 14) (size 15 to 20)
#    0.500    0.000    8.333    0.000    1.167    1.333 
#    3.000    0.833    0.000    0.000    0.000    0.000 
#    0.000    0.000    0.000    0.000    0.000    0.000 
#
# Total GULP energy -67016.334561 kJ/mol
# GULP energy per Si atom -5584.694547 kJ/mol
# Density = 2.369255 g / cm^3
# Si number density = 23.746601 Si / 1000 Ang^3
#
#
#
# Elastic Constant Matrix: (Units=GPa)
#
#
# Indices 1 2 3 4 5 6 
#
# 1 92.1162 26.3063 12.6088 0.0004 -34.5137 0.0124
# 2 26.3063 84.4673 45.2425 0.0044 -6.7914 0.0190
# 3 12.6088 45.2425 90.6465 0.0255 -15.6836 0.0260
# 4 0.0004 0.0044 0.0255 41.7358 0.0108 -3.0857
# 5 -34.5137 -6.7914 -15.6836 0.0108 36.7526 0.0127
# 6 0.0124 0.0190 0.0260 -3.0857 0.0127 30.7332
#
#
#
# Elastic Compliance Matrix: (Units=1/GPa)
#
#
# Indices 1 2 3 4 5 6 
#
# 1 0.019039 -0.006463 0.003741 -0.000008 0.018281 -0.000015
# 2 -0.006463 0.018361 -0.009424 0.000006 -0.006698 0.000003
# 3 0.003741 -0.009424 0.016759 -0.000013 0.008923 -0.000015
# 4 -0.000008 0.000006 -0.000013 0.024139 -0.000019 0.002424
# 5 0.018281 -0.006698 0.008923 -0.000019 0.046947 -0.000032
# 6 -0.000015 0.000003 -0.000015 0.002424 -0.000032 0.032781
#
#
# Mechanical properties :
#
#
# Convention : Reuss Voigt Hill
#
# Bulk Modulus (GPa) = 33.48310 48.39390 40.93850
# Shear Modulus (GPa) = 26.00441 34.04914 30.02678
#
# Velocity S-wave (km/s) = 3.31279 3.79073 3.55979
# Velocity P-wave (km/s) = 5.36316 6.29151 5.84579
#
# Compressibility (1/GPa) = 0.02986582
#
# Stress axis : x y z
#
# Youngs Moduli (GPa) = 52.52339 54.46354 59.66946
#
# Poissons Ratio (x) = 0.35201 -0.22319
# Poissons Ratio (y) = 0.33947 0.56232
# Poissons Ratio (z) = -0.19646 0.51326
#
# Static dielectric constant tensor:
#      x y z
#    x 2.012060 0.000000 -0.039290 
#    y 0.000000 1.859790 -0.000020 
#    z -0.039290 -0.000020 1.917660 
# 
# From -- ./inp_files/53244.got.cif
#   From: 2010.05.17/outbox.cif.g08.bks.cpg/sg5_27_cif.got.tgz:53244.got - 2010.06.03 18:56:24.
