data_PCOD9122654
_publ_section_title
;
Structure prediction by ZEFSAII (Michael W. Deem and Ramdas Pophale) SiO2 
 PCOD9122654
Probable space group: C 2
;
_chemical_formula_sum "Si O2"
_cell_formula_units_Z 32
_cell_length_a 17.461817
_cell_length_b 8.892757
_cell_length_c 10.042692
_cell_angle_alpha 90.000000
_cell_angle_beta 70.924575
_cell_angle_gamma 90.000000
_cell_volume 1473.834741
_symmetry_space_group_name_H-M "C 2"
_symmetry_group_IT_number 5
_symmetry_cell_setting 'monoclinic'
loop_
_space_group_symop_operation_xyz
x,y,z
-x,y,-z
1/2+x,1/2+y,z
1/2-x,1/2+y,-z
loop_
_atom_site_type_symbol
_atom_site_label
_atom_site_fract_x
_atom_site_fract_y
_atom_site_fract_z
Si Si1 0.947065 0.996200 0.899490
Si Si2 0.869244 0.262578 0.785689
Si Si3 0.823246 0.005379 0.617795
Si Si4 0.144069 0.759744 0.180482
Si Si5 0.986255 0.519766 0.657728
Si Si6 0.337079 0.075012 0.432164
Si Si7 0.887308 0.914821 0.320487
Si Si8 0.242262 0.518091 0.227295
O O1 0.017921 0.926056 0.764559
O O2 0.878061 0.867170 0.930032
O O3 0.905762 0.151372 0.876164
O O4 0.000000 0.018845 0.000000
O O5 0.798590 0.386857 0.837825
O O6 0.943376 0.359965 0.686837
O O7 0.833216 0.153381 0.696505
O O8 0.852541 0.870056 0.694034
O O9 0.875247 0.017518 0.455754
O O10 0.731816 0.998268 0.617362
O O11 0.227579 0.666398 0.146374
O O12 0.072940 0.635706 0.234554
O O13 0.077148 0.505262 0.656224
O O14 0.000000 0.577736 0.500000
O O15 0.351320 0.251775 0.386998
O O16 0.309963 0.047276 0.603020
O O17 0.830246 0.977164 0.234216
#
# Coordination Sequence:
#
# PCOD9122654 Si02
#       8
#     4   4   4   4   4   4   4   4
#     4  11  26  43  59  78 111 157 213 250 274 323
#     4  10  22  36  56  85 120 148 189 237 293 341
#     4  10  21  32  55  90 119 154 174 227 298 360
#     4  10  20  37  60  83 118 151 191 232 291 348
#     4  11  19  32  56  90 123 147 180 224 290 359
#     4  11  19  32  55  92 132 143 177 224 289 367
#     4  11  21  35  59  87 124 153 185 232 289 346
#     4  10  20  35  57  91 123 148 176 229 298 357
#
# _framework density 21.712067999999999
#
# number of rings (size 3 to 8) (size 9 to 14) (size 15 to 20)
#    0.000    1.500    6.250    0.000    1.750    2.000 
#    0.000    3.750    0.000    0.000    0.000    0.000 
#    0.000    0.000    0.000    0.000    0.000    0.000 
#
# Total GULP energy -89209.284743 kJ/mol
# GULP energy per Si atom -5575.580296 kJ/mol
# Density = 2.166265 g / cm^3
# Si number density = 21.712068 Si / 1000 Ang^3
#
#
#
# Elastic Constant Matrix: (Units=GPa)
#
#
# Indices 1 2 3 4 5 6 
#
# 1 117.4029 26.0988 22.0376 0.0000 10.1678 0.0000
# 2 26.0988 79.0436 12.8782 0.0000 13.1908 0.0000
# 3 22.0376 12.8782 45.5267 0.0000 21.2492 0.0000
# 4 0.0000 0.0000 0.0000 5.1324 0.0000 10.6728
# 5 10.1678 13.1908 21.2492 0.0000 37.4198 0.0000
# 6 0.0000 0.0000 0.0000 10.6728 0.0000 35.8696
#
#
#
# Elastic Compliance Matrix: (Units=1/GPa)
#
#
# Indices 1 2 3 4 5 6 
#
# 1 0.009867 -0.002670 -0.004366 0.000000 0.000739 0.000000
# 2 -0.002670 0.014323 -0.001009 0.000000 -0.003751 0.000000
# 3 -0.004366 -0.001009 0.032171 0.000000 -0.016727 0.000000
# 4 0.000000 0.000000 0.000000 0.511049 0.000000 -0.152060
# 5 0.000739 -0.003751 -0.016727 0.000000 0.037343 0.000000
# 6 0.000000 0.000000 0.000000 -0.152060 0.000000 0.073124
#
#
# Mechanical properties :
#
#
# Convention : Reuss Voigt Hill
#
# Bulk Modulus (GPa) = 24.83124 40.44471 32.63798
# Shear Modulus (GPa) = 7.06824 27.74827 17.40826
#
# Velocity S-wave (km/s) = 1.80624 3.57881 2.83464
# Velocity P-wave (km/s) = 3.97636 5.97874 5.07724
#
# Compressibility (1/GPa) = 0.04027185
#
# Stress axis : x y z
#
# Youngs Moduli (GPa) = 101.35116 69.81752 31.08408
#
# Poissons Ratio (x) = 0.18640 0.13571
# Poissons Ratio (y) = 0.27059 0.03135
# Poissons Ratio (z) = 0.44249 0.07041
#
# Static dielectric constant tensor:
#      x y z
#    x 1.877410 0.000000 -0.007800 
#    y 0.000000 1.810370 0.000000 
#    z -0.007800 0.000000 1.818050 
# 
# From -- ./inp_files/44169.got.cif
#   From: 2010.05.17/outbox.cif.g08.bks.cpg/sg5_23_cif.got.tgz:44169.got - 2010.06.03 18:56:24.
