data_PCOD9122037
_publ_section_title
;
Structure prediction by ZEFSAII (Michael W. Deem and Ramdas Pophale) SiO2 
 PCOD9122037
Probable space group: C 2
;
_chemical_formula_sum "Si O2"
_cell_formula_units_Z 24
_cell_length_a 17.739960
_cell_length_b 14.289338
_cell_length_c 9.455802
_cell_angle_alpha 90.000000
_cell_angle_beta 153.946979
_cell_angle_gamma 90.000000
_cell_volume 1052.756936
_symmetry_space_group_name_H-M "C 2"
_symmetry_group_IT_number 5
_symmetry_cell_setting 'monoclinic'
loop_
_space_group_symop_operation_xyz
x,y,z
-x,y,-z
1/2+x,1/2+y,z
1/2-x,1/2+y,-z
loop_
_atom_site_type_symbol
_atom_site_label
_atom_site_fract_x
_atom_site_fract_y
_atom_site_fract_z
Si Si1 0.304102 0.117500 0.625524
Si Si2 0.382144 0.853740 0.157347
Si Si3 0.102574 0.932127 0.871894
Si Si4 0.658552 0.933153 0.457959
Si Si5 0.863920 0.806510 0.636317
Si Si6 0.997020 0.148295 0.324341
O O1 0.253476 0.022892 0.463674
O O2 0.322148 0.199182 0.540398
O O3 0.177368 0.147588 0.539498
O O4 0.500000 0.098061 0.000000
O O5 0.500000 0.854378 0.500000
O O6 0.399552 0.747140 0.128350
O O7 0.198030 0.891297 0.895940
O O8 0.465153 0.927851 0.187475
O O9 0.231705 0.912947 0.218390
O O10 0.076037 0.043861 0.826846
O O11 0.940310 0.869446 0.641980
O O12 0.691721 0.852069 0.403235
O O13 0.000000 0.805384 0.000000
O O14 0.000000 0.150025 0.500000
#
# Coordination Sequence:
#
# PCOD9122037 Si02
#       6
#     4   4   4   4   4   4
#     4  11  23  36  59  88 116 149 191 237 283 338
#     4   9  20  36  59  84 113 152 191 227 279 347
#     4  10  21  38  62  84 111 152 191 237 280 336
#     4  10  19  38  59  84 111 147 198 232 275 333
#     4   9  18  34  58  82 108 148 193 225 275 335
#     4  11  23  38  57  86 119 150 188 236 290 337
#
# _framework density 22.797284000000001
#
# number of rings (size 3 to 8) (size 9 to 14) (size 15 to 20)
#    0.000    2.000    3.333    0.000    9.333    0.000 
#    0.000    3.333    0.000    0.000    0.000    0.000 
#    0.000    0.000    0.000    0.000    0.000    0.000 
#
# Total GULP energy -66875.673611 kJ/mol
# GULP energy per Si atom -5572.972801 kJ/mol
# Density = 2.274540 g / cm^3
# Si number density = 22.797284 Si / 1000 Ang^3
#
#
#
# Elastic Constant Matrix: (Units=GPa)
#
#
# Indices 1 2 3 4 5 6 
#
# 1 110.8609 27.0497 41.8741 0.0000 35.4884 0.0000
# 2 27.0497 108.7661 -3.2382 0.0000 23.5167 0.0000
# 3 41.8741 -3.2382 43.2595 0.0000 23.1929 0.0000
# 4 0.0000 0.0000 0.0000 18.3132 0.0000 10.5531
# 5 35.4884 23.5167 23.1929 0.0000 44.5353 0.0000
# 6 0.0000 0.0000 0.0000 10.5531 0.0000 46.1926
#
#
#
# Elastic Compliance Matrix: (Units=1/GPa)
#
#
# Indices 1 2 3 4 5 6 
#
# 1 0.016514 -0.003712 -0.014233 0.000000 -0.003788 0.000000
# 2 -0.003712 0.012114 0.008801 0.000000 -0.008022 0.000000
# 3 -0.014233 0.008801 0.047119 0.000000 -0.017844 0.000000
# 4 0.000000 0.000000 0.000000 0.062884 0.000000 -0.014366
# 5 -0.003788 -0.008022 -0.017844 0.000000 0.039001 0.000000
# 6 0.000000 0.000000 0.000000 -0.014366 0.000000 0.024931
#
#
# Mechanical properties :
#
#
# Convention : Reuss Voigt Hill
#
# Bulk Modulus (GPa) = 17.40385 43.80641 30.60513
# Shear Modulus (GPa) = 20.83305 34.95496 27.89401
#
# Velocity S-wave (km/s) = 3.02626 3.91998 3.50175
# Velocity P-wave (km/s) = 4.45665 6.30442 5.45928
#
# Compressibility (1/GPa) = 0.05745855
#
# Stress axis : x y z
#
# Youngs Moduli (GPa) = 60.55317 82.55176 21.22299
#
# Poissons Ratio (x) = 0.30642 0.30206
# Poissons Ratio (y) = 0.22477 -0.18677
# Poissons Ratio (z) = 0.86184 -0.72650
#
# Static dielectric constant tensor:
#      x y z
#    x 1.864310 0.000000 -0.013430 
#    y 0.000000 1.840000 0.000000 
#    z -0.013430 0.000000 1.895270 
# 
# From -- ./inp_files/19444.got.cif
#   From: 2010.05.17/outbox.cif.g08.bks.cpg/sg5_10_cif.got.tgz:19444.got - 2010.06.03 18:56:24.
