data_PCOD9122162
_publ_section_title
;
Structure prediction by ZEFSAII (Michael W. Deem and Ramdas Pophale) SiO2 
 PCOD9122162
Probable space group: C 2
;
_chemical_formula_sum "Si O2"
_cell_formula_units_Z 32
_cell_length_a 16.496781
_cell_length_b 9.594106
_cell_length_c 18.392288
_cell_angle_alpha 90.000000
_cell_angle_beta 150.415327
_cell_angle_gamma 90.000000
_cell_volume 1437.178618
_symmetry_space_group_name_H-M "C 2"
_symmetry_group_IT_number 5
_symmetry_cell_setting 'monoclinic'
loop_
_space_group_symop_operation_xyz
x,y,z
-x,y,-z
1/2+x,1/2+y,z
1/2-x,1/2+y,-z
loop_
_atom_site_type_symbol
_atom_site_label
_atom_site_fract_x
_atom_site_fract_y
_atom_site_fract_z
Si Si1 0.369541 0.816080 0.048091
Si Si2 0.085514 0.593714 0.641235
Si Si3 0.490567 0.718723 0.707714
Si Si4 0.443485 0.548337 0.374993
Si Si5 0.845683 0.347875 0.824608
Si Si6 0.455012 0.433057 0.178344
Si Si7 0.639053 0.525601 0.046695
Si Si8 0.372545 0.299593 0.565467
O O1 0.372571 0.788839 0.136040
O O2 0.553690 0.859203 0.171228
O O3 0.225922 0.926859 0.925312
O O4 0.332497 0.674345 0.973837
O O5 0.219976 0.716650 0.725923
O O6 0.193693 0.495701 0.778408
O O7 0.000000 0.542752 0.500000
O O8 0.945226 0.666514 0.580272
O O9 0.547059 0.675688 0.672422
O O10 0.460035 0.575175 0.729673
O O11 0.320631 0.799279 0.575181
O O12 0.500000 0.581161 0.500000
O O13 0.265203 0.478444 0.242129
O O14 0.561135 0.429416 0.430869
O O15 0.000000 0.337616 0.000000
O O16 0.549335 0.310556 0.293022
O O17 0.433789 0.432878 0.075574
O O18 0.500000 0.535987 0.000000
#
# Coordination Sequence:
#
# PCOD9122162 Si02
#       8
#     4   4   4   4   4   4   4   4
#     4  11  18  39  62  87 122 160 200 258 305 358
#     4  11  19  31  59  92 120 151 197 253 309 355
#     4  10  22  36  61  87 122 160 202 251 309 356
#     4  10  21  38  56  91 122 149 203 258 298 366
#     4  11  17  32  62  88 117 150 195 253 312 342
#     4  10  23  39  60  91 130 155 212 254 298 375
#     4  11  21  38  61  89 124 164 202 256 309 360
#     4  10  19  39  58  89 123 160 193 259 308 351
#
# _framework density 22.26585
#
# number of rings (size 3 to 8) (size 9 to 14) (size 15 to 20)
#    0.000    1.500    3.750    4.500    1.750    0.000 
#    6.750    2.500    0.000    0.000    0.000    0.000 
#    0.000    0.000    0.000    0.000    0.000    0.000 
#
# Total GULP energy -89280.786638 kJ/mol
# GULP energy per Si atom -5580.049165 kJ/mol
# Density = 2.221517 g / cm^3
# Si number density = 22.265850 Si / 1000 Ang^3
#
#
#
# Elastic Constant Matrix: (Units=GPa)
#
#
# Indices 1 2 3 4 5 6 
#
# 1 115.4397 27.7011 62.7079 0.0000 -41.3300 0.0000
# 2 27.7011 20.5320 21.9392 0.0001 -1.9309 0.0000
# 3 62.7079 21.9392 124.1509 0.0001 -31.2967 0.0000
# 4 0.0000 0.0001 0.0001 14.6205 0.0000 -6.0886
# 5 -41.3300 -1.9309 -31.2967 0.0000 54.1537 0.0000
# 6 0.0000 0.0000 0.0000 -6.0886 0.0000 17.2391
#
#
#
# Elastic Compliance Matrix: (Units=1/GPa)
#
#
# Indices 1 2 3 4 5 6 
#
# 1 0.020599 -0.023405 -0.002945 0.000000 0.013185 0.000000
# 2 -0.023405 0.087662 -0.008644 0.000000 -0.019732 0.000000
# 3 -0.002945 -0.008644 0.012203 0.000000 0.004497 0.000000
# 4 0.000000 0.000000 0.000000 0.080192 0.000000 0.028322
# 5 0.013185 -0.019732 0.004497 0.000000 0.030424 0.000000
# 6 0.000000 0.000000 0.000000 0.028322 0.000000 0.068011
#
#
# Mechanical properties :
#
#
# Convention : Reuss Voigt Hill
#
# Bulk Modulus (GPa) = 19.81080 53.86877 36.83979
# Shear Modulus (GPa) = 12.95665 27.05428 20.00547
#
# Velocity S-wave (km/s) = 2.41489 3.48955 3.00072
# Velocity P-wave (km/s) = 4.08562 6.36254 5.34669
#
# Compressibility (1/GPa) = 0.05047752
#
# Stress axis : x y z
#
# Youngs Moduli (GPa) = 48.54662 11.40745 81.94617
#
# Poissons Ratio (x) = 0.26699 0.24131
# Poissons Ratio (y) = 1.13622 0.70832
# Poissons Ratio (z) = 0.14296 0.09860
#
# Static dielectric constant tensor:
#      x y z
#    x 1.893540 0.000000 -0.067130 
#    y 0.000000 1.851990 0.000000 
#    z -0.067130 0.000000 1.841890 
# 
# From -- ./inp_files/61706.got.cif
#   From: 2010.05.17/outbox.cif.g08.bks.cpg/sg5_31_cif.got.tgz:61706.got - 2010.06.03 18:56:24.
