data_PCOD9122631
_publ_section_title
;
Structure prediction by ZEFSAII (Michael W. Deem and Ramdas Pophale) SiO2 
 PCOD9122631
Probable space group: C 2
;
_chemical_formula_sum "Si O2"
_cell_formula_units_Z 26
_cell_length_a 11.254042
_cell_length_b 8.866686
_cell_length_c 14.382980
_cell_angle_alpha 90.000000
_cell_angle_beta 119.771683
_cell_angle_gamma 90.000000
_cell_volume 1245.787440
_symmetry_space_group_name_H-M "C 2"
_symmetry_group_IT_number 5
_symmetry_cell_setting 'monoclinic'
loop_
_space_group_symop_operation_xyz
x,y,z
-x,y,-z
1/2+x,1/2+y,z
1/2-x,1/2+y,-z
loop_
_atom_site_type_symbol
_atom_site_label
_atom_site_fract_x
_atom_site_fract_y
_atom_site_fract_z
Si Si1 0.026042 0.169160 0.148237
Si Si2 0.981194 0.372636 0.684266
Si Si3 0.761298 0.583285 0.696111
Si Si4 0.296812 0.182537 0.001033
Si Si5 0.000000 0.216002 0.500000
Si Si6 0.198764 0.874947 0.178651
Si Si7 0.213609 0.396681 0.110884
O O1 0.036035 0.224961 0.257902
O O2 0.099149 0.296643 0.115661
O O3 0.867188 0.159320 0.062458
O O4 0.103624 0.015394 0.159684
O O5 0.874785 0.493429 0.682404
O O6 0.958142 0.322605 0.569823
O O7 0.140196 0.420470 0.758890
O O8 0.625126 0.614395 0.584680
O O9 0.815908 0.746030 0.749592
O O10 0.729449 0.496786 0.781367
O O11 0.333685 0.293504 0.931167
O O12 0.343961 0.014680 0.989769
O O13 0.318759 0.279100 0.103023
#
# Coordination Sequence:
#
# PCOD9122631 Si02
#       7
#     4   4   4   4   2   4   4
#     4  10  20  36  57  82 114 150 187 239 296 343
#     4   9  20  37  57  82 114 147 188 244 295 346
#     4   9  20  38  60  86 118 155 196 245 294 344
#     4  10  20  35  55  81 117 154 191 237 282 339
#     4  10  20  38  60  84 118 154 196 248 302 344
#     4   9  19  36  58  84 113 148 191 236 289 350
#     4  10  20  36  57  85 117 155 196 232 283 345
#
# _framework density 20.870335000000001
#
# number of rings (size 3 to 8) (size 9 to 14) (size 15 to 20)
#    0.000    2.462    0.000    2.308    0.000    3.692 
#    0.000    9.231    0.000    1.846    0.000    0.000 
#    0.000    0.000    0.000    0.000    0.000    0.000 
#
# Total GULP energy -72652.369362 kJ/mol
# GULP energy per Si atom -5588.643797 kJ/mol
# Density = 2.082283 g / cm^3
# Si number density = 20.870335 Si / 1000 Ang^3
#
#
#
# Elastic Constant Matrix: (Units=GPa)
#
#
# Indices 1 2 3 4 5 6 
#
# 1 114.9544 78.8208 46.0953 0.0000 -5.8504 0.0000
# 2 78.8208 143.5203 45.5561 0.0000 0.9123 0.0000
# 3 46.0953 45.5561 85.3548 0.0000 -18.3442 0.0000
# 4 0.0000 0.0000 0.0000 14.0123 0.0000 -2.1267
# 5 -5.8504 0.9123 -18.3442 0.0000 32.2793 0.0000
# 6 0.0000 0.0000 0.0000 -2.1267 0.0000 55.6625
#
#
#
# Elastic Compliance Matrix: (Units=1/GPa)
#
#
# Indices 1 2 3 4 5 6 
#
# 1 0.015296 -0.006998 -0.004428 0.000000 0.000454 0.000000
# 2 -0.006998 0.011885 -0.003314 0.000000 -0.003487 0.000000
# 3 -0.004428 -0.003314 0.017911 0.000000 0.009470 0.000000
# 4 0.000000 0.000000 0.000000 0.071782 0.000000 0.002743
# 5 0.000454 -0.003487 0.009470 0.000000 0.036542 0.000000
# 6 0.000000 0.000000 0.000000 0.002743 0.000000 0.018070
#
#
# Mechanical properties :
#
#
# Convention : Reuss Voigt Hill
#
# Bulk Modulus (GPa) = 64.05028 76.08600 70.06814
# Shear Modulus (GPa) = 24.25187 31.94795 28.09991
#
# Velocity S-wave (km/s) = 3.41255 3.91677 3.67332
# Velocity P-wave (km/s) = 6.80320 7.54920 7.18589
#
# Compressibility (1/GPa) = 0.01561274
#
# Stress axis : x y z
#
# Youngs Moduli (GPa) = 65.37654 84.14109 55.83179
#
# Poissons Ratio (x) = 0.58881 0.24723
# Poissons Ratio (y) = 0.45749 0.18500
# Poissons Ratio (z) = 0.28949 0.27881
#
# Static dielectric constant tensor:
#      x y z
#    x 1.761870 0.000000 -0.010380 
#    y 0.000000 1.766460 0.000000 
#    z -0.010380 0.000000 1.765000 
# 
# From -- ./inp_files/52151.got.cif
#   From: 2010.05.17/outbox.cif.g08.bks.cpg/sg5_27_cif.got.tgz:52151.got - 2010.06.03 18:56:24.
