data_PCOD9122470
_publ_section_title
;
Structure prediction by ZEFSAII (Michael W. Deem and Ramdas Pophale) SiO2 
 PCOD9122470
Probable space group: C 2
;
_chemical_formula_sum "Si O2"
_cell_formula_units_Z 30
_cell_length_a 13.919872
_cell_length_b 24.244701
_cell_length_c 5.179025
_cell_angle_alpha 90.000000
_cell_angle_beta 115.950713
_cell_angle_gamma 90.000000
_cell_volume 1571.600945
_symmetry_space_group_name_H-M "C 2"
_symmetry_group_IT_number 5
_symmetry_cell_setting 'monoclinic'
loop_
_space_group_symop_operation_xyz
x,y,z
-x,y,-z
1/2+x,1/2+y,z
1/2-x,1/2+y,-z
loop_
_atom_site_type_symbol
_atom_site_label
_atom_site_fract_x
_atom_site_fract_y
_atom_site_fract_z
Si Si1 0.911048 0.986490 0.737294
Si Si2 0.239601 0.117393 0.803626
Si Si3 0.746122 0.408061 0.718836
Si Si4 0.287097 0.048583 0.349104
Si Si5 0.876714 0.796565 0.326979
Si Si6 0.620357 0.937892 0.619521
Si Si7 0.624077 0.223430 0.172610
Si Si8 0.000000 0.082640 0.500000
O O1 0.851556 0.950177 0.453798
O O2 0.818072 0.010344 0.809293
O O3 0.969466 0.039847 0.689588
O O4 0.000000 0.953433 0.000000
O O5 0.272981 0.075768 0.612405
O O6 0.292805 0.175151 0.792264
O O7 0.109752 0.116470 0.673229
O O8 0.286674 0.093954 0.126281
O O9 0.699369 0.348055 0.716864
O O10 0.816646 0.409795 0.541978
O O11 0.817367 0.427866 0.041098
O O12 0.379536 0.003545 0.442078
O O13 0.860278 0.749712 0.526605
O O14 0.000000 0.814651 0.500000
O O15 0.862543 0.770496 0.028217
O O16 0.500000 0.917454 0.500000
O O17 0.500000 0.203824 0.000000
#
# Coordination Sequence:
#
# PCOD9122470 Si02
#       8
#     4   4   4   4   4   4   4   2
#     4  10  20  33  55  88 131 152 191 242 301 383
#     4  11  21  36  60  83 121 161 200 246 302 362
#     4  11  24  37  64  91 118 162 208 245 320 367
#     4  10  21  35  53  89 115 159 196 235 289 361
#     4  10  22  41  63  90 117 148 198 268 312 358
#     4  11  23  41  59  85 127 165 201 246 292 368
#     4  10  22  40  61  85 117 155 206 261 308 348
#     4  10  20  34  54  86 130 156 194 238 316 360
#
# _framework density 19.088815
#
# number of rings (size 3 to 8) (size 9 to 14) (size 15 to 20)
#    0.000    1.600    1.333    4.400    2.800    2.667 
#    0.000    0.000    8.800    0.000    0.000    0.000 
#    0.000    0.000    0.000    0.000    0.000    0.000 
#
# Total GULP energy -83755.609229 kJ/mol
# GULP energy per Si atom -5583.707282 kJ/mol
# Density = 1.904537 g / cm^3
# Si number density = 19.088815 Si / 1000 Ang^3
#
#
#
# Elastic Constant Matrix: (Units=GPa)
#
#
# Indices 1 2 3 4 5 6 
#
# 1 101.8430 33.7293 29.0227 0.0000 6.6486 0.0000
# 2 33.7293 47.3501 -1.6061 0.0000 18.9595 0.0000
# 3 29.0227 -1.6061 71.2226 0.0000 -4.0705 0.0000
# 4 0.0000 0.0000 0.0000 12.8602 0.0000 -5.5747
# 5 6.6486 18.9595 -4.0705 0.0000 29.3596 0.0000
# 6 0.0000 0.0000 0.0000 -5.5747 0.0000 33.3156
#
#
#
# Elastic Compliance Matrix: (Units=1/GPa)
#
#
# Indices 1 2 3 4 5 6 
#
# 1 0.015704 -0.012979 -0.006467 0.000000 0.003929 0.000000
# 2 -0.012979 0.039224 0.004933 0.000000 -0.021706 0.000000
# 3 -0.006467 0.004933 0.016822 0.000000 0.000611 0.000000
# 4 0.000000 0.000000 0.000000 0.083841 0.000000 0.014029
# 5 0.003929 -0.021706 0.000611 0.000000 0.047273 0.000000
# 6 0.000000 0.000000 0.000000 0.014029 0.000000 0.032364
#
#
# Mechanical properties :
#
#
# Convention : Reuss Voigt Hill
#
# Bulk Modulus (GPa) = 23.40697 38.07861 30.74279
# Shear Modulus (GPa) = 17.95362 25.72505 21.83933
#
# Velocity S-wave (km/s) = 3.07013 3.67502 3.38611
# Velocity P-wave (km/s) = 4.98562 6.16434 5.60605
#
# Compressibility (1/GPa) = 0.04272231
#
# Stress axis : x y z
#
# Youngs Moduli (GPa) = 63.67731 25.49491 59.44557
#
# Poissons Ratio (x) = 0.33090 0.38446
# Poissons Ratio (y) = 0.82647 -0.29324
# Poissons Ratio (z) = 0.41183 -0.12576
#
# Static dielectric constant tensor:
#      x y z
#    x 1.707710 0.000000 0.003750 
#    y 0.000000 1.641970 0.000000 
#    z 0.003750 0.000000 1.691710 
# 
# From -- ./inp_files/7591.got.cif
#   From: 2010.05.17/outbox.cif.g08.bks.cpg/sg5_4_cif.got.tgz:7591.got - 2010.06.03 18:56:24.
