data_PCOD9122218
_publ_section_title
;
Structure prediction by ZEFSAII (Michael W. Deem and Ramdas Pophale) SiO2 
 PCOD9122218
Probable space group: C 2
;
_chemical_formula_sum "Si O2"
_cell_formula_units_Z 32
_cell_length_a 23.580327
_cell_length_b 9.678073
_cell_length_c 8.588315
_cell_angle_alpha 90.000000
_cell_angle_beta 41.584426
_cell_angle_gamma 90.000000
_cell_volume 1300.868805
_symmetry_space_group_name_H-M "C 2"
_symmetry_group_IT_number 5
_symmetry_cell_setting 'monoclinic'
loop_
_space_group_symop_operation_xyz
x,y,z
-x,y,-z
1/2+x,1/2+y,z
1/2-x,1/2+y,-z
loop_
_atom_site_type_symbol
_atom_site_label
_atom_site_fract_x
_atom_site_fract_y
_atom_site_fract_z
Si Si1 0.994248 0.853760 0.752518
Si Si2 0.789864 0.281368 0.423400
Si Si3 0.496720 0.051607 0.829264
Si Si4 0.589474 0.810770 0.516119
Si Si5 0.142103 0.867314 0.225601
Si Si6 0.300847 0.055302 0.225958
Si Si7 0.219680 0.146135 0.068283
Si Si8 0.946169 0.143213 0.957556
O O1 0.923617 0.812396 0.768692
O O2 0.017697 0.712847 0.788214
O O3 0.079690 0.911007 0.493899
O O4 0.952072 0.979155 0.930095
O O5 0.847364 0.300589 0.462124
O O6 0.710935 0.188082 0.638874
O O7 0.766025 0.424842 0.393043
O O8 0.851439 0.200161 0.176298
O O9 0.557800 0.967970 0.588495
O O10 0.500000 0.996906 0.000000
O O11 0.398793 0.029139 0.985548
O O12 0.642254 0.750561 0.264393
O O13 0.503675 0.719221 0.710644
O O14 0.188406 0.002652 0.057426
O O15 0.205818 0.745783 0.145873
O O16 0.251476 0.086784 0.169627
O O17 0.000000 0.178778 0.000000
#
# Coordination Sequence:
#
# PCOD9122218 Si02
#       8
#     4   4   4   4   4   4   4   4
#     4  11  25  43  67  97 130 171 224 274 320 388
#     4  10  22  37  63  97 140 165 207 263 331 399
#     4  12  22  41  70 102 135 167 212 265 335 406
#     4  10  20  41  65  93 129 172 208 258 328 403
#     4  11  26  47  65  91 130 175 229 278 316 376
#     4  11  23  40  62 101 134 171 216 269 328 397
#     4  11  25  46  66  91 132 174 226 279 324 374
#     4  10  19  39  66  94 130 174 203 255 333 408
#
# _framework density 24.598943999999999
#
# number of rings (size 3 to 8) (size 9 to 14) (size 15 to 20)
#    0.000    1.250    5.000    0.750    3.500    2.000 
#    0.000    0.000    0.000    0.000    0.000    0.000 
#    0.000    0.000    0.000    0.000    0.000    0.000 
#
# Total GULP energy -89518.597335 kJ/mol
# GULP energy per Si atom -5594.912333 kJ/mol
# Density = 2.454296 g / cm^3
# Si number density = 24.598944 Si / 1000 Ang^3
#
#
#
# Elastic Constant Matrix: (Units=GPa)
#
#
# Indices 1 2 3 4 5 6 
#
# 1 46.7789 5.3542 15.3367 0.0000 -11.8005 0.0000
# 2 5.3542 146.9306 14.2100 0.0000 -4.8978 0.0000
# 3 15.3367 14.2100 58.4175 0.0000 -20.4705 0.0000
# 4 0.0000 0.0000 0.0000 50.2319 0.0000 -0.8091
# 5 -11.8005 -4.8978 -20.4705 0.0000 18.3534 0.0000
# 6 0.0000 0.0000 0.0000 -0.8091 0.0000 23.2408
#
#
#
# Elastic Compliance Matrix: (Units=1/GPa)
#
#
# Indices 1 2 3 4 5 6 
#
# 1 0.025615 -0.000298 -0.001492 0.000000 0.014726 0.000000
# 2 -0.000298 0.006973 -0.001696 0.000000 -0.000222 0.000000
# 3 -0.001492 -0.001696 0.028609 0.000000 0.030498 0.000000
# 4 0.000000 0.000000 0.000000 0.019919 0.000000 0.000693
# 5 0.014726 -0.000222 0.030498 0.000000 0.097910 0.000000
# 6 0.000000 0.000000 0.000000 0.000693 0.000000 0.043052
#
#
# Mechanical properties :
#
#
# Convention : Reuss Voigt Hill
#
# Bulk Modulus (GPa) = 18.44161 35.76987 27.10574
# Shear Modulus (GPa) = 20.23252 32.84694 26.53973
#
# Velocity S-wave (km/s) = 2.87103 3.65814 3.28822
# Velocity P-wave (km/s) = 4.30158 5.69345 5.04574
#
# Compressibility (1/GPa) = 0.05422521
#
# Stress axis : x y z
#
# Youngs Moduli (GPa) = 39.03926 143.40197 34.95362
#
# Poissons Ratio (x) = 0.04277 0.05216
# Poissons Ratio (y) = 0.01164 0.05928
# Poissons Ratio (z) = 0.05826 0.24319
#
# Static dielectric constant tensor:
#      x y z
#    x 1.990290 0.000000 0.016650 
#    y 0.000000 1.948130 0.000000 
#    z 0.016650 0.000000 1.942330 
# 
# From -- ./inp_files/48384.got.cif
#   From: 2010.05.17/outbox.cif.g08.bks.cpg/sg5_25_cif.got.tgz:48384.got - 2010.06.03 18:56:24.
