data_PCOD9122655
_publ_section_title
;
Structure prediction by ZEFSAII (Michael W. Deem and Ramdas Pophale) SiO2 
 PCOD9122655
Probable space group: C 2
;
_chemical_formula_sum "Si O2"
_cell_formula_units_Z 26
_cell_length_a 13.909808
_cell_length_b 11.399463
_cell_length_c 9.317570
_cell_angle_alpha 90.000000
_cell_angle_beta 87.886633
_cell_angle_gamma 90.000000
_cell_volume 1476.429428
_symmetry_space_group_name_H-M "C 2"
_symmetry_group_IT_number 5
_symmetry_cell_setting 'monoclinic'
loop_
_space_group_symop_operation_xyz
x,y,z
-x,y,-z
1/2+x,1/2+y,z
1/2-x,1/2+y,-z
loop_
_atom_site_type_symbol
_atom_site_label
_atom_site_fract_x
_atom_site_fract_y
_atom_site_fract_z
Si Si1 0.500000 0.335510 0.500000
Si Si2 0.110311 0.649539 0.646739
Si Si3 0.825105 0.226637 0.636365
Si Si4 0.497501 0.688893 0.829317
Si Si5 0.013897 0.457868 0.831029
Si Si6 0.841496 0.491366 0.629700
Si Si7 0.626032 0.540144 0.609087
O O1 0.524873 0.244429 0.628031
O O2 0.586948 0.427237 0.522835
O O3 0.212080 0.711039 0.671014
O O4 0.124294 0.579256 0.496108
O O5 0.088518 0.551120 0.764900
O O6 0.889441 0.199916 0.772638
O O7 0.845068 0.356966 0.578499
O O8 0.858670 0.138409 0.511911
O O9 0.538848 0.821007 0.800116
O O10 0.553445 0.591383 0.732558
O O11 0.500000 0.666225 0.000000
O O12 0.914612 0.491799 0.757302
O O13 0.000000 0.468632 0.000000
O O14 0.730584 0.516929 0.670952
#
# Coordination Sequence:
#
# PCOD9122655 Si02
#       7
#     2   4   4   4   4   4   4
#     4  12  20  36  56  84 112 140 172 242 258 330
#     4  11  21  35  58  82 112 139 182 227 271 318
#     4  10  20  35  58  82 106 142 184 226 270 316
#     4  10  21  38  57  79 111 146 182 221 266 323
#     4  10  21  38  57  79 111 146 182 221 266 323
#     4  10  20  35  58  82 106 142 184 226 270 316
#     4  11  21  35  58  82 112 139 182 227 271 318
#
# _framework density 17.610053000000001
#
# number of rings (size 3 to 8) (size 9 to 14) (size 15 to 20)
#    0.000    1.538    4.615    0.923    0.000    3.692 
#    0.000    0.769    0.000    0.000    0.000    0.000 
#    0.000    0.000    0.000    0.000    0.000    0.000 
#
# Total GULP energy -72388.580103 kJ/mol
# GULP energy per Si atom -5568.352316 kJ/mol
# Density = 1.756997 g / cm^3
# Si number density = 17.610053 Si / 1000 Ang^3
#
#
#
# Elastic Constant Matrix: (Units=GPa)
#
#
# Indices 1 2 3 4 5 6 
#
# 1 44.0503 24.2593 11.8440 0.0000 -3.4474 0.0000
# 2 24.2593 84.2707 20.0057 0.0000 0.3377 0.0000
# 3 11.8440 20.0057 54.6847 0.0000 4.1778 0.0000
# 4 0.0000 0.0000 0.0000 22.1037 0.0000 3.3215
# 5 -3.4474 0.3377 4.1778 0.0000 13.1518 0.0000
# 6 0.0000 0.0000 0.0000 3.3215 0.0000 30.3219
#
#
#
# Elastic Compliance Matrix: (Units=1/GPa)
#
#
# Indices 1 2 3 4 5 6 
#
# 1 0.028531 -0.007249 -0.004216 0.000000 0.009004 0.000000
# 2 -0.007249 0.014855 -0.003782 0.000000 -0.001080 0.000000
# 3 -0.004216 -0.003782 0.021174 0.000000 -0.007734 0.000000
# 4 0.000000 0.000000 0.000000 0.045999 0.000000 -0.005039
# 5 0.009004 -0.001080 -0.007734 0.000000 0.080880 0.000000
# 6 0.000000 0.000000 0.000000 -0.005039 0.000000 0.033531
#
#
# Mechanical properties :
#
#
# Convention : Reuss Voigt Hill
#
# Bulk Modulus (GPa) = 29.35294 32.80262 31.07778
# Shear Modulus (GPa) = 18.73921 21.57524 20.15723
#
# Velocity S-wave (km/s) = 3.26562 3.50403 3.38693
# Velocity P-wave (km/s) = 5.56089 5.91935 5.74292
#
# Compressibility (1/GPa) = 0.03406814
#
# Stress axis : x y z
#
# Youngs Moduli (GPa) = 35.04907 67.31530 47.22724
#
# Poissons Ratio (x) = 0.48795 0.19909
# Poissons Ratio (y) = 0.25406 0.17862
# Poissons Ratio (z) = 0.14775 0.25460
#
# Static dielectric constant tensor:
#      x y z
#    x 1.626070 0.000000 0.019070 
#    y 0.000000 1.623210 0.000000 
#    z 0.019070 0.000000 1.557180 
# 
# From -- ./inp_files/23356.got.cif
#   From: 2010.05.17/outbox.cif.g08.bks.cpg/sg5_12_cif.got.tgz:23356.got - 2010.06.03 18:56:24.
