data_PCOD9122324
_publ_section_title
;
Structure prediction by ZEFSAII (Michael W. Deem and Ramdas Pophale) SiO2 
 PCOD9122324
Probable space group: C 2
;
_chemical_formula_sum "Si O2"
_cell_formula_units_Z 26
_cell_length_a 9.718167
_cell_length_b 18.362271
_cell_length_c 14.360023
_cell_angle_alpha 90.000000
_cell_angle_beta 150.435864
_cell_angle_gamma 90.000000
_cell_volume 1264.336987
_symmetry_space_group_name_H-M "C 2"
_symmetry_group_IT_number 5
_symmetry_cell_setting 'monoclinic'
loop_
_space_group_symop_operation_xyz
x,y,z
-x,y,-z
1/2+x,1/2+y,z
1/2-x,1/2+y,-z
loop_
_atom_site_type_symbol
_atom_site_label
_atom_site_fract_x
_atom_site_fract_y
_atom_site_fract_z
Si Si1 0.766416 0.835430 0.545499
Si Si2 0.052414 0.017019 0.921440
Si Si3 0.500000 0.268541 0.500000
Si Si4 0.000000 0.461448 0.500000
Si Si5 0.318697 0.892744 0.972671
Si Si6 0.992863 0.237753 0.103191
Si Si7 0.000000 0.203136 0.500000
Si Si8 0.961322 0.642521 0.086910
O O1 0.575541 0.905011 0.459846
O O2 0.633391 0.760223 0.504846
O O3 0.851641 0.818206 0.490607
O O4 0.047162 0.855574 0.767010
O O5 0.765685 0.007907 0.692407
O O6 0.219864 0.943187 0.996962
O O7 0.257528 0.080428 0.006943
O O8 0.000000 0.025214 0.000000
O O9 0.726244 0.215961 0.680933
O O10 0.500000 0.933609 0.000000
O O11 0.504535 0.825064 0.111619
O O12 0.718286 0.214255 0.995055
O O13 0.000000 0.213840 0.000000
O O14 0.757675 0.154101 0.311843
O O15 0.000000 0.633510 0.000000
#
# Coordination Sequence:
#
# PCOD9122324 Si02
#       8
#     4   4   2   2   4   4   2   4
#     4  10  20  37  63  97 127 161 204 263 315 364
#     4  11  26  43  65  91 126 174 212 258 320 377
#     4  12  20  33  63 103 123 164 202 254 320 377
#     4   9  24  43  62  90 130 162 210 266 309 377
#     4  10  19  41  63  94 131 159 202 263 309 371
#     4  11  22  39  63  96 132 162 208 262 312 374
#     4  11  22  44  63  91 129 162 214 264 311 374
#     4  12  26  43  64  94 126 173 213 260 319 375
#
# _framework density 20.564139000000001
#
# number of rings (size 3 to 8) (size 9 to 14) (size 15 to 20)
#    0.000    1.231    4.615    1.846    2.154    2.462 
#    0.000    0.769    0.000    0.000    0.000    0.000 
#    0.000    0.000    0.000    0.000    0.000    0.000 
#
# Total GULP energy -72545.136747 kJ/mol
# GULP energy per Si atom -5580.395134 kJ/mol
# Density = 2.051733 g / cm^3
# Si number density = 20.564139 Si / 1000 Ang^3
#
#
#
# Elastic Constant Matrix: (Units=GPa)
#
#
# Indices 1 2 3 4 5 6 
#
# 1 187.3519 54.7616 60.3976 0.0075 -17.9504 0.0054
# 2 54.7616 71.3708 38.5622 0.0039 -2.7381 0.0046
# 3 60.3976 38.5622 155.6127 0.0206 9.9287 0.0181
# 4 0.0075 0.0039 0.0206 20.7339 0.0102 16.2854
# 5 -17.9504 -2.7381 9.9287 0.0102 37.9218 0.0076
# 6 0.0054 0.0046 0.0181 16.2854 0.0076 32.8749
#
#
#
# Elastic Compliance Matrix: (Units=1/GPa)
#
#
# Indices 1 2 3 4 5 6 
#
# 1 0.007749 -0.004662 -0.002100 -0.000002 0.003881 0.000001
# 2 -0.004662 0.019174 -0.002939 0.000002 -0.000053 -0.000001
# 3 -0.002100 -0.002939 0.008183 -0.000005 -0.003349 -0.000001
# 4 -0.000002 0.000002 -0.000005 0.078948 -0.000013 -0.039109
# 5 0.003881 -0.000053 -0.003349 -0.000013 0.029080 0.000001
# 6 0.000001 -0.000001 -0.000001 -0.039109 0.000001 0.049792
#
#
# Mechanical properties :
#
#
# Convention : Reuss Voigt Hill
#
# Bulk Modulus (GPa) = 63.67427 80.19758 71.93593
# Shear Modulus (GPa) = 22.98180 35.68038 29.33109
#
# Velocity S-wave (km/s) = 3.34663 4.16995 3.78077
# Velocity P-wave (km/s) = 6.77969 7.89101 7.35637
#
# Compressibility (1/GPa) = 0.01570493
#
# Stress axis : x y z
#
# Youngs Moduli (GPa) = 129.04675 52.15312 122.20254
#
# Poissons Ratio (x) = 0.24315 0.25662
# Poissons Ratio (y) = 0.60165 0.35911
# Poissons Ratio (z) = 0.27099 0.15326
#
# Static dielectric constant tensor:
#      x y z
#    x 1.764630 -0.000010 0.039210 
#    y -0.000010 1.779310 -0.000010 
#    z 0.039210 -0.000010 1.774290 
# 
# From -- ./inp_files/37427.got.cif
#   From: 2010.05.17/outbox.cif.g08.bks.cpg/sg5_19_cif.got.tgz:37427.got - 2010.06.03 18:56:24.
