data_PCOD9122393
_publ_section_title
;
Structure prediction by ZEFSAII (Michael W. Deem and Ramdas Pophale) SiO2 
 PCOD9122393
Probable space group: C 2
;
_chemical_formula_sum "Si O2"
_cell_formula_units_Z 16
_cell_length_a 12.657099
_cell_length_b 7.648608
_cell_length_c 8.556585
_cell_angle_alpha 90.000000
_cell_angle_beta 126.592232
_cell_angle_gamma 90.000000
_cell_volume 665.085668
_symmetry_space_group_name_H-M "C 2"
_symmetry_group_IT_number 5
_symmetry_cell_setting 'monoclinic'
loop_
_space_group_symop_operation_xyz
x,y,z
-x,y,-z
1/2+x,1/2+y,z
1/2-x,1/2+y,-z
loop_
_atom_site_type_symbol
_atom_site_label
_atom_site_fract_x
_atom_site_fract_y
_atom_site_fract_z
Si Si1 0.951909 0.041290 0.635626
Si Si2 0.272876 0.774485 0.660815
Si Si3 0.866362 0.471170 0.301810
Si Si4 0.810635 0.805844 0.077619
O O1 0.900622 0.216452 0.676429
O O2 0.000000 0.062437 0.500000
O O3 0.833879 0.899037 0.514132
O O4 0.074488 0.950149 0.832021
O O5 0.206900 0.586246 0.633542
O O6 0.279896 0.840087 0.847336
O O7 0.876418 0.618850 0.173466
O O8 0.000000 0.424181 0.500000
O O9 0.778831 0.317883 0.153687
#
# Coordination Sequence:
#
# PCOD9122393 Si02
#       4
#     4   4   4   4
#     4  10  19  44  70 101 145 178 230 291 340 406
#     4   9  20  41  67 105 136 185 229 279 350 403
#     4  10  19  44  69 101 144 178 229 286 339 410
#     4   9  20  41  69  99 143 179 227 286 337 413
#
# _framework density 24.057054000000001
#
# number of rings (size 3 to 8) (size 9 to 14) (size 15 to 20)
#    1.500    1.000    2.500    0.000    0.000    1.000 
#   13.500    5.000    0.000    0.000    0.000    0.000 
#    0.000    0.000    0.000    0.000    0.000    0.000 
#
# Total GULP energy -44599.915549 kJ/mol
# GULP energy per Si atom -5574.989444 kJ/mol
# Density = 2.400230 g / cm^3
# Si number density = 24.057054 Si / 1000 Ang^3
#
#
#
# Elastic Constant Matrix: (Units=GPa)
#
#
# Indices 1 2 3 4 5 6 
#
# 1 101.2453 50.9500 34.9763 0.0000 -3.1266 0.0000
# 2 50.9500 103.7538 57.2085 0.0000 4.3680 0.0000
# 3 34.9763 57.2085 151.8467 0.0000 34.3388 0.0000
# 4 0.0000 0.0000 0.0000 41.7825 0.0000 -6.6074
# 5 -3.1266 4.3680 34.3388 0.0000 16.4929 0.0000
# 6 0.0000 0.0000 0.0000 -6.6074 0.0000 50.7626
#
#
#
# Elastic Compliance Matrix: (Units=1/GPa)
#
#
# Indices 1 2 3 4 5 6 
#
# 1 0.014409 -0.005260 -0.004290 0.000000 0.013056 0.000000
# 2 -0.005260 0.015473 -0.006549 0.000000 0.008540 0.000000
# 3 -0.004290 -0.006549 0.018582 0.000000 -0.037766 0.000000
# 4 0.000000 0.000000 0.000000 0.024436 0.000000 0.003181
# 5 0.013056 0.008540 -0.037766 0.000000 0.139476 0.000000
# 6 0.000000 0.000000 0.000000 0.003181 0.000000 0.020114
#
#
# Mechanical properties :
#
#
# Convention : Reuss Voigt Hill
#
# Bulk Modulus (GPa) = 61.47995 71.45727 66.46861
# Shear Modulus (GPa) = 18.51102 36.05500 27.28301
#
# Velocity S-wave (km/s) = 2.77693 3.87554 3.37129
# Velocity P-wave (km/s) = 5.99109 7.05650 6.54551
#
# Compressibility (1/GPa) = 0.01626546
#
# Stress axis : x y z
#
# Youngs Moduli (GPa) = 69.39986 64.62923 53.81685
#
# Poissons Ratio (x) = 0.33997 0.23086
# Poissons Ratio (y) = 0.36506 0.35245
# Poissons Ratio (z) = 0.29771 0.42326
#
# Static dielectric constant tensor:
#      x y z
#    x 2.031140 0.000000 -0.042410 
#    y 0.000000 1.951590 0.000000 
#    z -0.042410 0.000000 1.906820 
# 
# From -- ./inp_files/18392.got.cif
#   From: 2010.05.17/outbox.cif.g08.bks.cpg/sg5_10_cif.got.tgz:18392.got - 2010.06.03 18:56:24.
