data_PCOD9122022
_publ_section_title
;
Structure prediction by ZEFSAII (Michael W. Deem and Ramdas Pophale) SiO2 
 PCOD9122022
Probable space group: C 2
;
_chemical_formula_sum "Si O2"
_cell_formula_units_Z 20
_cell_length_a 6.955137
_cell_length_b 8.087699
_cell_length_c 14.483354
_cell_angle_alpha 90.000000
_cell_angle_beta 111.907509
_cell_angle_gamma 90.000000
_cell_volume 755.872017
_symmetry_space_group_name_H-M "C 2"
_symmetry_group_IT_number 5
_symmetry_cell_setting 'monoclinic'
loop_
_space_group_symop_operation_xyz
x,y,z
-x,y,-z
1/2+x,1/2+y,z
1/2-x,1/2+y,-z
loop_
_atom_site_type_symbol
_atom_site_label
_atom_site_fract_x
_atom_site_fract_y
_atom_site_fract_z
Si Si1 0.183924 0.995260 0.980733
Si Si2 0.344375 0.238477 0.337004
Si Si3 0.149395 0.556547 0.292976
Si Si4 0.217911 0.230753 0.518465
Si Si5 0.685639 0.269690 0.131405
O O1 0.045603 0.849289 0.908530
O O2 0.294842 0.104570 0.926394
O O3 0.299375 0.906098 0.086767
O O4 0.000000 0.097335 0.000000
O O5 0.500000 0.816880 0.500000
O O6 0.412589 0.092228 0.280892
O O7 0.246006 0.188550 0.416738
O O8 0.572012 0.311670 0.404359
O O9 0.201813 0.376159 0.266709
O O10 0.272353 0.570143 0.412793
O O11 0.230320 0.701684 0.240882
#
# Coordination Sequence:
#
# PCOD9122022 Si02
#       5
#     4   4   4   4   4
#     4   8  20  36  64  94 129 176 206 285 334 407
#     4   9  21  36  61  97 130 185 222 282 335 396
#     4  10  19  37  67  91 138 170 240 272 334 407
#     4   9  21  37  59  97 132 189 214 286 329 404
#     4   9  18  39  64  99 128 178 222 275 341 402
#
# _framework density 26.459506999999999
#
# number of rings (size 3 to 8) (size 9 to 14) (size 15 to 20)
#    2.400    0.400    0.000    1.200    2.800    1.600 
#    3.600    4.000    8.800    0.000    0.000    0.000 
#    0.000    0.000    0.000    0.000    0.000    0.000 
#
# Total GULP energy -55692.207559 kJ/mol
# GULP energy per Si atom -5569.220756 kJ/mol
# Density = 2.639928 g / cm^3
# Si number density = 26.459507 Si / 1000 Ang^3
#
#
#
# Elastic Constant Matrix: (Units=GPa)
#
#
# Indices 1 2 3 4 5 6 
#
# 1 122.6001 47.4182 31.1866 0.0000 -16.8065 0.0000
# 2 47.4182 85.0501 30.9539 0.0000 -20.8333 0.0000
# 3 31.1866 30.9539 98.1471 0.0000 -21.6115 0.0000
# 4 0.0000 0.0000 0.0000 36.5251 0.0000 -7.1909
# 5 -16.8065 -20.8333 -21.6115 0.0000 39.0196 0.0000
# 6 0.0000 0.0000 0.0000 -7.1909 0.0000 49.1805
#
#
#
# Elastic Compliance Matrix: (Units=1/GPa)
#
#
# Indices 1 2 3 4 5 6 
#
# 1 0.010677 -0.005145 -0.001552 0.000000 0.000992 0.000000
# 2 -0.005145 0.016857 -0.002492 0.000000 0.005404 0.000000
# 3 -0.001552 -0.002492 0.012559 0.000000 0.004958 0.000000
# 4 0.000000 0.000000 0.000000 0.028190 0.000000 0.004122
# 5 0.000992 0.005404 0.004958 0.000000 0.031687 0.000000
# 6 0.000000 0.000000 0.000000 0.004122 0.000000 0.020936
#
#
# Mechanical properties :
#
#
# Convention : Reuss Voigt Hill
#
# Bulk Modulus (GPa) = 46.04684 58.32385 52.18534
# Shear Modulus (GPa) = 34.12471 38.02763 36.07617
#
# Velocity S-wave (km/s) = 3.59513 3.79516 3.69650
# Velocity P-wave (km/s) = 5.88845 6.42610 6.16314
#
# Compressibility (1/GPa) = 0.02171702
#
# Stress axis : x y z
#
# Youngs Moduli (GPa) = 93.65642 59.32285 79.62295
#
# Poissons Ratio (x) = 0.30523 0.12354
# Poissons Ratio (y) = 0.48188 0.19838
# Poissons Ratio (z) = 0.14531 0.14780
#
# Static dielectric constant tensor:
#      x y z
#    x 2.160210 0.000000 0.008110 
#    y 0.000000 2.173940 0.000000 
#    z 0.008110 0.000000 2.066770 
# 
# From -- ./inp_files/49800.got.cif
#   From: 2010.05.17/outbox.cif.g08.bks.cpg/sg5_25_cif.got.tgz:49800.got - 2010.06.03 18:56:24.
