data_PCOD9122914
_publ_section_title
;
Structure prediction by ZEFSAII (Michael W. Deem and Ramdas Pophale) SiO2 
 PCOD9122914
Probable space group: C 2
;
_chemical_formula_sum "Si O2"
_cell_formula_units_Z 26
_cell_length_a 11.954882
_cell_length_b 20.654280
_cell_length_c 8.877732
_cell_angle_alpha 90.000000
_cell_angle_beta 37.285960
_cell_angle_gamma 90.000000
_cell_volume 1327.950730
_symmetry_space_group_name_H-M "C 2"
_symmetry_group_IT_number 5
_symmetry_cell_setting 'monoclinic'
loop_
_space_group_symop_operation_xyz
x,y,z
-x,y,-z
1/2+x,1/2+y,z
1/2-x,1/2+y,-z
loop_
_atom_site_type_symbol
_atom_site_label
_atom_site_fract_x
_atom_site_fract_y
_atom_site_fract_z
Si Si1 0.373962 0.218290 0.269413
Si Si2 0.790775 0.504068 0.698685
Si Si3 0.524239 0.437802 0.162343
Si Si4 0.197143 0.322352 0.238679
Si Si5 0.691735 0.260882 0.158460
Si Si6 0.792816 0.148150 0.280150
Si Si7 0.000000 0.875574 0.500000
O O1 0.274194 0.276527 0.288291
O O2 0.513753 0.246927 0.244518
O O3 0.239741 0.174303 0.515122
O O4 0.500000 0.186668 0.000000
O O5 0.661196 0.461219 0.725228
O O6 0.796961 0.577758 0.637389
O O7 0.000000 0.483633 0.500000
O O8 0.671089 0.495688 0.980153
O O9 0.470129 0.419204 0.387405
O O10 0.645958 0.375321 0.973596
O O11 0.000000 0.348965 0.500000
O O12 0.161555 0.278495 0.127575
O O13 0.719592 0.201026 0.238572
O O14 0.664011 0.325329 0.286842
O O15 0.000000 0.138974 0.000000
#
# Coordination Sequence:
#
# PCOD9122914 Si02
#       7
#     4   4   4   4   4   4   2
#     4  10  21  36  63  97 130 166 208 268 331 386
#     4  11  24  43  67  89 121 181 222 255 317 386
#     4  10  23  42  65  95 129 170 217 264 314 393
#     4  10  21  38  64  98 131 163 211 267 333 381
#     4  10  20  36  63  93 126 167 203 269 329 378
#     4  12  22  40  64  92 129 167 225 265 318 390
#     4  10  20  40  66  92 134 160 202 274 330 362
#
# _framework density 19.579039999999999
#
# number of rings (size 3 to 8) (size 9 to 14) (size 15 to 20)
#    0.000    1.538    3.077    2.308   10.769    0.000 
#    0.000    6.923    0.000    0.000    0.000    0.000 
#    0.000    0.000    0.000    0.000    0.000    0.000 
#
# Total GULP energy -72381.463905 kJ/mol
# GULP energy per Si atom -5567.804916 kJ/mol
# Density = 1.953448 g / cm^3
# Si number density = 19.579040 Si / 1000 Ang^3
#
#
#
# Elastic Constant Matrix: (Units=GPa)
#
#
# Indices 1 2 3 4 5 6 
#
# 1 91.5110 48.6513 67.3701 0.0000 5.7082 0.0000
# 2 48.6513 101.3635 37.7380 0.0000 15.7452 0.0000
# 3 67.3701 37.7380 126.7951 0.0000 1.3247 0.0000
# 4 0.0000 0.0000 0.0000 20.2960 0.0000 -1.6602
# 5 5.7082 15.7452 1.3247 0.0000 40.0598 0.0000
# 6 0.0000 0.0000 0.0000 -1.6602 0.0000 23.8385
#
#
#
# Elastic Compliance Matrix: (Units=1/GPa)
#
#
# Indices 1 2 3 4 5 6 
#
# 1 0.021441 -0.006791 -0.009370 0.000000 -0.000076 0.000000
# 2 -0.006791 0.014020 -0.000518 0.000000 -0.004526 0.000000
# 3 -0.009370 -0.000518 0.013008 0.000000 0.001109 0.000000
# 4 0.000000 0.000000 0.000000 0.049553 0.000000 0.003451
# 5 -0.000076 -0.004526 0.001109 0.000000 0.026716 0.000000
# 6 0.000000 0.000000 0.000000 0.003451 0.000000 0.042189
#
#
# Mechanical properties :
#
#
# Convention : Reuss Voigt Hill
#
# Bulk Modulus (GPa) = 66.17084 69.68761 67.92922
# Shear Modulus (GPa) = 24.35197 27.89955 26.12576
#
# Velocity S-wave (km/s) = 3.53055 3.77897 3.65687
# Velocity P-wave (km/s) = 7.10562 7.39669 7.25262
#
# Compressibility (1/GPa) = 0.01511240
#
# Stress axis : x y z
#
# Youngs Moduli (GPa) = 46.63957 71.32429 76.87581
#
# Poissons Ratio (x) = 0.48433 0.72036
# Poissons Ratio (y) = 0.31671 0.03979
# Poissons Ratio (z) = 0.43703 0.03692
#
# Static dielectric constant tensor:
#      x y z
#    x 1.700550 0.000000 -0.005760 
#    y 0.000000 1.747450 0.000000 
#    z -0.005760 0.000000 1.779600 
# 
# From -- ./inp_files/21893.got.cif
#   From: 2010.05.17/outbox.cif.g08.bks.cpg/sg5_11_cif.got.tgz:21893.got - 2010.06.03 18:56:24.
