data_PCOD9122494
_publ_section_title
;
Structure prediction by ZEFSAII (Michael W. Deem and Ramdas Pophale) SiO2 
 PCOD9122494
Probable space group: C 2
;
_chemical_formula_sum "Si O2"
_cell_formula_units_Z 20
_cell_length_a 21.188866
_cell_length_b 5.480793
_cell_length_c 7.061660
_cell_angle_alpha 90.000000
_cell_angle_beta 94.332347
_cell_angle_gamma 90.000000
_cell_volume 817.739936
_symmetry_space_group_name_H-M "C 2"
_symmetry_group_IT_number 5
_symmetry_cell_setting 'monoclinic'
loop_
_space_group_symop_operation_xyz
x,y,z
-x,y,-z
1/2+x,1/2+y,z
1/2-x,1/2+y,-z
loop_
_atom_site_type_symbol
_atom_site_label
_atom_site_fract_x
_atom_site_fract_y
_atom_site_fract_z
Si Si1 0.247647 0.322610 0.238433
Si Si2 0.304210 0.326609 0.837606
Si Si3 0.383953 0.167307 0.424362
Si Si4 0.572567 0.662914 0.555093
Si Si5 0.567067 0.362716 0.914545
O O1 0.217967 0.585582 0.279143
O O2 0.315905 0.261864 0.340883
O O3 0.206545 0.082824 0.267695
O O4 0.259284 0.336499 0.013839
O O5 0.375035 0.312261 0.932638
O O6 0.412551 0.400750 0.539279
O O7 0.428960 0.155271 0.246701
O O8 0.386899 0.894253 0.499251
O O9 0.500000 0.719856 0.500000
O O10 0.581616 0.595672 0.780723
O O11 0.500000 0.381122 0.000000
#
# Coordination Sequence:
#
# PCOD9122494 Si02
#       5
#     4   4   4   4   4
#     4   9  16  28  45  72 101 122 163 214 261 291
#     4   9  17  26  46  70 104 126 158 207 265 297
#     4   9  19  32  53  74 106 132 173 217 261 296
#     4  10  20  34  51  76 107 138 177 209 253 308
#     4   9  21  34  51  78 113 136 169 209 263 314
#
# _framework density 24.457653000000001
#
# number of rings (size 3 to 8) (size 9 to 14) (size 15 to 20)
#    1.200    1.600    0.000    1.800    8.400    0.800 
#    0.000    0.000    0.000    0.000    0.000    5.600 
#    0.000    0.000    0.000    0.000    0.000    0.000 
#
# Total GULP energy -55795.200379 kJ/mol
# GULP energy per Si atom -5579.520038 kJ/mol
# Density = 2.440199 g / cm^3
# Si number density = 24.457653 Si / 1000 Ang^3
#
#
#
# Elastic Constant Matrix: (Units=GPa)
#
#
# Indices 1 2 3 4 5 6 
#
# 1 81.2190 73.2296 14.9261 0.0000 7.3480 0.0000
# 2 73.2296 232.3536 33.1179 0.0000 10.5665 0.0000
# 3 14.9261 33.1179 62.5174 0.0000 -24.0832 0.0000
# 4 0.0000 0.0000 0.0000 19.2377 0.0000 11.3282
# 5 7.3480 10.5665 -24.0832 0.0000 38.1190 0.0000
# 6 0.0000 0.0000 0.0000 11.3282 0.0000 24.9509
#
#
#
# Elastic Compliance Matrix: (Units=1/GPa)
#
#
# Indices 1 2 3 4 5 6 
#
# 1 0.017724 -0.004951 -0.003168 0.000000 -0.004046 0.000000
# 2 -0.004951 0.006486 -0.003409 0.000000 -0.002997 0.000000
# 3 -0.003168 -0.003409 0.025319 0.000000 0.017552 0.000000
# 4 0.000000 0.000000 0.000000 0.070950 0.000000 -0.032213
# 5 -0.004046 -0.002997 0.017552 0.000000 0.038933 0.000000
# 6 0.000000 0.000000 0.000000 -0.032213 0.000000 0.054704
#
#
# Mechanical properties :
#
#
# Convention : Reuss Voigt Hill
#
# Bulk Modulus (GPa) = 37.77067 68.73748 53.25407
# Shear Modulus (GPa) = 20.32562 33.44927 26.88744
#
# Velocity S-wave (km/s) = 2.88593 3.70217 3.31924
# Velocity P-wave (km/s) = 5.15573 6.81473 6.04244
#
# Compressibility (1/GPa) = 0.02647557
#
# Stress axis : x y z
#
# Youngs Moduli (GPa) = 56.42042 154.17435 39.49632
#
# Poissons Ratio (x) = 0.76325 0.12511
# Poissons Ratio (y) = 0.27931 0.13463
# Poissons Ratio (z) = 0.17872 0.52552
#
# Static dielectric constant tensor:
#      x y z
#    x 1.926610 0.000000 -0.054330 
#    y 0.000000 1.974370 0.000000 
#    z -0.054330 0.000000 1.985800 
# 
# From -- ./inp_files/25995.got.cif
#   From: 2010.05.17/outbox.cif.g08.bks.cpg/sg5_13_cif.got.tgz:25995.got - 2010.06.03 18:56:24.
