data_PCOD9122906
_publ_section_title
;
Structure prediction by ZEFSAII (Michael W. Deem and Ramdas Pophale) SiO2 
 PCOD9122906
Probable space group: C 2
;
_chemical_formula_sum "Si O2"
_cell_formula_units_Z 30
_cell_length_a 14.627633
_cell_length_b 11.009060
_cell_length_c 19.715826
_cell_angle_alpha 90.000000
_cell_angle_beta 28.309286
_cell_angle_gamma 90.000000
_cell_volume 1505.667659
_symmetry_space_group_name_H-M "C 2"
_symmetry_group_IT_number 5
_symmetry_cell_setting 'monoclinic'
loop_
_space_group_symop_operation_xyz
x,y,z
-x,y,-z
1/2+x,1/2+y,z
1/2-x,1/2+y,-z
loop_
_atom_site_type_symbol
_atom_site_label
_atom_site_fract_x
_atom_site_fract_y
_atom_site_fract_z
Si Si1 0.645555 0.956450 0.348502
Si Si2 0.542177 0.559064 0.757589
Si Si3 0.000000 0.494457 0.000000
Si Si4 0.957332 0.636274 0.774291
Si Si5 0.385704 0.176760 0.461805
Si Si6 0.855325 0.677087 0.981816
Si Si7 0.384160 0.369384 0.749568
Si Si8 0.207625 0.915872 0.888508
O O1 0.500000 0.902275 0.500000
O O2 0.686703 0.884254 0.252224
O O3 0.842151 0.989249 0.259202
O O4 0.541041 0.082261 0.392255
O O5 0.690617 0.656147 0.628984
O O6 0.353298 0.628528 0.905980
O O7 0.484733 0.464894 0.734960
O O8 0.926792 0.579340 0.988354
O O9 0.816103 0.420199 0.145736
O O10 0.833835 0.749539 0.826355
O O11 0.839758 0.513234 0.840446
O O12 0.131759 0.637612 0.606176
O O13 0.996100 0.671793 0.825757
O O14 0.471979 0.312136 0.400254
O O15 0.831279 0.802797 0.037059
O O16 0.000000 0.966509 0.000000
#
# Coordination Sequence:
#
# PCOD9122906 Si02
#       8
#     4   4   2   4   4   4   4   4
#     4   9  19  37  59  86 115 150 192 240 292 350
#     4  10  20  36  63  84 118 153 196 245 300 355
#     4  10  22  38  56  84 122 156 194 244 304 354
#     4   9  22  37  56  86 112 157 202 235 300 351
#     4   8  19  38  57  86 111 150 202 231 291 358
#     4  11  23  37  57  90 119 153 198 246 306 348
#     4   9  21  37  62  80 120 160 196 236 302 356
#     4  11  22  36  58  85 122 147 200 251 283 353
#
# _framework density 19.924714999999999
#
# number of rings (size 3 to 8) (size 9 to 14) (size 15 to 20)
#    0.800    1.600    0.667    0.800    6.533    4.267 
#    0.000    0.000    2.933    1.600    0.000    0.000 
#    0.000    0.000    0.000    0.000    0.000    0.000 
#
# Total GULP energy -83542.694551 kJ/mol
# GULP energy per Si atom -5569.512970 kJ/mol
# Density = 1.987937 g / cm^3
# Si number density = 19.924715 Si / 1000 Ang^3
#
#
#
# Elastic Constant Matrix: (Units=GPa)
#
#
# Indices 1 2 3 4 5 6 
#
# 1 58.8178 -0.5811 30.8838 0.0009 14.6444 0.0000
# 2 -0.5811 46.8778 4.6988 0.0005 5.9389 0.0008
# 3 30.8838 4.6988 54.0969 0.0003 19.5760 0.0031
# 4 0.0009 0.0005 0.0003 -3.9143 0.0001 7.3121
# 5 14.6444 5.9389 19.5760 0.0001 36.6068 -0.0008
# 6 0.0000 0.0008 0.0031 7.3121 -0.0008 11.1306
#
#
#
# Elastic Compliance Matrix: (Units=1/GPa)
#
#
# Indices 1 2 3 4 5 6 
#
# 1 0.024709 0.002027 -0.013127 0.000005 -0.003194 0.000000
# 2 0.002027 0.021971 -0.001838 0.000000 -0.003392 -0.000001
# 3 -0.013127 -0.001838 0.029921 -0.000008 -0.010451 -0.000004
# 4 0.000005 0.000000 -0.000008 -0.114707 0.000004 0.075355
# 5 -0.003194 -0.003392 -0.010451 0.000004 0.034734 0.000003
# 6 0.000000 -0.000001 -0.000004 0.075355 0.000003 0.040339
#
#
# Mechanical properties :
#
#
# Convention : Reuss Voigt Hill
#
# Bulk Modulus (GPa) = 19.71382 25.53285 22.62333
# Shear Modulus (GPa) = 62.69375 17.08403 39.88889
#
# Velocity S-wave (km/s) = 5.61548 2.93137 4.47920
# Velocity P-wave (km/s) = 7.20836 4.92947 6.17496
#
# Compressibility (1/GPa) = 0.05072583
#
# Stress axis : x y z
#
# Youngs Moduli (GPa) = 40.47032 45.51416 33.42127
#
# Poissons Ratio (x) = -0.09224 0.43872
# Poissons Ratio (y) = -0.08202 0.06142
# Poissons Ratio (z) = 0.53125 0.08365
#
# Static dielectric constant tensor:
#      x y z
#    x 1.745430 0.000000 0.037580 
#    y 0.000000 1.699280 0.000000 
#    z 0.037580 0.000000 1.750800 
# 
# From -- ./inp_files/66053.got.cif
#   From: 2010.05.17/outbox.cif.g08.bks.cpg/sg5_34_cif.got.tgz:66053.got - 2010.06.03 18:56:24.
