data_PCOD9122573
_publ_section_title
;
Structure prediction by ZEFSAII (Michael W. Deem and Ramdas Pophale) SiO2 
 PCOD9122573
Probable space group: C 2
;
_chemical_formula_sum "Si O2"
_cell_formula_units_Z 20
_cell_length_a 12.157906
_cell_length_b 8.417467
_cell_length_c 7.334783
_cell_angle_alpha 90.000000
_cell_angle_beta 89.605991
_cell_angle_gamma 90.000000
_cell_volume 750.614941
_symmetry_space_group_name_H-M "C 2"
_symmetry_group_IT_number 5
_symmetry_cell_setting 'monoclinic'
loop_
_space_group_symop_operation_xyz
x,y,z
-x,y,-z
1/2+x,1/2+y,z
1/2-x,1/2+y,-z
loop_
_atom_site_type_symbol
_atom_site_label
_atom_site_fract_x
_atom_site_fract_y
_atom_site_fract_z
Si Si1 0.435047 0.290110 0.246105
Si Si2 0.000000 0.054614 0.500000
Si Si3 0.898487 0.498600 0.772863
Si Si4 0.810763 0.012610 0.975521
Si Si5 0.711372 0.717877 0.392235
Si Si6 0.500000 0.746259 0.000000
O O1 0.499930 0.440481 0.324315
O O2 0.369890 0.353155 0.063272
O O3 0.342631 0.240637 0.397393
O O4 0.522988 0.149047 0.237134
O O5 0.113692 0.150583 0.516443
O O6 0.808566 0.518012 0.932963
O O7 0.825571 0.405941 0.624217
O O8 0.977115 0.355421 0.829408
O O9 0.794064 0.084268 0.772278
O O10 0.893693 0.145715 0.044611
#
# Coordination Sequence:
#
# PCOD9122573 Si02
#       6
#     4   2   4   4   4   2
#     4  11  25  44  70 100 132 174 224 275 328 395
#     4  12  28  44  64  96 140 184 218 266 330 400
#     4  10  22  39  66  97 126 166 218 272 326 384
#     4  10  22  42  68  98 127 165 220 278 331 384
#     4  10  25  45  65  95 136 178 220 271 331 393
#     4  10  20  34  58  94 130 160 198 266 330 378
#
# _framework density 26.644818000000001
#
# number of rings (size 3 to 8) (size 9 to 14) (size 15 to 20)
#    0.000    1.600    0.000    3.600    0.000   20.800 
#    0.000    0.000    0.000    0.000    0.000    0.000 
#    0.000    0.000    0.000    0.000    0.000    0.000 
#
# Total GULP energy -55735.758103 kJ/mol
# GULP energy per Si atom -5573.575810 kJ/mol
# Density = 2.658417 g / cm^3
# Si number density = 26.644818 Si / 1000 Ang^3
#
#
#
# Elastic Constant Matrix: (Units=GPa)
#
#
# Indices 1 2 3 4 5 6 
#
# 1 156.7187 50.4105 19.4729 0.0000 -28.8435 0.0000
# 2 50.4105 126.5839 25.7314 0.0000 -31.0961 0.0000
# 3 19.4729 25.7314 42.0993 0.0000 -0.8034 0.0000
# 4 0.0000 0.0000 0.0000 32.6986 0.0000 -25.8177
# 5 -28.8435 -31.0961 -0.8034 0.0000 39.8088 0.0000
# 6 0.0000 0.0000 0.0000 -25.8177 0.0000 50.5875
#
#
#
# Elastic Compliance Matrix: (Units=1/GPa)
#
#
# Indices 1 2 3 4 5 6 
#
# 1 0.008053 -0.001532 -0.002701 0.000000 0.004584 0.000000
# 2 -0.001532 0.011744 -0.006318 0.000000 0.007936 0.000000
# 3 -0.002701 -0.006318 0.028744 0.000000 -0.006312 0.000000
# 4 0.000000 0.000000 0.000000 0.051223 0.000000 0.026142
# 5 0.004584 0.007936 -0.006312 0.000000 0.034513 0.000000
# 6 0.000000 0.000000 0.000000 0.026142 0.000000 0.033110
#
#
# Mechanical properties :
#
#
# Convention : Reuss Voigt Hill
#
# Bulk Modulus (GPa) = 36.44471 57.40349 46.92410
# Shear Modulus (GPa) = 25.29930 39.93812 32.61871
#
# Velocity S-wave (km/s) = 3.08474 3.87577 3.50266
# Velocity P-wave (km/s) = 5.13762 6.45132 5.83158
#
# Compressibility (1/GPa) = 0.02743883
#
# Stress axis : x y z
#
# Youngs Moduli (GPa) = 124.18024 85.15168 34.79013
#
# Poissons Ratio (x) = 0.13044 0.09397
# Poissons Ratio (y) = 0.19023 0.21980
# Poissons Ratio (z) = 0.33541 0.53797
#
# Static dielectric constant tensor:
#      x y z
#    x 2.148180 0.000000 0.105340 
#    y 0.000000 2.116650 0.000000 
#    z 0.105340 0.000000 2.298070 
# 
# From -- ./inp_files/18281.got.cif
#   From: 2010.05.17/outbox.cif.g08.bks.cpg/sg5_10_cif.got.tgz:18281.got - 2010.06.03 18:56:24.
