data_PCOD9122613
_publ_section_title
;
Structure prediction by ZEFSAII (Michael W. Deem and Ramdas Pophale) SiO2 
 PCOD9122613
Probable space group: C 2
;
_chemical_formula_sum "Si O2"
_cell_formula_units_Z 30
_cell_length_a 15.525833
_cell_length_b 9.762278
_cell_length_c 8.779862
_cell_angle_alpha 90.000000
_cell_angle_beta 74.599703
_cell_angle_gamma 90.000000
_cell_volume 1282.960140
_symmetry_space_group_name_H-M "C 2"
_symmetry_group_IT_number 5
_symmetry_cell_setting 'monoclinic'
loop_
_space_group_symop_operation_xyz
x,y,z
-x,y,-z
1/2+x,1/2+y,z
1/2-x,1/2+y,-z
loop_
_atom_site_type_symbol
_atom_site_label
_atom_site_fract_x
_atom_site_fract_y
_atom_site_fract_z
Si Si1 0.401806 0.203250 0.482575
Si Si2 0.169920 0.439756 0.431996
Si Si3 0.727397 0.800735 0.694928
Si Si4 0.255564 0.573777 0.868171
Si Si5 0.336309 0.337838 0.224260
Si Si6 0.000000 0.719036 0.000000
Si Si7 0.092052 0.192194 0.008250
Si Si8 0.912199 0.488589 0.847792
O O1 0.500000 0.206914 0.500000
O O2 0.324323 0.230519 0.642653
O O3 0.387988 0.311030 0.356524
O O4 0.369395 0.055956 0.438933
O O5 0.187787 0.315916 0.541973
O O6 0.266281 0.455504 0.302740
O O7 0.100896 0.452996 0.323971
O O8 0.656669 0.729635 0.837722
O O9 0.750468 0.949217 0.753869
O O10 0.229224 0.714746 0.797551
O O11 0.349909 0.601456 0.903708
O O12 0.181057 0.536517 0.030347
O O13 0.414809 0.316555 0.065401
O O14 0.979166 0.610271 0.871304
O O15 0.066578 0.339840 0.092476
O O16 0.000000 0.125490 0.000000
#
# Coordination Sequence:
#
# PCOD9122613 Si02
#       8
#     4   4   4   4   4   2   4   4
#     4  11  23  41  67  98 131 169 231 274 337 402
#     4  11  21  39  66 100 130 172 222 275 350 393
#     4  10  24  43  68  91 140 178 218 288 346 408
#     4  10  20  42  64  89 131 180 222 277 346 392
#     4  10  21  38  63  98 128 179 214 282 333 400
#     4  10  20  38  62  98 140 174 236 278 326 398
#     4  11  22  40  65  96 131 177 234 281 338 402
#     4  10  20  34  65  93 129 175 228 280 328 404
#
# _framework density 23.383423000000001
#
# number of rings (size 3 to 8) (size 9 to 14) (size 15 to 20)
#    0.000    1.600    3.333    1.600    0.000    2.133 
#    0.000    5.333    1.467    0.000    0.000    0.000 
#    0.000    0.000    0.000    0.000    0.000    0.000 
#
# Total GULP energy -83701.435966 kJ/mol
# GULP energy per Si atom -5580.095731 kJ/mol
# Density = 2.333020 g / cm^3
# Si number density = 23.383423 Si / 1000 Ang^3
#
#
#
# Elastic Constant Matrix: (Units=GPa)
#
#
# Indices 1 2 3 4 5 6 
#
# 1 170.4386 38.3688 42.0563 0.0000 13.3376 0.0000
# 2 38.3688 47.7984 20.1109 0.0000 2.9705 0.0000
# 3 42.0563 20.1109 90.3305 0.0000 10.9249 0.0000
# 4 0.0000 0.0000 0.0000 20.4372 0.0000 -2.5815
# 5 13.3376 2.9705 10.9249 0.0000 36.7294 0.0000
# 6 0.0000 0.0000 0.0000 -2.5815 0.0000 34.3705
#
#
#
# Elastic Compliance Matrix: (Units=1/GPa)
#
#
# Indices 1 2 3 4 5 6 
#
# 1 0.007711 -0.005142 -0.002238 0.000000 -0.001719 0.000000
# 2 -0.005142 0.026516 -0.003606 0.000000 0.000795 0.000000
# 3 -0.002238 -0.003606 0.013258 0.000000 -0.002839 0.000000
# 4 0.000000 0.000000 0.000000 0.049399 0.000000 0.003710
# 5 -0.001719 0.000795 -0.002839 0.000000 0.028631 0.000000
# 6 0.000000 0.000000 0.000000 0.003710 0.000000 0.029373
#
#
# Mechanical properties :
#
#
# Convention : Reuss Voigt Hill
#
# Bulk Modulus (GPa) = 39.19146 56.62662 47.90904
# Shear Modulus (GPa) = 26.97382 32.17617 29.57500
#
# Velocity S-wave (km/s) = 3.40007 3.71351 3.56024
# Velocity P-wave (km/s) = 5.67545 6.53115 6.11828
#
# Compressibility (1/GPa) = 0.02551576
#
# Stress axis : x y z
#
# Youngs Moduli (GPa) = 129.67851 37.71260 75.42359
#
# Poissons Ratio (x) = 0.19391 0.16877
# Poissons Ratio (y) = 0.66678 0.27196
# Poissons Ratio (z) = 0.29017 0.13598
#
# Static dielectric constant tensor:
#      x y z
#    x 1.861260 0.000000 -0.000040 
#    y 0.000000 1.943090 0.000000 
#    z -0.000040 0.000000 1.941040 
# 
# From -- ./inp_files/23830.got.cif
#   From: 2010.05.17/outbox.cif.g08.bks.cpg/sg5_12_cif.got.tgz:23830.got - 2010.06.03 18:56:24.
