data_PCOD9122459
_publ_section_title
;
Structure prediction by ZEFSAII (Michael W. Deem and Ramdas Pophale) SiO2 
 PCOD9122459
Probable space group: C 2
;
_chemical_formula_sum "Si O2"
_cell_formula_units_Z 32
_cell_length_a 13.567646
_cell_length_b 25.308621
_cell_length_c 5.072714
_cell_angle_alpha 90.000000
_cell_angle_beta 75.409099
_cell_angle_gamma 90.000000
_cell_volume 1685.684057
_symmetry_space_group_name_H-M "C 2"
_symmetry_group_IT_number 5
_symmetry_cell_setting 'monoclinic'
loop_
_space_group_symop_operation_xyz
x,y,z
-x,y,-z
1/2+x,1/2+y,z
1/2-x,1/2+y,-z
loop_
_atom_site_type_symbol
_atom_site_label
_atom_site_fract_x
_atom_site_fract_y
_atom_site_fract_z
Si Si1 0.291021 0.181850 0.210877
Si Si2 0.932675 0.155420 0.807085
Si Si3 0.618653 0.124393 0.348062
Si Si4 0.120962 0.863330 0.434595
Si Si5 0.880011 0.498462 0.629580
Si Si6 0.619697 0.295135 0.934223
Si Si7 0.567031 0.533253 0.191202
Si Si8 0.741357 0.962974 0.804344
O O1 0.174898 0.180107 0.192096
O O2 0.312384 0.151718 0.471570
O O3 0.323667 0.242649 0.192822
O O4 0.356610 0.151635 0.945136
O O5 0.910642 0.094158 0.893177
O O6 0.000000 0.155867 0.500000
O O7 0.000000 0.178439 0.000000
O O8 0.500000 0.132672 0.500000
O O9 0.636225 0.061428 0.315382
O O10 0.140297 0.842525 0.715674
O O11 0.196708 0.909734 0.300393
O O12 0.000000 0.878586 0.500000
O O13 0.138482 0.815501 0.216864
O O14 0.815920 0.482145 0.417711
O O15 0.000000 0.490590 0.500000
O O16 0.839304 0.464612 0.903402
O O17 0.500000 0.283132 0.000000
O O18 0.500000 0.531521 0.500000
O O19 0.671430 0.503843 0.167921
O O20 0.500000 0.509472 0.000000
#
# Coordination Sequence:
#
# PCOD9122459 Si02
#       8
#     4   4   4   4   4   4   4   4
#     4  12  22  37  62  85 116 160 197 231 288 348
#     4  10  21  36  53  79 115 152 190 232 273 326
#     4  11  22  36  57  90 123 151 190 236 287 350
#     4  10  22  39  60  88 117 144 184 241 299 350
#     4  11  24  39  57  85 121 157 196 239 279 334
#     4  10  21  38  59  86 117 146 185 240 297 348
#     4  10  20  33  53  84 117 146 184 230 281 343
#     4  12  22  38  62  83 114 158 197 233 291 349
#
# _framework density 18.983391000000001
#
# number of rings (size 3 to 8) (size 9 to 14) (size 15 to 20)
#    0.000    1.250    0.000    7.125    0.000    6.500 
#    0.000    0.000    0.000    7.500    0.000    0.000 
#    0.000    0.000    0.000    0.000    0.000    0.000 
#
# Total GULP energy -89444.194677 kJ/mol
# GULP energy per Si atom -5590.262167 kJ/mol
# Density = 1.894018 g / cm^3
# Si number density = 18.983391 Si / 1000 Ang^3
#
#
#
# Elastic Constant Matrix: (Units=GPa)
#
#
# Indices 1 2 3 4 5 6 
#
# 1 76.2366 44.0089 7.7226 0.0000 -3.5098 0.0000
# 2 44.0089 69.1252 13.1916 0.0000 -15.7446 0.0000
# 3 7.7226 13.1916 61.0409 0.0000 0.7129 0.0000
# 4 0.0000 0.0000 0.0000 46.8124 0.0000 -45.3164
# 5 -3.5098 -15.7446 0.7129 0.0000 38.1107 0.0000
# 6 0.0000 0.0000 0.0000 -45.3164 0.0000 76.7610
#
#
#
# Elastic Compliance Matrix: (Units=1/GPa)
#
#
# Indices 1 2 3 4 5 6 
#
# 1 0.021296 -0.014582 0.000505 0.000000 -0.004073 0.000000
# 2 -0.014582 0.026752 -0.004051 0.000000 0.009785 0.000000
# 3 0.000505 -0.004051 0.017217 0.000000 -0.001949 0.000000
# 4 0.000000 0.000000 0.000000 0.049852 0.000000 0.029430
# 5 -0.004073 0.009785 -0.001949 0.000000 0.029943 0.000000
# 6 0.000000 0.000000 0.000000 0.029430 0.000000 0.030402
#
#
# Mechanical properties :
#
#
# Convention : Reuss Voigt Hill
#
# Bulk Modulus (GPa) = 34.47289 37.36099 35.91694
# Shear Modulus (GPa) = 22.58472 41.76877 32.17675
#
# Velocity S-wave (km/s) = 3.45296 4.69580 4.12150
# Velocity P-wave (km/s) = 5.83919 7.00888 6.45060
#
# Compressibility (1/GPa) = 0.02900830
#
# Stress axis : x y z
#
# Youngs Moduli (GPa) = 46.95630 37.38009 58.08281
#
# Poissons Ratio (x) = 0.54509 -0.02931
# Poissons Ratio (y) = 0.68473 0.23528
# Poissons Ratio (z) = -0.02370 0.15142
#
# Static dielectric constant tensor:
#      x y z
#    x 1.605740 0.000000 0.019470 
#    y 0.000000 1.648830 0.000000 
#    z 0.019470 0.000000 1.644200 
# 
# From -- ./inp_files/6026.got.cif
#   From: 2010.05.17/outbox.cif.g08.bks.cpg/sg5_4_cif.got.tgz:6026.got - 2010.06.03 18:56:24.
