data_PCOD9122827
_publ_section_title
;
Structure prediction by ZEFSAII (Michael W. Deem and Ramdas Pophale) SiO2 
 PCOD9122827
Probable space group: C 2
;
_chemical_formula_sum "Si O2"
_cell_formula_units_Z 32
_cell_length_a 14.119629
_cell_length_b 21.993298
_cell_length_c 8.661639
_cell_angle_alpha 90.000000
_cell_angle_beta 31.139761
_cell_angle_gamma 90.000000
_cell_volume 1390.949266
_symmetry_space_group_name_H-M "C 2"
_symmetry_group_IT_number 5
_symmetry_cell_setting 'monoclinic'
loop_
_space_group_symop_operation_xyz
x,y,z
-x,y,-z
1/2+x,1/2+y,z
1/2-x,1/2+y,-z
loop_
_atom_site_type_symbol
_atom_site_label
_atom_site_fract_x
_atom_site_fract_y
_atom_site_fract_z
Si Si1 0.513004 0.310610 0.665811
Si Si2 0.149072 0.700600 0.657641
Si Si3 0.958702 0.167517 0.886609
Si Si4 0.627909 0.439963 0.196060
Si Si5 0.509015 0.879662 0.172009
Si Si6 0.214946 0.965960 0.734724
Si Si7 0.637126 0.764718 0.177591
Si Si8 0.154067 0.590541 0.414066
O O1 0.500000 0.295966 0.500000
O O2 0.649310 0.266633 0.569014
O O3 0.504423 0.383892 0.678069
O O4 0.314384 0.293041 0.007119
O O5 0.340821 0.676766 0.462753
O O6 0.108392 0.648057 0.587156
O O7 0.000000 0.703023 0.000000
O O8 0.816784 0.207127 0.989553
O O9 0.000000 0.192488 0.000000
O O10 0.854923 0.104971 0.059762
O O11 0.500000 0.474175 0.500000
O O12 0.714227 0.468293 0.922395
O O13 0.805273 0.414337 0.037206
O O14 0.541803 0.813428 0.198897
O O15 0.334803 0.911435 0.496100
O O16 0.500000 0.877902 0.000000
O O17 0.311683 0.027998 0.543038
O O18 0.000000 0.961827 0.000000
O O19 0.500000 0.746946 0.500000
O O20 0.000000 0.584011 0.500000
#
# Coordination Sequence:
#
# PCOD9122827 Si02
#       8
#     4   4   4   4   4   4   4   4
#     4  10  20  36  59  86 125 166 203 250 314 383
#     4  11  22  37  60  93 127 159 207 262 314 374
#     4  10  21  37  59  88 123 163 209 256 314 382
#     4  10  22  41  64  96 131 168 215 265 323 389
#     4  11  23  40  63  94 131 173 216 265 323 381
#     4  12  25  44  68  94 127 168 219 272 326 387
#     4  11  21  36  58  89 128 165 209 259 314 379
#     4  11  24  45  67  86 121 170 213 259 320 385
#
# _framework density 23.005870999999999
#
# number of rings (size 3 to 8) (size 9 to 14) (size 15 to 20)
#    0.000    1.250    0.000    8.250    0.000    4.000 
#    0.000    4.375    0.000    0.000    0.000    0.000 
#    0.000    0.000    0.000    0.000    0.000    0.000 
#
# Total GULP energy -89300.700668 kJ/mol
# GULP energy per Si atom -5581.293792 kJ/mol
# Density = 2.295351 g / cm^3
# Si number density = 23.005871 Si / 1000 Ang^3
#
#
#
# Elastic Constant Matrix: (Units=GPa)
#
#
# Indices 1 2 3 4 5 6 
#
# 1 94.3853 15.3994 24.8036 0.0001 -5.5276 -0.0001
# 2 15.3994 62.1248 9.4556 0.0000 -2.8021 0.0000
# 3 24.8036 9.4556 95.0553 0.0003 1.5734 0.0000
# 4 0.0001 0.0000 0.0003 29.5438 -0.0001 -6.8141
# 5 -5.5276 -2.8021 1.5734 -0.0001 39.9005 0.0001
# 6 -0.0001 0.0000 0.0000 -6.8141 0.0001 23.6820
#
#
#
# Elastic Compliance Matrix: (Units=1/GPa)
#
#
# Indices 1 2 3 4 5 6 
#
# 1 0.011839 -0.002426 -0.002874 0.000000 0.001583 0.000000
# 2 -0.002426 0.016900 -0.001063 0.000000 0.000893 0.000000
# 3 -0.002874 -0.001063 0.011391 0.000000 -0.000922 0.000000
# 4 0.000000 0.000000 0.000000 0.036254 0.000000 0.010432
# 5 0.001583 0.000893 -0.000922 0.000000 0.025381 0.000000
# 6 0.000000 0.000000 0.000000 0.010432 0.000000 0.045228
#
#
# Mechanical properties :
#
#
# Convention : Reuss Voigt Hill
#
# Bulk Modulus (GPa) = 36.49061 38.98698 37.73879
# Shear Modulus (GPa) = 29.61168 32.08570 30.84869
#
# Velocity S-wave (km/s) = 3.59156 3.73859 3.66581
# Velocity P-wave (km/s) = 5.75282 5.96820 5.86150
#
# Compressibility (1/GPa) = 0.02740431
#
# Stress axis : x y z
#
# Youngs Moduli (GPa) = 84.46933 59.17176 87.78751
#
# Poissons Ratio (x) = 0.14353 0.25231
# Poissons Ratio (y) = 0.20490 0.09331
# Poissons Ratio (z) = 0.24277 0.06290
#
# Static dielectric constant tensor:
#      x y z
#    x 1.903460 0.000000 -0.029870 
#    y 0.000000 1.840350 0.000000 
#    z -0.029870 0.000000 1.945450 
# 
# From -- ./inp_files/25602.got.cif
#   From: 2010.05.17/outbox.cif.g08.bks.cpg/sg5_13_cif.got.tgz:25602.got - 2010.06.03 18:56:24.
