data_PCOD9122409
_publ_section_title
;
Structure prediction by ZEFSAII (Michael W. Deem and Ramdas Pophale) SiO2 
 PCOD9122409
Probable space group: C 2
;
_chemical_formula_sum "Si O2"
_cell_formula_units_Z 30
_cell_length_a 7.306627
_cell_length_b 19.940432
_cell_length_c 10.609518
_cell_angle_alpha 90.000000
_cell_angle_beta 97.456001
_cell_angle_gamma 90.000000
_cell_volume 1532.708257
_symmetry_space_group_name_H-M "C 2"
_symmetry_group_IT_number 5
_symmetry_cell_setting 'monoclinic'
loop_
_space_group_symop_operation_xyz
x,y,z
-x,y,-z
1/2+x,1/2+y,z
1/2-x,1/2+y,-z
loop_
_atom_site_type_symbol
_atom_site_label
_atom_site_fract_x
_atom_site_fract_y
_atom_site_fract_z
Si Si1 0.288056 0.909640 0.514341
Si Si2 0.717244 0.807349 0.253444
Si Si3 0.778412 0.677925 0.976471
Si Si4 0.293744 0.160479 0.700251
Si Si5 0.257048 0.153374 0.253858
Si Si6 0.093867 0.793783 0.371113
Si Si7 0.500000 0.795138 0.000000
Si Si8 0.273767 0.060951 0.482900
O O1 0.500000 0.914990 0.500000
O O2 0.285401 0.862415 0.637342
O O3 0.182143 0.865401 0.402401
O O4 0.215220 0.985231 0.507987
O O5 0.675198 0.727897 0.278726
O O6 0.588013 0.830742 0.128348
O O7 0.937268 0.800304 0.250517
O O8 0.734267 0.645857 0.837375
O O9 0.720611 0.642021 0.101916
O O10 0.667623 0.747430 0.970391
O O11 0.000000 0.686962 0.000000
O O12 0.518927 0.157546 0.715270
O O13 0.261304 0.237125 0.654539
O O14 0.218953 0.109512 0.591777
O O15 0.205980 0.095304 0.347154
O O16 0.000000 0.774251 0.500000
O O17 0.500000 0.061125 0.500000
#
# Coordination Sequence:
#
# PCOD9122409 Si02
#       8
#     4   4   4   4   4   4   2   4
#     4  10  20  30  50  79 111 142 182 232 271 323
#     4   9  18  34  54  74 106 143 176 220 280 323
#     4   9  18  31  54  82 111 140 178 223 278 330
#     4   9  15  27  54  81  96 132 185 221 262 330
#     4   8  15  31  52  76 102 139 175 219 276 323
#     4   9  17  32  54  77 106 144 179 230 283 322
#     4  10  20  34  54  82 118 144 174 230 278 332
#     4   9  16  29  51  77 108 141 181 223 277 323
#
# _framework density 19.573194999999998
#
# number of rings (size 3 to 8) (size 9 to 14) (size 15 to 20)
#    0.000    2.933    0.000    3.600    1.867    0.000 
#    0.000    0.000   27.867    0.000    0.000    0.000 
#    0.000    0.000    0.000    0.000    0.000    0.000 
#
# Total GULP energy -83515.160740 kJ/mol
# GULP energy per Si atom -5567.677383 kJ/mol
# Density = 1.952865 g / cm^3
# Si number density = 19.573195 Si / 1000 Ang^3
#
#
#
# Elastic Constant Matrix: (Units=GPa)
#
#
# Indices 1 2 3 4 5 6 
#
# 1 56.0736 12.7335 23.5615 0.0000 2.4965 0.0000
# 2 12.7335 135.3578 77.7276 0.0000 -3.0699 0.0000
# 3 23.5615 77.7276 142.0260 0.0000 5.6210 0.0000
# 4 0.0000 0.0000 0.0000 -6.6582 0.0000 -0.7933
# 5 2.4965 -3.0699 5.6210 0.0000 29.4826 0.0000
# 6 0.0000 0.0000 0.0000 -0.7933 0.0000 15.4303
#
#
#
# Elastic Compliance Matrix: (Units=1/GPa)
#
#
# Indices 1 2 3 4 5 6 
#
# 1 0.019201 -0.000035 -0.003125 0.000000 -0.001034 0.000000
# 2 -0.000035 0.010926 -0.006064 0.000000 0.002297 0.000000
# 3 -0.003125 -0.006064 0.010976 0.000000 -0.002459 0.000000
# 4 0.000000 0.000000 0.000000 -0.149276 0.000000 -0.007675
# 5 -0.001034 0.002297 -0.002459 0.000000 0.034714 0.000000
# 6 0.000000 0.000000 0.000000 -0.007675 0.000000 0.064413
#
#
# Mechanical properties :
#
#
# Convention : Reuss Voigt Hill
#
# Bulk Modulus (GPa) = 44.14486 62.38917 53.26701
# Shear Modulus (GPa) = 294.92660 22.27992 158.60326
#
# Velocity S-wave (km/s) = 12.28845 3.37751 9.01148
# Velocity P-wave (km/s) = 14.96476 6.86688 11.64255
#
# Compressibility (1/GPa) = 0.02265270
#
# Stress axis : x y z
#
# Youngs Moduli (GPa) = 52.08096 91.52767 91.11040
#
# Poissons Ratio (x) = 0.00321 0.28474
# Poissons Ratio (y) = 0.00183 0.55253
# Poissons Ratio (z) = 0.16276 0.55506
#
# Static dielectric constant tensor:
#      x y z
#    x 1.780810 0.000000 -0.000280 
#    y 0.000000 1.692580 0.000000 
#    z -0.000280 0.000000 1.733850 
# 
# From -- ./inp_files/36876.got.cif
#   From: 2010.05.17/outbox.cif.g08.bks.cpg/sg5_19_cif.got.tgz:36876.got - 2010.06.03 18:56:24.
