data_PCOD9122568
_publ_section_title
;
Structure prediction by ZEFSAII (Michael W. Deem and Ramdas Pophale) SiO2 
 PCOD9122568
Probable space group: C 2
;
_chemical_formula_sum "Si O2"
_cell_formula_units_Z 18
_cell_length_a 8.851746
_cell_length_b 10.174442
_cell_length_c 19.095901
_cell_angle_alpha 90.000000
_cell_angle_beta 31.780142
_cell_angle_gamma 90.000000
_cell_volume 905.755592
_symmetry_space_group_name_H-M "C 2"
_symmetry_group_IT_number 5
_symmetry_cell_setting 'monoclinic'
loop_
_space_group_symop_operation_xyz
x,y,z
-x,y,-z
1/2+x,1/2+y,z
1/2-x,1/2+y,-z
loop_
_atom_site_type_symbol
_atom_site_label
_atom_site_fract_x
_atom_site_fract_y
_atom_site_fract_z
Si Si1 0.299486 0.204080 0.857166
Si Si2 0.860951 0.230636 0.710742
Si Si3 0.819600 0.470021 0.341969
Si Si4 0.104032 0.941474 0.271707
Si Si5 0.500000 0.797499 0.500000
O O1 0.519364 0.237604 0.833274
O O2 0.239438 0.341379 0.841924
O O3 0.477537 0.099995 0.739020
O O4 0.000000 0.145130 0.000000
O O5 0.915571 0.097595 0.732243
O O6 0.008510 0.355496 0.686804
O O7 0.979797 0.223967 0.583304
O O8 0.500000 0.482245 0.500000
O O9 0.759234 0.432372 0.285339
O O10 0.781590 0.886298 0.396789
#
# Coordination Sequence:
#
# PCOD9122568 Si02
#       5
#     4   4   4   4   2
#     4  10  25  46  64  89 131 176 214 257 312 380
#     4  10  23  38  62  95 125 166 209 256 317 373
#     4  11  23  40  68 100 129 161 210 266 325 378
#     4  10  23  36  64  92 127 167 206 258 315 372
#     4  10  20  34  58  90 132 158 196 256 318 372
#
# _framework density 19.872910999999998
#
# number of rings (size 3 to 8) (size 9 to 14) (size 15 to 20)
#    0.000    1.778    2.222    0.000   15.556    7.111 
#    0.000    1.111    0.000    0.000    0.000    0.000 
#    0.000    0.000    0.000    0.000    0.000    0.000 
#
# Total GULP energy -50142.684871 kJ/mol
# GULP energy per Si atom -5571.409430 kJ/mol
# Density = 1.982768 g / cm^3
# Si number density = 19.872911 Si / 1000 Ang^3
#
#
#
# Elastic Constant Matrix: (Units=GPa)
#
#
# Indices 1 2 3 4 5 6 
#
# 1 52.4566 48.6731 14.1597 -0.0010 -11.3483 0.0015
# 2 48.6731 157.7399 37.8780 -0.0012 0.6308 0.0014
# 3 14.1597 37.8780 90.4155 -0.0027 -23.3229 0.0043
# 4 -0.0010 -0.0012 -0.0027 13.1488 -0.0006 3.8993
# 5 -11.3483 0.6308 -23.3229 -0.0006 20.2420 -0.0012
# 6 0.0015 0.0014 0.0043 3.8993 -0.0012 45.5979
#
#
#
# Elastic Compliance Matrix: (Units=1/GPa)
#
#
# Indices 1 2 3 4 5 6 
#
# 1 0.034902 -0.012573 0.007043 0.000005 0.028074 -0.000001
# 2 -0.012573 0.011977 -0.007062 -0.000002 -0.015559 0.000001
# 3 0.007043 -0.007062 0.019908 0.000006 0.027107 -0.000002
# 4 0.000005 -0.000002 0.000006 0.078032 0.000011 -0.006673
# 5 0.028074 -0.015559 0.027107 0.000011 0.096858 -0.000001
# 6 -0.000001 0.000001 -0.000002 -0.006673 -0.000001 0.022501
#
#
# Mechanical properties :
#
#
# Convention : Reuss Voigt Hill
#
# Bulk Modulus (GPa) = 24.03682 55.78152 39.90917
# Shear Modulus (GPa) = 16.48913 29.12448 22.80681
#
# Velocity S-wave (km/s) = 2.88363 3.83239 3.39135
# Velocity P-wave (km/s) = 4.81753 6.90746 5.95490
#
# Compressibility (1/GPa) = 0.04160285
#
# Stress axis : x y z
#
# Youngs Moduli (GPa) = 28.65178 83.49200 50.23157
#
# Poissons Ratio (x) = 1.04975 -0.35379
# Poissons Ratio (y) = 0.36024 0.35474
# Poissons Ratio (z) = -0.20180 0.58963
#
# Static dielectric constant tensor:
#      x y z
#    x 1.678890 0.000000 0.007030 
#    y 0.000000 1.757970 0.000000 
#    z 0.007030 0.000000 1.746470 
# 
# From -- ./inp_files/13955.got.cif
#   From: 2010.05.17/outbox.cif.g08.bks.cpg/sg5_7_cif.got.tgz:13955.got - 2010.06.03 18:56:24.
