data_PCOD9122401
_publ_section_title
;
Structure prediction by ZEFSAII (Michael W. Deem and Ramdas Pophale) SiO2 
 PCOD9122401
Probable space group: C 2
;
_chemical_formula_sum "Si O2"
_cell_formula_units_Z 22
_cell_length_a 9.527869
_cell_length_b 11.400243
_cell_length_c 14.999925
_cell_angle_alpha 90.000000
_cell_angle_beta 38.113492
_cell_angle_gamma 90.000000
_cell_volume 1005.633619
_symmetry_space_group_name_H-M "C 2"
_symmetry_group_IT_number 5
_symmetry_cell_setting 'monoclinic'
loop_
_space_group_symop_operation_xyz
x,y,z
-x,y,-z
1/2+x,1/2+y,z
1/2-x,1/2+y,-z
loop_
_atom_site_type_symbol
_atom_site_label
_atom_site_fract_x
_atom_site_fract_y
_atom_site_fract_z
Si Si1 0.500000 0.896850 0.500000
Si Si2 0.012864 0.985940 0.706648
Si Si3 0.519608 0.757219 0.307640
Si Si4 0.202038 0.330715 0.756182
Si Si5 0.500000 0.236188 0.000000
Si Si6 0.829620 0.530630 0.964054
Si Si7 0.500000 0.648140 0.000000
O O1 0.494376 0.817968 0.414500
O O2 0.730584 0.971283 0.388854
O O3 0.936641 0.884234 0.676104
O O4 0.977723 0.116147 0.685267
O O5 0.843846 0.978971 0.875825
O O6 0.328300 0.787879 0.329763
O O7 0.765680 0.797106 0.144470
O O8 0.029753 0.439853 0.851132
O O9 0.108287 0.229453 0.868673
O O10 0.430040 0.150592 0.954256
O O11 0.692846 0.567403 0.945874
#
# Coordination Sequence:
#
# PCOD9122401 Si02
#       7
#     2   4   4   4   2   4   2
#     4  12  32  46  70  98 142 198 222 276 350 420
#     4  11  25  48  65 101 143 177 239 275 335 430
#     4  11  27  47  71 103 138 184 231 288 341 406
#     4  12  23  41  74 103 137 180 224 290 356 390
#     4  10  19  45  72 102 138 164 233 299 328 394
#     4  11  22  41  70 110 139 169 228 297 339 405
#     4  12  23  37  68 114 138 172 215 295 356 392
#
# _framework density 21.876753999999998
#
# number of rings (size 3 to 8) (size 9 to 14) (size 15 to 20)
#    0.000    0.727    9.091    0.000    7.636    3.636 
#    0.000    0.000    0.000    0.000    0.000    0.000 
#    0.000    0.000    0.000    0.000    0.000    0.000 
#
# Total GULP energy -61556.154242 kJ/mol
# GULP energy per Si atom -5596.014022 kJ/mol
# Density = 2.182696 g / cm^3
# Si number density = 21.876754 Si / 1000 Ang^3
#
#
#
# Elastic Constant Matrix: (Units=GPa)
#
#
# Indices 1 2 3 4 5 6 
#
# 1 153.8461 24.9967 31.7284 0.0001 -3.3189 -0.0001
# 2 24.9967 58.5578 25.7061 0.0001 5.1574 0.0000
# 3 31.7284 25.7061 41.9384 0.0001 6.2521 0.0000
# 4 0.0001 0.0001 0.0001 -3.9060 0.0000 -6.2495
# 5 -3.3189 5.1574 6.2521 0.0000 42.6151 0.0000
# 6 -0.0001 0.0000 0.0000 -6.2495 0.0000 10.5903
#
#
#
# Elastic Compliance Matrix: (Units=1/GPa)
#
#
# Indices 1 2 3 4 5 6 
#
# 1 0.007843 -0.001065 -0.005512 0.000000 0.001548 0.000000
# 2 -0.001065 0.023531 -0.013476 0.000000 -0.000954 0.000000
# 3 -0.005512 -0.013476 0.036902 0.000000 -0.004212 0.000000
# 4 0.000000 0.000000 0.000000 -0.131685 0.000000 -0.077709
# 5 0.001548 -0.000954 -0.004212 0.000000 0.024320 0.000000
# 6 0.000000 0.000000 0.000000 -0.077709 0.000000 0.048568
#
#
# Mechanical properties :
#
#
# Convention : Reuss Voigt Hill
#
# Bulk Modulus (GPa) = 35.49618 46.57833 41.03725
# Shear Modulus (GPa) = 84.78034 21.32064 53.05049
#
# Velocity S-wave (km/s) = 6.23199 3.12521 4.92974
# Velocity P-wave (km/s) = 8.24890 5.86175 7.15557
#
# Compressibility (1/GPa) = 0.02817205
#
# Stress axis : x y z
#
# Youngs Moduli (GPa) = 127.49980 42.49651 27.09845
#
# Poissons Ratio (x) = 0.04525 0.14936
# Poissons Ratio (y) = 0.13575 0.36517
# Poissons Ratio (z) = 0.70277 0.57267
#
# Static dielectric constant tensor:
#      x y z
#    x 1.912410 0.000000 -0.074210 
#    y 0.000000 1.787230 0.000000 
#    z -0.074210 0.000000 1.843860 
# 
# From -- ./inp_files/35199.got.cif
#   From: 2010.05.17/outbox.cif.g08.bks.cpg/sg5_18_cif.got.tgz:35199.got - 2010.06.03 18:56:24.
