data_PCOD9122601
_publ_section_title
;
Structure prediction by ZEFSAII (Michael W. Deem and Ramdas Pophale) SiO2 
 PCOD9122601
Probable space group: C 2
;
_chemical_formula_sum "Si O2"
_cell_formula_units_Z 26
_cell_length_a 5.962272
_cell_length_b 16.081388
_cell_length_c 12.726439
_cell_angle_alpha 90.000000
_cell_angle_beta 80.031420
_cell_angle_gamma 90.000000
_cell_volume 1201.809412
_symmetry_space_group_name_H-M "C 2"
_symmetry_group_IT_number 5
_symmetry_cell_setting 'monoclinic'
loop_
_space_group_symop_operation_xyz
x,y,z
-x,y,-z
1/2+x,1/2+y,z
1/2-x,1/2+y,-z
loop_
_atom_site_type_symbol
_atom_site_label
_atom_site_fract_x
_atom_site_fract_y
_atom_site_fract_z
Si Si1 0.669514 0.210060 0.702041
Si Si2 0.671228 0.348105 0.195423
Si Si3 0.918130 0.223708 0.895869
Si Si4 0.500000 0.340858 0.000000
Si Si5 0.356660 0.082552 0.617371
Si Si6 0.500000 0.778025 0.500000
Si Si7 0.500000 0.546789 0.500000
Si Si8 0.124020 0.430439 0.631782
O O1 0.537043 0.296487 0.737231
O O2 0.817830 0.186169 0.794178
O O3 0.472873 0.142356 0.692809
O O4 0.816270 0.228331 0.584635
O O5 0.582901 0.388428 0.095268
O O6 0.781331 0.414662 0.261793
O O7 0.868425 0.280668 0.155192
O O8 0.708943 0.282166 0.948971
O O9 0.000000 0.179827 0.000000
O O10 0.500000 0.100499 0.500000
O O11 0.102512 0.092713 0.593999
O O12 0.397185 0.986476 0.647314
O O13 0.608057 0.841908 0.575845
O O14 0.301818 0.487490 0.556507
#
# Coordination Sequence:
#
# PCOD9122601 Si02
#       8
#     4   4   4   2   4   2   2   4
#     4  11  24  37  59  94 126 161 203 257 301 362
#     4  10  20  34  62  91 118 158 206 257 300 355
#     4   9  18  37  61  90 120 154 205 256 305 355
#     4   8  18  34  56  92 118 152 200 260 306 350
#     4  10  24  38  55  81 125 166 201 242 306 367
#     4  12  22  39  60  97 130 158 206 252 303 364
#     4  10  20  41  58  75 126 170 206 230 301 376
#     4  11  21  38  59  86 120 167 198 246 304 365
#
# _framework density 21.634046000000001
#
# number of rings (size 3 to 8) (size 9 to 14) (size 15 to 20)
#    0.000    1.846    3.846    0.923    2.154    4.923 
#    0.000    0.000    1.692    0.000   32.000    0.000 
#    0.000    0.000    0.000    0.000    0.000    0.000 
#
# Total GULP energy -72446.649846 kJ/mol
# GULP energy per Si atom -5572.819219 kJ/mol
# Density = 2.158481 g / cm^3
# Si number density = 21.634046 Si / 1000 Ang^3
#
#
#
# Elastic Constant Matrix: (Units=GPa)
#
#
# Indices 1 2 3 4 5 6 
#
# 1 112.2499 36.5638 53.8803 0.0000 35.3618 0.0000
# 2 36.5638 55.6859 35.6407 0.0000 20.9692 0.0000
# 3 53.8803 35.6407 126.3584 0.0000 44.5562 0.0000
# 4 0.0000 0.0000 0.0000 21.5057 0.0000 13.9753
# 5 35.3618 20.9692 44.5562 0.0000 70.2226 0.0000
# 6 0.0000 0.0000 0.0000 13.9753 0.0000 36.9368
#
#
#
# Elastic Compliance Matrix: (Units=1/GPa)
#
#
# Indices 1 2 3 4 5 6 
#
# 1 0.013097 -0.005566 -0.002931 0.000000 -0.003073 0.000000
# 2 -0.005566 0.024920 -0.003890 0.000000 -0.002170 0.000000
# 3 -0.002931 -0.003890 0.012020 0.000000 -0.004989 0.000000
# 4 0.000000 0.000000 0.000000 0.061660 0.000000 -0.023329
# 5 -0.003073 -0.002170 -0.004989 0.000000 0.019602 0.000000
# 6 0.000000 0.000000 0.000000 -0.023329 0.000000 0.035900
#
#
# Mechanical properties :
#
#
# Convention : Reuss Voigt Hill
#
# Bulk Modulus (GPa) = 39.58483 60.71822 50.15153
# Shear Modulus (GPa) = 24.95082 36.94696 30.94889
#
# Velocity S-wave (km/s) = 3.39973 4.13706 3.78638
# Velocity P-wave (km/s) = 5.80931 7.13774 6.50751
#
# Compressibility (1/GPa) = 0.02526220
#
# Stress axis : x y z
#
# Youngs Moduli (GPa) = 76.35420 40.12884 83.19231
#
# Poissons Ratio (x) = 0.22337 0.24382
# Poissons Ratio (y) = 0.42501 0.32363
# Poissons Ratio (z) = 0.22378 0.15611
#
# Static dielectric constant tensor:
#      x y z
#    x 1.918400 0.000000 0.035650 
#    y 0.000000 1.786330 0.000000 
#    z 0.035650 0.000000 1.841700 
# 
# From -- ./inp_files/48938.got.cif
#   From: 2010.05.17/outbox.cif.g08.bks.cpg/sg5_25_cif.got.tgz:48938.got - 2010.06.03 18:56:24.
