data_PCOD9122497
_publ_section_title
;
Structure prediction by ZEFSAII (Michael W. Deem and Ramdas Pophale) SiO2 
 PCOD9122497
Probable space group: C 2
;
_chemical_formula_sum "Si O2"
_cell_formula_units_Z 26
_cell_length_a 10.113597
_cell_length_b 9.582957
_cell_length_c 22.645011
_cell_angle_alpha 90.000000
_cell_angle_beta 142.328762
_cell_angle_gamma 90.000000
_cell_volume 1341.254412
_symmetry_space_group_name_H-M "C 2"
_symmetry_group_IT_number 5
_symmetry_cell_setting 'monoclinic'
loop_
_space_group_symop_operation_xyz
x,y,z
-x,y,-z
1/2+x,1/2+y,z
1/2-x,1/2+y,-z
loop_
_atom_site_type_symbol
_atom_site_label
_atom_site_fract_x
_atom_site_fract_y
_atom_site_fract_z
Si Si1 0.378759 0.042190 0.274151
Si Si2 0.754109 0.028551 0.321025
Si Si3 0.500000 0.330231 0.500000
Si Si4 0.960256 0.247798 0.648193
Si Si5 0.433567 0.753733 0.778514
Si Si6 0.975812 0.911413 0.061820
Si Si7 0.834372 0.625381 0.991760
O O1 0.572347 0.093160 0.300166
O O2 0.272385 0.160517 0.276360
O O3 0.184003 0.980681 0.165313
O O4 0.469246 0.907190 0.340648
O O5 0.896616 0.138890 0.336654
O O6 0.904297 0.930296 0.415337
O O7 0.627261 0.916054 0.235729
O O8 0.701841 0.240835 0.547542
O O9 0.988696 0.231494 0.729063
O O10 0.634796 0.703385 0.888378
O O11 0.769265 0.000213 0.008913
O O12 0.000000 0.915581 0.000000
O O13 0.948249 0.748797 0.068979
O O14 0.000000 0.575909 0.000000
#
# Coordination Sequence:
#
# PCOD9122497 Si02
#       7
#     4   4   2   4   4   4   4
#     4   9  20  36  52  76 107 135 171 215 253 297
#     4  10  20  36  58  77 100 136 170 205 254 308
#     4   8  20  36  52  80 110 124 160 216 256 300
#     4  10  20  36  58  77 100 136 170 205 254 308
#     4   9  20  36  52  76 107 135 171 215 253 297
#     4  10  20  34  52  75 105 139 174 214 256 297
#     4  10  20  34  52  75 105 139 174 214 256 297
#
# _framework density 19.384837000000001
#
# number of rings (size 3 to 8) (size 9 to 14) (size 15 to 20)
#    0.000    2.769    0.000    3.692    0.000   11.692 
#    0.000    6.154    0.000    0.000    0.000    0.000 
#    0.000    0.000    0.000    0.000    0.000    0.000 
#
# Total GULP energy -72534.461447 kJ/mol
# GULP energy per Si atom -5579.573957 kJ/mol
# Density = 1.934072 g / cm^3
# Si number density = 19.384837 Si / 1000 Ang^3
#
#
#
# Elastic Constant Matrix: (Units=GPa)
#
#
# Indices 1 2 3 4 5 6 
#
# 1 135.8336 83.2514 15.2157 0.0000 44.8652 0.0000
# 2 83.2514 74.2842 -1.0256 0.0000 24.1520 0.0000
# 3 15.2157 -1.0256 48.1412 0.0000 20.4897 0.0000
# 4 0.0000 0.0000 0.0000 19.2251 0.0000 19.7853
# 5 44.8652 24.1520 20.4897 0.0000 28.9032 0.0000
# 6 0.0000 0.0000 0.0000 19.7853 0.0000 48.2632
#
#
#
# Elastic Compliance Matrix: (Units=1/GPa)
#
#
# Indices 1 2 3 4 5 6 
#
# 1 0.036457 -0.030286 0.001642 0.000000 -0.032448 0.000000
# 2 -0.030286 0.047729 0.010820 0.000000 -0.000542 0.000000
# 3 0.001642 0.010820 0.036399 0.000000 -0.037394 0.000000
# 4 0.000000 0.000000 0.000000 0.089975 0.000000 -0.036885
# 5 -0.032448 -0.000542 -0.037394 0.000000 0.111928 0.000000
# 6 0.000000 0.000000 0.000000 -0.036885 0.000000 0.035840
#
#
# Mechanical properties :
#
#
# Convention : Reuss Voigt Hill
#
# Bulk Modulus (GPa) = 11.77317 50.34912 31.06114
# Shear Modulus (GPa) = 11.84021 29.99946 20.91983
#
# Velocity S-wave (km/s) = 2.47411 3.93819 3.28866
# Velocity P-wave (km/s) = 3.77468 6.83439 5.52074
#
# Compressibility (1/GPa) = 0.08493889
#
# Stress axis : x y z
#
# Youngs Moduli (GPa) = 27.42926 20.95144 27.47310
#
# Poissons Ratio (x) = 0.63453 -0.04512
# Poissons Ratio (y) = 0.83072 -0.29726
# Poissons Ratio (z) = -0.04505 -0.22669
#
# Static dielectric constant tensor:
#      x y z
#    x 1.657390 0.000000 0.017490 
#    y 0.000000 1.671760 0.000000 
#    z 0.017490 0.000000 1.744770 
# 
# From -- ./inp_files/52109.got.cif
#   From: 2010.05.17/outbox.cif.g08.bks.cpg/sg5_27_cif.got.tgz:52109.got - 2010.06.03 18:56:24.
