data_PCOD9122090
_publ_section_title
;
Structure prediction by ZEFSAII (Michael W. Deem and Ramdas Pophale) SiO2 
 PCOD9122090
Probable space group: C 2
;
_chemical_formula_sum "Si O2"
_cell_formula_units_Z 28
_cell_length_a 14.438898
_cell_length_b 20.864958
_cell_length_c 9.239613
_cell_angle_alpha 90.000000
_cell_angle_beta 152.619702
_cell_angle_gamma 90.000000
_cell_volume 1280.157872
_symmetry_space_group_name_H-M "C 2"
_symmetry_group_IT_number 5
_symmetry_cell_setting 'monoclinic'
loop_
_space_group_symop_operation_xyz
x,y,z
-x,y,-z
1/2+x,1/2+y,z
1/2-x,1/2+y,-z
loop_
_atom_site_type_symbol
_atom_site_label
_atom_site_fract_x
_atom_site_fract_y
_atom_site_fract_z
Si Si1 0.169051 0.903710 0.895360
Si Si2 0.901579 0.531381 0.210436
Si Si3 0.219057 0.869797 0.297049
Si Si4 0.325417 0.084908 0.664763
Si Si5 0.076970 0.284289 0.774769
Si Si6 0.271826 0.942341 0.652762
Si Si7 0.565361 0.639791 0.760448
O O1 0.071303 0.913434 0.447764
O O2 0.231637 0.898019 0.153226
O O3 0.247025 0.835006 0.951032
O O4 0.293912 0.965055 0.009786
O O5 0.000000 0.517132 0.500000
O O6 0.068453 0.561811 0.335014
O O7 0.732287 0.585134 0.002179
O O8 0.381467 0.817786 0.571766
O O9 0.232566 0.927284 0.429265
O O10 0.000000 0.838679 0.000000
O O11 0.121425 0.124240 0.392536
O O12 0.272304 0.018613 0.674030
O O13 0.500000 0.119004 0.000000
O O14 0.132501 0.212082 0.888830
O O15 0.000000 0.283270 0.500000
O O16 0.500000 0.919426 0.000000
O O17 0.500000 0.638754 0.500000
#
# Coordination Sequence:
#
# PCOD9122090 Si02
#       7
#     4   4   4   4   4   4   4
#     4  10  19  38  63  91 125 163 210 272 315 371
#     4  12  24  40  67  96 131 166 213 268 329 379
#     4   9  18  35  59  90 121 162 211 265 316 371
#     4  11  22  39  63  94 129 170 215 257 319 382
#     4   9  19  37  62  89 118 163 219 260 315 371
#     4  10  20  34  57  94 129 162 206 260 323 384
#     4  11  23  43  63  92 130 172 216 268 316 384
#
# _framework density 21.872302999999999
#
# number of rings (size 3 to 8) (size 9 to 14) (size 15 to 20)
#    0.000    1.714    2.857    3.000    0.000    1.143 
#    5.143    3.571    0.000    0.000    0.000    0.000 
#    0.000    0.000    0.000    0.000    0.000    0.000 
#
# Total GULP energy -78144.515148 kJ/mol
# GULP energy per Si atom -5581.751082 kJ/mol
# Density = 2.182252 g / cm^3
# Si number density = 21.872303 Si / 1000 Ang^3
#
#
#
# Elastic Constant Matrix: (Units=GPa)
#
#
# Indices 1 2 3 4 5 6 
#
# 1 104.6541 32.9100 32.0708 0.0000 30.1387 0.0000
# 2 32.9100 150.9559 53.5361 0.0000 34.8150 0.0000
# 3 32.0708 53.5361 103.7887 0.0000 31.5681 0.0000
# 4 0.0000 0.0000 0.0000 17.5242 0.0000 4.0882
# 5 30.1387 34.8150 31.5681 0.0000 45.2143 0.0000
# 6 0.0000 0.0000 0.0000 4.0882 0.0000 11.2877
#
#
#
# Elastic Compliance Matrix: (Units=1/GPa)
#
#
# Indices 1 2 3 4 5 6 
#
# 1 0.012080 -0.000612 -0.001411 0.000000 -0.006596 0.000000
# 2 -0.000612 0.008826 -0.003073 0.000000 -0.004243 0.000000
# 3 -0.001411 -0.003073 0.013522 0.000000 -0.006134 0.000000
# 4 0.000000 0.000000 0.000000 0.062331 0.000000 -0.022575
# 5 -0.006596 -0.004243 -0.006134 0.000000 0.034063 0.000000
# 6 0.000000 0.000000 0.000000 -0.022575 0.000000 0.096768
#
#
# Mechanical properties :
#
#
# Convention : Reuss Voigt Hill
#
# Bulk Modulus (GPa) = 41.26155 66.27029 53.76592
# Shear Modulus (GPa) = 20.33679 30.86402 25.60041
#
# Velocity S-wave (km/s) = 3.05256 3.76054 3.42489
# Velocity P-wave (km/s) = 5.59731 7.01570 6.34626
#
# Compressibility (1/GPa) = 0.02423564
#
# Stress axis : x y z
#
# Youngs Moduli (GPa) = 82.78474 113.29840 73.95453
#
# Poissons Ratio (x) = 0.06933 0.10433
# Poissons Ratio (y) = 0.05066 0.22728
# Poissons Ratio (z) = 0.11679 0.34819
#
# Static dielectric constant tensor:
#      x y z
#    x 1.918540 0.000000 -0.022770 
#    y 0.000000 1.756170 0.000000 
#    z -0.022770 0.000000 1.851830 
# 
# From -- ./inp_files/25511.got.cif
#   From: 2010.05.17/outbox.cif.g08.bks.cpg/sg5_13_cif.got.tgz:25511.got - 2010.06.03 18:56:24.
