data_PCOD9122116
_publ_section_title
;
Structure prediction by ZEFSAII (Michael W. Deem and Ramdas Pophale) SiO2 
 PCOD9122116
Probable space group: C 2
;
_chemical_formula_sum "Si O2"
_cell_formula_units_Z 30
_cell_length_a 12.553278
_cell_length_b 13.195964
_cell_length_c 16.108983
_cell_angle_alpha 90.000000
_cell_angle_beta 152.583062
_cell_angle_gamma 90.000000
_cell_volume 1228.741138
_symmetry_space_group_name_H-M "C 2"
_symmetry_group_IT_number 5
_symmetry_cell_setting 'monoclinic'
loop_
_space_group_symop_operation_xyz
x,y,z
-x,y,-z
1/2+x,1/2+y,z
1/2-x,1/2+y,-z
loop_
_atom_site_type_symbol
_atom_site_label
_atom_site_fract_x
_atom_site_fract_y
_atom_site_fract_z
Si Si1 0.952341 0.306520 0.127450
Si Si2 0.500000 0.904073 0.500000
Si Si3 0.922859 0.763903 0.538075
Si Si4 0.001885 0.964160 0.414441
Si Si5 0.684434 0.055370 0.493234
Si Si6 0.908614 0.086800 0.091196
Si Si7 0.036668 0.530524 0.120518
Si Si8 0.490075 0.366390 0.898154
O O1 0.959633 0.196883 0.088680
O O2 0.154551 0.297596 0.337583
O O3 0.002175 0.409026 0.111239
O O4 0.703165 0.318674 0.996404
O O5 0.739822 0.846743 0.683693
O O6 0.538853 0.976072 0.446369
O O7 0.043961 0.860155 0.668431
O O8 0.935003 0.662886 0.600578
O O9 0.000000 0.721768 0.500000
O O10 0.000000 0.903810 0.500000
O O11 0.812311 0.045018 0.310455
O O12 0.227343 0.011729 0.532367
O O13 0.919629 0.072687 0.710195
O O14 0.962635 0.988210 0.074256
O O15 0.648481 0.080574 0.947444
O O16 0.000000 0.556573 0.000000
O O17 0.500000 0.333047 0.000000
#
# Coordination Sequence:
#
# PCOD9122116 Si02
#       8
#     4   2   4   4   4   4   4   4
#     4  10  21  40  61  91 123 160 214 258 310 384
#     4  10  22  40  68  90 132 170 214 262 320 380
#     4  10  19  38  65  90 115 165 215 255 315 382
#     4  11  22  37  63  93 123 160 206 261 313 370
#     4  10  20  38  64  91 123 165 213 258 316 380
#     4   9  21  39  63  89 122 166 207 259 315 375
#     4  11  20  37  61  87 120 156 200 253 312 362
#     4  10  23  40  66  93 125 169 213 260 320 376
#
# _framework density 24.415230999999999
#
# number of rings (size 3 to 8) (size 9 to 14) (size 15 to 20)
#    0.000    1.867    4.667    0.000    1.867    1.067 
#    0.000    1.333    2.933    0.000    0.000    0.000 
#    0.000    0.000    0.000    0.000    0.000    0.000 
#
# Total GULP energy -83592.068632 kJ/mol
# GULP energy per Si atom -5572.804575 kJ/mol
# Density = 2.435966 g / cm^3
# Si number density = 24.415231 Si / 1000 Ang^3
#
#
#
# Elastic Constant Matrix: (Units=GPa)
#
#
# Indices 1 2 3 4 5 6 
#
# 1 81.3476 -0.1348 20.6868 0.0060 25.6587 -0.0050
# 2 -0.1348 71.8009 -5.9235 0.0178 1.9950 -0.0018
# 3 20.6868 -5.9235 114.0572 0.0277 32.1015 -0.0040
# 4 0.0060 0.0178 0.0277 9.2606 0.0122 1.4966
# 5 25.6587 1.9950 32.1015 0.0122 34.1146 -0.0068
# 6 -0.0050 -0.0018 -0.0040 1.4966 -0.0068 1.1167
#
#
#
# Elastic Compliance Matrix: (Units=1/GPa)
#
#
# Indices 1 2 3 4 5 6 
#
# 1 0.016168 0.000446 0.000708 0.000005 -0.012853 -0.000010
# 2 0.000446 0.014105 0.001331 -0.000039 -0.002412 0.000067
# 3 0.000708 0.001331 0.012079 -0.000025 -0.011977 0.000008
# 4 0.000005 -0.000039 -0.000025 0.137837 -0.000065 -0.184729
# 5 -0.012853 -0.002412 -0.011977 -0.000065 0.050391 0.000291
# 6 -0.000010 0.000067 0.000008 -0.184729 0.000291 1.143068
#
#
# Mechanical properties :
#
#
# Convention : Reuss Voigt Hill
#
# Bulk Modulus (GPa) = 21.13228 32.94031 27.03630
# Shear Modulus (GPa) = 3.61154 25.73688 14.67421
#
# Velocity S-wave (km/s) = 1.21755 3.25026 2.45424
# Velocity P-wave (km/s) = 3.26355 5.25420 4.37363
#
# Compressibility (1/GPa) = 0.04732096
#
# Stress axis : x y z
#
# Youngs Moduli (GPa) = 61.85240 70.89663 82.78805
#
# Poissons Ratio (x) = -0.03161 -0.05863
# Poissons Ratio (y) = -0.02758 -0.11016
# Poissons Ratio (z) = -0.04380 -0.09434
#
# Static dielectric constant tensor:
#      x y z
#    x 2.047930 0.000050 -0.478270 
#    y 0.000050 1.960260 -0.000140 
#    z -0.478270 -0.000140 3.423680 
# 
# From -- ./inp_files/20441.got.cif
#   From: 2010.05.17/outbox.cif.g08.bks.cpg/sg5_11_cif.got.tgz:20441.got - 2010.06.03 18:56:24.
