data_PCOD9122503
_publ_section_title
;
Structure prediction by ZEFSAII (Michael W. Deem and Ramdas Pophale) SiO2 
 PCOD9122503
Probable space group: C 2
;
_chemical_formula_sum "Si O2"
_cell_formula_units_Z 26
_cell_length_a 14.568745
_cell_length_b 12.695175
_cell_length_c 8.950646
_cell_angle_alpha 90.000000
_cell_angle_beta 138.184386
_cell_angle_gamma 90.000000
_cell_volume 1103.745279
_symmetry_space_group_name_H-M "C 2"
_symmetry_group_IT_number 5
_symmetry_cell_setting 'monoclinic'
loop_
_space_group_symop_operation_xyz
x,y,z
-x,y,-z
1/2+x,1/2+y,z
1/2-x,1/2+y,-z
loop_
_atom_site_type_symbol
_atom_site_label
_atom_site_fract_x
_atom_site_fract_y
_atom_site_fract_z
Si Si1 0.220778 0.235810 0.886514
Si Si2 0.345151 0.241387 0.749532
Si Si3 0.412339 0.997061 0.539064
Si Si4 0.403108 0.878560 0.005473
Si Si5 0.500000 0.570064 0.500000
Si Si6 0.717908 0.506224 0.553167
Si Si7 0.975803 0.734136 0.624644
O O1 0.251349 0.293065 0.764322
O O2 0.156781 0.302735 0.941906
O O3 0.119234 0.142357 0.718309
O O4 0.373886 0.207053 0.127006
O O5 0.278460 0.126457 0.642000
O O6 0.377063 0.288612 0.625398
O O7 0.500000 0.228863 0.000000
O O8 0.500000 0.954889 0.500000
O O9 0.406742 0.122150 0.503980
O O10 0.509409 0.964407 0.796067
O O11 0.293820 0.938402 0.772337
O O12 0.500000 0.822287 0.000000
O O13 0.564199 0.512839 0.432752
O O14 0.763819 0.474996 0.440016
O O15 0.000000 0.793615 0.500000
#
# Coordination Sequence:
#
# PCOD9122503 Si02
#       7
#     4   4   4   4   2   4   4
#     4  10  20  34  53  84 116 146 177 234 285 332
#     4   8  14  30  57  79  99 145 193 224 259 330
#     4   9  17  32  59  80  99 140 198 233 259 324
#     4  10  20  36  53  78 111 150 188 230 276 331
#     4  10  20  36  62  82 114 152 186 224 286 344
#     4   9  17  34  57  77 104 146 191 222 274 333
#     4   9  17  34  59  86 104 141 195 237 265 323
#
# _framework density 23.556159999999998
#
# number of rings (size 3 to 8) (size 9 to 14) (size 15 to 20)
#    0.000    2.769    0.000    4.154    1.077    0.000 
#   12.462    0.000    6.769    0.000    0.000    0.000 
#    0.000    0.000    0.000    0.000    0.000    0.000 
#
# Total GULP energy -72382.110248 kJ/mol
# GULP energy per Si atom -5567.854634 kJ/mol
# Density = 2.350255 g / cm^3
# Si number density = 23.556160 Si / 1000 Ang^3
#
#
#
# Elastic Constant Matrix: (Units=GPa)
#
#
# Indices 1 2 3 4 5 6 
#
# 1 320.2075 63.5095 44.3181 0.0000 -31.8032 0.0000
# 2 63.5095 42.6715 2.4037 0.0000 -10.5332 0.0000
# 3 44.3181 2.4037 36.8509 0.0000 -15.1907 0.0000
# 4 0.0000 0.0000 0.0000 11.2688 0.0000 4.8155
# 5 -31.8032 -10.5332 -15.1907 0.0000 41.4595 0.0000
# 6 0.0000 0.0000 0.0000 4.8155 0.0000 -10.7306
#
#
#
# Elastic Compliance Matrix: (Units=1/GPa)
#
#
# Indices 1 2 3 4 5 6 
#
# 1 0.005541 -0.007903 -0.006153 0.000000 -0.000012 0.000000
# 2 -0.007903 0.036318 0.009942 0.000000 0.006807 0.000000
# 3 -0.006153 0.009942 0.038851 0.000000 0.012041 0.000000
# 4 0.000000 0.000000 0.000000 0.074461 0.000000 0.033415
# 5 -0.000012 0.006807 0.012041 0.000000 0.030252 0.000000
# 6 0.000000 0.000000 0.000000 0.033415 0.000000 -0.078196
#
#
# Mechanical properties :
#
#
# Convention : Reuss Voigt Hill
#
# Bulk Modulus (GPa) = 13.79682 68.91028 41.35355
# Shear Modulus (GPa) = 35.81238 27.69943 31.75591
#
# Velocity S-wave (km/s) = 3.90333 3.43284 3.67562
# Velocity P-wave (km/s) = 5.11706 6.71042 5.96716
#
# Compressibility (1/GPa) = 0.07248049
#
# Stress axis : x y z
#
# Youngs Moduli (GPa) = 180.47699 27.53493 25.73920
#
# Poissons Ratio (x) = 0.21761 0.15837
# Poissons Ratio (y) = 1.42631 -0.25589
# Poissons Ratio (z) = 1.11049 -0.27374
#
# Static dielectric constant tensor:
#      x y z
#    x 2.037240 0.000000 0.026350 
#    y 0.000000 1.905820 0.000000 
#    z 0.026350 0.000000 1.955290 
# 
# From -- ./inp_files/24753.got.cif
#   From: 2010.05.17/outbox.cif.g08.bks.cpg/sg5_13_cif.got.tgz:24753.got - 2010.06.03 18:56:24.
