data_PCOD9122486
_publ_section_title
;
Structure prediction by ZEFSAII (Michael W. Deem and Ramdas Pophale) SiO2 
 PCOD9122486
Probable space group: C 2
;
_chemical_formula_sum "Si O2"
_cell_formula_units_Z 18
_cell_length_a 22.531444
_cell_length_b 5.770923
_cell_length_c 17.578315
_cell_angle_alpha 90.000000
_cell_angle_beta 154.776154
_cell_angle_gamma 90.000000
_cell_volume 974.047168
_symmetry_space_group_name_H-M "C 2"
_symmetry_group_IT_number 5
_symmetry_cell_setting 'monoclinic'
loop_
_space_group_symop_operation_xyz
x,y,z
-x,y,-z
1/2+x,1/2+y,z
1/2-x,1/2+y,-z
loop_
_atom_site_type_symbol
_atom_site_label
_atom_site_fract_x
_atom_site_fract_y
_atom_site_fract_z
Si Si1 0.416411 0.059470 0.642817
Si Si2 0.422560 0.733515 0.053033
Si Si3 0.301626 0.225740 0.093498
Si Si4 0.000000 0.535770 0.000000
Si Si5 0.144782 0.847700 0.281096
O O1 0.349470 0.209132 0.633013
O O2 0.494022 0.853568 0.779613
O O3 0.289148 0.981957 0.443020
O O4 0.535187 0.192748 0.733754
O O5 0.507362 0.504096 0.131071
O O6 0.434082 0.889153 0.991714
O O7 0.265838 0.707271 0.901114
O O8 0.263413 0.488611 0.020803
O O9 0.117027 0.687333 0.177088
#
# Coordination Sequence:
#
# PCOD9122486 Si02
#       5
#     4   4   4   2   4
#     4  10  20  33  62  97 115 151 208 263 305 352
#     4  10  20  37  58  89 123 160 201 252 308 372
#     4  10  20  36  61  96 125 155 202 263 314 360
#     4  10  24  36  60  88 122 170 200 246 316 376
#     4  11  19  37  59  91 121 153 207 256 306 365
#
# _framework density 18.479599
#
# number of rings (size 3 to 8) (size 9 to 14) (size 15 to 20)
#    0.000    1.778    4.444    0.667    0.000    0.000 
#    0.000    0.000    0.000    8.000    0.000    0.000 
#    0.000    0.000    0.000    0.000    0.000    0.000 
#
# Total GULP energy -50123.228204 kJ/mol
# GULP energy per Si atom -5569.247578 kJ/mol
# Density = 1.843754 g / cm^3
# Si number density = 18.479599 Si / 1000 Ang^3
#
#
#
# Elastic Constant Matrix: (Units=GPa)
#
#
# Indices 1 2 3 4 5 6 
#
# 1 64.2553 -0.4328 36.7302 0.0000 -8.7600 0.0000
# 2 -0.4328 53.4179 7.6189 0.0000 -15.7437 0.0001
# 3 36.7302 7.6189 59.1751 0.0000 -4.5234 0.0000
# 4 0.0000 0.0000 0.0000 13.0069 0.0000 8.4366
# 5 -8.7600 -15.7437 -4.5234 0.0000 22.9485 0.0000
# 6 0.0000 0.0001 0.0000 8.4366 0.0000 -64.3524
#
#
#
# Elastic Compliance Matrix: (Units=1/GPa)
#
#
# Indices 1 2 3 4 5 6 
#
# 1 0.026381 0.005714 -0.016286 0.000000 0.010780 0.000000
# 2 0.005714 0.024897 -0.005360 0.000000 0.018205 0.000000
# 3 -0.016286 -0.005360 0.027354 0.000000 -0.004503 0.000000
# 4 0.000000 0.000000 0.000000 0.070857 0.000000 0.009289
# 5 0.010780 0.018205 -0.004503 0.000000 0.059292 0.000000
# 6 0.000000 0.000000 0.000000 0.009289 0.000000 -0.014322
#
#
# Mechanical properties :
#
#
# Convention : Reuss Voigt Hill
#
# Bulk Modulus (GPa) = 21.38340 29.40899 25.39619
# Shear Modulus (GPa) = 20.66857 3.18274 11.92565
#
# Velocity S-wave (km/s) = 3.34796 1.31379 2.54311
# Velocity P-wave (km/s) = 5.15185 4.27203 4.73243
#
# Compressibility (1/GPa) = 0.04676524
#
# Stress axis : x y z
#
# Youngs Moduli (GPa) = 37.90654 40.16625 36.55788
#
# Poissons Ratio (x) = -0.22950 0.59539
# Poissons Ratio (y) = -0.21659 0.19597
# Poissons Ratio (z) = 0.61735 0.21531
#
# Static dielectric constant tensor:
#      x y z
#    x 1.621270 0.000000 0.054900 
#    y 0.000000 1.719110 0.000000 
#    z 0.054900 0.000000 1.957360 
# 
# From -- ./inp_files/25849.got.cif
#   From: 2010.05.17/outbox.cif.g08.bks.cpg/sg5_13_cif.got.tgz:25849.got - 2010.06.03 18:56:24.
