data_PCOD9122732
_publ_section_title
;
Structure prediction by ZEFSAII (Michael W. Deem and Ramdas Pophale) SiO2 
 PCOD9122732
Probable space group: C 2
;
_chemical_formula_sum "Si O2"
_cell_formula_units_Z 28
_cell_length_a 16.312476
_cell_length_b 5.033580
_cell_length_c 14.761479
_cell_angle_alpha 90.000000
_cell_angle_beta 90.671258
_cell_angle_gamma 90.000000
_cell_volume 1211.984117
_symmetry_space_group_name_H-M "C 2"
_symmetry_group_IT_number 5
_symmetry_cell_setting 'monoclinic'
loop_
_space_group_symop_operation_xyz
x,y,z
-x,y,-z
1/2+x,1/2+y,z
1/2-x,1/2+y,-z
loop_
_atom_site_type_symbol
_atom_site_label
_atom_site_fract_x
_atom_site_fract_y
_atom_site_fract_z
Si Si1 0.527791 0.378750 0.679195
Si Si2 0.696601 0.522496 0.018654
Si Si3 0.697172 0.689380 0.512634
Si Si4 0.375438 0.563981 0.163933
Si Si5 0.161284 0.460693 0.688992
Si Si6 0.577407 0.885098 0.354737
Si Si7 0.792609 0.247384 0.787086
O O1 0.549984 0.412437 0.786552
O O2 0.608077 0.206638 0.652349
O O3 0.496172 0.669793 0.651084
O O4 0.457519 0.180578 0.644830
O O5 0.679137 0.601779 0.121305
O O6 0.730390 0.223761 0.011366
O O7 0.625711 0.569866 0.943970
O O8 0.773825 0.891473 0.503713
O O9 0.665886 0.735512 0.613785
O O10 0.631149 0.798571 0.440914
O O11 0.286823 0.428955 0.188481
O O12 0.372369 0.844352 0.216410
O O13 0.252941 0.547503 0.714027
O O14 0.632803 0.875798 0.264924
#
# Coordination Sequence:
#
# PCOD9122732 Si02
#       7
#     4   4   4   4   4   4   4
#     4  11  26  44  65  91 136 179 206 262 322 387
#     4  10  20  35  66 102 125 159 220 272 313 375
#     4  12  26  43  69 102 128 163 218 276 317 374
#     4  10  21  43  69  95 131 169 221 262 319 384
#     4  11  22  45  69  94 130 175 213 262 326 378
#     4  12  25  45  65  98 133 169 217 264 321 385
#     4  10  22  39  71  98 127 169 215 273 322 368
#
# _framework density 23.102613999999999
#
# number of rings (size 3 to 8) (size 9 to 14) (size 15 to 20)
#    0.000    1.143    4.286    1.714    4.000    0.571 
#    2.571    0.714    3.143    0.000    0.000    0.000 
#    0.000    0.000    0.000    0.000    0.000    0.000 
#
# Total GULP energy -78194.139505 kJ/mol
# GULP energy per Si atom -5585.295679 kJ/mol
# Density = 2.305003 g / cm^3
# Si number density = 23.102614 Si / 1000 Ang^3
#
#
#
# Elastic Constant Matrix: (Units=GPa)
#
#
# Indices 1 2 3 4 5 6 
#
# 1 29.8729 14.9534 18.7886 0.0000 13.8295 0.0000
# 2 14.9534 68.4102 -9.7777 0.0000 2.4410 0.0000
# 3 18.7886 -9.7777 81.7419 0.0000 17.2804 0.0000
# 4 0.0000 0.0000 0.0000 32.1259 0.0000 9.3851
# 5 13.8295 2.4410 17.2804 0.0000 29.6113 0.0000
# 6 0.0000 0.0000 0.0000 9.3851 0.0000 34.0333
#
#
#
# Elastic Compliance Matrix: (Units=1/GPa)
#
#
# Indices 1 2 3 4 5 6 
#
# 1 0.054942 -0.012805 -0.010220 0.000000 -0.018640 0.000000
# 2 -0.012805 0.018032 0.004734 0.000000 0.001731 0.000000
# 3 -0.010220 0.004734 0.016224 0.000000 -0.005085 0.000000
# 4 0.000000 0.000000 0.000000 0.033855 0.000000 -0.009336
# 5 -0.018640 0.001731 -0.005085 0.000000 0.045301 0.000000
# 6 0.000000 0.000000 0.000000 -0.009336 0.000000 0.031957
#
#
# Mechanical properties :
#
#
# Convention : Reuss Voigt Hill
#
# Bulk Modulus (GPa) = 19.00547 25.32818 22.16683
# Shear Modulus (GPa) = 19.65164 29.55815 24.60490
#
# Velocity S-wave (km/s) = 2.91971 3.58079 3.26701
# Velocity P-wave (km/s) = 4.42840 5.29936 4.88333
#
# Compressibility (1/GPa) = 0.05261643
#
# Stress axis : x y z
#
# Youngs Moduli (GPa) = 18.20093 55.45826 61.63718
#
# Poissons Ratio (x) = 0.71015 0.62992
# Poissons Ratio (y) = 0.23307 -0.29180
# Poissons Ratio (z) = 0.18601 -0.26255
#
# Static dielectric constant tensor:
#      x y z
#    x 1.898270 0.000000 -0.005610 
#    y 0.000000 1.904980 0.000000 
#    z -0.005610 0.000000 1.864590 
# 
# From -- ./inp_files/55325.got.cif
#   From: 2010.05.17/outbox.cif.g08.bks.cpg/sg5_28_cif.got.tgz:55325.got - 2010.06.03 18:56:24.
