data_PCOD9122748
_publ_section_title
;
Structure prediction by ZEFSAII (Michael W. Deem and Ramdas Pophale) SiO2 
 PCOD9122748
Probable space group: C 2
;
_chemical_formula_sum "Si O2"
_cell_formula_units_Z 32
_cell_length_a 8.153795
_cell_length_b 11.282914
_cell_length_c 19.584851
_cell_angle_alpha 90.000000
_cell_angle_beta 53.864992
_cell_angle_gamma 90.000000
_cell_volume 1455.169677
_symmetry_space_group_name_H-M "C 2"
_symmetry_group_IT_number 5
_symmetry_cell_setting 'monoclinic'
loop_
_space_group_symop_operation_xyz
x,y,z
-x,y,-z
1/2+x,1/2+y,z
1/2-x,1/2+y,-z
loop_
_atom_site_type_symbol
_atom_site_label
_atom_site_fract_x
_atom_site_fract_y
_atom_site_fract_z
Si Si1 0.721249 0.621780 0.448899
Si Si2 0.466347 0.454770 0.089216
Si Si3 0.047753 0.693826 0.906910
Si Si4 0.843203 0.667390 0.672569
Si Si5 0.335620 0.418389 0.644279
Si Si6 0.783934 0.494084 0.569778
Si Si7 0.521615 0.959633 0.160794
Si Si8 0.470260 0.696596 0.857409
O O1 0.500000 0.679119 0.500000
O O2 0.695364 0.499234 0.413817
O O3 0.775839 0.597128 0.513927
O O4 0.920810 0.676101 0.366181
O O5 0.530418 0.323178 0.099562
O O6 0.564498 0.577193 0.090569
O O7 0.223138 0.462234 0.157783
O O8 0.500000 0.450473 0.000000
O O9 0.974792 0.577527 0.885763
O O10 0.293261 0.694465 0.844033
O O11 0.000000 0.687277 0.000000
O O12 0.796663 0.781738 0.637751
O O13 0.799336 0.549343 0.641025
O O14 0.691802 0.679484 0.771994
O O15 0.567942 0.432253 0.612277
O O16 0.178010 0.455285 0.742651
O O17 0.000000 0.433377 0.500000
O O18 0.535004 0.833794 0.115835
#
# Coordination Sequence:
#
# PCOD9122748 Si02
#       8
#     4   4   4   4   4   4   4   4
#     4   9  19  34  53  78 104 135 178 219 263 322
#     4  10  21  37  57  82 112 145 182 226 274 323
#     4  10  21  37  57  82 112 145 182 226 274 323
#     4  10  20  36  55  75 106 142 175 220 272 320
#     4  10  20  36  55  75 106 142 175 220 272 320
#     4   9  19  34  53  78 104 135 178 219 263 322
#     4  10  21  36  56  82 111 146 185 224 272 328
#     4  10  21  36  56  82 111 146 185 224 272 328
#
# _framework density 21.990562000000001
#
# number of rings (size 3 to 8) (size 9 to 14) (size 15 to 20)
#    0.000    2.250    0.000    2.250    0.000    6.500 
#    0.000    5.000    0.000    0.000    0.000    0.000 
#    0.000    0.000    0.000    0.000    0.000    0.000 
#
# Total GULP energy -89140.682528 kJ/mol
# GULP energy per Si atom -5571.292658 kJ/mol
# Density = 2.194051 g / cm^3
# Si number density = 21.990562 Si / 1000 Ang^3
#
#
#
# Elastic Constant Matrix: (Units=GPa)
#
#
# Indices 1 2 3 4 5 6 
#
# 1 50.8284 17.3903 12.0665 0.0000 -17.2849 0.0000
# 2 17.3903 177.9043 12.8826 0.0000 22.3487 0.0000
# 3 12.0665 12.8826 56.7229 0.0000 -26.4238 0.0000
# 4 0.0000 0.0000 0.0000 -69.8862 0.0000 37.1628
# 5 -17.2849 22.3487 -26.4238 0.0000 35.0068 0.0000
# 6 0.0000 0.0000 0.0000 37.1628 0.0000 6.5222
#
#
#
# Elastic Compliance Matrix: (Units=1/GPa)
#
#
# Indices 1 2 3 4 5 6 
#
# 1 0.027662 -0.005791 0.005422 0.000000 0.021448 0.000000
# 2 -0.005791 0.008377 -0.006931 0.000000 -0.013439 0.000000
# 3 0.005422 -0.006931 0.032942 0.000000 0.031967 0.000000
# 4 0.000000 0.000000 0.000000 -0.003551 0.000000 0.020231
# 5 0.021448 -0.013439 0.031967 0.000000 0.071865 0.000000
# 6 0.000000 0.000000 0.000000 0.020231 0.000000 0.038046
#
#
# Mechanical properties :
#
#
# Convention : Reuss Voigt Hill
#
# Bulk Modulus (GPa) = 18.38885 41.12606 29.75746
# Shear Modulus (GPa) = 24.03050 10.53632 17.28341
#
# Velocity S-wave (km/s) = 3.30928 2.19128 2.80652
# Velocity P-wave (km/s) = 4.79397 5.01443 4.90544
#
# Compressibility (1/GPa) = 0.05438077
#
# Stress axis : x y z
#
# Youngs Moduli (GPa) = 36.15099 119.37091 30.35637
#
# Poissons Ratio (x) = 0.69127 -0.16459
# Poissons Ratio (y) = 0.20935 0.21041
# Poissons Ratio (z) = -0.19601 0.82739
#
# Static dielectric constant tensor:
#      x y z
#    x 1.809600 0.000000 -0.049340 
#    y 0.000000 1.852890 0.000000 
#    z -0.049340 0.000000 1.845190 
# 
# From -- ./inp_files/64545.got.cif
#   From: 2010.05.17/outbox.cif.g08.bks.cpg/sg5_33_cif.got.tgz:64545.got - 2010.06.03 18:56:24.
