data_PCOD9122545
_publ_section_title
;
Structure prediction by ZEFSAII (Michael W. Deem and Ramdas Pophale) SiO2 
 PCOD9122545
Probable space group: C 2
;
_chemical_formula_sum "Si O2"
_cell_formula_units_Z 24
_cell_length_a 13.754670
_cell_length_b 12.331758
_cell_length_c 11.702284
_cell_angle_alpha 90.000000
_cell_angle_beta 34.501170
_cell_angle_gamma 90.000000
_cell_volume 1124.311707
_symmetry_space_group_name_H-M "C 2"
_symmetry_group_IT_number 5
_symmetry_cell_setting 'monoclinic'
loop_
_space_group_symop_operation_xyz
x,y,z
-x,y,-z
1/2+x,1/2+y,z
1/2-x,1/2+y,-z
loop_
_atom_site_type_symbol
_atom_site_label
_atom_site_fract_x
_atom_site_fract_y
_atom_site_fract_z
Si Si1 0.494627 0.936860 0.226301
Si Si2 0.834778 0.971901 0.316878
Si Si3 0.861965 0.241835 0.055587
Si Si4 0.866200 0.683531 0.541047
Si Si5 0.612629 0.176207 0.107254
Si Si6 0.305695 0.389246 0.087848
O O1 0.299574 0.925921 0.459373
O O2 0.624605 0.916405 0.205894
O O3 0.544175 0.058541 0.138789
O O4 0.548826 0.846645 0.083006
O O5 0.802002 0.920970 0.223272
O O6 0.769370 0.095922 0.372732
O O7 0.038110 0.950127 0.130856
O O8 0.717297 0.267937 0.290473
O O9 0.775728 0.175625 0.036198
O O10 0.000000 0.180206 0.000000
O O11 0.000000 0.625268 0.500000
O O12 0.966832 0.723982 0.333612
O O13 0.654740 0.261822 0.968891
#
# Coordination Sequence:
#
# PCOD9122545 Si02
#       6
#     4   4   4   4   4   4
#     4  10  21  40  56  82 117 147 182 239 285 328
#     4  10  20  34  59  83 107 148 191 231 275 338
#     4  10  21  33  59  87 109 149 191 228 278 341
#     4   9  18  34  57  82 109 142 185 239 276 326
#     4   9  20  38  57  79 118 148 183 238 287 326
#     4  10  20  34  57  85 109 145 191 234 278 332
#
# _framework density 21.346392999999999
#
# number of rings (size 3 to 8) (size 9 to 14) (size 15 to 20)
#    0.000    2.333    0.000    3.500    7.000    0.000 
#    3.000    0.000    0.000   22.000    0.000    0.000 
#    0.000    0.000    0.000    0.000    0.000    0.000 
#
# Total GULP energy -66862.602478 kJ/mol
# GULP energy per Si atom -5571.883540 kJ/mol
# Density = 2.129781 g / cm^3
# Si number density = 21.346393 Si / 1000 Ang^3
#
#
#
# Elastic Constant Matrix: (Units=GPa)
#
#
# Indices 1 2 3 4 5 6 
#
# 1 39.1183 -2.3664 -1.0406 0.0000 -11.2402 0.0000
# 2 -2.3664 72.6732 41.2709 0.0000 6.6804 0.0000
# 3 -1.0406 41.2709 104.7985 0.0001 4.2572 -0.0001
# 4 0.0000 0.0000 0.0001 39.2471 0.0000 -2.3715
# 5 -11.2402 6.6804 4.2572 0.0000 33.7744 0.0000
# 6 0.0000 0.0000 -0.0001 -2.3715 0.0000 10.3963
#
#
#
# Elastic Compliance Matrix: (Units=1/GPa)
#
#
# Indices 1 2 3 4 5 6 
#
# 1 0.028269 0.000147 -0.000159 0.000000 0.009399 0.000000
# 2 0.000147 0.017962 -0.006966 0.000000 -0.002626 0.000000
# 3 -0.000159 -0.006966 0.012293 0.000000 -0.000225 0.000000
# 4 0.000000 0.000000 0.000000 0.025836 0.000000 0.005893
# 5 0.009399 -0.002626 -0.000225 0.000000 0.033284 0.000000
# 6 0.000000 0.000000 0.000000 0.005893 0.000000 0.097532
#
#
# Mechanical properties :
#
#
# Convention : Reuss Voigt Hill
#
# Bulk Modulus (GPa) = 22.43748 32.47976 27.45862
# Shear Modulus (GPa) = 20.49286 28.59862 24.54574
#
# Velocity S-wave (km/s) = 3.10177 3.66422 3.39466
# Velocity P-wave (km/s) = 4.83342 5.75765 5.31566
#
# Compressibility (1/GPa) = 0.04456828
#
# Stress axis : x y z
#
# Youngs Moduli (GPa) = 35.37467 55.67264 81.34843
#
# Poissons Ratio (x) = -0.00817 0.01293
# Poissons Ratio (y) = -0.00519 0.56664
# Poissons Ratio (z) = 0.00562 0.38779
#
# Static dielectric constant tensor:
#      x y z
#    x 1.814920 0.000000 -0.075630 
#    y 0.000000 1.796010 0.000000 
#    z -0.075630 0.000000 1.853510 
# 
# From -- ./inp_files/42995.got.cif
#   From: 2010.05.17/outbox.cif.g08.bks.cpg/sg5_22_cif.got.tgz:42995.got - 2010.06.03 18:56:24.
