data_PCOD9122206
_publ_section_title
;
Structure prediction by ZEFSAII (Michael W. Deem and Ramdas Pophale) SiO2 
 PCOD9122206
Probable space group: C 2
;
_chemical_formula_sum "Si O2"
_cell_formula_units_Z 24
_cell_length_a 14.106910
_cell_length_b 9.486321
_cell_length_c 7.343360
_cell_angle_alpha 90.000000
_cell_angle_beta 115.043120
_cell_angle_gamma 90.000000
_cell_volume 890.323186
_symmetry_space_group_name_H-M "C 2"
_symmetry_group_IT_number 5
_symmetry_cell_setting 'monoclinic'
loop_
_space_group_symop_operation_xyz
x,y,z
-x,y,-z
1/2+x,1/2+y,z
1/2-x,1/2+y,-z
loop_
_atom_site_type_symbol
_atom_site_label
_atom_site_fract_x
_atom_site_fract_y
_atom_site_fract_z
Si Si1 0.881464 0.887830 0.144723
Si Si2 0.802550 0.934585 0.694853
Si Si3 0.255880 0.134571 0.621734
Si Si4 0.073818 0.190730 0.730774
Si Si5 0.359911 0.917510 0.933177
Si Si6 0.594308 0.085521 0.698275
O O1 0.760560 0.897580 0.110174
O O2 0.915600 0.751019 0.279593
O O3 0.943714 0.027301 0.245374
O O4 0.876021 0.891003 0.921177
O O5 0.792104 0.786111 0.577291
O O6 0.828330 0.059703 0.576656
O O7 0.699306 0.012046 0.701840
O O8 0.193093 0.187955 0.748680
O O9 0.340466 0.010363 0.731783
O O10 0.000000 0.236836 0.500000
O O11 0.082152 0.279568 0.927598
O O12 0.412704 0.031969 0.103208
O O13 0.500000 0.036689 0.500000
#
# Coordination Sequence:
#
# PCOD9122206 Si02
#       6
#     4   4   4   4   4   4
#     4  10  20  39  63  93 121 168 210 248 303 383
#     4  11  24  40  65  93 126 167 212 261 311 375
#     4  11  24  40  65  93 125 166 214 259 314 371
#     4  11  22  39  68  96 123 161 214 261 307 366
#     4  10  19  39  65  88 118 165 214 249 300 378
#     4  11  21  39  68  93 121 161 214 262 307 365
#
# _framework density 26.956503999999999
#
# number of rings (size 3 to 8) (size 9 to 14) (size 15 to 20)
#    0.000    1.333    5.000    3.000    7.000    0.000 
#    0.000    1.667    0.000    0.000    0.000    0.000 
#    0.000    0.000    0.000    0.000    0.000    0.000 
#
# Total GULP energy -66876.901619 kJ/mol
# GULP energy per Si atom -5573.075135 kJ/mol
# Density = 2.689515 g / cm^3
# Si number density = 26.956504 Si / 1000 Ang^3
#
#
#
# Elastic Constant Matrix: (Units=GPa)
#
#
# Indices 1 2 3 4 5 6 
#
# 1 66.6579 13.1255 31.2523 0.0000 4.9915 0.0000
# 2 13.1255 244.9792 71.7187 0.0000 0.6854 0.0000
# 3 31.2523 71.7187 133.9909 0.0000 11.5044 0.0000
# 4 0.0000 0.0000 0.0000 69.0592 0.0000 5.4241
# 5 4.9915 0.6854 11.5044 0.0000 40.7675 0.0000
# 6 0.0000 0.0000 0.0000 5.4241 0.0000 30.0736
#
#
#
# Elastic Compliance Matrix: (Units=1/GPa)
#
#
# Indices 1 2 3 4 5 6 
#
# 1 0.016897 0.000270 -0.004004 0.000000 -0.000943 0.000000
# 2 0.000270 0.004862 -0.002722 0.000000 0.000653 0.000000
# 3 -0.004004 -0.002722 0.010051 0.000000 -0.002300 0.000000
# 4 0.000000 0.000000 0.000000 0.014688 0.000000 -0.002649
# 5 -0.000943 0.000653 -0.002300 0.000000 0.025283 0.000000
# 6 0.000000 0.000000 0.000000 -0.002649 0.000000 0.033730
#
#
# Mechanical properties :
#
#
# Convention : Reuss Voigt Hill
#
# Bulk Modulus (GPa) = 52.91535 75.31344 64.11439
# Shear Modulus (GPa) = 40.08851 49.94884 45.01867
#
# Velocity S-wave (km/s) = 3.86055 4.30925 4.09106
# Velocity P-wave (km/s) = 6.28843 7.26354 6.79350
#
# Compressibility (1/GPa) = 0.01889811
#
# Stress axis : x y z
#
# Youngs Moduli (GPa) = 59.18220 205.65675 99.48807
#
# Poissons Ratio (x) = -0.05545 0.39839
# Poissons Ratio (y) = -0.01596 0.27077
# Poissons Ratio (z) = 0.23699 0.55972
#
# Static dielectric constant tensor:
#      x y z
#    x 2.194400 0.000000 -0.087380 
#    y 0.000000 2.167380 0.000000 
#    z -0.087380 0.000000 2.069770 
# 
# From -- ./inp_files/28875.got.cif
#   From: 2010.05.17/outbox.cif.g08.bks.cpg/sg5_15_cif.got.tgz:28875.got - 2010.06.03 18:56:24.
