data_PCOD9122081
_publ_section_title
;
Structure prediction by ZEFSAII (Michael W. Deem and Ramdas Pophale) SiO2 
 PCOD9122081
Probable space group: C 2
;
_chemical_formula_sum "Si O2"
_cell_formula_units_Z 24
_cell_length_a 13.068769
_cell_length_b 13.869641
_cell_length_c 6.517647
_cell_angle_alpha 90.000000
_cell_angle_beta 101.482610
_cell_angle_gamma 90.000000
_cell_volume 1157.737872
_symmetry_space_group_name_H-M "C 2"
_symmetry_group_IT_number 5
_symmetry_cell_setting 'monoclinic'
loop_
_space_group_symop_operation_xyz
x,y,z
-x,y,-z
1/2+x,1/2+y,z
1/2-x,1/2+y,-z
loop_
_atom_site_type_symbol
_atom_site_label
_atom_site_fract_x
_atom_site_fract_y
_atom_site_fract_z
Si Si1 0.336113 0.751970 0.892747
Si Si2 0.335876 0.994101 0.230228
Si Si3 0.757691 0.637208 0.512937
Si Si4 0.000000 0.928749 0.000000
Si Si5 0.650919 0.568851 0.853349
Si Si6 0.197748 0.813661 0.184487
Si Si7 0.000000 0.415782 0.000000
O O1 0.312173 0.693875 0.679364
O O2 0.409441 0.843309 0.887110
O O3 0.380629 0.675119 0.076467
O O4 0.230226 0.786382 0.964079
O O5 0.287549 0.891058 0.281953
O O6 0.335131 0.069255 0.415990
O O7 0.444104 0.977021 0.155469
O O8 0.250246 0.034824 0.031569
O O9 0.686688 0.573368 0.634438
O O10 0.805060 0.718739 0.678989
O O11 0.912222 0.865448 0.858279
O O12 0.058311 0.996570 0.861656
#
# Coordination Sequence:
#
# PCOD9122081 Si02
#       7
#     4   4   4   2   4   4   2
#     4   9  19  38  60  85 119 154 194 243 291 345
#     4   9  20  38  60  87 120 156 194 241 292 344
#     4  10  20  40  64  86 118 156 194 242 294 344
#     4  10  19  38  63  86 118 156 194 242 294 344
#     4   9  19  38  60  85 119 154 194 243 291 345
#     4   9  20  38  60  87 120 156 194 241 292 344
#     4  10  19  38  63  86 118 156 194 242 294 344
#
# _framework density 20.730081999999999
#
# number of rings (size 3 to 8) (size 9 to 14) (size 15 to 20)
#    0.000    2.667    0.000    0.500    0.000    4.000 
#    0.000   50.833    0.000    4.000    0.000    0.000 
#    0.000    0.000    0.000    0.000    0.000    0.000 
#
# Total GULP energy -66998.855534 kJ/mol
# GULP energy per Si atom -5583.237961 kJ/mol
# Density = 2.068290 g / cm^3
# Si number density = 20.730082 Si / 1000 Ang^3
#
#
#
# Elastic Constant Matrix: (Units=GPa)
#
#
# Indices 1 2 3 4 5 6 
#
# 1 121.9406 61.9666 60.1874 0.0000 -41.9121 0.0000
# 2 61.9666 102.5899 54.4188 0.0000 -37.5077 0.0000
# 3 60.1874 54.4188 98.4182 0.0000 -39.1453 0.0000
# 4 0.0000 0.0000 0.0000 37.5149 0.0000 -12.8676
# 5 -41.9121 -37.5077 -39.1453 0.0000 24.5924 0.0000
# 6 0.0000 0.0000 0.0000 -12.8676 0.0000 33.4659
#
#
#
# Elastic Compliance Matrix: (Units=1/GPa)
#
#
# Indices 1 2 3 4 5 6 
#
# 1 0.020349 0.001328 0.003873 0.000000 0.042871 0.000000
# 2 0.001328 0.022503 0.003533 0.000000 0.042208 0.000000
# 3 0.003873 0.003533 0.028912 0.000000 0.058009 0.000000
# 4 0.000000 0.000000 0.000000 0.030706 0.000000 0.011806
# 5 0.042871 0.042208 0.058009 0.000000 0.270438 0.000000
# 6 0.000000 0.000000 0.000000 0.011806 0.000000 0.034421
#
#
# Mechanical properties :
#
#
# Convention : Reuss Voigt Hill
#
# Bulk Modulus (GPa) = 11.20675 75.12159 43.16417
# Shear Modulus (GPa) = 11.91600 28.87303 20.39451
#
# Velocity S-wave (km/s) = 2.40013 3.73608 3.13998
# Velocity P-wave (km/s) = 3.61920 7.41132 5.83208
#
# Compressibility (1/GPa) = 0.08923193
#
# Stress axis : x y z
#
# Youngs Moduli (GPa) = 49.14132 44.43910 34.58825
#
# Poissons Ratio (x) = -0.05902 -0.13395
# Poissons Ratio (y) = -0.06527 -0.12221
# Poissons Ratio (z) = -0.19030 -0.15702
#
# Static dielectric constant tensor:
#      x y z
#    x 1.730300 0.000000 -0.001980 
#    y 0.000000 1.788030 0.000000 
#    z -0.001980 0.000000 1.735780 
# 
# From -- ./inp_files/5185.got.cif
#   From: 2010.05.17/outbox.cif.g08.bks.cpg/sg5_3_cif.got.tgz:5185.got - 2010.06.03 18:56:24.
