data_PCOD9122958
_publ_section_title
;
Structure prediction by ZEFSAII (Michael W. Deem and Ramdas Pophale) SiO2 
 PCOD9122958
Probable space group: C 2
;
_chemical_formula_sum "Si O2"
_cell_formula_units_Z 32
_cell_length_a 11.529237
_cell_length_b 14.339783
_cell_length_c 15.310728
_cell_angle_alpha 90.000000
_cell_angle_beta 37.411488
_cell_angle_gamma 90.000000
_cell_volume 1537.837224
_symmetry_space_group_name_H-M "C 2"
_symmetry_group_IT_number 5
_symmetry_cell_setting 'monoclinic'
loop_
_space_group_symop_operation_xyz
x,y,z
-x,y,-z
1/2+x,1/2+y,z
1/2-x,1/2+y,-z
loop_
_atom_site_type_symbol
_atom_site_label
_atom_site_fract_x
_atom_site_fract_y
_atom_site_fract_z
Si Si1 0.989608 0.419580 0.293964
Si Si2 0.291492 0.163821 0.167272
Si Si3 0.212722 0.801235 0.344098
Si Si4 0.321553 0.004646 0.546251
Si Si5 0.008422 0.142169 0.803197
Si Si6 0.218773 0.450449 0.841635
Si Si7 0.787135 0.848621 0.260044
Si Si8 0.842832 0.963990 0.963063
O O1 0.123929 0.378608 0.289571
O O2 0.828453 0.352126 0.352749
O O3 0.881774 0.501343 0.409929
O O4 0.140169 0.447341 0.129447
O O5 0.285959 0.237276 0.249939
O O6 0.141482 0.183154 0.177692
O O7 0.265635 0.055089 0.206315
O O8 0.500000 0.172011 0.000000
O O9 0.356280 0.717972 0.233411
O O10 0.203374 0.875208 0.271620
O O11 0.000000 0.773035 0.500000
O O12 0.500000 0.033127 0.500000
O O13 0.261451 0.902142 0.620566
O O14 0.152645 0.075775 0.663991
O O15 0.904918 0.072214 0.932574
O O16 0.323205 0.447870 0.871559
O O17 0.000000 0.433027 0.000000
O O18 0.988009 0.894620 0.109335
#
# Coordination Sequence:
#
# PCOD9122958 Si02
#       8
#     4   4   4   4   4   4   4   4
#     4  11  21  40  67  99 124 171 215 270 327 383
#     4  10  20  36  66  94 129 161 219 277 330 373
#     4  12  26  41  67  93 141 179 215 259 335 400
#     4   9  21  40  67  92 130 167 215 265 322 387
#     4  10  22  43  65  94 129 174 213 271 323 388
#     4  10  22  43  63  95 131 176 214 271 324 393
#     4  10  20  38  68  96 124 163 215 275 324 375
#     4  10  21  40  75  94 128 168 219 271 329 379
#
# _framework density 20.808443
#
# number of rings (size 3 to 8) (size 9 to 14) (size 15 to 20)
#    0.000    1.750    2.500    1.500    5.250    0.000 
#    0.000    8.125    8.250    0.000    0.000    0.000 
#    0.000    0.000    0.000    0.000    0.000    0.000 
#
# Total GULP energy -89276.961876 kJ/mol
# GULP energy per Si atom -5579.810117 kJ/mol
# Density = 2.076108 g / cm^3
# Si number density = 20.808443 Si / 1000 Ang^3
#
#
#
# Elastic Constant Matrix: (Units=GPa)
#
#
# Indices 1 2 3 4 5 6 
#
# 1 76.6126 25.4772 39.4476 -0.0001 -15.4206 -0.0001
# 2 25.4772 89.0697 30.7389 -0.0003 2.0260 0.0001
# 3 39.4476 30.7389 49.4290 -0.0011 -17.3180 0.0004
# 4 -0.0001 -0.0003 -0.0011 14.7921 0.0006 -9.1198
# 5 -15.4206 2.0260 -17.3180 0.0006 35.0751 -0.0001
# 6 -0.0001 0.0001 0.0004 -9.1198 -0.0001 24.8812
#
#
#
# Elastic Compliance Matrix: (Units=1/GPa)
#
#
# Indices 1 2 3 4 5 6 
#
# 1 0.022222 -0.000571 -0.016862 -0.000001 0.001477 0.000000
# 2 -0.000571 0.015564 -0.011640 0.000000 -0.006897 0.000000
# 3 -0.016862 -0.011640 0.046632 0.000003 0.016283 0.000000
# 4 -0.000001 0.000000 0.000003 0.087341 -0.000001 0.032014
# 5 0.001477 -0.006897 0.016283 -0.000001 0.037598 0.000000
# 6 0.000000 0.000000 0.000000 0.032014 0.000000 0.051925
#
#
# Mechanical properties :
#
#
# Convention : Reuss Voigt Hill
#
# Bulk Modulus (GPa) = 38.06304 45.15984 41.61144
# Shear Modulus (GPa) = 15.23521 22.91284 19.07403
#
# Velocity S-wave (km/s) = 2.70879 3.32193 3.03090
# Velocity P-wave (km/s) = 5.30238 6.03849 5.68237
#
# Compressibility (1/GPa) = 0.02627220
#
# Stress axis : x y z
#
# Youngs Moduli (GPa) = 45.00021 64.24889 21.44440
#
# Poissons Ratio (x) = 0.03666 0.36160
# Poissons Ratio (y) = 0.02568 0.24962
# Poissons Ratio (z) = 0.75881 0.74788
#
# Static dielectric constant tensor:
#      x y z
#    x 1.765820 0.000000 -0.024340 
#    y 0.000000 1.799980 0.000000 
#    z -0.024340 0.000000 1.754670 
# 
# From -- ./inp_files/53191.got.cif
#   From: 2010.05.17/outbox.cif.g08.bks.cpg/sg5_27_cif.got.tgz:53191.got - 2010.06.03 18:56:24.
