data_PCOD9122939
_publ_section_title
;
Structure prediction by ZEFSAII (Michael W. Deem and Ramdas Pophale) SiO2 
 PCOD9122939
Probable space group: C 2
;
_chemical_formula_sum "Si O2"
_cell_formula_units_Z 24
_cell_length_a 8.571241
_cell_length_b 13.989498
_cell_length_c 8.843115
_cell_angle_alpha 90.000000
_cell_angle_beta 94.864780
_cell_angle_gamma 90.000000
_cell_volume 1056.534757
_symmetry_space_group_name_H-M "C 2"
_symmetry_group_IT_number 5
_symmetry_cell_setting 'monoclinic'
loop_
_space_group_symop_operation_xyz
x,y,z
-x,y,-z
1/2+x,1/2+y,z
1/2-x,1/2+y,-z
loop_
_atom_site_type_symbol
_atom_site_label
_atom_site_fract_x
_atom_site_fract_y
_atom_site_fract_z
Si Si1 0.647756 0.725120 0.424772
Si Si2 0.660212 0.053833 0.451458
Si Si3 0.630098 0.269123 0.117690
Si Si4 0.521459 0.060143 0.840326
Si Si5 0.154294 0.155663 0.092406
Si Si6 0.842327 0.881501 0.566827
O O1 0.500000 0.766556 0.500000
O O2 0.705858 0.632931 0.525795
O O3 0.610163 0.700733 0.249793
O O4 0.786961 0.799973 0.446281
O O5 0.500000 0.100522 0.500000
O O6 0.594543 0.012803 0.289102
O O7 0.717948 0.966464 0.556008
O O8 0.551682 0.168179 0.162785
O O9 0.655279 0.332623 0.268072
O O10 0.500000 0.317212 0.000000
O O11 0.771659 0.232474 0.021081
O O12 0.706812 0.081855 0.849954
O O13 0.500000 0.012153 0.000000
O O14 0.000000 0.113904 0.000000
O O15 0.000000 0.919811 0.500000
#
# Coordination Sequence:
#
# PCOD9122939 Si02
#       6
#     4   4   4   4   4   4
#     4  12  24  41  70 101 138 183 229 286 340 411
#     4  12  24  43  65 102 140 180 233 278 347 405
#     4   9  19  39  68  94 130 179 227 274 347 402
#     4   9  19  39  66  92 129 178 219 278 337 399
#     4  10  20  36  65 101 128 176 230 275 341 407
#     4  12  24  43  67 102 140 182 230 287 343 409
#
# _framework density 22.715771
#
# number of rings (size 3 to 8) (size 9 to 14) (size 15 to 20)
#    0.000    1.667    3.333    4.500    2.333    0.000 
#    0.000    5.000    0.000    0.000    0.000    0.000 
#    0.000    0.000    0.000    0.000    0.000    0.000 
#
# Total GULP energy -66910.708748 kJ/mol
# GULP energy per Si atom -5575.892396 kJ/mol
# Density = 2.266407 g / cm^3
# Si number density = 22.715771 Si / 1000 Ang^3
#
#
#
# Elastic Constant Matrix: (Units=GPa)
#
#
# Indices 1 2 3 4 5 6 
#
# 1 91.5652 16.3944 46.0460 0.0000 8.0309 0.0000
# 2 16.3944 35.2235 5.3399 0.0000 15.1954 0.0000
# 3 46.0460 5.3399 138.6707 0.0000 19.1087 0.0000
# 4 0.0000 0.0000 0.0000 27.6511 0.0000 7.5894
# 5 8.0309 15.1954 19.1087 0.0000 40.3224 0.0000
# 6 0.0000 0.0000 0.0000 7.5894 0.0000 13.6981
#
#
#
# Elastic Compliance Matrix: (Units=1/GPa)
#
#
# Indices 1 2 3 4 5 6 
#
# 1 0.014373 -0.006816 -0.004782 0.000000 0.001972 0.000000
# 2 -0.006816 0.037164 0.002755 0.000000 -0.013953 0.000000
# 3 -0.004782 0.002755 0.009313 0.000000 -0.004499 0.000000
# 4 0.000000 0.000000 0.000000 0.042651 0.000000 -0.023630
# 5 0.001972 -0.013953 -0.004499 0.000000 0.031798 0.000000
# 6 0.000000 0.000000 0.000000 -0.023630 0.000000 0.086095
#
#
# Mechanical properties :
#
#
# Convention : Reuss Voigt Hill
#
# Bulk Modulus (GPa) = 23.16690 44.55776 33.86233
# Shear Modulus (GPa) = 19.72634 29.51292 24.61963
#
# Velocity S-wave (km/s) = 2.95006 3.60839 3.29570
# Velocity P-wave (km/s) = 4.67167 6.08429 5.42416
#
# Compressibility (1/GPa) = 0.04316503
#
# Stress axis : x y z
#
# Youngs Moduli (GPa) = 69.57355 26.90756 107.37567
#
# Poissons Ratio (x) = 0.18339 0.51347
# Poissons Ratio (y) = 0.47419 -0.29580
# Poissons Ratio (z) = 0.33270 -0.07413
#
# Static dielectric constant tensor:
#      x y z
#    x 1.828490 0.000000 -0.020810 
#    y 0.000000 1.797800 0.000000 
#    z -0.020810 0.000000 1.974550 
# 
# From -- ./inp_files/15093.got.cif
#   From: 2010.05.17/outbox.cif.g08.bks.cpg/sg5_8_cif.got.tgz:15093.got - 2010.06.03 18:56:24.
