data_PCOD9122195
_publ_section_title
;
Structure prediction by ZEFSAII (Michael W. Deem and Ramdas Pophale) SiO2 
 PCOD9122195
Probable space group: C 2
;
_chemical_formula_sum "Si O2"
_cell_formula_units_Z 30
_cell_length_a 24.933273
_cell_length_b 8.672224
_cell_length_c 12.996434
_cell_angle_alpha 90.000000
_cell_angle_beta 31.082218
_cell_angle_gamma 90.000000
_cell_volume 1450.804252
_symmetry_space_group_name_H-M "C 2"
_symmetry_group_IT_number 5
_symmetry_cell_setting 'monoclinic'
loop_
_space_group_symop_operation_xyz
x,y,z
-x,y,-z
1/2+x,1/2+y,z
1/2-x,1/2+y,-z
loop_
_atom_site_type_symbol
_atom_site_label
_atom_site_fract_x
_atom_site_fract_y
_atom_site_fract_z
Si Si1 0.669922 0.653140 0.480391
Si Si2 0.717608 0.042205 0.200096
Si Si3 0.615775 0.699868 0.796312
Si Si4 0.367868 0.302168 0.038930
Si Si5 0.000000 0.895937 0.000000
Si Si6 0.970269 0.312027 0.442349
Si Si7 0.730687 0.345274 0.292502
Si Si8 0.157689 0.534855 0.071026
O O1 0.662179 0.719496 0.607400
O O2 0.774032 0.724756 0.259043
O O3 0.568115 0.705824 0.585896
O O4 0.673012 0.469011 0.459175
O O5 0.682362 0.195522 0.317875
O O6 0.720433 0.069693 0.072847
O O7 0.823639 0.966254 0.070140
O O8 0.629062 0.916063 0.365950
O O9 0.596443 0.515115 0.832915
O O10 0.683048 0.771403 0.775211
O O11 0.500000 0.766587 0.000000
O O12 0.468251 0.307704 0.948494
O O13 0.381449 0.190935 0.918675
O O14 0.000000 0.228364 0.500000
O O15 0.062730 0.423081 0.255835
O O16 0.775058 0.444771 0.124388
#
# Coordination Sequence:
#
# PCOD9122195 Si02
#       8
#     4   4   4   4   2   4   4   4
#     4  10  23  39  59  89 119 162 207 246 309 362
#     4  10  19  39  64  85 122 159 199 257 305 367
#     4  10  22  38  59  83 119 155 202 251 301 358
#     4  10  21  40  60  89 123 160 205 249 307 371
#     4  10  22  40  54  84 124 158 198 248 310 354
#     4   9  20  39  60  85 125 157 198 252 305 360
#     4  11  22  38  60  91 115 158 207 246 308 367
#     4  10  21  38  60  94 119 157 203 253 312 367
#
# _framework density 20.678184999999999
#
# number of rings (size 3 to 8) (size 9 to 14) (size 15 to 20)
#    0.400    1.600    1.333    1.600    1.867    2.133 
#    9.600    3.333    0.000    0.000    0.000    0.000 
#    0.000    0.000    0.000    0.000    0.000    0.000 
#
# Total GULP energy -83614.572220 kJ/mol
# GULP energy per Si atom -5574.304815 kJ/mol
# Density = 2.063112 g / cm^3
# Si number density = 20.678185 Si / 1000 Ang^3
#
#
#
# Elastic Constant Matrix: (Units=GPa)
#
#
# Indices 1 2 3 4 5 6 
#
# 1 118.4409 28.6603 11.8726 0.0000 9.1182 0.0000
# 2 28.6603 67.1014 -6.9026 0.0000 -2.3180 0.0000
# 3 11.8726 -6.9026 45.6864 0.0000 15.7646 0.0000
# 4 0.0000 0.0000 0.0000 20.7850 0.0000 5.6896
# 5 9.1182 -2.3180 15.7646 0.0000 21.0955 0.0000
# 6 0.0000 0.0000 0.0000 5.6896 0.0000 36.9702
#
#
#
# Elastic Compliance Matrix: (Units=1/GPa)
#
#
# Indices 1 2 3 4 5 6 
#
# 1 0.010028 -0.004620 -0.002201 0.000000 -0.003197 0.000000
# 2 -0.004620 0.017267 0.003322 0.000000 0.001411 0.000000
# 3 -0.002201 0.003322 0.030329 0.000000 -0.021348 0.000000
# 4 0.000000 0.000000 0.000000 0.050228 0.000000 -0.007730
# 5 -0.003197 0.001411 -0.021348 0.000000 0.064894 0.000000
# 6 0.000000 0.000000 0.000000 -0.007730 0.000000 0.028238
#
#
# Mechanical properties :
#
#
# Convention : Reuss Voigt Hill
#
# Bulk Modulus (GPa) = 19.75245 33.16546 26.45895
# Shear Modulus (GPa) = 22.23654 28.94337 25.58995
#
# Velocity S-wave (km/s) = 3.28283 3.74532 3.52168
# Velocity P-wave (km/s) = 4.89309 5.89720 5.41845
#
# Compressibility (1/GPa) = 0.05062664
#
# Stress axis : x y z
#
# Youngs Moduli (GPa) = 99.72395 57.91542 32.97210
#
# Poissons Ratio (x) = 0.26756 0.07256
# Poissons Ratio (y) = 0.46071 -0.10954
# Poissons Ratio (z) = 0.21945 -0.19241
#
# Static dielectric constant tensor:
#      x y z
#    x 1.703950 0.000000 -0.028990 
#    y 0.000000 1.763490 0.000000 
#    z -0.028990 0.000000 1.703920 
# 
# From -- ./inp_files/41991.got.cif
#   From: 2010.05.17/outbox.cif.g08.bks.cpg/sg5_21_cif.got.tgz:41991.got - 2010.06.03 18:56:24.
