data_PCOD9122747
_publ_section_title
;
Structure prediction by ZEFSAII (Michael W. Deem and Ramdas Pophale) SiO2 
 PCOD9122747
Probable space group: C 2
;
_chemical_formula_sum "Si O2"
_cell_formula_units_Z 26
_cell_length_a 15.612680
_cell_length_b 11.120082
_cell_length_c 25.015748
_cell_angle_alpha 90.000000
_cell_angle_beta 20.375501
_cell_angle_gamma 90.000000
_cell_volume 1512.139443
_symmetry_space_group_name_H-M "C 2"
_symmetry_group_IT_number 5
_symmetry_cell_setting 'monoclinic'
loop_
_space_group_symop_operation_xyz
x,y,z
-x,y,-z
1/2+x,1/2+y,z
1/2-x,1/2+y,-z
loop_
_atom_site_type_symbol
_atom_site_label
_atom_site_fract_x
_atom_site_fract_y
_atom_site_fract_z
Si Si1 0.899410 0.383290 0.272740
Si Si2 0.853821 0.055398 0.492662
Si Si3 0.274603 0.275802 0.363657
Si Si4 0.500000 0.190196 0.500000
Si Si5 0.674436 0.531495 0.614101
Si Si6 0.222246 0.696046 0.910109
Si Si7 0.573961 0.103700 0.816210
O O1 0.737269 0.455215 0.411713
O O2 0.723345 0.278396 0.352563
O O3 0.986780 0.480658 0.178852
O O4 0.130845 0.317471 0.163179
O O5 0.733065 0.179648 0.583600
O O6 0.782853 0.020124 0.474219
O O7 0.146151 0.079831 0.327228
O O8 0.352254 0.404117 0.340674
O O9 0.422645 0.211904 0.229121
O O10 0.000000 0.287632 0.500000
O O11 0.390012 0.106947 0.517459
O O12 0.424323 0.606393 0.767623
O O13 0.000000 0.717283 0.000000
O O14 0.106948 0.638014 0.030666
#
# Coordination Sequence:
#
# PCOD9122747 Si02
#       7
#     4   4   4   2   4   4   4
#     4  10  21  39  63  83 115 155 204 238 292 356
#     4  10  20  37  64  84 113 156 194 247 290 348
#     4   9  20  36  57  85 112 150 192 242 293 346
#     4  10  20  36  54  90 112 146 198 250 284 328
#     4  11  22  35  58  88 119 146 200 247 297 337
#     4  11  24  38  55  87 118 159 192 243 304 351
#     4  10  20  40  59  82 118 159 196 232 303 357
#
# _framework density 17.194182000000001
#
# number of rings (size 3 to 8) (size 9 to 14) (size 15 to 20)
#    0.000    1.846    3.846    0.923    6.462    0.000 
#    0.000    0.000    0.000    3.692    0.000    0.000 
#    0.000    0.000    0.000    0.000    0.000    0.000 
#
# Total GULP energy -72504.975129 kJ/mol
# GULP energy per Si atom -5577.305779 kJ/mol
# Density = 1.715505 g / cm^3
# Si number density = 17.194182 Si / 1000 Ang^3
#
#
#
# Elastic Constant Matrix: (Units=GPa)
#
#
# Indices 1 2 3 4 5 6 
#
# 1 90.8495 44.6497 24.1926 0.1242 -4.4491 -0.0613
# 2 44.6497 103.8182 15.4622 0.0699 -8.9928 -0.0220
# 3 24.1926 15.4622 52.3764 0.1300 -1.0901 -0.0881
# 4 0.1242 0.0699 0.1300 13.6927 -0.0720 -8.7926
# 5 -4.4491 -8.9928 -1.0901 -0.0720 30.7062 0.0737
# 6 -0.0613 -0.0220 -0.0881 -8.7926 0.0737 16.4279
#
#
#
# Elastic Compliance Matrix: (Units=1/GPa)
#
#
# Indices 1 2 3 4 5 6 
#
# 1 0.015271 -0.005741 -0.005351 -0.000068 0.000341 -0.000017
# 2 -0.005741 0.012488 -0.000977 -0.000003 0.002791 -0.000024
# 3 -0.005351 -0.000977 0.021847 -0.000142 -0.000286 0.000021
# 4 -0.000068 -0.000003 -0.000142 0.111279 0.000102 0.059558
# 5 0.000341 0.002791 -0.000286 0.000102 0.033424 -0.000092
# 6 -0.000017 -0.000024 0.000021 0.059558 -0.000092 0.092749
#
#
# Mechanical properties :
#
#
# Convention : Reuss Voigt Hill
#
# Bulk Modulus (GPa) = 39.26547 46.18367 42.72457
# Shear Modulus (GPa) = 15.64033 23.01466 19.32749
#
# Velocity S-wave (km/s) = 3.01928 3.66254 3.35636
# Velocity P-wave (km/s) = 5.91953 6.69358 6.31842
#
# Compressibility (1/GPa) = 0.02546767
#
# Stress axis : x y z
#
# Youngs Moduli (GPa) = 65.48574 80.07373 45.77236
#
# Poissons Ratio (x) = 0.45969 0.24495
# Poissons Ratio (y) = 0.37594 0.04472
# Poissons Ratio (z) = 0.35044 0.07823
#
# Static dielectric constant tensor:
#      x y z
#    x 1.579390 0.000000 -0.006120 
#    y 0.000000 1.579560 0.000010 
#    z -0.006120 0.000010 1.564310 
# 
# From -- ./inp_files/42278.got.cif
#   From: 2010.05.17/outbox.cif.g08.bks.cpg/sg5_22_cif.got.tgz:42278.got - 2010.06.03 18:56:24.
