data_PCOD9122868
_publ_section_title
;
Structure prediction by ZEFSAII (Michael W. Deem and Ramdas Pophale) SiO2 
 PCOD9122868
Probable space group: C 2
;
_chemical_formula_sum "Si O2"
_cell_formula_units_Z 30
_cell_length_a 15.475299
_cell_length_b 7.730060
_cell_length_c 14.604780
_cell_angle_alpha 90.000000
_cell_angle_beta 55.046609
_cell_angle_gamma 90.000000
_cell_volume 1431.952509
_symmetry_space_group_name_H-M "C 2"
_symmetry_group_IT_number 5
_symmetry_cell_setting 'monoclinic'
loop_
_space_group_symop_operation_xyz
x,y,z
-x,y,-z
1/2+x,1/2+y,z
1/2-x,1/2+y,-z
loop_
_atom_site_type_symbol
_atom_site_label
_atom_site_fract_x
_atom_site_fract_y
_atom_site_fract_z
Si Si1 0.650758 0.798450 0.168917
Si Si2 0.499151 0.889568 0.603926
Si Si3 0.622124 0.181936 0.642282
Si Si4 0.491387 0.297743 0.115483
Si Si5 0.065598 0.182248 0.799124
Si Si6 0.671974 0.088048 0.019934
Si Si7 0.000000 0.396319 0.000000
Si Si8 0.847945 0.083892 0.432253
O O1 0.618443 0.842601 0.291005
O O2 0.538646 0.750185 0.190657
O O3 0.730771 0.645499 0.099966
O O4 0.696187 0.967239 0.090586
O O5 0.500000 0.949856 0.500000
O O6 0.568284 0.712703 0.570143
O O7 0.544619 0.044857 0.639530
O O8 0.589225 0.190662 0.770050
O O9 0.738088 0.107200 0.551065
O O10 0.620092 0.381162 0.603393
O O11 0.459375 0.492319 0.151042
O O12 0.500000 0.276619 0.000000
O O13 0.605924 0.257186 0.088854
O O14 0.156481 0.165716 0.668207
O O15 0.074393 0.293062 0.884731
O O16 0.583370 0.991810 0.013997
#
# Coordination Sequence:
#
# PCOD9122868 Si02
#       8
#     4   4   4   4   4   4   2   4
#     4  10  22  41  62  86 129 172 205 253 326 386
#     4  11  24  45  66  95 131 171 220 269 317 383
#     4  11  22  43  68  95 132 168 217 269 326 378
#     4  11  21  36  65  93 124 163 214 262 318 378
#     4   9  20  39  61  92 128 163 208 260 316 377
#     4  11  21  38  61  90 122 169 203 256 323 369
#     4  10  20  36  60  96 128 158 208 272 300 376
#     4  10  22  40  71  93 127 175 211 264 324 381
#
# _framework density 20.950415
#
# number of rings (size 3 to 8) (size 9 to 14) (size 15 to 20)
#    0.000    1.600    4.000    0.800    0.000    1.600 
#    2.400    0.000    0.000    0.000    0.000    0.000 
#    0.000    0.000    0.000    0.000    0.000    0.000 
#
# Total GULP energy -83568.507236 kJ/mol
# GULP energy per Si atom -5571.233816 kJ/mol
# Density = 2.090273 g / cm^3
# Si number density = 20.950415 Si / 1000 Ang^3
#
#
#
# Elastic Constant Matrix: (Units=GPa)
#
#
# Indices 1 2 3 4 5 6 
#
# 1 10.3749 18.2862 30.8129 0.0000 -1.9292 0.0000
# 2 18.2862 86.6257 45.9713 0.0000 1.9808 0.0001
# 3 30.8129 45.9713 183.9086 0.0000 -5.2865 0.0000
# 4 0.0000 0.0000 0.0000 281.7077 0.0000 -123.6583
# 5 -1.9292 1.9808 -5.2865 0.0000 31.7874 0.0000
# 6 0.0000 0.0001 0.0000 -123.6583 0.0000 58.9976
#
#
#
# Elastic Compliance Matrix: (Units=1/GPa)
#
#
# Indices 1 2 3 4 5 6 
#
# 1 0.274037 -0.039180 -0.035742 0.000000 0.013129 0.000000
# 2 -0.039180 0.018972 0.001728 0.000000 -0.003273 0.000000
# 3 -0.035742 0.001728 0.010981 0.000000 -0.000451 0.000000
# 4 0.000000 0.000000 0.000000 0.044402 0.000000 0.093067
# 5 0.013129 -0.003273 -0.000451 0.000000 0.032385 0.000000
# 6 0.000000 0.000000 0.000000 0.093067 0.000000 0.212016
#
#
# Mechanical properties :
#
#
# Convention : Reuss Voigt Hill
#
# Bulk Modulus (GPa) = 6.34510 52.33886 29.34198
# Shear Modulus (GPa) = 6.31539 86.88780 46.60160
#
# Velocity S-wave (km/s) = 1.73810 6.44695 4.72145
# Velocity P-wave (km/s) = 2.65767 8.96961 6.61503
#
# Compressibility (1/GPa) = 0.15760203
#
# Stress axis : x y z
#
# Youngs Moduli (GPa) = 3.64914 52.70802 91.06564
#
# Poissons Ratio (x) = 2.06508 3.25490
# Poissons Ratio (y) = 0.14297 -0.15734
# Poissons Ratio (z) = 0.13043 -0.09107
#
# Static dielectric constant tensor:
#      x y z
#    x 1.394950 0.000000 0.331490 
#    y 0.000000 1.842750 0.000000 
#    z 0.331490 0.000000 1.497010 
# 
# From -- ./inp_files/55648.got.cif
#   From: 2010.05.17/outbox.cif.g08.bks.cpg/sg5_28_cif.got.tgz:55648.got - 2010.06.03 18:56:24.
