data_PCOD9122695
_publ_section_title
;
Structure prediction by ZEFSAII (Michael W. Deem and Ramdas Pophale) SiO2 
 PCOD9122695
Probable space group: C 2
;
_chemical_formula_sum "Si O2"
_cell_formula_units_Z 28
_cell_length_a 14.103960
_cell_length_b 20.745717
_cell_length_c 9.013180
_cell_angle_alpha 90.000000
_cell_angle_beta 26.638036
_cell_angle_gamma 90.000000
_cell_volume 1182.407650
_symmetry_space_group_name_H-M "C 2"
_symmetry_group_IT_number 5
_symmetry_cell_setting 'monoclinic'
loop_
_space_group_symop_operation_xyz
x,y,z
-x,y,-z
1/2+x,1/2+y,z
1/2-x,1/2+y,-z
loop_
_atom_site_type_symbol
_atom_site_label
_atom_site_fract_x
_atom_site_fract_y
_atom_site_fract_z
Si Si1 0.177671 0.832900 0.133441
Si Si2 0.665830 0.924519 0.631441
Si Si3 0.993223 0.035739 0.177828
Si Si4 0.744307 0.731052 0.216113
Si Si5 0.901870 0.283325 0.288686
Si Si6 0.769014 0.092415 0.750726
Si Si7 0.669630 0.976407 0.090944
O O1 0.000000 0.815298 0.500000
O O2 0.160737 0.791132 0.006752
O O3 0.396541 0.809301 0.900973
O O4 0.191776 0.910757 0.105387
O O5 0.721878 0.849625 0.568828
O O6 0.559503 0.943636 0.620556
O O7 0.867534 0.968703 0.363107
O O8 0.500000 0.933049 0.000000
O O9 0.836935 0.083314 0.486009
O O10 0.000000 0.056895 0.000000
O O11 0.223094 0.020664 0.930539
O O12 0.500000 0.727178 0.500000
O O13 0.730992 0.741615 0.410978
O O14 0.838797 0.659787 0.058624
O O15 0.000000 0.255265 0.000000
O O16 0.000000 0.092346 0.500000
O O17 0.669531 0.027877 0.955996
#
# Coordination Sequence:
#
# PCOD9122695 Si02
#       7
#     4   4   4   4   4   4   4
#     4  10  20  35  61  88 117 151 201 252 303 362
#     4  10  20  36  60  85 123 156 201 251 305 363
#     4  11  23  35  59  94 119 153 203 257 300 360
#     4   9  19  37  61  83 117 163 201 241 301 376
#     4   9  20  35  56  86 115 160 196 247 306 355
#     4   9  18  37  62  81 115 163 201 235 306 368
#     4  10  21  38  64  87 120 163 196 245 312 358
#
# _framework density 23.680496000000002
#
# number of rings (size 3 to 8) (size 9 to 14) (size 15 to 20)
#    0.000    2.286    1.429    1.286    6.000    1.143 
#    0.000    0.714   18.857    0.000    0.000    0.000 
#    0.000    0.000    0.000    0.000    0.000    0.000 
#
# Total GULP energy -78024.638453 kJ/mol
# GULP energy per Si atom -5573.188461 kJ/mol
# Density = 2.362660 g / cm^3
# Si number density = 23.680496 Si / 1000 Ang^3
#
#
#
# Elastic Constant Matrix: (Units=GPa)
#
#
# Indices 1 2 3 4 5 6 
#
# 1 86.4324 14.0908 11.8803 -0.0064 12.0417 -0.0005
# 2 14.0908 126.7326 37.4508 0.0139 22.7325 0.0002
# 3 11.8803 37.4508 49.2106 0.0482 22.6809 -0.0006
# 4 -0.0064 0.0139 0.0482 14.1521 -0.0114 2.2391
# 5 12.0417 22.7325 22.6809 -0.0114 51.7061 -0.0002
# 6 -0.0005 0.0002 -0.0006 2.2391 -0.0002 10.0616
#
#
#
# Elastic Compliance Matrix: (Units=1/GPa)
#
#
# Indices 1 2 3 4 5 6 
#
# 1 0.012145 -0.000520 -0.001677 0.000010 -0.001864 -0.000002
# 2 -0.000520 0.010278 -0.007106 0.000013 -0.001280 -0.000004
# 3 -0.001677 -0.007106 0.030726 -0.000111 -0.009963 0.000026
# 4 0.000010 0.000013 -0.000111 0.073240 0.000056 -0.016299
# 5 -0.001864 -0.001280 -0.009963 0.000056 0.024707 -0.000013
# 6 -0.000002 -0.000004 0.000026 -0.016299 -0.000013 0.103015
#
#
# Mechanical properties :
#
#
# Convention : Reuss Voigt Hill
#
# Bulk Modulus (GPa) = 28.95047 43.24659 36.09853
# Shear Modulus (GPa) = 17.59129 28.44754 23.01941
#
# Velocity S-wave (km/s) = 2.72850 3.46975 3.12121
# Velocity P-wave (km/s) = 4.70938 5.86126 5.31661
#
# Compressibility (1/GPa) = 0.03454175
#
# Stress axis : x y z
#
# Youngs Moduli (GPa) = 82.34003 97.29399 32.54605
#
# Poissons Ratio (x) = 0.05064 0.05457
# Poissons Ratio (y) = 0.04286 0.23128
# Poissons Ratio (z) = 0.13806 0.69139
#
# Static dielectric constant tensor:
#      x y z
#    x 2.025020 -0.000010 0.062730 
#    y -0.000010 1.917150 -0.000010 
#    z 0.062730 -0.000010 1.994210 
# 
# From -- ./inp_files/25386.got.cif
#   From: 2010.05.17/outbox.cif.g08.bks.cpg/sg5_13_cif.got.tgz:25386.got - 2010.06.03 18:56:24.
