data_PCOD9122615
_publ_section_title
;
Structure prediction by ZEFSAII (Michael W. Deem and Ramdas Pophale) SiO2 
 PCOD9122615
Probable space group: C 2
;
_chemical_formula_sum "Si O2"
_cell_formula_units_Z 22
_cell_length_a 23.344138
_cell_length_b 8.212186
_cell_length_c 8.561809
_cell_angle_alpha 90.000000
_cell_angle_beta 151.118411
_cell_angle_gamma 90.000000
_cell_volume 792.775505
_symmetry_space_group_name_H-M "C 2"
_symmetry_group_IT_number 5
_symmetry_cell_setting 'monoclinic'
loop_
_space_group_symop_operation_xyz
x,y,z
-x,y,-z
1/2+x,1/2+y,z
1/2-x,1/2+y,-z
loop_
_atom_site_type_symbol
_atom_site_label
_atom_site_fract_x
_atom_site_fract_y
_atom_site_fract_z
Si Si1 0.493795 0.637000 0.820305
Si Si2 0.718991 0.245734 0.133213
Si Si3 0.274233 0.856615 0.576499
Si Si4 0.000000 0.160810 0.500000
Si Si5 0.162458 0.458122 0.787020
Si Si6 0.124437 0.647711 0.378791
O O1 0.360969 0.710234 0.496566
O O2 0.515787 0.567109 0.700566
O O3 0.500000 0.543982 0.000000
O O4 0.596286 0.775156 0.085683
O O5 0.686457 0.289377 0.229797
O O6 0.715564 0.391137 0.998830
O O7 0.664256 0.086007 0.930315
O O8 0.200254 0.814994 0.555893
O O9 0.299631 0.028179 0.554809
O O10 0.896985 0.293737 0.289659
O O11 0.112038 0.559963 0.517238
O O12 0.000000 0.663114 0.000000
#
# Coordination Sequence:
#
# PCOD9122615 Si02
#       6
#     4   4   4   2   4   4
#     4   9  19  38  62  91 120 162 216 253 305 389
#     4   9  20  38  60  93 124 159 212 262 310 385
#     4  10  22  40  67  91 128 169 210 266 324 373
#     4  10  20  34  66  84 120 172 206 248 330 358
#     4  10  22  37  60  94 122 159 215 256 314 387
#     4  11  24  43  65  97 128 167 220 265 316 393
#
# _framework density 27.750603000000002
#
# number of rings (size 3 to 8) (size 9 to 14) (size 15 to 20)
#    0.000    2.182    0.000    4.909   10.182    0.000 
#    0.000    5.455    0.000    0.000    0.000    0.000 
#    0.000    0.000    0.000    0.000    0.000    0.000 
#
# Total GULP energy -61401.759498 kJ/mol
# GULP energy per Si atom -5581.978136 kJ/mol
# Density = 2.768744 g / cm^3
# Si number density = 27.750603 Si / 1000 Ang^3
#
#
#
# Elastic Constant Matrix: (Units=GPa)
#
#
# Indices 1 2 3 4 5 6 
#
# 1 140.1746 20.9083 40.2751 0.0000 -37.7235 0.0000
# 2 20.9083 62.1750 40.1548 0.0000 -11.0578 0.0000
# 3 40.2751 40.1548 96.3285 0.0000 -20.5325 0.0000
# 4 0.0000 0.0000 0.0000 45.3458 0.0000 0.8208
# 5 -37.7235 -11.0578 -20.5325 0.0000 42.6257 0.0000
# 6 0.0000 0.0000 0.0000 0.8208 0.0000 37.4808
#
#
#
# Elastic Compliance Matrix: (Units=1/GPa)
#
#
# Indices 1 2 3 4 5 6 
#
# 1 0.009898 -0.000484 -0.002336 0.000000 0.007509 0.000000
# 2 -0.000484 0.022112 -0.008786 0.000000 0.001075 0.000000
# 3 -0.002336 -0.008786 0.015706 0.000000 0.003219 0.000000
# 4 0.000000 0.000000 0.000000 0.022061 0.000000 -0.000483
# 5 0.007509 0.001075 0.003219 0.000000 0.031935 0.000000
# 6 0.000000 0.000000 0.000000 -0.000483 0.000000 0.026691
#
#
# Mechanical properties :
#
#
# Convention : Reuss Voigt Hill
#
# Bulk Modulus (GPa) = 40.80920 55.70607 48.25764
# Shear Modulus (GPa) = 31.29225 38.24646 34.76936
#
# Velocity S-wave (km/s) = 3.36165 3.71647 3.54350
# Velocity P-wave (km/s) = 5.45942 6.20754 5.84546
#
# Compressibility (1/GPa) = 0.02450428
#
# Stress axis : x y z
#
# Youngs Moduli (GPa) = 101.02854 45.22456 63.66877
#
# Poissons Ratio (x) = 0.02191 0.14873
# Poissons Ratio (y) = 0.04894 0.55937
# Poissons Ratio (z) = 0.23600 0.39733
#
# Static dielectric constant tensor:
#      x y z
#    x 2.416950 0.000000 0.004350 
#    y 0.000000 2.262250 0.000000 
#    z 0.004350 0.000000 2.174050 
# 
# From -- ./inp_files/31612.got.cif
#   From: 2010.05.17/outbox.cif.g08.bks.cpg/sg5_16_cif.got.tgz:31612.got - 2010.06.03 18:56:24.
