data_PCOD9122382
_publ_section_title
;
Structure prediction by ZEFSAII (Michael W. Deem and Ramdas Pophale) SiO2 
 PCOD9122382
Probable space group: C 2
;
_chemical_formula_sum "Si O2"
_cell_formula_units_Z 24
_cell_length_a 15.060229
_cell_length_b 9.665643
_cell_length_c 7.539595
_cell_angle_alpha 90.000000
_cell_angle_beta 113.147177
_cell_angle_gamma 90.000000
_cell_volume 1009.162718
_symmetry_space_group_name_H-M "C 2"
_symmetry_group_IT_number 5
_symmetry_cell_setting 'monoclinic'
loop_
_space_group_symop_operation_xyz
x,y,z
-x,y,-z
1/2+x,1/2+y,z
1/2-x,1/2+y,-z
loop_
_atom_site_type_symbol
_atom_site_label
_atom_site_fract_x
_atom_site_fract_y
_atom_site_fract_z
Si Si1 0.395975 0.445510 0.177267
Si Si2 0.369072 0.746338 0.067994
Si Si3 0.875402 0.977806 0.576418
Si Si4 0.067925 0.272978 0.383946
Si Si5 0.106595 0.488668 0.169067
Si Si6 0.704062 0.278922 0.193684
O O1 0.351195 0.582083 0.045380
O O2 0.366985 0.441731 0.361597
O O3 0.512346 0.454708 0.277194
O O4 0.360486 0.321409 0.028037
O O5 0.483978 0.753344 0.172189
O O6 0.312645 0.788154 0.203678
O O7 0.345272 0.862118 0.904528
O O8 0.860739 0.143738 0.580248
O O9 0.814780 0.882370 0.659349
O O10 0.101124 0.426484 0.363316
O O11 0.000000 0.253965 0.500000
O O12 0.169744 0.625467 0.213421
O O13 0.000000 0.518733 0.000000
#
# Coordination Sequence:
#
# PCOD9122382 Si02
#       6
#     4   4   4   4   4   4
#     4  10  20  41  65  86 122 168 211 245 292 374
#     4  10  21  41  61  87 123 160 207 245 303 367
#     4  10  20  40  68  91 113 167 219 244 291 368
#     4  10  19  43  64  85 113 165 217 245 283 375
#     4  10  22  38  61  88 121 163 198 245 311 363
#     4  12  23  39  59  99 131 153 193 266 320 352
#
# _framework density 23.78209
#
# number of rings (size 3 to 8) (size 9 to 14) (size 15 to 20)
#    0.000    1.667    3.333    3.500    0.000    2.667 
#   15.000    0.000    0.000    0.000    0.000    0.000 
#    0.000    0.000    0.000    0.000    0.000    0.000 
#
# Total GULP energy -67041.737288 kJ/mol
# GULP energy per Si atom -5586.811441 kJ/mol
# Density = 2.372796 g / cm^3
# Si number density = 23.782090 Si / 1000 Ang^3
#
#
#
# Elastic Constant Matrix: (Units=GPa)
#
#
# Indices 1 2 3 4 5 6 
#
# 1 102.5599 41.7076 30.9452 0.0000 1.0334 0.0000
# 2 41.7076 136.2474 43.9159 0.0000 -15.4331 0.0000
# 3 30.9452 43.9159 68.3526 0.0000 0.5307 0.0000
# 4 0.0000 0.0000 0.0000 30.7769 0.0000 -17.1624
# 5 1.0334 -15.4331 0.5307 0.0000 45.9436 0.0000
# 6 0.0000 0.0000 0.0000 -17.1624 0.0000 36.5805
#
#
#
# Elastic Compliance Matrix: (Units=1/GPa)
#
#
# Indices 1 2 3 4 5 6 
#
# 1 0.011936 -0.002570 -0.003744 0.000000 -0.001089 0.000000
# 2 -0.002570 0.010299 -0.005481 0.000000 0.003581 0.000000
# 3 -0.003744 -0.005481 0.019862 0.000000 -0.001986 0.000000
# 4 0.000000 0.000000 0.000000 0.044005 0.000000 0.020646
# 5 -0.001089 0.003581 -0.001986 0.000000 0.023016 0.000000
# 6 0.000000 0.000000 0.000000 0.020646 0.000000 0.037023
#
#
# Mechanical properties :
#
#
# Convention : Reuss Voigt Hill
#
# Bulk Modulus (GPa) = 54.03580 60.03304 57.03442
# Shear Modulus (GPa) = 28.42522 35.36629 31.89576
#
# Velocity S-wave (km/s) = 3.46097 3.86047 3.66617
# Velocity P-wave (km/s) = 6.22428 6.72077 6.47728
#
# Compressibility (1/GPa) = 0.01850625
#
# Stress axis : x y z
#
# Youngs Moduli (GPa) = 83.77770 97.10001 50.34774
#
# Poissons Ratio (x) = 0.24959 0.18850
# Poissons Ratio (y) = 0.21535 0.27595
# Poissons Ratio (z) = 0.31366 0.53219
#
# Static dielectric constant tensor:
#      x y z
#    x 1.930440 0.000000 0.011000 
#    y 0.000000 1.898150 0.000000 
#    z 0.011000 0.000000 2.044080 
# 
# From -- ./inp_files/22914.got.cif
#   From: 2010.05.17/outbox.cif.g08.bks.cpg/sg5_12_cif.got.tgz:22914.got - 2010.06.03 18:56:24.
