data_PCOD9122999
_publ_section_title
;
Structure prediction by ZEFSAII (Michael W. Deem and Ramdas Pophale) SiO2 
 PCOD9122999
Probable space group: C 2
;
_chemical_formula_sum "Si O2"
_cell_formula_units_Z 28
_cell_length_a 10.372159
_cell_length_b 9.499316
_cell_length_c 21.270666
_cell_angle_alpha 90.000000
_cell_angle_beta 132.843146
_cell_angle_gamma 90.000000
_cell_volume 1536.652663
_symmetry_space_group_name_H-M "C 2"
_symmetry_group_IT_number 5
_symmetry_cell_setting 'monoclinic'
loop_
_space_group_symop_operation_xyz
x,y,z
-x,y,-z
1/2+x,1/2+y,z
1/2-x,1/2+y,-z
loop_
_atom_site_type_symbol
_atom_site_label
_atom_site_fract_x
_atom_site_fract_y
_atom_site_fract_z
Si Si1 0.320941 0.018370 0.096021
Si Si2 0.113391 0.273267 0.976209
Si Si3 0.344258 0.556753 0.833988
Si Si4 0.549613 0.097200 0.277971
Si Si5 0.220257 0.893714 0.307320
Si Si6 0.365326 0.892648 0.585992
Si Si7 0.292637 0.085403 0.445959
O O1 0.182244 0.984365 0.106319
O O2 0.504269 0.032354 0.194520
O O3 0.322787 0.905014 0.042259
O O4 0.265713 0.170318 0.051450
O O5 0.988661 0.175966 0.891077
O O6 0.000000 0.315140 0.000000
O O7 0.373859 0.451126 0.786745
O O8 0.147741 0.621027 0.759142
O O9 0.646605 0.244117 0.304205
O O10 0.644774 0.985420 0.354020
O O11 0.427381 0.877719 0.360928
O O12 0.204767 0.008850 0.357233
O O13 0.284627 0.738746 0.566604
O O14 0.278539 0.982257 0.501158
O O15 0.500000 0.099661 0.500000
#
# Coordination Sequence:
#
# PCOD9122999 Si02
#       7
#     4   4   4   4   4   4   4
#     4   9  21  38  56  81 113 145 186 233 272 330
#     4  10  20  39  55  80 111 147 186 233 276 329
#     4   8  20  35  57  76 115 145 182 228 280 320
#     4   9  20  38  54  83 117 141 187 229 274 327
#     4  10  20  37  57  82 113 148 181 229 277 330
#     4  10  21  39  55  87 114 145 188 228 275 329
#     4  10  22  37  61  82 112 150 185 225 278 328
#
# _framework density 18.221423999999999
#
# number of rings (size 3 to 8) (size 9 to 14) (size 15 to 20)
#    0.857    1.714    0.000    0.857    4.000    1.143 
#    5.143    0.000    0.000    0.000    0.000    0.000 
#    0.000    0.000    0.000    0.000    0.000    0.000 
#
# Total GULP energy -78004.769766 kJ/mol
# GULP energy per Si atom -5571.769269 kJ/mol
# Density = 1.817995 g / cm^3
# Si number density = 18.221424 Si / 1000 Ang^3
#
#
#
# Elastic Constant Matrix: (Units=GPa)
#
#
# Indices 1 2 3 4 5 6 
#
# 1 43.2878 59.2726 33.3601 0.0000 -22.7935 0.0000
# 2 59.2726 131.7624 59.8675 0.0000 -36.5087 0.0000
# 3 33.3601 59.8675 81.7124 0.0000 -29.6172 0.0000
# 4 0.0000 0.0000 0.0000 25.8123 0.0000 -2.9540
# 5 -22.7935 -36.5087 -29.6172 0.0000 19.6079 0.0000
# 6 0.0000 0.0000 0.0000 -2.9540 0.0000 33.0292
#
#
#
# Elastic Compliance Matrix: (Units=1/GPa)
#
#
# Indices 1 2 3 4 5 6 
#
# 1 0.081948 -0.022009 0.005180 0.000000 0.062106 0.000000
# 2 -0.022009 0.021738 -0.003412 0.000000 0.009737 0.000000
# 3 0.005180 -0.003412 0.027630 0.000000 0.041402 0.000000
# 4 0.000000 0.000000 0.000000 0.039142 0.000000 0.003501
# 5 0.062106 0.009737 0.041402 0.000000 0.203862 0.000000
# 6 0.000000 0.000000 0.000000 0.003501 0.000000 0.030589
#
#
# Mechanical properties :
#
#
# Convention : Reuss Voigt Hill
#
# Bulk Modulus (GPa) = 11.00921 62.41812 36.71367
# Shear Modulus (GPa) = 10.51149 22.64069 16.57609
#
# Velocity S-wave (km/s) = 2.40443 3.52878 3.01940
# Velocity P-wave (km/s) = 3.70990 7.13672 5.68754
#
# Compressibility (1/GPa) = 0.09083303
#
# Stress axis : x y z
#
# Youngs Moduli (GPa) = 12.20286 46.00202 36.19276
#
# Poissons Ratio (x) = 1.01245 -0.18746
# Poissons Ratio (y) = 0.26857 0.12350
# Poissons Ratio (z) = -0.06321 0.15697
#
# Static dielectric constant tensor:
#      x y z
#    x 1.628330 0.000000 -0.004610 
#    y 0.000000 1.570640 0.000000 
#    z -0.004610 0.000000 1.660540 
# 
# From -- ./inp_files/65060.got.cif
#   From: 2010.05.17/outbox.cif.g08.bks.cpg/sg5_33_cif.got.tgz:65060.got - 2010.06.03 18:56:24.
