data_PCOD9122181
_publ_section_title
;
Structure prediction by ZEFSAII (Michael W. Deem and Ramdas Pophale) SiO2 
 PCOD9122181
Probable space group: C 2
;
_chemical_formula_sum "Si O2"
_cell_formula_units_Z 30
_cell_length_a 12.465677
_cell_length_b 9.428308
_cell_length_c 10.635660
_cell_angle_alpha 90.000000
_cell_angle_beta 81.068799
_cell_angle_gamma 90.000000
_cell_volume 1234.855892
_symmetry_space_group_name_H-M "C 2"
_symmetry_group_IT_number 5
_symmetry_cell_setting 'monoclinic'
loop_
_space_group_symop_operation_xyz
x,y,z
-x,y,-z
1/2+x,1/2+y,z
1/2-x,1/2+y,-z
loop_
_atom_site_type_symbol
_atom_site_label
_atom_site_fract_x
_atom_site_fract_y
_atom_site_fract_z
Si Si1 0.834821 0.487760 0.085872
Si Si2 0.484757 0.647362 0.636323
Si Si3 0.794047 0.939160 0.644333
Si Si4 0.456594 0.224968 0.740204
Si Si5 0.271134 0.016136 0.829047
Si Si6 0.433783 0.704727 0.117956
Si Si7 0.156277 0.879996 0.630715
Si Si8 0.500000 0.235325 0.000000
O O1 0.794477 0.464128 0.234029
O O2 0.902307 0.346787 0.052942
O O3 0.756854 0.484979 0.979332
O O4 0.902754 0.631094 0.060751
O O5 0.500000 0.724659 0.500000
O O6 0.367091 0.578972 0.643772
O O7 0.500419 0.725331 0.765154
O O8 0.569667 0.512382 0.630891
O O9 0.872897 0.811611 0.671636
O O10 0.768656 0.898926 0.505686
O O11 0.392741 0.077373 0.780256
O O12 0.575673 0.244168 0.656362
O O13 0.466563 0.304090 0.874489
O O14 0.181290 0.137323 0.823464
O O15 0.230311 0.896670 0.740608
O O16 0.500000 0.617597 0.000000
#
# Coordination Sequence:
#
# PCOD9122181 Si02
#       8
#     4   4   4   4   4   4   4   2
#     4  11  22  38  58  83 125 156 199 262 304 372
#     4   8  17  35  59  84 112 146 193 246 302 365
#     4  10  19  39  62  89 116 154 206 261 310 371
#     4  10  20  38  64  86 123 166 207 259 320 378
#     4  10  22  38  62  91 122 159 212 257 310 388
#     4  11  20  36  58  83 115 155 195 246 311 363
#     4   9  20  38  62  90 122 155 202 261 313 374
#     4  10  24  40  56  90 124 166 206 256 326 384
#
# _framework density 24.294333000000002
#
# number of rings (size 3 to 8) (size 9 to 14) (size 15 to 20)
#    0.000    2.133    2.000    2.000    1.867    0.000 
#    7.200    1.333    0.000    0.000    0.000    0.000 
#    0.000    0.000    0.000    0.000    0.000    0.000 
#
# Total GULP energy -83643.844231 kJ/mol
# GULP energy per Si atom -5576.256282 kJ/mol
# Density = 2.423904 g / cm^3
# Si number density = 24.294333 Si / 1000 Ang^3
#
#
#
# Elastic Constant Matrix: (Units=GPa)
#
#
# Indices 1 2 3 4 5 6 
#
# 1 72.7220 3.8837 39.5679 0.0000 -7.5356 0.0000
# 2 3.8837 25.5918 3.2105 0.0000 4.8625 0.0000
# 3 39.5679 3.2105 94.5086 0.0000 -10.3809 0.0000
# 4 0.0000 0.0000 0.0000 11.5239 0.0000 4.0364
# 5 -7.5356 4.8625 -10.3809 0.0000 27.7601 0.0000
# 6 0.0000 0.0000 0.0000 4.0364 0.0000 17.2425
#
#
#
# Elastic Compliance Matrix: (Units=1/GPa)
#
#
# Indices 1 2 3 4 5 6 
#
# 1 0.018062 -0.002337 -0.007195 0.000000 0.002622 0.000000
# 2 -0.002337 0.041184 -0.001338 0.000000 -0.008348 0.000000
# 3 -0.007195 -0.001338 0.014026 0.000000 0.003526 0.000000
# 4 0.000000 0.000000 0.000000 0.094527 0.000000 -0.022128
# 5 0.002622 -0.008348 0.003526 0.000000 0.039516 0.000000
# 6 0.000000 0.000000 0.000000 -0.022128 0.000000 0.063176
#
#
# Mechanical properties :
#
#
# Convention : Reuss Voigt Hill
#
# Bulk Modulus (GPa) = 19.40480 31.79406 25.59943
# Shear Modulus (GPa) = 16.15998 21.04932 18.60465
#
# Velocity S-wave (km/s) = 2.58190 2.94671 2.77031
# Velocity P-wave (km/s) = 4.11011 4.96920 4.55993
#
# Compressibility (1/GPa) = 0.05153365
#
# Stress axis : x y z
#
# Youngs Moduli (GPa) = 55.36463 24.28154 71.29596
#
# Poissons Ratio (x) = 0.05674 0.51295
# Poissons Ratio (y) = 0.12936 0.09538
# Poissons Ratio (z) = 0.39833 0.03248
#
# Static dielectric constant tensor:
#      x y z
#    x 1.982670 0.000000 -0.049270 
#    y 0.000000 1.951790 0.000000 
#    z -0.049270 0.000000 1.976300 
# 
# From -- ./inp_files/23649.got.cif
#   From: 2010.05.17/outbox.cif.g08.bks.cpg/sg5_12_cif.got.tgz:23649.got - 2010.06.03 18:56:24.
