data_PCOD9122354
_publ_section_title
;
Structure prediction by ZEFSAII (Michael W. Deem and Ramdas Pophale) SiO2 
 PCOD9122354
Probable space group: C 2
;
_chemical_formula_sum "Si O2"
_cell_formula_units_Z 16
_cell_length_a 7.177156
_cell_length_b 7.597001
_cell_length_c 15.153887
_cell_angle_alpha 90.000000
_cell_angle_beta 124.108306
_cell_angle_gamma 90.000000
_cell_volume 684.128941
_symmetry_space_group_name_H-M "C 2"
_symmetry_group_IT_number 5
_symmetry_cell_setting 'monoclinic'
loop_
_space_group_symop_operation_xyz
x,y,z
-x,y,-z
1/2+x,1/2+y,z
1/2-x,1/2+y,-z
loop_
_atom_site_type_symbol
_atom_site_label
_atom_site_fract_x
_atom_site_fract_y
_atom_site_fract_z
Si Si1 0.474119 0.766750 0.592057
Si Si2 0.000000 0.792045 0.000000
Si Si3 0.500000 0.111615 0.500000
Si Si4 0.250345 0.754106 0.900523
Si Si5 0.321788 0.066659 0.807382
O O1 0.500000 0.691408 0.500000
O O2 0.653610 0.669778 0.700244
O O3 0.223479 0.725958 0.556863
O O4 0.510347 0.974974 0.585477
O O5 0.824398 0.666424 0.902281
O O6 0.130748 0.863758 0.949258
O O7 0.079369 0.591761 0.843161
O O8 0.259788 0.868634 0.814603
O O9 0.500000 0.712928 0.000000
#
# Coordination Sequence:
#
# PCOD9122354 Si02
#       5
#     4   2   2   4   4
#     4  10  24  45  68 102 132 178 225 275 337 387
#     4   8  22  38  62 100 124 178 206 276 318 402
#     4  10  24  44  72  94 138 168 230 278 326 396
#     4  10  19  42  63  99 134 171 219 268 329 396
#     4  10  20  44  66  97 134 176 216 276 325 402
#
# _framework density 23.387402999999999
#
# number of rings (size 3 to 8) (size 9 to 14) (size 15 to 20)
#    2.250    0.000    1.250    1.500    1.750    0.000 
#   18.000    0.000    0.000    0.000    0.000    0.000 
#    0.000    0.000    0.000    0.000    0.000    0.000 
#
# Total GULP energy -44595.941397 kJ/mol
# GULP energy per Si atom -5574.492675 kJ/mol
# Density = 2.333417 g / cm^3
# Si number density = 23.387403 Si / 1000 Ang^3
#
#
#
# Elastic Constant Matrix: (Units=GPa)
#
#
# Indices 1 2 3 4 5 6 
#
# 1 145.9573 37.4893 6.6290 0.0000 18.6047 0.0000
# 2 37.4893 50.7564 -14.4227 0.0000 -15.2567 0.0000
# 3 6.6290 -14.4227 83.5327 0.0000 -3.9556 0.0000
# 4 0.0000 0.0000 0.0000 -13.8131 0.0000 32.7534
# 5 18.6047 -15.2567 -3.9556 0.0000 24.6786 0.0000
# 6 0.0000 0.0000 0.0000 32.7534 0.0000 -28.9653
#
#
#
# Elastic Compliance Matrix: (Units=1/GPa)
#
#
# Indices 1 2 3 4 5 6 
#
# 1 0.016047 -0.021575 -0.006250 0.000000 -0.026437 0.000000
# 2 -0.021575 0.055398 0.013774 0.000000 0.052721 0.000000
# 3 -0.006250 0.013774 0.015590 0.000000 0.015726 0.000000
# 4 0.000000 0.000000 0.000000 0.043059 0.000000 0.048691
# 5 -0.026437 0.052721 0.015726 0.000000 0.095564 0.000000
# 6 0.000000 0.000000 0.000000 0.048691 0.000000 0.020534
#
#
# Mechanical properties :
#
#
# Convention : Reuss Voigt Hill
#
# Bulk Modulus (GPa) = 16.96871 37.73752 27.35311
# Shear Modulus (GPa) = 17.01025 13.08340 15.04683
#
# Velocity S-wave (km/s) = 2.69982 2.36777 2.53923
# Velocity P-wave (km/s) = 4.12189 4.86272 4.50755
#
# Compressibility (1/GPa) = 0.05893201
#
# Stress axis : x y z
#
# Youngs Moduli (GPa) = 62.31879 18.05111 64.14272
#
# Poissons Ratio (x) = 0.38945 0.40092
# Poissons Ratio (y) = 1.34451 -0.88348
# Poissons Ratio (z) = 0.38952 -0.24863
#
# Static dielectric constant tensor:
#      x y z
#    x 1.877390 0.000000 -0.015270 
#    y 0.000000 1.953050 0.000000 
#    z -0.015270 0.000000 1.817880 
# 
# From -- ./inp_files/49811.got.cif
#   From: 2010.05.17/outbox.cif.g08.bks.cpg/sg5_25_cif.got.tgz:49811.got - 2010.06.03 18:56:24.
