data_PCOD9122426
_publ_section_title
;
Structure prediction by ZEFSAII (Michael W. Deem and Ramdas Pophale) SiO2 
 PCOD9122426
Probable space group: C 2
;
_chemical_formula_sum "Si O2"
_cell_formula_units_Z 28
_cell_length_a 17.821983
_cell_length_b 7.371214
_cell_length_c 17.043183
_cell_angle_alpha 90.000000
_cell_angle_beta 27.302547
_cell_angle_gamma 90.000000
_cell_volume 1026.985071
_symmetry_space_group_name_H-M "C 2"
_symmetry_group_IT_number 5
_symmetry_cell_setting 'monoclinic'
loop_
_space_group_symop_operation_xyz
x,y,z
-x,y,-z
1/2+x,1/2+y,z
1/2-x,1/2+y,-z
loop_
_atom_site_type_symbol
_atom_site_label
_atom_site_fract_x
_atom_site_fract_y
_atom_site_fract_z
Si Si1 0.993613 0.390820 0.914251
Si Si2 0.223045 0.426766 0.308113
Si Si3 0.358399 0.578733 0.427165
Si Si4 0.009720 0.993591 0.134560
Si Si5 0.870654 0.838795 0.557025
Si Si6 0.972150 0.651799 0.798717
Si Si7 0.554633 0.875353 0.312139
O O1 0.931166 0.184870 0.955068
O O2 0.187037 0.406418 0.722056
O O3 0.914943 0.520171 0.922873
O O4 0.000000 0.431431 0.000000
O O5 0.407503 0.395687 0.161868
O O6 0.163856 0.635676 0.377406
O O7 0.200782 0.374891 0.238144
O O8 0.096205 0.336081 0.486220
O O9 0.360087 0.543116 0.333176
O O10 0.418552 0.410394 0.425514
O O11 0.173436 0.648494 0.613909
O O12 0.505839 0.723104 0.296207
O O13 0.099150 0.846289 0.106207
O O14 0.000000 0.916288 0.500000
O O15 0.935330 0.558409 0.748866
#
# Coordination Sequence:
#
# PCOD9122426 Si02
#       7
#     4   4   4   4   4   4   4
#     4  10  24  42  59  88 126 166 205 247 305 372
#     4  10  20  32  50  86 129 154 184 250 317 355
#     4  11  20  31  55  91 127 147 198 260 312 356
#     4  11  21  36  61  88 116 161 208 250 298 367
#     4  10  21  35  59  90 119 158 201 253 310 351
#     4  11  20  35  59  86 121 159 202 253 304 363
#     4  11  19  31  50  86 130 152 185 248 324 349
#
# _framework density 27.264271000000001
#
# number of rings (size 3 to 8) (size 9 to 14) (size 15 to 20)
#    0.000    1.429    5.714    0.857    4.000    0.571 
#    0.000    0.000    0.000    3.429    0.000    0.000 
#    0.000    0.000    0.000    0.000    0.000    0.000 
#
# Total GULP energy -78061.158791 kJ/mol
# GULP energy per Si atom -5575.797057 kJ/mol
# Density = 2.720222 g / cm^3
# Si number density = 27.264271 Si / 1000 Ang^3
#
#
#
# Elastic Constant Matrix: (Units=GPa)
#
#
# Indices 1 2 3 4 5 6 
#
# 1 163.1679 21.3331 26.5916 -0.0006 14.7519 0.0003
# 2 21.3331 66.8459 16.0123 -0.0014 1.1079 0.0011
# 3 26.5916 16.0123 31.7655 -0.0003 11.0068 0.0004
# 4 -0.0006 -0.0014 -0.0003 28.8910 0.0004 1.1010
# 5 14.7519 1.1079 11.0068 0.0004 39.4746 -0.0002
# 6 0.0003 0.0011 0.0004 1.1010 -0.0002 22.7171
#
#
#
# Elastic Compliance Matrix: (Units=1/GPa)
#
#
# Indices 1 2 3 4 5 6 
#
# 1 0.007206 -0.001067 -0.005061 0.000000 -0.001252 0.000000
# 2 -0.001067 0.017334 -0.008650 0.000001 0.002324 -0.000001
# 3 -0.005061 -0.008650 0.043545 0.000000 -0.010008 0.000000
# 4 0.000000 0.000001 0.000000 0.034677 0.000000 -0.001681
# 5 -0.001252 0.002324 -0.010008 0.000000 0.028526 0.000000
# 6 0.000000 -0.000001 0.000000 -0.001681 0.000000 0.044101
#
#
# Mechanical properties :
#
#
# Convention : Reuss Voigt Hill
#
# Bulk Modulus (GPa) = 25.95374 43.29483 34.62429
# Shear Modulus (GPa) = 22.95818 31.40601 27.18209
#
# Velocity S-wave (km/s) = 2.90498 3.39766 3.16093
# Velocity P-wave (km/s) = 4.55981 5.59521 5.10383
#
# Compressibility (1/GPa) = 0.03853009
#
# Stress axis : x y z
#
# Youngs Moduli (GPa) = 138.77166 57.69112 22.96459
#
# Poissons Ratio (x) = 0.06154 0.11622
# Poissons Ratio (y) = 0.14803 0.19864
# Poissons Ratio (z) = 0.70231 0.49902
#
# Static dielectric constant tensor:
#      x y z
#    x 1.516150 0.000000 -0.718080 
#    y 0.000000 2.394990 0.000000 
#    z -0.718080 0.000000 1.451500 
# 
# From -- ./inp_files/55733.got.cif
#   From: 2010.05.17/outbox.cif.g08.bks.cpg/sg5_28_cif.got.tgz:55733.got - 2010.06.03 18:56:24.
