data_PCOD9122256
_publ_section_title
;
Structure prediction by ZEFSAII (Michael W. Deem and Ramdas Pophale) SiO2 
 PCOD9122256
Probable space group: C 2
;
_chemical_formula_sum "Si O2"
_cell_formula_units_Z 28
_cell_length_a 15.875943
_cell_length_b 9.216661
_cell_length_c 13.737175
_cell_angle_alpha 90.000000
_cell_angle_beta 144.458110
_cell_angle_gamma 90.000000
_cell_volume 1168.448071
_symmetry_space_group_name_H-M "C 2"
_symmetry_group_IT_number 5
_symmetry_cell_setting 'monoclinic'
loop_
_space_group_symop_operation_xyz
x,y,z
-x,y,-z
1/2+x,1/2+y,z
1/2-x,1/2+y,-z
loop_
_atom_site_type_symbol
_atom_site_label
_atom_site_fract_x
_atom_site_fract_y
_atom_site_fract_z
Si Si1 0.898492 0.183810 0.533042
Si Si2 0.350842 0.397335 0.786619
Si Si3 0.090705 0.217846 0.226722
Si Si4 0.364587 0.942756 0.075346
Si Si5 0.400489 0.909543 0.321959
Si Si6 0.921018 0.766577 0.134377
Si Si7 0.901988 0.845068 0.501959
O O1 0.781641 0.305555 0.389558
O O2 0.899805 0.188510 0.649725
O O3 0.054105 0.240999 0.642322
O O4 0.878681 0.018421 0.486259
O O5 0.409740 0.557542 0.817131
O O6 0.265723 0.425101 0.807453
O O7 0.484398 0.305135 0.871875
O O8 0.242516 0.283066 0.336437
O O9 0.959463 0.335155 0.096534
O O10 0.441259 0.961186 0.253508
O O11 0.354404 0.110927 0.040698
O O12 0.212338 0.868008 0.957235
O O13 0.500000 0.977969 0.500000
O O14 0.027708 0.784385 0.330364
O O15 0.000000 0.814074 0.500000
#
# Coordination Sequence:
#
# PCOD9122256 Si02
#       7
#     4   4   4   4   4   4   4
#     4  10  19  40  62 102 135 169 212 268 328 385
#     4  11  21  38  69  98 131 168 221 268 332 387
#     4  11  22  40  68 100 129 173 221 270 329 392
#     4  11  27  46  67  92 139 176 219 269 336 401
#     4   9  22  38  72  98 129 168 221 270 317 389
#     4  12  26  44  68  94 133 180 218 271 340 393
#     4  12  26  40  70 104 131 168 225 282 325 379
#
# _framework density 23.963411000000001
#
# number of rings (size 3 to 8) (size 9 to 14) (size 15 to 20)
#    0.000    1.143    2.857    3.000   10.000    0.571 
#    0.000    0.714    3.143    0.000    0.000    0.000 
#    0.000    0.000    0.000    0.000    0.000    0.000 
#
# Total GULP energy -78050.617879 kJ/mol
# GULP energy per Si atom -5575.044134 kJ/mol
# Density = 2.390887 g / cm^3
# Si number density = 23.963411 Si / 1000 Ang^3
#
#
#
# Elastic Constant Matrix: (Units=GPa)
#
#
# Indices 1 2 3 4 5 6 
#
# 1 120.4549 26.6753 18.0128 0.0000 47.5383 0.0000
# 2 26.6753 172.1803 23.3664 0.0000 38.8325 0.0000
# 3 18.0128 23.3664 88.7226 0.0000 30.0210 0.0000
# 4 0.0000 0.0000 0.0000 37.3935 0.0000 27.3629
# 5 47.5383 38.8325 30.0210 0.0000 46.8125 0.0000
# 6 0.0000 0.0000 0.0000 27.3629 0.0000 44.3501
#
#
#
# Elastic Compliance Matrix: (Units=1/GPa)
#
#
# Indices 1 2 3 4 5 6 
#
# 1 0.014551 0.001355 0.002643 0.000000 -0.017595 0.000000
# 2 0.001355 0.007273 0.000404 0.000000 -0.007669 0.000000
# 3 0.002643 0.000404 0.014878 0.000000 -0.012560 0.000000
# 4 0.000000 0.000000 0.000000 0.048754 0.000000 -0.030080
# 5 -0.017595 -0.007669 -0.012560 0.000000 0.053646 0.000000
# 6 0.000000 0.000000 0.000000 -0.030080 0.000000 0.041106
#
#
# Mechanical properties :
#
#
# Convention : Reuss Voigt Hill
#
# Bulk Modulus (GPa) = 21.97510 57.49629 39.73570
# Shear Modulus (GPa) = 26.79940 46.59811 36.69876
#
# Velocity S-wave (km/s) = 3.34780 4.41449 3.91762
# Velocity P-wave (km/s) = 4.91262 7.07313 6.08946
#
# Compressibility (1/GPa) = 0.04550605
#
# Stress axis : x y z
#
# Youngs Moduli (GPa) = 68.72543 137.50396 67.21263
#
# Poissons Ratio (x) = -0.18638 -0.17762
# Poissons Ratio (y) = -0.09315 -0.02717
# Poissons Ratio (z) = -0.18162 -0.05559
#
# Static dielectric constant tensor:
#      x y z
#    x 1.962520 0.000000 -0.118270 
#    y 0.000000 1.980370 0.000000 
#    z -0.118270 0.000000 1.960420 
# 
# From -- ./inp_files/62245.got.cif
#   From: 2010.05.17/outbox.cif.g08.bks.cpg/sg5_32_cif.got.tgz:62245.got - 2010.06.03 18:56:24.
