data_PCOD9122917
_publ_section_title
;
Structure prediction by ZEFSAII (Michael W. Deem and Ramdas Pophale) SiO2 
 PCOD9122917
Probable space group: C 2
;
_chemical_formula_sum "Si O2"
_cell_formula_units_Z 30
_cell_length_a 13.104755
_cell_length_b 10.903251
_cell_length_c 20.662090
_cell_angle_alpha 90.000000
_cell_angle_beta 151.931694
_cell_angle_gamma 90.000000
_cell_volume 1389.123328
_symmetry_space_group_name_H-M "C 2"
_symmetry_group_IT_number 5
_symmetry_cell_setting 'monoclinic'
loop_
_space_group_symop_operation_xyz
x,y,z
-x,y,-z
1/2+x,1/2+y,z
1/2-x,1/2+y,-z
loop_
_atom_site_type_symbol
_atom_site_label
_atom_site_fract_x
_atom_site_fract_y
_atom_site_fract_z
Si Si1 0.251263 0.776110 0.126683
Si Si2 0.073706 0.530124 0.788065
Si Si3 0.945964 0.800641 0.278517
Si Si4 0.876359 0.189540 0.326790
Si Si5 0.359257 0.924138 0.477038
Si Si6 0.334087 0.460420 0.500691
Si Si7 0.000000 0.435975 0.000000
Si Si8 0.889698 0.622679 0.054230
O O1 0.391072 0.702460 0.257137
O O2 0.285900 0.918317 0.159839
O O3 0.275336 0.722535 0.068125
O O4 0.000000 0.750863 0.000000
O O5 0.060059 0.658313 0.742724
O O6 0.169724 0.560632 0.911976
O O7 0.833438 0.467339 0.652007
O O8 0.708659 0.857372 0.137484
O O9 0.118148 0.871323 0.327388
O O10 0.048603 0.838157 0.406233
O O11 0.622394 0.185287 0.199683
O O12 0.998141 0.304157 0.425472
O O13 0.989149 0.064549 0.409904
O O14 0.500000 0.987625 0.500000
O O15 0.314904 0.993950 0.519429
O O16 0.930018 0.520640 0.021543
#
# Coordination Sequence:
#
# PCOD9122917 Si02
#       8
#     4   4   4   4   4   4   2   4
#     4  10  22  42  61  90 123 169 215 261 320 376
#     4  12  24  39  64  94 128 163 215 275 318 376
#     4  10  23  39  65  92 128 169 208 263 328 375
#     4  11  18  40  64  87 121 161 214 271 309 382
#     4  10  20  36  63  96 121 159 216 266 312 376
#     4  10  20  39  62  94 123 160 211 268 320 372
#     4  12  22  46  64  90 138 172 212 258 326 396
#     4  11  23  40  65  89 121 174 220 260 312 382
#
# _framework density 21.596354000000002
#
# number of rings (size 3 to 8) (size 9 to 14) (size 15 to 20)
#    0.800    0.533    6.000    0.800    2.800    0.000 
#    0.000    0.000    2.933    0.000    0.000    0.000 
#    0.000    0.000    0.000    0.000    0.000    0.000 
#
# Total GULP energy -83574.622206 kJ/mol
# GULP energy per Si atom -5571.641480 kJ/mol
# Density = 2.154720 g / cm^3
# Si number density = 21.596354 Si / 1000 Ang^3
#
#
#
# Elastic Constant Matrix: (Units=GPa)
#
#
# Indices 1 2 3 4 5 6 
#
# 1 22.8348 0.3555 0.9877 -0.0002 -3.4157 0.0000
# 2 0.3555 66.8483 20.5526 0.0007 -5.6821 0.0002
# 3 0.9877 20.5526 81.4484 0.0025 -1.5672 0.0009
# 4 -0.0002 0.0007 0.0025 28.6319 0.0001 -1.1586
# 5 -3.4157 -5.6821 -1.5672 0.0001 28.5486 0.0000
# 6 0.0000 0.0002 0.0009 -1.1586 0.0000 16.4027
#
#
#
# Elastic Compliance Matrix: (Units=1/GPa)
#
#
# Indices 1 2 3 4 5 6 
#
# 1 0.044615 0.000385 -0.000535 0.000000 0.005385 0.000000
# 2 0.000385 0.016483 -0.004104 0.000000 0.003101 0.000000
# 3 -0.000535 -0.004104 0.013317 -0.000001 -0.000150 -0.000001
# 4 0.000000 0.000000 -0.000001 0.035026 0.000000 0.002474
# 5 0.005385 0.003101 -0.000150 0.000000 0.036281 0.000000
# 6 0.000000 0.000000 -0.000001 0.002474 0.000000 0.061140
#
#
# Mechanical properties :
#
#
# Convention : Reuss Voigt Hill
#
# Bulk Modulus (GPa) = 15.17283 23.88035 19.52659
# Shear Modulus (GPa) = 21.06684 24.66570 22.86627
#
# Velocity S-wave (km/s) = 3.12666 3.38320 3.25745
# Velocity P-wave (km/s) = 4.48057 5.13254 4.81760
#
# Compressibility (1/GPa) = 0.06590728
#
# Stress axis : x y z
#
# Youngs Moduli (GPa) = 22.41374 60.66983 75.09219
#
# Poissons Ratio (x) = -0.02335 0.04014
# Poissons Ratio (y) = -0.00863 0.30819
# Poissons Ratio (z) = 0.01198 0.24900
#
# Static dielectric constant tensor:
#      x y z
#    x 1.898430 0.000000 -0.042140 
#    y 0.000000 1.748580 0.000000 
#    z -0.042140 0.000000 1.834570 
# 
# From -- ./inp_files/66063.got.cif
#   From: 2010.05.17/outbox.cif.g08.bks.cpg/sg5_34_cif.got.tgz:66063.got - 2010.06.03 18:56:24.
