data_PCOD9122457
_publ_section_title
;
Structure prediction by ZEFSAII (Michael W. Deem and Ramdas Pophale) SiO2 
 PCOD9122457
Probable space group: C 2
;
_chemical_formula_sum "Si O2"
_cell_formula_units_Z 32
_cell_length_a 9.180945
_cell_length_b 21.475674
_cell_length_c 7.774419
_cell_angle_alpha 90.000000
_cell_angle_beta 110.930980
_cell_angle_gamma 90.000000
_cell_volume 1431.707602
_symmetry_space_group_name_H-M "C 2"
_symmetry_group_IT_number 5
_symmetry_cell_setting 'monoclinic'
loop_
_space_group_symop_operation_xyz
x,y,z
-x,y,-z
1/2+x,1/2+y,z
1/2-x,1/2+y,-z
loop_
_atom_site_type_symbol
_atom_site_label
_atom_site_fract_x
_atom_site_fract_y
_atom_site_fract_z
Si Si1 0.261237 0.933950 0.988933
Si Si2 0.875117 0.682230 0.175786
Si Si3 0.176192 0.067186 0.051710
Si Si4 0.743586 0.311327 0.492027
Si Si5 0.587164 0.316867 0.809753
Si Si6 0.676188 0.051400 0.523247
Si Si7 0.927228 0.424547 0.693310
Si Si8 0.221341 0.676782 0.461975
O O1 0.142938 0.876697 0.936845
O O2 0.353203 0.922699 0.850848
O O3 0.388318 0.929251 0.194841
O O4 0.188578 0.003192 0.950642
O O5 0.793622 0.623451 0.049379
O O6 0.855743 0.750821 0.087110
O O7 0.805941 0.679477 0.341497
O O8 0.059877 0.679558 0.287664
O O9 0.231331 0.044829 0.262590
O O10 0.000000 0.090532 0.000000
O O11 0.664582 0.312780 0.650590
O O12 0.596988 0.321806 0.304418
O O13 0.868473 0.365631 0.561431
O O14 0.806439 0.242367 0.470528
O O15 0.500000 0.074054 0.500000
O O16 0.767241 0.104868 0.454702
O O17 0.642071 0.987143 0.417108
#
# Coordination Sequence:
#
# PCOD9122457 Si02
#       8
#     4   4   4   4   4   4   4   4
#     4  10  20  35  49  77 110 136 167 214 262 306
#     4   8  13  28  47  72  95 131 168 213 254 290
#     4  11  22  34  51  80 108 135 172 220 262 303
#     4   8  15  27  48  74  96 131 174 211 245 296
#     4   8  15  28  48  70 101 132 166 212 252 295
#     4  11  18  34  55  76 100 139 178 209 259 312
#     4  10  20  33  53  78 103 138 174 208 258 314
#     4   8  12  26  51  72  95 124 176 217 239 295
#
# _framework density 22.350932
#
# number of rings (size 3 to 8) (size 9 to 14) (size 15 to 20)
#    0.000    2.750    3.750    1.500    1.750    0.000 
#    9.000    0.000    0.000    1.500    3.250    0.000 
#    0.000    0.000    0.000    0.000    0.000    0.000 
#
# Total GULP energy -89121.445567 kJ/mol
# GULP energy per Si atom -5570.090348 kJ/mol
# Density = 2.230006 g / cm^3
# Si number density = 22.350932 Si / 1000 Ang^3
#
#
#
# Elastic Constant Matrix: (Units=GPa)
#
#
# Indices 1 2 3 4 5 6 
#
# 1 41.5257 22.5824 21.3844 0.0000 1.3983 0.0000
# 2 22.5824 227.8741 51.8184 0.0000 17.4558 0.0000
# 3 21.3844 51.8184 66.9040 0.0000 10.8562 0.0000
# 4 0.0000 0.0000 0.0000 38.3104 0.0000 6.3946
# 5 1.3983 17.4558 10.8562 0.0000 16.6271 0.0000
# 6 0.0000 0.0000 0.0000 6.3946 0.0000 15.6413
#
#
#
# Elastic Compliance Matrix: (Units=1/GPa)
#
#
# Indices 1 2 3 4 5 6 
#
# 1 0.029316 -0.001171 -0.009242 0.000000 0.004798 0.000000
# 2 -0.001171 0.005534 -0.003339 0.000000 -0.003532 0.000000
# 3 -0.009242 -0.003339 0.022137 0.000000 -0.010171 0.000000
# 4 0.000000 0.000000 0.000000 0.028014 0.000000 -0.011453
# 5 0.004798 -0.003532 -0.010171 0.000000 0.070088 0.000000
# 6 0.000000 0.000000 0.000000 -0.011453 0.000000 0.068616
#
#
# Mechanical properties :
#
#
# Convention : Reuss Voigt Hill
#
# Bulk Modulus (GPa) = 33.91703 58.65267 46.28485
# Shear Modulus (GPa) = 19.15436 30.15033 24.65234
#
# Velocity S-wave (km/s) = 2.93060 3.67679 3.32470
# Velocity P-wave (km/s) = 5.16323 6.65761 5.95746
#
# Compressibility (1/GPa) = 0.02948371
#
# Stress axis : x y z
#
# Youngs Moduli (GPa) = 34.11103 180.69242 45.17267
#
# Poissons Ratio (x) = 0.21163 0.41747
# Poissons Ratio (y) = 0.03995 0.15083
# Poissons Ratio (z) = 0.31524 0.60333
#
# Static dielectric constant tensor:
#      x y z
#    x 1.899510 0.000000 -0.039120 
#    y 0.000000 1.905610 0.000000 
#    z -0.039120 0.000000 1.828800 
# 
# From -- ./inp_files/21997.got.cif
#   From: 2010.05.17/outbox.cif.g08.bks.cpg/sg5_11_cif.got.tgz:21997.got - 2010.06.03 18:56:24.
