data_PCOD9122849
_publ_section_title
;
Structure prediction by ZEFSAII (Michael W. Deem and Ramdas Pophale) SiO2 
 PCOD9122849
Probable space group: C 2
;
_chemical_formula_sum "Si O2"
_cell_formula_units_Z 30
_cell_length_a 13.814023
_cell_length_b 10.295064
_cell_length_c 10.417910
_cell_angle_alpha 90.000000
_cell_angle_beta 70.796218
_cell_angle_gamma 90.000000
_cell_volume 1399.152184
_symmetry_space_group_name_H-M "C 2"
_symmetry_group_IT_number 5
_symmetry_cell_setting 'monoclinic'
loop_
_space_group_symop_operation_xyz
x,y,z
-x,y,-z
1/2+x,1/2+y,z
1/2-x,1/2+y,-z
loop_
_atom_site_type_symbol
_atom_site_label
_atom_site_fract_x
_atom_site_fract_y
_atom_site_fract_z
Si Si1 0.995568 0.636540 0.645133
Si Si2 0.628967 0.715686 0.738172
Si Si3 0.500000 0.571513 0.000000
Si Si4 0.196127 0.711014 0.137311
Si Si5 0.888971 0.109267 0.540562
Si Si6 0.182550 0.485015 0.618783
Si Si7 0.281486 0.450930 0.045068
Si Si8 0.350744 0.890775 0.653677
O O1 0.921643 0.714925 0.770303
O O2 0.939339 0.494824 0.652026
O O3 0.000000 0.693051 0.500000
O O4 0.108738 0.609688 0.647042
O O5 0.538083 0.660862 0.865534
O O6 0.735188 0.687195 0.765941
O O7 0.629457 0.649983 0.599152
O O8 0.628315 0.869852 0.719310
O O9 0.599198 0.487480 0.993294
O O10 0.220741 0.584044 0.041703
O O11 0.232147 0.840069 0.053085
O O12 0.793985 0.020741 0.621947
O O13 0.891133 0.244022 0.620013
O O14 0.000000 0.045462 0.500000
O O15 0.189769 0.434524 0.468406
O O16 0.234724 0.399567 0.199597
#
# Coordination Sequence:
#
# PCOD9122849 Si02
#       8
#     4   4   2   4   4   4   4   4
#     4   9  17  35  59  84 115 157 197 247 310 363
#     4  10  22  40  58  87 125 165 200 247 315 369
#     4  10  22  40  62  84 126 168 198 244 310 370
#     4  10  22  39  62  89 125 162 203 252 304 363
#     4  11  22  37  61  90 120 158 207 260 306 362
#     4  10  20  36  60  89 118 153 208 258 300 360
#     4  10  22  40  62  89 120 165 208 250 303 364
#     4   9  19  38  61  84 118 159 201 251 314 368
#
# _framework density 21.441555000000001
#
# number of rings (size 3 to 8) (size 9 to 14) (size 15 to 20)
#    0.000    2.133    0.000    5.200    0.000    9.600 
#    0.000    4.667    0.000    0.000    0.000    0.000 
#    0.000    0.000    0.000    0.000    0.000    0.000 
#
# Total GULP energy -83842.963905 kJ/mol
# GULP energy per Si atom -5589.530927 kJ/mol
# Density = 2.139275 g / cm^3
# Si number density = 21.441555 Si / 1000 Ang^3
#
#
#
# Elastic Constant Matrix: (Units=GPa)
#
#
# Indices 1 2 3 4 5 6 
#
# 1 89.3602 7.9221 23.9225 0.0000 -21.2488 0.0000
# 2 7.9221 52.6417 30.7921 0.0000 4.8275 0.0000
# 3 23.9225 30.7921 80.3897 0.0000 -15.1488 0.0000
# 4 0.0000 0.0000 0.0000 9.6485 0.0000 -1.5549
# 5 -21.2488 4.8275 -15.1488 0.0000 28.0273 0.0000
# 6 0.0000 0.0000 0.0000 -1.5549 0.0000 15.9406
#
#
#
# Elastic Compliance Matrix: (Units=1/GPa)
#
#
# Indices 1 2 3 4 5 6 
#
# 1 0.014250 -0.002284 -0.001398 0.000000 0.010442 0.000000
# 2 -0.002284 0.027870 -0.012500 0.000000 -0.013288 0.000000
# 3 -0.001398 -0.012500 0.019873 0.000000 0.011835 0.000000
# 4 0.000000 0.000000 0.000000 0.105298 0.000000 0.010271
# 5 0.010442 -0.013288 0.011835 0.000000 0.052281 0.000000
# 6 0.000000 0.000000 0.000000 0.010271 0.000000 0.063735
#
#
# Mechanical properties :
#
#
# Convention : Reuss Voigt Hill
#
# Bulk Modulus (GPa) = 33.74952 38.62943 36.18948
# Shear Modulus (GPa) = 15.35868 21.37360 18.36614
#
# Velocity S-wave (km/s) = 2.67929 3.16069 2.92989
# Velocity P-wave (km/s) = 5.03447 5.60136 5.32546
#
# Compressibility (1/GPa) = 0.02963005
#
# Stress axis : x y z
#
# Youngs Moduli (GPa) = 70.17372 35.88062 50.31867
#
# Poissons Ratio (x) = 0.08196 0.07035
# Poissons Ratio (y) = 0.16030 0.62896
# Poissons Ratio (z) = 0.09810 0.44849
#
# Static dielectric constant tensor:
#      x y z
#    x 1.790010 0.000000 0.000810 
#    y 0.000000 1.795510 0.000000 
#    z 0.000810 0.000000 1.766450 
# 
# From -- ./inp_files/41932.got.cif
#   From: 2010.05.17/outbox.cif.g08.bks.cpg/sg5_21_cif.got.tgz:41932.got - 2010.06.03 18:56:24.
