data_PCOD9122963
_publ_section_title
;
Structure prediction by ZEFSAII (Michael W. Deem and Ramdas Pophale) SiO2 
 PCOD9122963
Probable space group: C 2
;
_chemical_formula_sum "Si O2"
_cell_formula_units_Z 24
_cell_length_a 10.824247
_cell_length_b 24.726405
_cell_length_c 5.304432
_cell_angle_alpha 90.000000
_cell_angle_beta 128.077447
_cell_angle_gamma 90.000000
_cell_volume 1117.558894
_symmetry_space_group_name_H-M "C 2"
_symmetry_group_IT_number 5
_symmetry_cell_setting 'monoclinic'
loop_
_space_group_symop_operation_xyz
x,y,z
-x,y,-z
1/2+x,1/2+y,z
1/2-x,1/2+y,-z
loop_
_atom_site_type_symbol
_atom_site_label
_atom_site_fract_x
_atom_site_fract_y
_atom_site_fract_z
Si Si1 0.109258 0.772620 0.394865
Si Si2 0.500000 0.103259 0.000000
Si Si3 0.000000 0.110558 0.500000
Si Si4 0.277117 0.661568 0.572729
Si Si5 0.690946 0.879647 0.229288
Si Si6 0.784799 0.565043 0.114494
Si Si7 0.311799 0.945302 0.280314
O O1 0.235210 0.723515 0.558087
O O2 0.208492 0.826620 0.578008
O O3 0.000000 0.762662 0.500000
O O4 0.000000 0.774672 0.000000
O O5 0.645633 0.142970 0.206756
O O6 0.449981 0.066690 0.172359
O O7 0.944198 0.148660 0.658836
O O8 0.855297 0.072126 0.260275
O O9 0.237199 0.618328 0.741280
O O10 0.730170 0.920384 0.504875
O O11 0.500000 0.869734 0.000000
O O12 0.734787 0.907379 0.016558
O O13 0.757932 0.507205 0.202613
O O14 0.500000 0.946442 0.500000
#
# Coordination Sequence:
#
# PCOD9122963 Si02
#       7
#     4   2   2   4   4   4   4
#     4  12  26  48  73 105 140 182 238 295 352 418
#     4  10  20  36  66  98 126 172 224 276 344 402
#     4  10  26  42  60  98 142 170 234 270 366 408
#     4  11  23  43  65  98 134 179 224 285 347 421
#     4  10  24  46  69 102 135 186 236 288 342 410
#     4  11  23  40  66 100 136 181 223 287 342 422
#     4  10  22  42  71 100 136 179 237 282 338 413
#
# _framework density 21.475379
#
# number of rings (size 3 to 8) (size 9 to 14) (size 15 to 20)
#    0.000    1.333    0.833    4.000   10.500    1.333 
#    9.000    0.000    0.000    0.000    0.000    0.000 
#    0.000    0.000    0.000    0.000    0.000    0.000 
#
# Total GULP energy -66939.356859 kJ/mol
# GULP energy per Si atom -5578.279738 kJ/mol
# Density = 2.142650 g / cm^3
# Si number density = 21.475379 Si / 1000 Ang^3
#
#
#
# Elastic Constant Matrix: (Units=GPa)
#
#
# Indices 1 2 3 4 5 6 
#
# 1 91.2522 22.4083 27.5511 0.0000 -12.8545 0.0000
# 2 22.4083 150.2656 53.3604 0.0000 -0.5337 0.0000
# 3 27.5511 53.3604 77.6104 0.0000 -20.1580 0.0000
# 4 0.0000 0.0000 0.0000 28.3133 0.0000 -4.1590
# 5 -12.8545 -0.5337 -20.1580 0.0000 32.2787 0.0000
# 6 0.0000 0.0000 0.0000 -4.1590 0.0000 22.8319
#
#
#
# Elastic Compliance Matrix: (Units=1/GPa)
#
#
# Indices 1 2 3 4 5 6 
#
# 1 0.012515 -0.000734 -0.003159 0.000000 0.002999 0.000000
# 2 -0.000734 0.009388 -0.007436 0.000000 -0.004781 0.000000
# 3 -0.003159 -0.007436 0.022392 0.000000 0.012603 0.000000
# 4 0.000000 0.000000 0.000000 0.036290 0.000000 0.006610
# 5 0.002999 -0.004781 0.012603 0.000000 0.039966 0.000000
# 6 0.000000 0.000000 0.000000 0.006610 0.000000 0.045002
#
#
# Mechanical properties :
#
#
# Convention : Reuss Voigt Hill
#
# Bulk Modulus (GPa) = 46.21637 58.41865 52.31751
# Shear Modulus (GPa) = 25.58547 31.07202 28.32874
#
# Velocity S-wave (km/s) = 3.45539 3.80790 3.63592
# Velocity P-wave (km/s) = 6.12266 6.82606 6.48391
#
# Compressibility (1/GPa) = 0.02163735
#
# Stress axis : x y z
#
# Youngs Moduli (GPa) = 79.90316 106.52141 44.65862
#
# Poissons Ratio (x) = 0.07816 0.14110
# Poissons Ratio (y) = 0.05863 0.33207
# Poissons Ratio (z) = 0.25245 0.79206
#
# Static dielectric constant tensor:
#      x y z
#    x 1.877070 0.000000 -0.008590 
#    y 0.000000 1.798120 0.000000 
#    z -0.008590 0.000000 1.911360 
# 
# From -- ./inp_files/6004.got.cif
#   From: 2010.05.17/outbox.cif.g08.bks.cpg/sg5_4_cif.got.tgz:6004.got - 2010.06.03 18:56:24.
