data_PCOD9122360
_publ_section_title
;
Structure prediction by ZEFSAII (Michael W. Deem and Ramdas Pophale) SiO2 
 PCOD9122360
Probable space group: C 2
;
_chemical_formula_sum "Si O2"
_cell_formula_units_Z 30
_cell_length_a 10.904505
_cell_length_b 14.188747
_cell_length_c 17.180686
_cell_angle_alpha 90.000000
_cell_angle_beta 32.714919
_cell_angle_gamma 90.000000
_cell_volume 1436.658649
_symmetry_space_group_name_H-M "C 2"
_symmetry_group_IT_number 5
_symmetry_cell_setting 'monoclinic'
loop_
_space_group_symop_operation_xyz
x,y,z
-x,y,-z
1/2+x,1/2+y,z
1/2-x,1/2+y,-z
loop_
_atom_site_type_symbol
_atom_site_label
_atom_site_fract_x
_atom_site_fract_y
_atom_site_fract_z
Si Si1 0.235291 0.206930 0.907411
Si Si2 0.339525 0.722493 0.713251
Si Si3 0.330498 0.521592 0.981903
Si Si4 0.323816 0.968768 0.526158
Si Si5 0.201531 0.750485 0.609507
Si Si6 0.671852 0.532838 0.199926
Si Si7 0.202586 0.434125 0.206147
Si Si8 0.000000 0.386209 0.000000
O O1 0.443150 0.217408 0.736735
O O2 0.270496 0.127462 0.952178
O O3 0.157438 0.313823 0.966230
O O4 0.000000 0.166878 0.000000
O O5 0.251045 0.718226 0.671649
O O6 0.612513 0.718657 0.552353
O O7 0.257751 0.635237 0.808102
O O8 0.273242 0.823374 0.785696
O O9 0.310423 0.511569 0.901015
O O10 0.592781 0.493321 0.862896
O O11 0.205798 0.457446 0.113110
O O12 0.500000 0.998278 0.500000
O O13 0.238670 0.862998 0.592248
O O14 0.469286 0.965676 0.370223
O O15 0.092500 0.024176 0.639781
O O16 0.837713 0.449935 0.140683
#
# Coordination Sequence:
#
# PCOD9122360 Si02
#       8
#     4   4   4   4   4   4   4   2
#     4  10  21  39  62  88 122 170 206 259 319 379
#     4  10  23  38  65  96 126 163 219 258 326 364
#     4  11  23  39  62  93 127 162 215 260 320 365
#     4  11  18  39  70  89 121 168 219 260 318 370
#     4  10  19  42  65  91 127 169 210 272 310 380
#     4  12  25  39  59  98 131 169 206 264 316 391
#     4  10  20  40  65  95 118 166 214 269 307 380
#     4  10  24  40  56  88 128 168 204 246 328 378
#
# _framework density 20.881786999999999
#
# number of rings (size 3 to 8) (size 9 to 14) (size 15 to 20)
#    0.400    1.067    6.667    0.000    3.733    2.133 
#    0.000    0.000    0.000    0.000    0.000    0.000 
#    0.000    0.000    0.000    0.000    0.000    0.000 
#
# Total GULP energy -83505.151583 kJ/mol
# GULP energy per Si atom -5567.010106 kJ/mol
# Density = 2.083426 g / cm^3
# Si number density = 20.881787 Si / 1000 Ang^3
#
#
#
# Elastic Constant Matrix: (Units=GPa)
#
#
# Indices 1 2 3 4 5 6 
#
# 1 36.0073 25.2956 33.0152 -0.0016 9.6602 0.0000
# 2 25.2956 145.1384 47.3194 -0.0093 4.9580 0.0019
# 3 33.0152 47.3194 124.6396 -0.0220 -8.7894 0.0053
# 4 -0.0016 -0.0093 -0.0220 23.9748 0.0049 2.1272
# 5 9.6602 4.9580 -8.7894 0.0049 36.6511 -0.0004
# 6 0.0000 0.0019 0.0053 2.1272 -0.0004 14.0622
#
#
#
# Elastic Compliance Matrix: (Units=1/GPa)
#
#
# Indices 1 2 3 4 5 6 
#
# 1 0.044494 -0.003553 -0.011423 -0.000007 -0.013986 0.000005
# 2 -0.003553 0.008267 -0.002248 0.000001 -0.000721 0.000000
# 3 -0.011423 -0.002248 0.012345 0.000009 0.006276 -0.000005
# 4 -0.000007 0.000001 0.000009 0.042278 -0.000002 -0.006395
# 5 -0.013986 -0.000721 0.006276 -0.000002 0.032573 -0.000001
# 6 0.000005 0.000000 -0.000005 -0.006395 -0.000001 0.072080
#
#
# Mechanical properties :
#
#
# Convention : Reuss Voigt Hill
#
# Bulk Modulus (GPa) = 32.61829 57.44951 45.03390
# Shear Modulus (GPa) = 19.47758 28.28129 23.87943
#
# Velocity S-wave (km/s) = 3.05742 3.68414 3.38531
# Velocity P-wave (km/s) = 5.30265 6.75786 6.07399
#
# Compressibility (1/GPa) = 0.03065764
#
# Stress axis : x y z
#
# Youngs Moduli (GPa) = 22.47472 120.96593 81.00347
#
# Poissons Ratio (x) = 0.42974 0.92534
# Poissons Ratio (y) = 0.07984 0.18212
# Poissons Ratio (z) = 0.25674 0.27197
#
# Static dielectric constant tensor:
#      x y z
#    x 1.880640 0.000000 -0.097160 
#    y 0.000000 1.798150 0.000000 
#    z -0.097160 0.000000 1.794900 
# 
# From -- ./inp_files/60642.got.cif
#   From: 2010.05.17/outbox.cif.g08.bks.cpg/sg5_31_cif.got.tgz:60642.got - 2010.06.03 18:56:24.
