data_PCOD9122261
_publ_section_title
;
Structure prediction by ZEFSAII (Michael W. Deem and Ramdas Pophale) SiO2 
 PCOD9122261
Probable space group: C 2
;
_chemical_formula_sum "Si O2"
_cell_formula_units_Z 28
_cell_length_a 8.810908
_cell_length_b 10.892358
_cell_length_c 15.505724
_cell_angle_alpha 90.000000
_cell_angle_beta 116.297716
_cell_angle_gamma 90.000000
_cell_volume 1334.095437
_symmetry_space_group_name_H-M "C 2"
_symmetry_group_IT_number 5
_symmetry_cell_setting 'monoclinic'
loop_
_space_group_symop_operation_xyz
x,y,z
-x,y,-z
1/2+x,1/2+y,z
1/2-x,1/2+y,-z
loop_
_atom_site_type_symbol
_atom_site_label
_atom_site_fract_x
_atom_site_fract_y
_atom_site_fract_z
Si Si1 0.426396 0.789380 0.256285
Si Si2 0.799288 0.539912 0.447110
Si Si3 0.999247 0.368102 0.092861
Si Si4 0.658738 0.784624 0.477493
Si Si5 0.197364 0.053855 0.043475
Si Si6 0.686249 0.520433 0.226226
Si Si7 0.799759 0.062382 0.142880
O O1 0.515163 0.795132 0.184992
O O2 0.570364 0.806245 0.363178
O O3 0.290309 0.895460 0.238169
O O4 0.325037 0.661672 0.224578
O O5 0.753999 0.655876 0.494309
O O6 0.739205 0.405327 0.465362
O O7 0.739751 0.565695 0.334362
O O8 0.000000 0.527706 0.500000
O O9 0.147527 0.469926 0.123859
O O10 0.820773 0.438303 0.058768
O O11 0.000000 0.301297 0.000000
O O12 0.500000 0.765736 0.500000
O O13 0.232970 0.097871 0.150766
O O14 0.228820 0.123351 0.960099
O O15 0.000000 0.018774 0.000000
O O16 0.484145 0.499737 0.180266
#
# Coordination Sequence:
#
# PCOD9122261 Si02
#       7
#     4   4   4   4   4   4   4
#     4  11  21  40  64  88 126 174 209 265 329 382
#     4  11  23  45  66  94 132 169 225 275 332 391
#     4   9  20  38  59  93 129 160 213 261 310 387
#     4  11  24  44  67  94 131 172 220 279 332 387
#     4   8  17  35  61  89 126 168 201 261 320 385
#     4  10  19  40  63  87 128 170 212 264 328 385
#     4  10  20  38  62  92 127 162 213 263 315 390
#
# _framework density 20.988005000000001
#
# number of rings (size 3 to 8) (size 9 to 14) (size 15 to 20)
#    0.000    2.000    4.286    0.000    0.000    3.429 
#    2.571   25.714    0.000    0.000    0.000    0.000 
#    0.000    0.000    0.000    0.000    0.000    0.000 
#
# Total GULP energy -77975.619584 kJ/mol
# GULP energy per Si atom -5569.687113 kJ/mol
# Density = 2.094024 g / cm^3
# Si number density = 20.988005 Si / 1000 Ang^3
#
#
#
# Elastic Constant Matrix: (Units=GPa)
#
#
# Indices 1 2 3 4 5 6 
#
# 1 67.5292 29.2539 5.6331 0.0000 -2.7726 0.0000
# 2 29.2539 74.0093 7.6361 0.0000 -7.6057 0.0000
# 3 5.6331 7.6361 115.5232 0.0000 -21.7145 0.0000
# 4 0.0000 0.0000 0.0000 9.1029 0.0000 -17.0150
# 5 -2.7726 -7.6057 -21.7145 0.0000 28.3121 0.0000
# 6 0.0000 0.0000 0.0000 -17.0150 0.0000 19.2564
#
#
#
# Elastic Compliance Matrix: (Units=1/GPa)
#
#
# Indices 1 2 3 4 5 6 
#
# 1 0.017894 -0.007076 -0.000506 0.000000 -0.000536 0.000000
# 2 -0.007076 0.016700 -0.000054 0.000000 0.003752 0.000000
# 3 -0.000506 -0.000054 0.010133 0.000000 0.007708 0.000000
# 4 0.000000 0.000000 0.000000 -0.168592 0.000000 -0.148968
# 5 -0.000536 0.003752 0.007708 0.000000 0.042188 0.000000
# 6 0.000000 0.000000 0.000000 -0.148968 0.000000 -0.079697
#
#
# Mechanical properties :
#
#
# Convention : Reuss Voigt Hill
#
# Bulk Modulus (GPa) = 33.94790 38.01198 35.97994
# Shear Modulus (GPa) = -36.68775 25.63686 -5.52544
#
# Velocity S-wave (km/s) = -4.18549 3.49879 -1.62431
# Velocity P-wave (km/s) = 2.67352 5.87134 3.69628
#
# Compressibility (1/GPa) = 0.02945691
#
# Stress axis : x y z
#
# Youngs Moduli (GPa) = 55.88501 59.88076 98.68429
#
# Poissons Ratio (x) = 0.42371 0.04990
# Poissons Ratio (y) = 0.39544 0.00528
# Poissons Ratio (z) = 0.02826 0.00321
#
# Static dielectric constant tensor:
#      x y z
#    x 1.748820 0.000000 -0.092440 
#    y 0.000000 1.805880 0.000000 
#    z -0.092440 0.000000 1.956870 
# 
# From -- ./inp_files/50245.got.cif
#   From: 2010.05.17/outbox.cif.g08.bks.cpg/sg5_26_cif.got.tgz:50245.got - 2010.06.03 18:56:24.
