data_PCOD9122289
_publ_section_title
;
Structure prediction by ZEFSAII (Michael W. Deem and Ramdas Pophale) SiO2 
 PCOD9122289
Probable space group: C 2
;
_chemical_formula_sum "Si O2"
_cell_formula_units_Z 26
_cell_length_a 14.784720
_cell_length_b 14.685441
_cell_length_c 7.846976
_cell_angle_alpha 90.000000
_cell_angle_beta 40.192354
_cell_angle_gamma 90.000000
_cell_volume 1099.516139
_symmetry_space_group_name_H-M "C 2"
_symmetry_group_IT_number 5
_symmetry_cell_setting 'monoclinic'
loop_
_space_group_symop_operation_xyz
x,y,z
-x,y,-z
1/2+x,1/2+y,z
1/2-x,1/2+y,-z
loop_
_atom_site_type_symbol
_atom_site_label
_atom_site_fract_x
_atom_site_fract_y
_atom_site_fract_z
Si Si1 0.492581 0.795380 0.702733
Si Si2 0.813684 0.800382 0.919070
Si Si3 0.914004 0.502601 0.398696
Si Si4 0.500000 0.118335 0.000000
Si Si5 0.000000 0.957735 0.500000
Si Si6 0.111970 0.963734 0.687757
Si Si7 0.714168 0.275095 0.639791
Si Si8 0.000000 0.648054 0.500000
O O1 0.500000 0.755979 0.500000
O O2 0.527324 0.903552 0.643104
O O3 0.621058 0.760424 0.632814
O O4 0.329955 0.783302 0.977894
O O5 0.881432 0.891850 0.749837
O O6 0.918508 0.716568 0.740622
O O7 0.788566 0.809737 0.158111
O O8 0.028389 0.551323 0.115075
O O9 0.767306 0.493761 0.514097
O O10 0.891273 0.575550 0.579667
O O11 0.373769 0.183551 0.235475
O O12 0.937396 0.004311 0.421638
O O13 0.135628 0.852912 0.643904
O O14 0.000000 0.980350 0.000000
#
# Coordination Sequence:
#
# PCOD9122289 Si02
#       8
#     4   4   4   2   2   4   4   2
#     4   9  20  39  67  91 123 170 219 267 323 391
#     4  10  20  38  67  98 128 170 228 265 322 407
#     4  11  25  40  64  97 133 170 214 278 344 379
#     4  12  22  40  62  90 134 168 216 272 326 392
#     4  11  22  36  72  98 123 172 234 267 324 392
#     4  11  23  44  66  97 132 176 226 274 324 404
#     4  10  19  40  67  91 129 179 219 266 326 394
#     4  11  22  42  64  96 131 176 218 273 342 394
#
# _framework density 23.646764000000001
#
# number of rings (size 3 to 8) (size 9 to 14) (size 15 to 20)
#    0.000    1.538    4.615    0.000    4.308    0.000 
#    2.769    0.000    1.692    0.000    0.000    0.000 
#    0.000    0.000    0.000    0.000    0.000    0.000 
#
# Total GULP energy -72600.093248 kJ/mol
# GULP energy per Si atom -5584.622558 kJ/mol
# Density = 2.359294 g / cm^3
# Si number density = 23.646764 Si / 1000 Ang^3
#
#
#
# Elastic Constant Matrix: (Units=GPa)
#
#
# Indices 1 2 3 4 5 6 
#
# 1 120.2898 10.3874 21.8499 0.0000 -9.7608 0.0000
# 2 10.3874 59.0829 5.1731 0.0000 -6.3419 0.0000
# 3 21.8499 5.1731 47.3799 0.0000 -21.4074 0.0000
# 4 0.0000 0.0000 0.0000 4.1141 0.0000 -7.5096
# 5 -9.7608 -6.3419 -21.4074 0.0000 41.1526 0.0000
# 6 0.0000 0.0000 0.0000 -7.5096 0.0000 14.0781
#
#
#
# Elastic Compliance Matrix: (Units=1/GPa)
#
#
# Indices 1 2 3 4 5 6 
#
# 1 0.009165 -0.001267 -0.004176 0.000000 -0.000194 0.000000
# 2 -0.001267 0.017414 -0.000314 0.000000 0.002220 0.000000
# 3 -0.004176 -0.000314 0.029540 -0.000003 0.014327 -0.000001
# 4 0.000000 0.000000 -0.000003 9.231888 -0.000001 4.924512
# 5 -0.000194 0.002220 0.014327 -0.000001 0.032049 0.000000
# 6 0.000000 0.000000 -0.000001 4.924512 0.000000 2.697886
#
#
# Mechanical properties :
#
#
# Convention : Reuss Voigt Hill
#
# Bulk Modulus (GPa) = 22.41890 33.50816 27.96353
# Shear Modulus (GPa) = 0.41513 24.49177 12.45345
#
# Velocity S-wave (km/s) = 0.41945 3.22177 2.29736
# Velocity P-wave (km/s) = 3.12024 5.29536 4.34608
#
# Compressibility (1/GPa) = 0.04460521
#
# Stress axis : x y z
#
# Youngs Moduli (GPa) = 109.10537 57.42567 33.85289
#
# Poissons Ratio (x) = 0.07273 0.14137
# Poissons Ratio (y) = 0.13818 0.01064
# Poissons Ratio (z) = 0.45562 0.01805
#
# Static dielectric constant tensor:
#      x y z
#    x 2.020270 0.000000 0.036570 
#    y 0.000000 1.851820 0.000000 
#    z 0.036570 0.000000 1.956770 
# 
# From -- ./inp_files/20515.got.cif
#   From: 2010.05.17/outbox.cif.g08.bks.cpg/sg5_11_cif.got.tgz:20515.got - 2010.06.03 18:56:24.
