data_PCOD9122567
_publ_section_title
;
Structure prediction by ZEFSAII (Michael W. Deem and Ramdas Pophale) SiO2 
 PCOD9122567
Probable space group: C 2
;
_chemical_formula_sum "Si O2"
_cell_formula_units_Z 24
_cell_length_a 9.513468
_cell_length_b 12.168579
_cell_length_c 10.775487
_cell_angle_alpha 90.000000
_cell_angle_beta 70.972273
_cell_angle_gamma 90.000000
_cell_volume 1179.270072
_symmetry_space_group_name_H-M "C 2"
_symmetry_group_IT_number 5
_symmetry_cell_setting 'monoclinic'
loop_
_space_group_symop_operation_xyz
x,y,z
-x,y,-z
1/2+x,1/2+y,z
1/2-x,1/2+y,-z
loop_
_atom_site_type_symbol
_atom_site_label
_atom_site_fract_x
_atom_site_fract_y
_atom_site_fract_z
Si Si1 0.414583 0.239380 0.401719
Si Si2 0.121469 0.184378 0.635299
Si Si3 0.000000 0.432557 0.000000
Si Si4 0.000000 0.350177 0.500000
Si Si5 0.157279 0.224710 0.912797
Si Si6 0.293974 0.450849 0.334640
Si Si7 0.899621 0.569737 0.810767
O O1 0.500000 0.280676 0.500000
O O2 0.257654 0.199606 0.501181
O O3 0.386304 0.338728 0.314523
O O4 0.505194 0.140417 0.313969
O O5 0.161629 0.223839 0.762000
O O6 0.997166 0.266507 0.617802
O O7 0.105143 0.053116 0.649902
O O8 0.999707 0.502870 0.876322
O O9 0.139715 0.348998 0.963917
O O10 0.852313 0.424261 0.538669
O O11 0.296997 0.155584 0.915632
O O12 0.000000 0.172150 0.000000
O O13 0.214731 0.491138 0.230998
#
# Coordination Sequence:
#
# PCOD9122567 Si02
#       7
#     4   4   2   2   4   4   4
#     4  11  21  39  65  94 128 159 204 260 307 375
#     4  10  20  39  60  89 125 157 199 255 305 359
#     4  10  24  42  68  86 118 178 206 248 316 356
#     4  10  20  34  58  90 118 156 202 238 302 382
#     4   9  21  42  59  86 122 158 207 252 292 366
#     4  10  21  35  61  86 124 162 190 252 315 350
#     4  11  22  45  60  91 126 159 212 260 304 362
#
# _framework density 20.351572000000001
#
# number of rings (size 3 to 8) (size 9 to 14) (size 15 to 20)
#    0.500    1.333    3.333    2.000    1.167    2.667 
#    9.000    0.000    0.000    0.000    0.000    0.000 
#    0.000    0.000    0.000    0.000    0.000    0.000 
#
# Total GULP energy -66838.605592 kJ/mol
# GULP energy per Si atom -5569.883799 kJ/mol
# Density = 2.030525 g / cm^3
# Si number density = 20.351572 Si / 1000 Ang^3
#
#
#
# Elastic Constant Matrix: (Units=GPa)
#
#
# Indices 1 2 3 4 5 6 
#
# 1 33.6502 21.7706 6.1942 0.0000 -0.8385 0.0000
# 2 21.7706 92.8832 24.4997 0.0000 12.3287 0.0000
# 3 6.1942 24.4997 48.4366 0.0000 -6.2803 0.0000
# 4 0.0000 0.0000 0.0000 20.0887 0.0000 -1.0185
# 5 -0.8385 12.3287 -6.2803 0.0000 27.4619 0.0000
# 6 0.0000 0.0000 0.0000 -1.0185 0.0000 10.3978
#
#
#
# Elastic Compliance Matrix: (Units=1/GPa)
#
#
# Indices 1 2 3 4 5 6 
#
# 1 0.035731 -0.009328 0.000859 0.000000 0.005475 0.000000
# 2 -0.009328 0.016427 -0.008357 0.000000 -0.009571 0.000000
# 3 0.000859 -0.008357 0.026024 0.000000 0.009730 0.000000
# 4 0.000000 0.000000 0.000000 0.050028 0.000000 0.004901
# 5 0.005475 -0.009571 0.009730 0.000000 0.043103 0.000000
# 6 0.000000 0.000000 0.000000 0.004901 0.000000 0.096654
#
#
# Mechanical properties :
#
#
# Convention : Reuss Voigt Hill
#
# Bulk Modulus (GPa) = 22.45694 31.09987 26.77841
# Shear Modulus (GPa) = 15.79959 19.75670 17.77815
#
# Velocity S-wave (km/s) = 2.78930 3.11910 2.95880
# Velocity P-wave (km/s) = 4.62947 5.31848 4.98589
#
# Compressibility (1/GPa) = 0.04452966
#
# Stress axis : x y z
#
# Youngs Moduli (GPa) = 27.98705 60.87415 38.42541
#
# Poissons Ratio (x) = 0.56784 -0.03300
# Poissons Ratio (y) = 0.26107 0.32113
# Poissons Ratio (z) = -0.02404 0.50874
#
# Static dielectric constant tensor:
#      x y z
#    x 1.746860 0.000000 -0.011510 
#    y 0.000000 1.768230 0.000000 
#    z -0.011510 0.000000 1.708150 
# 
# From -- ./inp_files/38756.got.cif
#   From: 2010.05.17/outbox.cif.g08.bks.cpg/sg5_20_cif.got.tgz:38756.got - 2010.06.03 18:56:24.
