data_PCOD9122385
_publ_section_title
;
Structure prediction by ZEFSAII (Michael W. Deem and Ramdas Pophale) SiO2 
 PCOD9122385
Probable space group: C 2
;
_chemical_formula_sum "Si O2"
_cell_formula_units_Z 24
_cell_length_a 11.544912
_cell_length_b 7.235727
_cell_length_c 23.330780
_cell_angle_alpha 90.000000
_cell_angle_beta 31.008754
_cell_angle_gamma 90.000000
_cell_volume 1004.041831
_symmetry_space_group_name_H-M "C 2"
_symmetry_group_IT_number 5
_symmetry_cell_setting 'monoclinic'
loop_
_space_group_symop_operation_xyz
x,y,z
-x,y,-z
1/2+x,1/2+y,z
1/2-x,1/2+y,-z
loop_
_atom_site_type_symbol
_atom_site_label
_atom_site_fract_x
_atom_site_fract_y
_atom_site_fract_z
Si Si1 0.278151 0.812610 0.628470
Si Si2 0.674579 0.262411 0.247199
Si Si3 0.146401 0.450390 0.072371
Si Si4 0.543355 0.329001 0.837974
Si Si5 0.677696 0.863199 0.182097
Si Si6 0.331105 0.368226 0.620823
O O1 0.500000 0.874912 0.500000
O O2 0.213763 0.897071 0.717467
O O3 0.322882 0.593967 0.623997
O O4 0.048576 0.838050 0.689946
O O5 0.614187 0.287346 0.340190
O O6 0.922799 0.355942 0.141841
O O7 0.701913 0.062628 0.204492
O O8 0.243255 0.349411 0.087960
O O9 0.086257 0.645755 0.126909
O O10 0.345143 0.463152 0.942292
O O11 0.675759 0.247916 0.836410
O O12 0.417998 0.810497 0.291731
O O13 0.500000 0.310971 0.500000
#
# Coordination Sequence:
#
# PCOD9122385 Si02
#       6
#     4   4   4   4   4   4
#     4  10  22  42  66  97 134 173 213 266 330 379
#     4  10  19  43  67  89 135 171 213 272 323 385
#     4  11  24  44  63  95 130 172 218 268 329 379
#     4  12  23  44  67  94 131 174 215 269 324 387
#     4  10  22  42  61  92 133 168 213 273 326 375
#     4   9  19  39  66  95 131 176 212 263 329 384
#
# _framework density 23.903388
#
# number of rings (size 3 to 8) (size 9 to 14) (size 15 to 20)
#    0.000    1.667    5.000    1.500    2.333    0.667 
#   12.000    0.833    0.000    0.000    0.000    0.000 
#    0.000    0.000    0.000    0.000    0.000    0.000 
#
# Total GULP energy -66955.971148 kJ/mol
# GULP energy per Si atom -5579.664262 kJ/mol
# Density = 2.384898 g / cm^3
# Si number density = 23.903388 Si / 1000 Ang^3
#
#
#
# Elastic Constant Matrix: (Units=GPa)
#
#
# Indices 1 2 3 4 5 6 
#
# 1 154.4783 40.7520 42.7068 0.0000 0.1657 0.0000
# 2 40.7520 67.3257 23.8100 0.0000 13.4431 0.0000
# 3 42.7068 23.8100 178.8264 -0.0001 20.3993 0.0000
# 4 0.0000 0.0000 -0.0001 11.5907 0.0000 2.3995
# 5 0.1657 13.4431 20.3993 0.0000 29.9770 0.0000
# 6 0.0000 0.0000 0.0000 2.3995 0.0000 25.2034
#
#
#
# Elastic Compliance Matrix: (Units=1/GPa)
#
#
# Indices 1 2 3 4 5 6 
#
# 1 0.008279 -0.005091 -0.001685 0.000000 0.003384 0.000000
# 2 -0.005091 0.019799 -0.000445 0.000000 -0.008548 0.000000
# 3 -0.001685 -0.000445 0.006537 0.000000 -0.004240 0.000000
# 4 0.000000 0.000000 0.000000 0.088011 0.000000 -0.008379
# 5 0.003384 -0.008548 -0.004240 0.000000 0.040058 0.000000
# 6 0.000000 0.000000 0.000000 -0.008379 0.000000 0.040475
#
#
# Mechanical properties :
#
#
# Convention : Reuss Voigt Hill
#
# Bulk Modulus (GPa) = 49.57331 68.35198 58.96265
# Shear Modulus (GPa) = 22.28901 32.91164 27.60033
#
# Velocity S-wave (km/s) = 3.05694 3.71463 3.40172
# Velocity P-wave (km/s) = 5.76575 6.85968 6.33637
#
# Compressibility (1/GPa) = 0.02017214
#
# Stress axis : x y z
#
# Youngs Moduli (GPa) = 120.79281 50.50818 152.96549
#
# Poissons Ratio (x) = 0.25712 0.25779
# Poissons Ratio (y) = 0.61492 0.06812
# Poissons Ratio (z) = 0.20357 0.02249
#
# Static dielectric constant tensor:
#      x y z
#    x 1.912670 0.000000 0.027650 
#    y 0.000000 2.024270 0.000000 
#    z 0.027650 0.000000 1.900450 
# 
# From -- ./inp_files/68249.got.cif
#   From: 2010.05.17/outbox.cif.g08.bks.cpg/sg5_35_cif.got.tgz:68249.got - 2010.06.03 18:56:24.
