data_PCOD9122165
_publ_section_title
;
Structure prediction by ZEFSAII (Michael W. Deem and Ramdas Pophale) SiO2 
 PCOD9122165
Probable space group: C 2
;
_chemical_formula_sum "Si O2"
_cell_formula_units_Z 28
_cell_length_a 7.897553
_cell_length_b 30.656708
_cell_length_c 7.108132
_cell_angle_alpha 90.000000
_cell_angle_beta 43.153778
_cell_angle_gamma 90.000000
_cell_volume 1177.073265
_symmetry_space_group_name_H-M "C 2"
_symmetry_group_IT_number 5
_symmetry_cell_setting 'monoclinic'
loop_
_space_group_symop_operation_xyz
x,y,z
-x,y,-z
1/2+x,1/2+y,z
1/2-x,1/2+y,-z
loop_
_atom_site_type_symbol
_atom_site_label
_atom_site_fract_x
_atom_site_fract_y
_atom_site_fract_z
Si Si1 0.432544 0.286800 0.773466
Si Si2 0.825680 0.153875 0.383147
Si Si3 0.572194 0.553477 0.665130
Si Si4 0.000000 0.852254 0.000000
Si Si5 0.929893 0.408949 0.773169
Si Si6 0.165732 0.687208 0.099993
Si Si7 0.500000 0.844318 0.000000
Si Si8 0.431853 0.011113 0.840739
O O1 0.500000 0.285440 0.500000
O O2 0.400169 0.237777 0.868203
O O3 0.607114 0.317070 0.761903
O O4 0.171473 0.311889 0.979075
O O5 0.870592 0.102700 0.321265
O O6 0.748146 0.176628 0.248979
O O7 0.590930 0.160926 0.709536
O O8 0.092755 0.174159 0.213797
O O9 0.500000 0.554232 0.500000
O O10 0.828402 0.526456 0.471612
O O11 0.335295 0.533762 0.966286
O O12 0.833703 0.884841 0.012374
O O13 0.911672 0.459018 0.843341
O O14 0.000000 0.406452 0.500000
O O15 0.105784 0.379562 0.763624
O O16 0.500000 0.022179 0.000000
#
# Coordination Sequence:
#
# PCOD9122165 Si02
#       8
#     4   4   4   2   4   4   2   4
#     4  11  21  42  66  94 132 177 219 281 338 403
#     4  10  19  39  59  94 121 168 214 277 310 406
#     4  10  22  41  65  94 131 173 222 276 339 401
#     4  10  26  42  62 102 132 170 232 280 334 408
#     4  11  23  43  63  98 134 172 231 279 337 410
#     4  10  21  37  64  88 131 165 225 258 331 397
#     4  10  22  40  70  90 126 182 218 280 348 396
#     4  10  22  43  67  94 131 180 223 273 337 408
#
# _framework density 23.787813
#
# number of rings (size 3 to 8) (size 9 to 14) (size 15 to 20)
#    0.000    1.714    2.143    2.571    2.000    0.000 
#   10.286    0.000    0.000    0.000    0.000    0.000 
#    0.000    0.000    0.000    0.000    0.000    0.000 
#
# Total GULP energy -78155.318675 kJ/mol
# GULP energy per Si atom -5582.522763 kJ/mol
# Density = 2.373367 g / cm^3
# Si number density = 23.787813 Si / 1000 Ang^3
#
#
#
# Elastic Constant Matrix: (Units=GPa)
#
#
# Indices 1 2 3 4 5 6 
#
# 1 104.9102 24.3479 23.8886 0.0000 -7.5850 0.0000
# 2 24.3479 184.3213 56.8643 0.0000 -27.6658 0.0000
# 3 23.8886 56.8643 142.6930 0.0000 -21.3267 0.0000
# 4 0.0000 0.0000 0.0000 35.2372 0.0000 -2.2296
# 5 -7.5850 -27.6658 -21.3267 0.0000 23.7969 0.0000
# 6 0.0000 0.0000 0.0000 -2.2296 0.0000 39.0045
#
#
#
# Elastic Compliance Matrix: (Units=1/GPa)
#
#
# Indices 1 2 3 4 5 6 
#
# 1 0.010073 -0.000777 -0.001191 0.000000 0.001240 0.000000
# 2 -0.000777 0.007012 -0.001712 0.000000 0.006370 0.000000
# 3 -0.001191 -0.001712 0.008701 0.000000 0.005427 0.000000
# 4 0.000000 0.000000 0.000000 0.028482 0.000000 0.001628
# 5 0.001240 0.006370 0.005427 0.000000 0.054687 0.000000
# 6 0.000000 0.000000 0.000000 0.001628 0.000000 0.025731
#
#
# Mechanical properties :
#
#
# Convention : Reuss Voigt Hill
#
# Bulk Modulus (GPa) = 54.27388 71.34735 62.81062
# Shear Modulus (GPa) = 33.74042 41.39598 37.56820
#
# Velocity S-wave (km/s) = 3.77024 4.17612 3.97836
# Velocity P-wave (km/s) = 6.46671 7.30148 6.89674
#
# Compressibility (1/GPa) = 0.01842507
#
# Stress axis : x y z
#
# Youngs Moduli (GPa) = 99.27318 142.60572 114.92848
#
# Poissons Ratio (x) = 0.11080 0.13693
# Poissons Ratio (y) = 0.07713 0.19679
# Poissons Ratio (z) = 0.11828 0.24419
#
# Static dielectric constant tensor:
#      x y z
#    x 2.010750 0.000000 0.009310 
#    y 0.000000 1.803900 0.000000 
#    z 0.009310 0.000000 1.963610 
# 
# From -- ./inp_files/17544.got.cif
#   From: 2010.05.17/outbox.cif.g08.bks.cpg/sg5_9_cif.got.tgz:17544.got - 2010.06.03 18:56:24.
