data_PCOD9122563
_publ_section_title
;
Structure prediction by ZEFSAII (Michael W. Deem and Ramdas Pophale) SiO2 
 PCOD9122563
Probable space group: C 2
;
_chemical_formula_sum "Si O2"
_cell_formula_units_Z 30
_cell_length_a 14.293469
_cell_length_b 18.060765
_cell_length_c 11.054896
_cell_angle_alpha 90.000000
_cell_angle_beta 31.467833
_cell_angle_gamma 90.000000
_cell_volume 1489.756940
_symmetry_space_group_name_H-M "C 2"
_symmetry_group_IT_number 5
_symmetry_cell_setting 'monoclinic'
loop_
_space_group_symop_operation_xyz
x,y,z
-x,y,-z
1/2+x,1/2+y,z
1/2-x,1/2+y,-z
loop_
_atom_site_type_symbol
_atom_site_label
_atom_site_fract_x
_atom_site_fract_y
_atom_site_fract_z
Si Si1 0.500000 0.396860 0.500000
Si Si2 0.481492 0.440416 0.878432
Si Si3 0.912541 0.487424 0.731548
Si Si4 0.884953 0.411376 0.001284
Si Si5 0.079140 0.097859 0.777669
Si Si6 0.987215 0.649387 0.372925
Si Si7 0.602269 0.299065 0.614265
Si Si8 0.005255 0.252579 0.139775
O O1 0.576842 0.343612 0.518308
O O2 0.320252 0.437842 0.746939
O O3 0.568329 0.516547 0.731019
O O4 0.554447 0.361311 0.761692
O O5 0.500000 0.444207 0.000000
O O6 0.275469 0.447143 0.072275
O O7 0.982815 0.453131 0.781228
O O8 0.000000 0.479402 0.500000
O O9 0.895296 0.575704 0.770121
O O10 0.871177 0.324211 0.977369
O O11 0.000000 0.415538 0.000000
O O12 0.285596 0.121046 0.567031
O O13 0.972871 0.168285 0.838193
O O14 0.000000 0.089814 0.000000
O O15 0.011535 0.723286 0.267766
O O16 0.000000 0.671609 0.500000
O O17 0.808905 0.277074 0.398589
O O18 0.000000 0.244246 0.000000
#
# Coordination Sequence:
#
# PCOD9122563 Si02
#       8
#     2   4   4   4   4   4   4   4
#     4  12  20  36  60  92 120 152 208 248 318 366
#     4  11  23  38  58  87 125 166 201 254 314 385
#     4  11  24  39  59  94 123 166 212 253 323 370
#     4  11  23  38  63  95 129 165 205 268 311 380
#     4   9  18  32  54  84 115 152 194 249 312 365
#     4  10  20  34  58  87 119 154 204 265 307 360
#     4  11  21  35  59  90 119 155 206 261 313 366
#     4   9  18  33  56  87 116 151 194 254 315 356
#
# _framework density 20.137515
#
# number of rings (size 3 to 8) (size 9 to 14) (size 15 to 20)
#    0.000    1.600    4.667    3.200    3.733    1.067 
#    0.000    0.667    0.000    0.000    3.467    0.000 
#    0.000    0.000    0.000    0.000    0.000    0.000 
#
# Total GULP energy -83528.986906 kJ/mol
# GULP energy per Si atom -5568.599127 kJ/mol
# Density = 2.009168 g / cm^3
# Si number density = 20.137515 Si / 1000 Ang^3
#
#
#
# Elastic Constant Matrix: (Units=GPa)
#
#
# Indices 1 2 3 4 5 6 
#
# 1 58.3386 28.4354 16.1162 0.0017 9.3791 0.0019
# 2 28.4354 148.6848 45.5381 0.0025 17.0070 0.0011
# 3 16.1162 45.5381 72.8621 0.0026 -3.3345 -0.0006
# 4 0.0017 0.0025 0.0026 43.2403 -0.0019 -3.1965
# 5 9.3791 17.0070 -3.3345 -0.0019 21.9947 -0.0012
# 6 0.0019 0.0011 -0.0006 -3.1965 -0.0012 30.8474
#
#
#
# Elastic Compliance Matrix: (Units=1/GPa)
#
#
# Indices 1 2 3 4 5 6 
#
# 1 0.020320 -0.001868 -0.003683 -0.000001 -0.007779 -0.000002
# 2 -0.001868 0.009830 -0.006084 -0.000001 -0.007727 -0.000001
# 3 -0.003683 -0.006084 0.018759 0.000000 0.009119 0.000001
# 4 -0.000001 -0.000001 0.000000 0.023305 0.000003 0.002415
# 5 -0.007779 -0.007727 0.009119 0.000003 0.056139 0.000003
# 6 -0.000002 -0.000001 0.000001 0.002415 0.000003 0.032668
#
#
# Mechanical properties :
#
#
# Convention : Reuss Voigt Hill
#
# Bulk Modulus (GPa) = 39.00382 51.11830 45.06106
# Shear Modulus (GPa) = 25.92850 31.86954 28.89902
#
# Velocity S-wave (km/s) = 3.59217 3.98250 3.79236
# Velocity P-wave (km/s) = 6.05109 6.82545 6.44990
#
# Compressibility (1/GPa) = 0.02563852
#
# Stress axis : x y z
#
# Youngs Moduli (GPa) = 49.21273 101.72785 53.30796
#
# Poissons Ratio (x) = 0.19007 0.19632
# Poissons Ratio (y) = 0.09195 0.32433
# Poissons Ratio (z) = 0.18124 0.61892
#
# Static dielectric constant tensor:
#      x y z
#    x 1.705370 0.000000 -0.022070 
#    y 0.000000 1.770210 0.000000 
#    z -0.022070 0.000000 1.771860 
# 
# From -- ./inp_files/43305.got.cif
#   From: 2010.05.17/outbox.cif.g08.bks.cpg/sg5_22_cif.got.tgz:43305.got - 2010.06.03 18:56:24.
