data_PCOD9122641
_publ_section_title
;
Structure prediction by ZEFSAII (Michael W. Deem and Ramdas Pophale) SiO2 
 PCOD9122641
Probable space group: C 2
;
_chemical_formula_sum "Si O2"
_cell_formula_units_Z 26
_cell_length_a 11.273472
_cell_length_b 19.287233
_cell_length_c 5.931036
_cell_angle_alpha 90.000000
_cell_angle_beta 99.167026
_cell_angle_gamma 90.000000
_cell_volume 1273.138619
_symmetry_space_group_name_H-M "C 2"
_symmetry_group_IT_number 5
_symmetry_cell_setting 'monoclinic'
loop_
_space_group_symop_operation_xyz
x,y,z
-x,y,-z
1/2+x,1/2+y,z
1/2-x,1/2+y,-z
loop_
_atom_site_type_symbol
_atom_site_label
_atom_site_fract_x
_atom_site_fract_y
_atom_site_fract_z
Si Si1 0.900450 0.383250 0.115790
Si Si2 0.634388 0.547802 0.644451
Si Si3 0.000000 0.871023 0.000000
Si Si4 0.500000 0.781559 0.500000
Si Si5 0.817961 0.177106 0.610836
Si Si6 0.200190 0.917702 0.389112
Si Si7 0.500000 0.603572 0.000000
Si Si8 0.800049 0.803947 0.240679
O O1 0.818302 0.423891 0.270363
O O2 0.981926 0.329926 0.280958
O O3 0.806987 0.338635 0.938423
O O4 0.000000 0.423962 0.000000
O O5 0.500000 0.549982 0.500000
O O6 0.708840 0.610740 0.553270
O O7 0.689910 0.476149 0.577590
O O8 0.601089 0.560153 0.894314
O O9 0.918321 0.823770 0.137069
O O10 0.086013 0.916533 0.187111
O O11 0.384550 0.733157 0.476155
O O12 0.721025 0.222721 0.716099
O O13 0.921841 0.151349 0.811965
O O14 0.198754 0.845190 0.522256
#
# Coordination Sequence:
#
# PCOD9122641 Si02
#       8
#     4   4   2   2   4   4   2   4
#     4  11  21  34  61  90 118 153 193 246 296 350
#     4  10  22  35  56  83 123 154 189 244 294 355
#     4  10  24  39  60  84 118 163 204 238 288 353
#     4  12  18  36  56  96 124 140 192 244 304 352
#     4  11  20  33  58  88 120 152 186 249 294 351
#     4  11  23  40  57  88 121 159 198 244 294 348
#     4  10  20  35  56  88 122 151 192 236 306 357
#     4  11  22  36  60  87 121 156 199 245 291 345
#
# _framework density 20.421972
#
# number of rings (size 3 to 8) (size 9 to 14) (size 15 to 20)
#    0.000    1.231    5.385    2.308    0.000    8.000 
#    0.000    0.000    1.692    0.000    8.000    0.000 
#    0.000    0.000    0.000    0.000    0.000    0.000 
#
# Total GULP energy -72549.184300 kJ/mol
# GULP energy per Si atom -5580.706485 kJ/mol
# Density = 2.037549 g / cm^3
# Si number density = 20.421972 Si / 1000 Ang^3
#
#
#
# Elastic Constant Matrix: (Units=GPa)
#
#
# Indices 1 2 3 4 5 6 
#
# 1 104.5796 37.9126 22.0867 0.0000 -45.2113 0.0000
# 2 37.9126 100.8390 25.7233 0.0000 -20.3035 0.0000
# 3 22.0867 25.7233 70.9802 0.0000 -19.7145 0.0000
# 4 0.0000 0.0000 0.0000 17.2849 0.0000 -0.5722
# 5 -45.2113 -20.3035 -19.7145 0.0000 41.0795 0.0000
# 6 0.0000 0.0000 0.0000 -0.5722 0.0000 5.4446
#
#
#
# Elastic Compliance Matrix: (Units=1/GPa)
#
#
# Indices 1 2 3 4 5 6 
#
# 1 0.019209 -0.003428 0.000769 0.000000 0.019816 0.000000
# 2 -0.003428 0.012152 -0.003135 0.000000 0.000728 0.000000
# 3 0.000769 -0.003135 0.017065 0.000000 0.007486 0.000000
# 4 0.000000 0.000000 0.000000 0.058056 0.000000 0.006102
# 5 0.019816 0.000728 0.007486 0.000000 0.050105 0.000000
# 6 0.000000 0.000000 0.000000 0.006102 0.000000 0.184308
#
#
# Mechanical properties :
#
#
# Convention : Reuss Voigt Hill
#
# Bulk Modulus (GPa) = 27.14629 49.76045 38.45337
# Shear Modulus (GPa) = 13.70753 25.47355 19.59054
#
# Velocity S-wave (km/s) = 2.59359 3.53563 3.10060
# Velocity P-wave (km/s) = 4.72128 6.40988 5.62926
#
# Compressibility (1/GPa) = 0.03683745
#
# Stress axis : x y z
#
# Youngs Moduli (GPa) = 52.05799 82.29009 58.60106
#
# Poissons Ratio (x) = 0.28213 -0.04506
# Poissons Ratio (y) = 0.17848 0.18370
# Poissons Ratio (z) = -0.04003 0.25796
#
# Static dielectric constant tensor:
#      x y z
#    x 1.772550 0.000000 -0.029820 
#    y 0.000000 1.729690 0.000000 
#    z -0.029820 0.000000 1.791630 
# 
# From -- ./inp_files/5370.got.cif
#   From: 2010.05.17/outbox.cif.g08.bks.cpg/sg5_3_cif.got.tgz:5370.got - 2010.06.03 18:56:24.
