data_PCOD9122976
_publ_section_title
;
Structure prediction by ZEFSAII (Michael W. Deem and Ramdas Pophale) SiO2 
 PCOD9122976
Probable space group: C 2
;
_chemical_formula_sum "Si O2"
_cell_formula_units_Z 30
_cell_length_a 12.495235
_cell_length_b 13.857549
_cell_length_c 8.260381
_cell_angle_alpha 90.000000
_cell_angle_beta 71.121827
_cell_angle_gamma 90.000000
_cell_volume 1353.374102
_symmetry_space_group_name_H-M "C 2"
_symmetry_group_IT_number 5
_symmetry_cell_setting 'monoclinic'
loop_
_space_group_symop_operation_xyz
x,y,z
-x,y,-z
1/2+x,1/2+y,z
1/2-x,1/2+y,-z
loop_
_atom_site_type_symbol
_atom_site_label
_atom_site_fract_x
_atom_site_fract_y
_atom_site_fract_z
Si Si1 0.500000 0.256500 0.500000
Si Si2 0.192346 0.745942 0.172430
Si Si3 0.868440 0.627230 0.107064
Si Si4 0.388796 0.485491 0.156709
Si Si5 0.429592 0.686337 0.204614
Si Si6 0.782537 0.443346 0.007734
Si Si7 0.314953 0.291629 0.356214
Si Si8 0.076258 0.336147 0.331608
O O1 0.574921 0.212313 0.315924
O O2 0.391284 0.309647 0.476394
O O3 0.304561 0.726525 0.224532
O O4 0.195666 0.690408 0.999167
O O5 0.203368 0.859455 0.120097
O O6 0.844032 0.684058 0.283441
O O7 0.830771 0.516273 0.116650
O O8 0.000000 0.632069 0.000000
O O9 0.408468 0.575090 0.266228
O O10 0.287596 0.509011 0.083442
O O11 0.361863 0.379023 0.226786
O O12 0.500000 0.477898 0.000000
O O13 0.502455 0.748735 0.293894
O O14 0.500000 0.686552 0.000000
O O15 0.877715 0.393698 0.847454
O O16 0.182199 0.302101 0.389020
O O17 0.000000 0.392924 0.500000
#
# Coordination Sequence:
#
# PCOD9122976 Si02
#       8
#     2   4   4   4   4   4   4   4
#     4  12  26  44  68  98 138 190 228 292 348 400
#     4  12  23  45  69  98 140 181 236 286 349 420
#     4  12  23  43  72 101 133 185 237 281 349 423
#     4  10  20  36  69 101 132 176 231 286 336 409
#     4  11  21  40  70 102 134 182 236 282 348 420
#     4  11  24  42  72 101 136 183 237 279 348 423
#     4  11  23  46  66  99 139 185 233 286 349 414
#     4  11  24  45  69 100 146 183 228 297 353 413
#
# _framework density 22.166817999999999
#
# number of rings (size 3 to 8) (size 9 to 14) (size 15 to 20)
#    0.000    0.800    6.667    2.000    3.733    0.000 
#    2.400    1.333    0.000    0.000    0.000    0.000 
#    0.000    0.000    0.000    0.000    0.000    0.000 
#
# Total GULP energy -83567.884425 kJ/mol
# GULP energy per Si atom -5571.192295 kJ/mol
# Density = 2.211637 g / cm^3
# Si number density = 22.166818 Si / 1000 Ang^3
#
#
#
# Elastic Constant Matrix: (Units=GPa)
#
#
# Indices 1 2 3 4 5 6 
#
# 1 125.2761 40.6484 11.7994 0.0000 3.9201 0.0000
# 2 40.6484 96.0419 11.5875 0.0000 -2.1796 0.0000
# 3 11.7994 11.5875 56.4079 0.0000 -14.1329 0.0000
# 4 0.0000 0.0000 0.0000 5.3834 0.0000 -4.1091
# 5 3.9201 -2.1796 -14.1329 0.0000 40.1208 0.0000
# 6 0.0000 0.0000 0.0000 -4.1091 0.0000 56.0666
#
#
#
# Elastic Compliance Matrix: (Units=1/GPa)
#
#
# Indices 1 2 3 4 5 6 
#
# 1 0.009432 -0.003836 -0.001610 0.000000 -0.001697 0.000000
# 2 -0.003836 0.012239 -0.001592 0.000000 0.000479 0.000000
# 3 -0.001610 -0.001592 0.020192 0.000000 0.007184 0.000000
# 4 0.000000 0.000000 0.000000 0.196763 0.000000 0.014421
# 5 -0.001697 0.000479 0.007184 0.000000 0.027647 0.000000
# 6 0.000000 0.000000 0.000000 0.014421 0.000000 0.018893
#
#
# Mechanical properties :
#
#
# Convention : Reuss Voigt Hill
#
# Bulk Modulus (GPa) = 35.98905 45.08850 40.53878
# Shear Modulus (GPa) = 16.20732 34.56020 25.38376
#
# Velocity S-wave (km/s) = 2.70692 3.95282 3.38764
# Velocity P-wave (km/s) = 5.10300 6.42011 5.79907
#
# Compressibility (1/GPa) = 0.02778623
#
# Stress axis : x y z
#
# Youngs Moduli (GPa) = 106.02380 81.70854 49.52552
#
# Poissons Ratio (x) = 0.31345 0.07974
# Poissons Ratio (y) = 0.40672 0.07883
# Poissons Ratio (z) = 0.17071 0.13005
#
# Static dielectric constant tensor:
#      x y z
#    x 1.885340 0.000000 0.064620 
#    y 0.000000 1.837360 0.000000 
#    z 0.064620 0.000000 1.982200 
# 
# From -- ./inp_files/20628.got.cif
#   From: 2010.05.17/outbox.cif.g08.bks.cpg/sg5_11_cif.got.tgz:20628.got - 2010.06.03 18:56:24.
