data_PCOD9122036
_publ_section_title
;
Structure prediction by ZEFSAII (Michael W. Deem and Ramdas Pophale) SiO2 
 PCOD9122036
Probable space group: C 2
;
_chemical_formula_sum "Si O2"
_cell_formula_units_Z 20
_cell_length_a 12.817615
_cell_length_b 14.970786
_cell_length_c 10.016002
_cell_angle_alpha 90.000000
_cell_angle_beta 36.205551
_cell_angle_gamma 90.000000
_cell_volume 1135.275646
_symmetry_space_group_name_H-M "C 2"
_symmetry_group_IT_number 5
_symmetry_cell_setting 'monoclinic'
loop_
_space_group_symop_operation_xyz
x,y,z
-x,y,-z
1/2+x,1/2+y,z
1/2-x,1/2+y,-z
loop_
_atom_site_type_symbol
_atom_site_label
_atom_site_fract_x
_atom_site_fract_y
_atom_site_fract_z
Si Si1 0.000000 0.943550 0.500000
Si Si2 0.461098 0.092265 0.197283
Si Si3 0.354812 0.575293 0.876965
Si Si4 0.351654 0.895567 0.268778
Si Si5 0.352407 0.708374 0.377894
Si Si6 0.000000 0.100386 0.000000
O O1 0.159288 0.889467 0.400690
O O2 0.088112 0.004709 0.293970
O O3 0.324626 0.169042 0.376882
O O4 0.372689 0.994461 0.309304
O O5 0.500000 0.098080 0.000000
O O6 0.648445 0.094920 0.077811
O O7 0.477470 0.662608 0.728559
O O8 0.409487 0.547725 0.971783
O O9 0.369444 0.813882 0.351413
O O10 0.500000 0.888153 0.000000
O O11 0.363947 0.666201 0.216193
#
# Coordination Sequence:
#
# PCOD9122036 Si02
#       6
#     2   4   4   4   4   2
#     4  12  20  36  70  90 122 166 222 262 298 376
#     4  11  21  37  67  90 122 173 216 251 320 375
#     4  10  19  38  58  90 126 164 203 260 314 367
#     4  11  20  36  62  99 117 162 220 261 303 379
#     4  10  21  38  58  94 130 157 210 262 312 370
#     4   8  20  34  56  88 124 162 190 258 316 354
#
# _framework density 17.616866999999999
#
# number of rings (size 3 to 8) (size 9 to 14) (size 15 to 20)
#    1.200    0.400    7.000    0.000    0.000    4.000 
#    0.000    0.000    8.800    9.600    0.000    0.000 
#    0.000    0.000    0.000    0.000    0.000    0.000 
#
# Total GULP energy -55673.816693 kJ/mol
# GULP energy per Si atom -5567.381669 kJ/mol
# Density = 1.757677 g / cm^3
# Si number density = 17.616867 Si / 1000 Ang^3
#
#
#
# Elastic Constant Matrix: (Units=GPa)
#
#
# Indices 1 2 3 4 5 6 
#
# 1 73.1041 -7.1791 10.0912 -0.0003 -15.3487 0.0000
# 2 -7.1791 46.5607 13.0969 -0.0004 2.8331 0.0001
# 3 10.0912 13.0969 67.7770 -0.0011 -15.9971 0.0005
# 4 -0.0003 -0.0004 -0.0011 8.2345 0.0005 -0.7137
# 5 -15.3487 2.8331 -15.9971 0.0005 43.7263 -0.0002
# 6 0.0000 0.0001 0.0005 -0.7137 -0.0002 17.8325
#
#
#
# Elastic Compliance Matrix: (Units=1/GPa)
#
#
# Indices 1 2 3 4 5 6 
#
# 1 0.015108 0.002523 -0.001668 0.000000 0.004530 0.000000
# 2 0.002523 0.023596 -0.005568 0.000001 -0.002680 0.000000
# 3 -0.001668 -0.005568 0.017540 0.000002 0.006192 0.000000
# 4 0.000000 0.000001 0.000002 0.121863 -0.000001 0.004878
# 5 0.004530 -0.002680 0.006192 -0.000001 0.026899 0.000000
# 6 0.000000 0.000000 0.000000 0.004878 0.000000 0.056273
#
#
# Mechanical properties :
#
#
# Convention : Reuss Voigt Hill
#
# Bulk Modulus (GPa) = 21.35901 24.38441 22.87171
# Shear Modulus (GPa) = 17.46366 25.38752 21.42559
#
# Velocity S-wave (km/s) = 3.15191 3.80029 3.49119
# Velocity P-wave (km/s) = 5.03950 5.75568 5.40946
#
# Compressibility (1/GPa) = 0.04681864
#
# Stress axis : x y z
#
# Youngs Moduli (GPa) = 66.18949 42.38086 57.01261
#
# Poissons Ratio (x) = -0.10693 0.09509
# Poissons Ratio (y) = -0.16700 0.31743
# Poissons Ratio (z) = 0.11039 0.23596
#
# Static dielectric constant tensor:
#      x y z
#    x 1.612340 0.000000 -0.005500 
#    y 0.000000 1.594450 0.000000 
#    z -0.005500 0.000000 1.620980 
# 
# From -- ./inp_files/42633.got.cif
#   From: 2010.05.17/outbox.cif.g08.bks.cpg/sg5_22_cif.got.tgz:42633.got - 2010.06.03 18:56:24.
