data_PCOD9122626
_publ_section_title
;
Structure prediction by ZEFSAII (Michael W. Deem and Ramdas Pophale) SiO2 
 PCOD9122626
Probable space group: C 2
;
_chemical_formula_sum "Si O2"
_cell_formula_units_Z 32
_cell_length_a 19.270864
_cell_length_b 7.420263
_cell_length_c 17.087087
_cell_angle_alpha 90.000000
_cell_angle_beta 144.209704
_cell_angle_gamma 90.000000
_cell_volume 1428.930000
_symmetry_space_group_name_H-M "C 2"
_symmetry_group_IT_number 5
_symmetry_cell_setting 'monoclinic'
loop_
_space_group_symop_operation_xyz
x,y,z
-x,y,-z
1/2+x,1/2+y,z
1/2-x,1/2+y,-z
loop_
_atom_site_type_symbol
_atom_site_label
_atom_site_fract_x
_atom_site_fract_y
_atom_site_fract_z
Si Si1 0.216078 0.757340 0.557570
Si Si2 0.453709 0.764821 0.036918
Si Si3 0.639158 0.068951 0.898560
Si Si4 0.014620 0.662868 0.104569
Si Si5 0.086844 0.413550 0.379418
Si Si6 0.197424 0.875886 0.842414
Si Si7 0.416785 0.496559 0.751537
Si Si8 0.545516 0.542765 0.400939
O O1 0.120518 0.613445 0.437516
O O2 0.301806 0.847947 0.570814
O O3 0.309078 0.622497 0.682716
O O4 0.142954 0.916500 0.531817
O O5 0.469767 0.606755 0.113611
O O6 0.533327 0.946761 0.121698
O O7 0.500000 0.680592 0.000000
O O8 0.319654 0.838924 0.908513
O O9 0.595539 0.179433 0.935381
O O10 0.652935 0.186647 0.834632
O O11 0.534168 0.929362 0.781201
O O12 0.756979 0.976203 0.037309
O O13 0.101718 0.800547 0.227722
O O14 0.000000 0.711805 0.000000
O O15 0.066791 0.256229 0.424602
O O16 0.088974 0.982986 0.705070
O O17 0.430611 0.495070 0.670206
#
# Coordination Sequence:
#
# PCOD9122626 Si02
#       8
#     4   4   4   4   4   4   4   4
#     4  11  20  32  53  82 120 156 190 240 289 337
#     4  10  23  40  59  86 114 154 199 240 297 358
#     4  11  21  34  54  85 116 155 191 243 298 343
#     4  10  20  35  54  80 118 154 194 234 282 348
#     4  11  20  33  52  81 122 155 195 238 292 341
#     4  11  20  35  56  81 119 148 188 245 299 349
#     4  11  20  35  57  83 118 154 196 238 285 344
#     4  11  21  34  53  86 119 153 188 237 297 339
#
# _framework density 22.394379000000001
#
# number of rings (size 3 to 8) (size 9 to 14) (size 15 to 20)
#    0.000    1.250    5.000    4.875    0.000    1.000 
#    0.000    0.000    0.000    0.750    0.000    0.000 
#    0.000    0.000    0.000    0.000    0.000    0.000 
#
# Total GULP energy -89165.790793 kJ/mol
# GULP energy per Si atom -5572.861925 kJ/mol
# Density = 2.234341 g / cm^3
# Si number density = 22.394379 Si / 1000 Ang^3
#
#
#
# Elastic Constant Matrix: (Units=GPa)
#
#
# Indices 1 2 3 4 5 6 
#
# 1 51.3229 16.2090 12.2800 0.0000 8.2712 0.0000
# 2 16.2090 93.9948 11.8767 0.0000 12.4602 0.0000
# 3 12.2800 11.8767 47.0944 0.0000 34.6285 0.0000
# 4 0.0000 0.0000 0.0000 46.9429 0.0000 7.7962
# 5 8.2712 12.4602 34.6285 0.0000 35.9250 0.0000
# 6 0.0000 0.0000 0.0000 7.7962 0.0000 16.9422
#
#
#
# Elastic Compliance Matrix: (Units=1/GPa)
#
#
# Indices 1 2 3 4 5 6 
#
# 1 0.021707 -0.003239 -0.006848 0.000000 0.002727 0.000000
# 2 -0.003239 0.011635 0.001131 0.000000 -0.004380 0.000000
# 3 -0.006848 0.001131 0.075071 0.000000 -0.071177 0.000000
# 4 0.000000 0.000000 0.000000 0.023065 0.000000 -0.010614
# 5 0.002727 -0.004380 -0.071177 0.000000 0.097336 0.000000
# 6 0.000000 0.000000 0.000000 -0.010614 0.000000 0.063908
#
#
# Mechanical properties :
#
#
# Convention : Reuss Voigt Hill
#
# Bulk Modulus (GPa) = 11.04984 30.34927 20.69956
# Shear Modulus (GPa) = 14.67126 30.09844 22.38485
#
# Velocity S-wave (km/s) = 2.56233 3.67006 3.16503
# Velocity P-wave (km/s) = 3.70121 5.61611 4.75603
#
# Compressibility (1/GPa) = 0.09049904
#
# Stress axis : x y z
#
# Youngs Moduli (GPa) = 46.06877 85.94593 13.32071
#
# Poissons Ratio (x) = 0.27842 0.09123
# Poissons Ratio (y) = 0.14924 -0.01506
# Poissons Ratio (z) = 0.31550 -0.09719
#
# Static dielectric constant tensor:
#      x y z
#    x 1.836280 0.000000 0.005060 
#    y 0.000000 1.912110 0.000000 
#    z 0.005060 0.000000 1.948420 
# 
# From -- ./inp_files/67315.got.cif
#   From: 2010.05.17/outbox.cif.g08.bks.cpg/sg5_34_cif.got.tgz:67315.got - 2010.06.03 18:56:24.
