data_PCOD9122039
_publ_section_title
;
Structure prediction by ZEFSAII (Michael W. Deem and Ramdas Pophale) SiO2 
 PCOD9122039
Probable space group: C 2
;
_chemical_formula_sum "Si O2"
_cell_formula_units_Z 28
_cell_length_a 16.244846
_cell_length_b 8.016689
_cell_length_c 14.011240
_cell_angle_alpha 90.000000
_cell_angle_beta 50.880919
_cell_angle_gamma 90.000000
_cell_volume 1415.654652
_symmetry_space_group_name_H-M "C 2"
_symmetry_group_IT_number 5
_symmetry_cell_setting 'monoclinic'
loop_
_space_group_symop_operation_xyz
x,y,z
-x,y,-z
1/2+x,1/2+y,z
1/2-x,1/2+y,-z
loop_
_atom_site_type_symbol
_atom_site_label
_atom_site_fract_x
_atom_site_fract_y
_atom_site_fract_z
Si Si1 0.500000 0.853310 0.000000
Si Si2 0.562537 0.184918 0.313796
Si Si3 0.225783 0.357208 0.762495
Si Si4 0.168353 0.739110 0.840881
Si Si5 0.290304 0.869743 0.593452
Si Si6 0.950369 0.657552 0.902493
Si Si7 0.500000 0.890424 0.500000
Si Si8 0.826338 0.746473 0.501201
O O1 0.611459 0.777885 0.878920
O O2 0.460391 0.973486 0.942342
O O3 0.671036 0.276345 0.263417
O O4 0.560825 0.154515 0.201687
O O5 0.452040 0.283048 0.417684
O O6 0.549373 0.015045 0.384387
O O7 0.216425 0.554028 0.791219
O O8 0.251333 0.339714 0.631593
O O9 0.239512 0.871401 0.735232
O O10 0.058428 0.740136 0.862046
O O11 0.142249 0.752367 0.971549
O O12 0.405728 0.787768 0.521461
O O13 0.214903 0.778534 0.574517
O O14 0.311778 0.052850 0.537780
#
# Coordination Sequence:
#
# PCOD9122039 Si02
#       8
#     2   4   4   4   4   4   2   4
#     4   8  20  36  62  82 110 166 202 242 294 352
#     4  11  18  38  60  87 114 159 201 234 299 355
#     4  10  19  38  59  90 115 152 205 239 293 356
#     4   9  19  38  59  83 114 157 201 241 289 351
#     4  11  21  41  56  91 115 155 198 241 303 348
#     4   8  17  35  61  80 110 163 196 230 297 364
#     4  10  24  36  56  86 124 156 186 254 302 350
#     4  11  22  35  66  86 116 163 194 243 302 355
#
# _framework density 19.778834
#
# number of rings (size 3 to 8) (size 9 to 14) (size 15 to 20)
#    0.000    2.571    4.286    0.857    6.000    0.000 
#   10.286    1.429    3.143    0.000    0.000    0.000 
#    0.000    0.000    0.000    0.000    0.000    0.000 
#
# Total GULP energy -77948.059365 kJ/mol
# GULP energy per Si atom -5567.718526 kJ/mol
# Density = 1.973382 g / cm^3
# Si number density = 19.778834 Si / 1000 Ang^3
#
#
#
# Elastic Constant Matrix: (Units=GPa)
#
#
# Indices 1 2 3 4 5 6 
#
# 1 89.7504 7.9040 59.7780 0.0000 -8.6597 0.0000
# 2 7.9040 13.9548 20.5270 0.0000 -6.4654 0.0000
# 3 59.7780 20.5270 163.9010 0.0000 -0.9927 0.0000
# 4 0.0000 0.0000 0.0000 30.4399 0.0000 -1.3239
# 5 -8.6597 -6.4654 -0.9927 0.0000 49.8147 0.0000
# 6 0.0000 0.0000 0.0000 -1.3239 0.0000 13.4333
#
#
#
# Elastic Compliance Matrix: (Units=1/GPa)
#
#
# Indices 1 2 3 4 5 6 
#
# 1 0.015031 0.000908 -0.005580 0.000000 0.002620 0.000000
# 2 0.000908 0.094602 -0.012105 0.000000 0.012195 0.000000
# 3 -0.005580 -0.012105 0.009638 0.000000 -0.002349 0.000000
# 4 0.000000 0.000000 0.000000 0.032993 0.000000 0.003252
# 5 0.002620 0.012195 -0.002349 0.000000 0.022066 0.000000
# 6 0.000000 0.000000 0.000000 0.003252 0.000000 0.074762
#
#
# Mechanical properties :
#
#
# Convention : Reuss Voigt Hill
#
# Bulk Modulus (GPa) = 11.66626 49.33602 30.50114
# Shear Modulus (GPa) = 16.06579 30.69740 23.38159
#
# Velocity S-wave (km/s) = 2.85313 3.94386 3.44197
# Velocity P-wave (km/s) = 4.09450 6.76289 5.59024
#
# Compressibility (1/GPa) = 0.08571727
#
# Stress axis : x y z
#
# Youngs Moduli (GPa) = 66.52729 10.57057 103.75294
#
# Poissons Ratio (x) = -0.00960 0.57895
# Poissons Ratio (y) = -0.06042 1.25597
# Poissons Ratio (z) = 0.37123 0.12796
#
# Static dielectric constant tensor:
#      x y z
#    x 1.709370 0.000000 -0.034360 
#    y 0.000000 1.704070 0.000000 
#    z -0.034360 0.000000 1.762790 
# 
# From -- ./inp_files/54135.got.cif
#   From: 2010.05.17/outbox.cif.g08.bks.cpg/sg5_28_cif.got.tgz:54135.got - 2010.06.03 18:56:24.
