data_PCOD9122754
_publ_section_title
;
Structure prediction by ZEFSAII (Michael W. Deem and Ramdas Pophale) SiO2 
 PCOD9122754
Probable space group: C 2
;
_chemical_formula_sum "Si O2"
_cell_formula_units_Z 26
_cell_length_a 11.044572
_cell_length_b 8.075731
_cell_length_c 21.313674
_cell_angle_alpha 90.000000
_cell_angle_beta 136.242849
_cell_angle_gamma 90.000000
_cell_volume 1314.758698
_symmetry_space_group_name_H-M "C 2"
_symmetry_group_IT_number 5
_symmetry_cell_setting 'monoclinic'
loop_
_space_group_symop_operation_xyz
x,y,z
-x,y,-z
1/2+x,1/2+y,z
1/2-x,1/2+y,-z
loop_
_atom_site_type_symbol
_atom_site_label
_atom_site_fract_x
_atom_site_fract_y
_atom_site_fract_z
Si Si1 0.843892 0.642920 0.074578
Si Si2 0.277183 0.675107 0.714603
Si Si3 0.149089 0.417823 0.159823
Si Si4 0.312834 0.324516 0.449321
Si Si5 0.500000 0.676020 0.000000
Si Si6 0.458333 0.976816 0.553193
Si Si7 0.152858 0.026264 0.882736
O O1 0.677404 0.579206 0.052694
O O2 0.866183 0.834815 0.101579
O O3 0.015377 0.532976 0.147611
O O4 0.779356 0.618438 0.979051
O O5 0.228861 0.807287 0.750219
O O6 0.281499 0.774279 0.650730
O O7 0.464678 0.607903 0.805607
O O8 0.140908 0.525554 0.654755
O O9 0.037206 0.294917 0.073047
O O10 0.259714 0.524074 0.152597
O O11 0.500000 0.411184 0.500000
O O12 0.376194 0.153367 0.503840
O O13 0.178868 0.400196 0.449339
O O14 0.500000 0.894730 0.500000
#
# Coordination Sequence:
#
# PCOD9122754 Si02
#       7
#     4   4   4   4   2   4   4
#     4  11  20  39  57  78 112 163 203 251 296 337
#     4  10  22  39  59  91 125 154 196 248 300 351
#     4  11  21  40  55  82 120 155 202 255 290 343
#     4   9  21  41  65  92 123 156 193 242 304 364
#     4  10  20  36  56  74 116 150 204 254 298 328
#     4   9  21  42  66  92 124 156 190 246 300 367
#     4  11  22  38  57  82 118 157 205 251 298 344
#
# _framework density 19.775490999999999
#
# number of rings (size 3 to 8) (size 9 to 14) (size 15 to 20)
#    0.000    2.154    4.615    0.000    0.000    9.231 
#    5.538    0.000    0.000    0.000    0.000    0.000 
#    0.000    0.000    0.000    0.000    0.000    0.000 
#
# Total GULP energy -72444.520047 kJ/mol
# GULP energy per Si atom -5572.655388 kJ/mol
# Density = 1.973048 g / cm^3
# Si number density = 19.775491 Si / 1000 Ang^3
#
#
#
# Elastic Constant Matrix: (Units=GPa)
#
#
# Indices 1 2 3 4 5 6 
#
# 1 137.9280 32.7594 8.9802 0.0000 -1.2727 0.0000
# 2 32.7594 23.6859 8.7345 0.0000 1.1678 0.0000
# 3 8.9802 8.7345 68.9924 0.0000 2.7933 0.0000
# 4 0.0000 0.0000 0.0000 11.4103 0.0000 0.3792
# 5 -1.2727 1.1678 2.7933 0.0000 10.9078 0.0000
# 6 0.0000 0.0000 0.0000 0.3792 0.0000 40.9828
#
#
#
# Elastic Compliance Matrix: (Units=1/GPa)
#
#
# Indices 1 2 3 4 5 6 
#
# 1 0.010898 -0.015364 0.000413 0.000000 0.002811 0.000000
# 2 -0.015364 0.066067 -0.006068 0.000000 -0.007312 0.000000
# 3 0.000413 -0.006068 0.015340 0.000000 -0.003230 0.000000
# 4 0.000000 0.000000 0.000000 0.087667 0.000000 -0.000811
# 5 0.002811 -0.007312 -0.003230 0.000000 0.093615 0.000000
# 6 0.000000 0.000000 0.000000 -0.000811 0.000000 0.024408
#
#
# Mechanical properties :
#
#
# Convention : Reuss Voigt Hill
#
# Bulk Modulus (GPa) = 19.89419 36.83937 28.36678
# Shear Modulus (GPa) = 14.01386 24.66900 19.34143
#
# Velocity S-wave (km/s) = 2.66493 3.53576 3.13077
# Velocity P-wave (km/s) = 4.42165 5.94458 5.23875
#
# Compressibility (1/GPa) = 0.05026593
#
# Stress axis : x y z
#
# Youngs Moduli (GPa) = 91.75711 15.13613 65.19042
#
# Poissons Ratio (x) = 0.23255 -0.02691
# Poissons Ratio (y) = 1.40976 0.39560
# Poissons Ratio (z) = -0.03787 0.09185
#
# Static dielectric constant tensor:
#      x y z
#    x 1.764690 0.000000 0.001180 
#    y 0.000000 1.717630 0.000000 
#    z 0.001180 0.000000 1.714690 
# 
# From -- ./inp_files/52101.got.cif
#   From: 2010.05.17/outbox.cif.g08.bks.cpg/sg5_27_cif.got.tgz:52101.got - 2010.06.03 18:56:24.
