data_PCOD9122057
_publ_section_title
;
Structure prediction by ZEFSAII (Michael W. Deem and Ramdas Pophale) SiO2 
 PCOD9122057
Probable space group: C 2
;
_chemical_formula_sum "Si O2"
_cell_formula_units_Z 32
_cell_length_a 26.854361
_cell_length_b 9.246370
_cell_length_c 13.069024
_cell_angle_alpha 90.000000
_cell_angle_beta 154.671587
_cell_angle_gamma 90.000000
_cell_volume 1388.277438
_symmetry_space_group_name_H-M "C 2"
_symmetry_group_IT_number 5
_symmetry_cell_setting 'monoclinic'
loop_
_space_group_symop_operation_xyz
x,y,z
-x,y,-z
1/2+x,1/2+y,z
1/2-x,1/2+y,-z
loop_
_atom_site_type_symbol
_atom_site_label
_atom_site_fract_x
_atom_site_fract_y
_atom_site_fract_z
Si Si1 0.268172 0.261570 0.245343
Si Si2 0.139725 0.976799 0.748448
Si Si3 0.561680 0.037322 0.507504
Si Si4 0.720560 0.785751 0.826581
Si Si5 0.934753 0.337796 0.027540
Si Si6 0.408143 0.156786 0.033591
Si Si7 0.132886 0.721098 0.342735
Si Si8 0.831366 0.378965 0.621932
O O1 0.316434 0.397960 0.273834
O O2 0.319812 0.125527 0.283879
O O3 0.315863 0.257991 0.449647
O O4 0.129770 0.254118 0.002562
O O5 0.000000 0.969323 0.500000
O O6 0.184219 0.140311 0.818481
O O7 0.202035 0.885451 0.953969
O O8 0.500000 0.063505 0.500000
O O9 0.480917 0.104140 0.269289
O O10 0.603624 0.872719 0.580538
O O11 0.799907 0.745456 0.875621
O O12 0.882147 0.500180 0.938928
O O13 0.073961 0.336030 0.288316
O O14 0.889422 0.303623 0.829794
O O15 0.495350 0.229594 0.113226
O O16 0.160810 0.553402 0.367372
O O17 0.200281 0.821526 0.386578
#
# Coordination Sequence:
#
# PCOD9122057 Si02
#       8
#     4   4   4   4   4   4   4   4
#     4  10  19  38  61  87 122 165 205 258 319 372
#     4  12  24  40  65  94 130 170 216 264 314 380
#     4  11  23  41  61  90 128 167 211 262 320 373
#     4  12  25  42  65  94 129 173 215 262 321 377
#     4   9  18  36  62  84 116 164 199 254 316 378
#     4  10  20  41  62  88 127 162 206 265 314 370
#     4   9  19  36  61  86 119 161 197 258 320 377
#     4   9  18  36  59  87 120 154 206 248 321 382
#
# _framework density 23.050149000000001
#
# number of rings (size 3 to 8) (size 9 to 14) (size 15 to 20)
#    0.000    1.750    1.250    4.500    0.000    0.000 
#   11.250    0.000    0.000    0.000    0.000    0.000 
#    0.000    0.000    0.000    0.000    0.000    0.000 
#
# Total GULP energy -89290.459397 kJ/mol
# GULP energy per Si atom -5580.653712 kJ/mol
# Density = 2.299769 g / cm^3
# Si number density = 23.050149 Si / 1000 Ang^3
#
#
#
# Elastic Constant Matrix: (Units=GPa)
#
#
# Indices 1 2 3 4 5 6 
#
# 1 145.2401 33.3794 57.1319 0.0000 43.1303 0.0000
# 2 33.3794 66.4366 16.0928 0.0000 7.5855 0.0000
# 3 57.1319 16.0928 58.2984 0.0000 -1.1763 0.0000
# 4 0.0000 0.0000 0.0000 34.1738 0.0000 19.7523
# 5 43.1303 7.5855 -1.1763 0.0000 33.2452 0.0000
# 6 0.0000 0.0000 0.0000 19.7523 0.0000 18.0819
#
#
#
# Elastic Compliance Matrix: (Units=1/GPa)
#
#
# Indices 1 2 3 4 5 6 
#
# 1 0.034022 -0.003998 -0.033133 0.000000 -0.044398 0.000000
# 2 -0.003998 0.017106 -0.000778 0.000000 0.001257 0.000000
# 3 -0.033133 -0.000778 0.050745 0.000000 0.044958 0.000000
# 4 0.000000 0.000000 0.000000 0.079385 0.000000 -0.086718
# 5 -0.044398 0.001257 0.044958 0.000000 0.088983 0.000000
# 6 0.000000 0.000000 0.000000 -0.086718 0.000000 0.150033
#
#
# Mechanical properties :
#
#
# Convention : Reuss Voigt Hill
#
# Bulk Modulus (GPa) = 38.38265 53.68704 46.03484
# Shear Modulus (GPa) = 9.90535 27.99156 18.94846
#
# Velocity S-wave (km/s) = 2.07524 3.48857 2.87026
# Velocity P-wave (km/s) = 4.73605 6.29037 5.56772
#
# Compressibility (1/GPa) = 0.02605344
#
# Stress axis : x y z
#
# Youngs Moduli (GPa) = 29.39301 58.45952 19.70625
#
# Poissons Ratio (x) = 0.23374 0.65293
# Poissons Ratio (y) = 0.11752 0.01534
# Poissons Ratio (z) = 0.97388 0.04550
#
# Static dielectric constant tensor:
#      x y z
#    x 1.917890 0.000000 -0.033390 
#    y 0.000000 1.869440 0.000000 
#    z -0.033390 0.000000 2.010510 
# 
# From -- ./inp_files/58117.got.cif
#   From: 2010.05.17/outbox.cif.g08.bks.cpg/sg5_30_cif.got.tgz:58117.got - 2010.06.03 18:56:24.
