data_PCOD9122550
_publ_section_title
;
Structure prediction by ZEFSAII (Michael W. Deem and Ramdas Pophale) SiO2 
 PCOD9122550
Probable space group: C 2
;
_chemical_formula_sum "Si O2"
_cell_formula_units_Z 32
_cell_length_a 5.564934
_cell_length_b 23.301939
_cell_length_c 14.561319
_cell_angle_alpha 90.000000
_cell_angle_beta 114.566169
_cell_angle_gamma 90.000000
_cell_volume 1717.302426
_symmetry_space_group_name_H-M "C 2"
_symmetry_group_IT_number 5
_symmetry_cell_setting 'monoclinic'
loop_
_space_group_symop_operation_xyz
x,y,z
-x,y,-z
1/2+x,1/2+y,z
1/2-x,1/2+y,-z
loop_
_atom_site_type_symbol
_atom_site_label
_atom_site_fract_x
_atom_site_fract_y
_atom_site_fract_z
Si Si1 0.176905 0.453470 0.772362
Si Si2 0.655677 0.143070 0.800979
Si Si3 0.369845 0.766772 0.879036
Si Si4 0.683991 0.609319 0.603142
Si Si5 0.868976 0.832723 0.878342
Si Si6 0.315060 0.986968 0.559854
Si Si7 0.544858 0.044564 0.901181
Si Si8 0.034273 0.051238 0.269961
O O1 0.278299 0.391859 0.817598
O O2 0.358072 0.488430 0.730220
O O3 0.909803 0.455051 0.669130
O O4 0.183014 0.494001 0.864911
O O5 0.782127 0.204951 0.828352
O O6 0.374816 0.144411 0.701539
O O7 0.651064 0.108873 0.897831
O O8 0.826063 0.098721 0.769155
O O9 0.601609 0.795663 0.854543
O O10 0.100591 0.803150 0.854488
O O11 0.500000 0.759414 0.000000
O O12 0.500000 0.641255 0.500000
O O13 0.847737 0.555584 0.587003
O O14 0.469224 0.575065 0.629267
O O15 0.000000 0.842896 0.000000
O O16 0.500000 0.973012 0.500000
O O17 0.000000 0.975944 0.500000
O O18 0.264858 0.047904 0.808377
O O19 0.500000 0.031772 0.000000
#
# Coordination Sequence:
#
# PCOD9122550 Si02
#       8
#     4   4   4   4   4   4   4   4
#     4  11  22  38  59  90 124 160 200 257 301 374
#     4  10  22  36  58  87 119 162 205 252 303 366
#     4  10  24  43  62  86 116 162 215 254 293 354
#     4  10  20  34  57  88 128 156 198 244 306 376
#     4  10  25  42  64  88 115 163 211 251 301 352
#     4  11  22  36  60  90 125 164 198 244 305 371
#     4  10  23  33  54  90 128 163 194 245 317 376
#     4  10  20  36  54  90 125 156 200 238 320 368
#
# _framework density 18.633877999999999
#
# number of rings (size 3 to 8) (size 9 to 14) (size 15 to 20)
#    0.000    1.750    3.750    1.500    8.750    2.000 
#    0.000    0.000    0.000    2.250    0.000    0.000 
#    0.000    0.000    0.000    0.000    0.000    0.000 
#
# Total GULP energy -89079.324859 kJ/mol
# GULP energy per Si atom -5567.457804 kJ/mol
# Density = 1.859147 g / cm^3
# Si number density = 18.633878 Si / 1000 Ang^3
#
#
#
# Elastic Constant Matrix: (Units=GPa)
#
#
# Indices 1 2 3 4 5 6 
#
# 1 97.7009 51.9704 21.8284 0.0000 0.7812 0.0000
# 2 51.9704 125.9739 48.8737 0.0000 19.4765 0.0000
# 3 21.8284 48.8737 64.8626 0.0000 -9.1139 0.0000
# 4 0.0000 0.0000 0.0000 -367.5355 0.0000 768.6200
# 5 0.7812 19.4765 -9.1139 0.0000 26.9282 0.0000
# 6 0.0000 0.0000 0.0000 768.6200 0.0000-1449.5261
#
#
#
# Elastic Compliance Matrix: (Units=1/GPa)
#
#
# Indices 1 2 3 4 5 6 
#
# 1 0.013564 -0.006897 0.001341 0.000000 0.005049 0.000000
# 2 -0.006897 0.019613 -0.015142 0.000000 -0.019110 0.000000
# 3 0.001341 -0.015142 0.029302 0.000000 0.020831 0.000000
# 4 0.000000 0.000000 0.000000 0.024981 0.000000 0.013246
# 5 0.005049 -0.019110 0.020831 0.000000 0.057862 0.000000
# 6 0.000000 0.000000 0.000000 0.013246 0.000000 0.006334
#
#
# Mechanical properties :
#
#
# Convention : Reuss Voigt Hill
#
# Bulk Modulus (GPa) = 47.43018 59.32027 53.37523
# Shear Modulus (GPa) = 24.99009 -346.96902 -160.98947
#
# Velocity S-wave (km/s) = 3.66609 -13.66044 -9.30503
# Velocity P-wave (km/s) = 6.59009 14.72774 9.31335
#
# Compressibility (1/GPa) = 0.02108362
#
# Stress axis : x y z
#
# Youngs Moduli (GPa) = 73.72523 50.98731 34.12689
#
# Poissons Ratio (x) = 0.35165 -0.04578
# Poissons Ratio (y) = 0.50847 0.51676
# Poissons Ratio (z) = -0.09889 0.77207
#
# Static dielectric constant tensor:
#      x y z
#    x 5.855150 0.000000 -3.652190 
#    y 0.000000 1.609060 0.000000 
#    z -3.652190 0.000000 4.950960 
# 
# From -- ./inp_files/49552.got.cif
#   From: 2010.05.17/outbox.cif.g08.bks.cpg/sg5_25_cif.got.tgz:49552.got - 2010.06.03 18:56:24.
