data_PCOD9122838
_publ_section_title
;
Structure prediction by ZEFSAII (Michael W. Deem and Ramdas Pophale) SiO2 
 PCOD9122838
Probable space group: C 2
;
_chemical_formula_sum "Si O2"
_cell_formula_units_Z 32
_cell_length_a 25.044342
_cell_length_b 12.246735
_cell_length_c 11.690743
_cell_angle_alpha 90.000000
_cell_angle_beta 23.372131
_cell_angle_gamma 90.000000
_cell_volume 1422.446167
_symmetry_space_group_name_H-M "C 2"
_symmetry_group_IT_number 5
_symmetry_cell_setting 'monoclinic'
loop_
_space_group_symop_operation_xyz
x,y,z
-x,y,-z
1/2+x,1/2+y,z
1/2-x,1/2+y,-z
loop_
_atom_site_type_symbol
_atom_site_label
_atom_site_fract_x
_atom_site_fract_y
_atom_site_fract_z
Si Si1 0.249647 0.004880 0.947279
Si Si2 0.055781 0.318565 0.506985
Si Si3 0.863208 0.981490 0.457316
Si Si4 0.894797 0.536084 0.880659
Si Si5 0.430799 0.713942 0.285506
Si Si6 0.918413 0.864798 0.560915
Si Si7 0.719798 0.780711 0.626358
Si Si8 0.669160 0.160287 0.390877
O O1 0.348420 0.065298 0.843024
O O2 0.233271 0.078413 0.868698
O O3 0.315059 0.891049 0.777957
O O4 0.136232 0.963834 0.254700
O O5 0.084502 0.236029 0.550708
O O6 0.000000 0.267664 0.500000
O O7 0.952849 0.412937 0.751832
O O8 0.961268 0.923036 0.357976
O O9 0.800747 0.890667 0.495928
O O10 0.933719 0.084340 0.260922
O O11 0.732200 0.027927 0.784934
O O12 0.018413 0.611419 0.677213
O O13 0.307664 0.760453 0.452735
O O14 0.568496 0.773483 0.976474
O O15 0.820891 0.773946 0.698224
O O16 0.000000 0.803834 0.500000
O O17 0.794984 0.685415 0.549151
#
# Coordination Sequence:
#
# PCOD9122838 Si02
#       8
#     4   4   4   4   4   4   4   4
#     4   9  19  32  57  89 122 162 205 253 315 391
#     4   9  18  34  60  91 119 154 207 257 310 382
#     4  10  22  40  65  90 124 159 225 257 306 401
#     4   9  17  37  59  91 120 164 210 257 313 384
#     4  11  23  41  66  91 123 171 208 261 326 373
#     4  10  21  34  53  88 130 162 196 267 321 372
#     4  10  24  44  62  89 127 168 212 265 317 373
#     4  10  20  36  60  80 124 168 209 256 325 371
#
# _framework density 22.496458000000001
#
# number of rings (size 3 to 8) (size 9 to 14) (size 15 to 20)
#    0.000    2.250    1.250    1.875    3.500    5.500 
#    0.000    0.000   11.000    0.000    0.000    0.000 
#    0.000    0.000    0.000    0.000    0.000    0.000 
#
# Total GULP energy -89195.100954 kJ/mol
# GULP energy per Si atom -5574.693810 kJ/mol
# Density = 2.244526 g / cm^3
# Si number density = 22.496458 Si / 1000 Ang^3
#
#
#
# Elastic Constant Matrix: (Units=GPa)
#
#
# Indices 1 2 3 4 5 6 
#
# 1 144.7528 50.8545 14.4956 0.0000 -1.6534 0.0000
# 2 50.8545 79.5875 -1.6920 0.0000 -2.2831 0.0000
# 3 14.4956 -1.6920 20.5720 0.0000 -7.3331 0.0000
# 4 0.0000 0.0000 0.0000 11.5113 0.0000 -6.4077
# 5 -1.6534 -2.2831 -7.3331 0.0000 20.0894 0.0000
# 6 0.0000 0.0000 0.0000 -6.4077 0.0000 29.3008
#
#
#
# Elastic Compliance Matrix: (Units=1/GPa)
#
#
# Indices 1 2 3 4 5 6 
#
# 1 0.010125 -0.006748 -0.008813 0.000000 -0.003150 0.000000
# 2 -0.006748 0.017159 0.007660 0.000000 0.004191 0.000000
# 3 -0.008813 0.007660 0.063803 0.000000 0.023435 0.000000
# 4 0.000000 0.000000 0.000000 0.098912 0.000000 0.021631
# 5 -0.003150 0.004191 0.023435 0.000000 0.058549 0.000000
# 6 0.000000 0.000000 0.000000 0.021631 0.000000 0.038859
#
#
# Mechanical properties :
#
#
# Convention : Reuss Voigt Hill
#
# Bulk Modulus (GPa) = 13.28252 41.35872 27.32062
# Shear Modulus (GPa) = 15.22979 24.26390 19.74685
#
# Velocity S-wave (km/s) = 2.60472 3.28772 2.96594
# Velocity P-wave (km/s) = 3.86823 5.73032 4.88875
#
# Compressibility (1/GPa) = 0.07528690
#
# Stress axis : x y z
#
# Youngs Moduli (GPa) = 98.76128 58.27695 15.67324
#
# Poissons Ratio (x) = 0.39323 0.13812
# Poissons Ratio (y) = 0.66641 -0.12005
# Poissons Ratio (z) = 0.87035 -0.44639
#
# Static dielectric constant tensor:
#      x y z
#    x 1.910360 0.000000 -0.061140 
#    y 0.000000 1.834520 0.000000 
#    z -0.061140 0.000000 1.934730 
# 
# From -- ./inp_files/47498.got.cif
#   From: 2010.05.17/outbox.cif.g08.bks.cpg/sg5_24_cif.got.tgz:47498.got - 2010.06.03 18:56:24.
