data_PCOD9122449
_publ_section_title
;
Structure prediction by ZEFSAII (Michael W. Deem and Ramdas Pophale) SiO2 
 PCOD9122449
Probable space group: C 2
;
_chemical_formula_sum "Si O2"
_cell_formula_units_Z 24
_cell_length_a 19.695754
_cell_length_b 7.214343
_cell_length_c 20.840002
_cell_angle_alpha 90.000000
_cell_angle_beta 19.525640
_cell_angle_gamma 90.000000
_cell_volume 989.716572
_symmetry_space_group_name_H-M "C 2"
_symmetry_group_IT_number 5
_symmetry_cell_setting 'monoclinic'
loop_
_space_group_symop_operation_xyz
x,y,z
-x,y,-z
1/2+x,1/2+y,z
1/2-x,1/2+y,-z
loop_
_atom_site_type_symbol
_atom_site_label
_atom_site_fract_x
_atom_site_fract_y
_atom_site_fract_z
Si Si1 0.557284 0.554330 0.377775
Si Si2 0.179523 0.632983 0.299729
Si Si3 0.284826 0.021424 0.056053
Si Si4 0.923303 0.111014 0.968851
Si Si5 0.323517 0.992128 0.367728
Si Si6 0.106079 0.069327 0.683683
O O1 0.500000 0.625830 0.500000
O O2 0.404100 0.334129 0.645959
O O3 0.748164 0.601914 0.160639
O O4 0.359231 0.578332 0.510137
O O5 0.377666 0.663338 0.167024
O O6 0.000000 0.541248 0.500000
O O7 0.259120 0.531640 0.165077
O O8 0.084591 0.066055 0.194228
O O9 0.318260 0.798845 0.035516
O O10 0.472288 0.074367 0.843698
O O11 0.012061 0.986610 0.832631
O O12 0.326660 0.772371 0.353746
O O13 0.288446 0.003591 0.475567
#
# Coordination Sequence:
#
# PCOD9122449 Si02
#       6
#     4   4   4   4   4   4
#     4   9  16  28  48  75 102 126 160 210 260 295
#     4   9  15  26  48  72 101 127 158 211 263 293
#     4   9  18  29  45  71 102 133 161 195 246 299
#     4   9  18  30  45  74 105 129 164 207 252 299
#     4  10  21  34  51  76 105 134 168 207 248 299
#     4  10  20  33  49  74 105 137 169 202 247 299
#
# _framework density 24.249366999999999
#
# number of rings (size 3 to 8) (size 9 to 14) (size 15 to 20)
#    0.000    2.667    0.000    4.000    0.000   10.000 
#    0.000    0.000    0.000    0.000    0.000   65.333 
#    0.000    0.000    0.000    0.000    0.000    0.000 
#
# Total GULP energy -66849.391793 kJ/mol
# GULP energy per Si atom -5570.782649 kJ/mol
# Density = 2.419417 g / cm^3
# Si number density = 24.249367 Si / 1000 Ang^3
#
#
#
# Elastic Constant Matrix: (Units=GPa)
#
#
# Indices 1 2 3 4 5 6 
#
# 1 107.8072 -8.9564 62.3674 0.0014 41.1239 -0.0072
# 2 -8.9564 63.6187 -0.7704 -0.0012 3.8905 -0.0056
# 3 62.3674 -0.7704 224.2094 -0.0025 69.9845 -0.0053
# 4 0.0014 -0.0012 -0.0025 0.2588 0.0013 -11.6198
# 5 41.1239 3.8905 69.9845 0.0013 69.1383 0.0027
# 6 -0.0072 -0.0056 -0.0053 -11.6198 0.0027 173.8293
#
#
#
# Elastic Compliance Matrix: (Units=1/GPa)
#
#
# Indices 1 2 3 4 5 6 
#
# 1 0.012698 0.002135 -0.001652 0.000006 -0.006001 0.000001
# 2 0.002135 0.016168 0.000208 -0.000054 -0.002390 -0.000003
# 3 -0.001652 0.000208 0.006750 -0.000057 -0.005862 -0.000004
# 4 0.000006 -0.000054 -0.000057 -1.930643 0.000099 -0.129056
# 5 -0.006001 -0.002390 -0.005862 0.000099 0.024101 0.000006
# 6 0.000001 -0.000003 -0.000004 -0.129056 0.000006 -0.002874
#
#
# Mechanical properties :
#
#
# Convention : Reuss Voigt Hill
#
# Bulk Modulus (GPa) = 27.02926 55.65740 41.34333
# Shear Modulus (GPa) = -2.68406 71.51158 34.41376
#
# Velocity S-wave (km/s) = -1.05321 5.43637 3.77126
# Velocity P-wave (km/s) = 3.11313 7.89984 6.00412
#
# Compressibility (1/GPa) = 0.03699694
#
# Stress axis : x y z
#
# Youngs Moduli (GPa) = 78.75403 61.85130 148.14870
#
# Poissons Ratio (x) = -0.13203 0.24468
# Poissons Ratio (y) = -0.16811 -0.03077
# Poissons Ratio (z) = 0.13007 -0.01285
#
# Static dielectric constant tensor:
#      x y z
#    x 1.874790 -0.000010 0.163380 
#    y -0.000010 1.853120 0.000010 
#    z 0.163380 0.000010 2.018450 
# 
# From -- ./inp_files/67028.got.cif
#   From: 2010.05.17/outbox.cif.g08.bks.cpg/sg5_34_cif.got.tgz:67028.got - 2010.06.03 18:56:24.
