data_PCOD9122484
_publ_section_title
;
Structure prediction by ZEFSAII (Michael W. Deem and Ramdas Pophale) SiO2 
 PCOD9122484
Probable space group: C 2
;
_chemical_formula_sum "Si O2"
_cell_formula_units_Z 26
_cell_length_a 16.230405
_cell_length_b 8.357246
_cell_length_c 26.079156
_cell_angle_alpha 90.000000
_cell_angle_beta 17.892861
_cell_angle_gamma 90.000000
_cell_volume 1086.828634
_symmetry_space_group_name_H-M "C 2"
_symmetry_group_IT_number 5
_symmetry_cell_setting 'monoclinic'
loop_
_space_group_symop_operation_xyz
x,y,z
-x,y,-z
1/2+x,1/2+y,z
1/2-x,1/2+y,-z
loop_
_atom_site_type_symbol
_atom_site_label
_atom_site_fract_x
_atom_site_fract_y
_atom_site_fract_z
Si Si1 0.893689 0.084170 0.856993
Si Si2 0.653463 0.674406 0.601236
Si Si3 0.953045 0.071700 0.932982
Si Si4 0.191794 0.718306 0.789295
Si Si5 0.916502 0.840071 0.364268
Si Si6 0.406573 0.211387 0.265094
Si Si7 0.500000 0.804182 0.000000
O O1 0.029951 0.184433 0.730588
O O2 0.004021 0.143046 0.846514
O O3 0.572932 0.108996 0.044526
O O4 0.971976 0.894389 0.811932
O O5 0.423690 0.689474 0.693394
O O6 0.883134 0.785145 0.442133
O O7 0.767180 0.494450 0.533293
O O8 0.021941 0.188124 0.938335
O O9 0.629225 0.073846 0.127164
O O10 0.083132 0.899076 0.861399
O O11 0.267402 0.699027 0.683823
O O12 0.842978 0.713039 0.363586
O O13 0.219579 0.894420 0.170679
#
# Coordination Sequence:
#
# PCOD9122484 Si02
#       7
#     4   4   4   4   4   4   2
#     4   9  19  37  58  90 125 160 196 251 304 359
#     4  11  24  37  61  88 126 157 205 256 306 356
#     4   9  19  34  60  91 118 159 203 247 293 366
#     4  10  20  33  62  94 120 157 210 247 299 362
#     4  10  24  41  61  86 122 162 202 254 307 360
#     4   8  18  39  59  84 123 165 199 246 303 367
#     4  10  22  40  68  82 120 166 208 238 312 372
#
# _framework density 23.922816000000001
#
# number of rings (size 3 to 8) (size 9 to 14) (size 15 to 20)
#    0.000    2.462    0.000    0.462   10.769    1.846 
#    0.000    0.769    3.385    0.000    0.000    0.000 
#    0.000    0.000    0.000    0.000    0.000    0.000 
#
# Total GULP energy -72431.113540 kJ/mol
# GULP energy per Si atom -5571.624118 kJ/mol
# Density = 2.386837 g / cm^3
# Si number density = 23.922816 Si / 1000 Ang^3
#
#
#
# Elastic Constant Matrix: (Units=GPa)
#
#
# Indices 1 2 3 4 5 6 
#
# 1 133.5315 13.7225 32.5076 0.0002 30.6227 0.0043
# 2 13.7225 26.5567 12.0606 -0.0334 11.6866 -0.0056
# 3 32.5076 12.0606 79.3276 -0.1570 15.0816 -0.0111
# 4 0.0002 -0.0334 -0.1570 17.8623 -0.0058 9.1086
# 5 30.6227 11.6866 15.0816 -0.0058 49.2358 -0.0020
# 6 0.0043 -0.0056 -0.0111 9.1086 -0.0020 26.6395
#
#
#
# Elastic Compliance Matrix: (Units=1/GPa)
#
#
# Indices 1 2 3 4 5 6 
#
# 1 0.009374 -0.001573 -0.002723 -0.000032 -0.004623 0.000008
# 2 -0.001573 0.044085 -0.004518 0.000044 -0.008102 -0.000008
# 3 -0.002723 -0.004518 0.014742 0.000143 -0.001749 -0.000043
# 4 -0.000032 0.000044 0.000143 0.067808 -0.000027 -0.023185
# 5 -0.004623 -0.008102 -0.001749 -0.000027 0.025644 0.000009
# 6 0.000008 -0.000008 -0.000043 -0.023185 0.000009 0.045466
#
#
# Mechanical properties :
#
#
# Convention : Reuss Voigt Hill
#
# Bulk Modulus (GPa) = 19.77334 39.55526 29.66430
# Shear Modulus (GPa) = 20.69511 30.82253 25.75882
#
# Velocity S-wave (km/s) = 2.94441 3.59334 3.28494
# Velocity P-wave (km/s) = 4.45453 5.81262 5.17829
#
# Compressibility (1/GPa) = 0.05057313
#
# Stress axis : x y z
#
# Youngs Moduli (GPa) = 106.68332 22.68347 67.83496
#
# Poissons Ratio (x) = 0.03567 0.18474
# Poissons Ratio (y) = 0.16777 0.30645
# Poissons Ratio (z) = 0.29053 0.10248
#
# Static dielectric constant tensor:
#      x y z
#    x 2.010320 0.000000 -0.004270 
#    y 0.000000 1.864670 0.000030 
#    z -0.004270 0.000030 2.000800 
# 
# From -- ./inp_files/44222.got.cif
#   From: 2010.05.17/outbox.cif.g08.bks.cpg/sg5_23_cif.got.tgz:44222.got - 2010.06.03 18:56:24.
