data_PCOD9122704
_publ_section_title
;
Structure prediction by ZEFSAII (Michael W. Deem and Ramdas Pophale) SiO2 
 PCOD9122704
Probable space group: C 2
;
_chemical_formula_sum "Si O2"
_cell_formula_units_Z 32
_cell_length_a 9.588603
_cell_length_b 20.492734
_cell_length_c 18.442347
_cell_angle_alpha 90.000000
_cell_angle_beta 153.357135
_cell_angle_gamma 90.000000
_cell_volume 1625.040038
_symmetry_space_group_name_H-M "C 2"
_symmetry_group_IT_number 5
_symmetry_cell_setting 'monoclinic'
loop_
_space_group_symop_operation_xyz
x,y,z
-x,y,-z
1/2+x,1/2+y,z
1/2-x,1/2+y,-z
loop_
_atom_site_type_symbol
_atom_site_label
_atom_site_fract_x
_atom_site_fract_y
_atom_site_fract_z
Si Si1 0.439980 0.313680 0.556401
Si Si2 0.815868 0.978195 0.846820
Si Si3 0.402298 0.162937 0.372123
Si Si4 0.644971 0.582785 0.910786
Si Si5 0.357747 0.885018 0.361878
Si Si6 0.267362 0.555317 0.452273
Si Si7 0.183654 0.020530 0.780480
Si Si8 0.772986 0.866802 0.176162
O O1 0.500000 0.330428 0.500000
O O2 0.469561 0.235834 0.578000
O O3 0.703811 0.341620 0.731773
O O4 0.120071 0.344057 0.440576
O O5 0.462468 0.002736 0.691860
O O6 0.006389 0.042778 0.913283
O O7 0.800300 0.931003 0.770645
O O8 0.000000 0.948601 0.000000
O O9 0.500000 0.145849 0.500000
O O10 0.572095 0.112909 0.397633
O O11 0.033329 0.151671 0.182836
O O12 0.537583 0.546299 0.787143
O O13 0.014351 0.568342 0.088206
O O14 0.500000 0.920924 0.500000
O O15 0.083912 0.847301 0.276159
O O16 0.500000 0.580791 0.500000
O O17 0.461998 0.523888 0.608415
O O18 0.263256 0.945129 0.832017
O O19 0.500000 0.841007 0.000000
#
# Coordination Sequence:
#
# PCOD9122704 Si02
#       8
#     4   4   4   4   4   4   4   4
#     4  10  24  42  61  86 124 175 222 264 311 379
#     4  11  22  35  56  92 133 162 202 262 327 380
#     4  10  21  42  63  82 119 170 224 260 315 388
#     4  10  20  35  62  91 123 160 204 267 323 382
#     4  10  21  38  62  87 120 173 217 254 317 392
#     4  11  23  34  58  90 125 160 211 267 328 375
#     4  11  19  36  63  97 122 158 210 263 330 397
#     4  11  21  38  64  94 127 163 212 263 330 398
#
# _framework density 19.691821999999998
#
# number of rings (size 3 to 8) (size 9 to 14) (size 15 to 20)
#    0.000    1.500    3.750    2.250    0.000    5.500 
#    0.000    5.000    0.000    0.000    0.000    0.000 
#    0.000    0.000    0.000    0.000    0.000    0.000 
#
# Total GULP energy -89122.684937 kJ/mol
# GULP energy per Si atom -5570.167809 kJ/mol
# Density = 1.964700 g / cm^3
# Si number density = 19.691822 Si / 1000 Ang^3
#
#
#
# Elastic Constant Matrix: (Units=GPa)
#
#
# Indices 1 2 3 4 5 6 
#
# 1 107.3736 30.6938 48.1417 0.0070 -16.1257 0.0002
# 2 30.6938 50.1231 20.1729 0.0016 -11.8906 -0.0038
# 3 48.1417 20.1729 124.3447 0.0222 -25.7539 0.0050
# 4 0.0070 0.0016 0.0222 13.9675 -0.0017 -0.9784
# 5 -16.1257 -11.8906 -25.7539 -0.0017 33.6099 -0.0069
# 6 0.0002 -0.0038 0.0050 -0.9784 -0.0069 22.5014
#
#
#
# Elastic Compliance Matrix: (Units=1/GPa)
#
#
# Indices 1 2 3 4 5 6 
#
# 1 0.012929 -0.006127 -0.003775 0.000000 0.001143 0.000000
# 2 -0.006127 0.025251 -0.000574 0.000002 0.005554 0.000006
# 3 -0.003775 -0.000574 0.010911 -0.000015 0.006347 -0.000001
# 4 0.000000 0.000002 -0.000015 0.071813 -0.000006 0.003123
# 5 0.001143 0.005554 0.006347 -0.000006 0.037130 0.000011
# 6 0.000000 0.000006 -0.000001 0.003123 0.000011 0.044577
#
#
# Mechanical properties :
#
#
# Convention : Reuss Voigt Hill
#
# Bulk Modulus (GPa) = 35.53695 53.31759 44.42727
# Shear Modulus (GPa) = 21.46444 26.20464 23.83454
#
# Velocity S-wave (km/s) = 3.30512 3.65188 3.48282
# Velocity P-wave (km/s) = 5.71409 6.70198 6.22765
#
# Compressibility (1/GPa) = 0.02813972
#
# Stress axis : x y z
#
# Youngs Moduli (GPa) = 77.34652 39.60182 91.64815
#
# Poissons Ratio (x) = 0.24263 0.34596
# Poissons Ratio (y) = 0.47389 0.05263
# Poissons Ratio (z) = 0.29197 0.02274
#
# Static dielectric constant tensor:
#      x y z
#    x 1.748590 -0.000020 0.041550 
#    y -0.000020 1.696350 0.000000 
#    z 0.041550 0.000000 1.779550 
# 
# From -- ./inp_files/59922.got.cif
#   From: 2010.05.17/outbox.cif.g08.bks.cpg/sg5_30_cif.got.tgz:59922.got - 2010.06.03 18:56:24.
