data_PCOD9122826
_publ_section_title
;
Structure prediction by ZEFSAII (Michael W. Deem and Ramdas Pophale) SiO2 
 PCOD9122826
Probable space group: C 2
;
_chemical_formula_sum "Si O2"
_cell_formula_units_Z 24
_cell_length_a 9.182007
_cell_length_b 7.232634
_cell_length_c 14.370891
_cell_angle_alpha 90.000000
_cell_angle_beta 92.715957
_cell_angle_gamma 90.000000
_cell_volume 953.300221
_symmetry_space_group_name_H-M "C 2"
_symmetry_group_IT_number 5
_symmetry_cell_setting 'monoclinic'
loop_
_space_group_symop_operation_xyz
x,y,z
-x,y,-z
1/2+x,1/2+y,z
1/2-x,1/2+y,-z
loop_
_atom_site_type_symbol
_atom_site_label
_atom_site_fract_x
_atom_site_fract_y
_atom_site_fract_z
Si Si1 0.157380 0.337930 0.610026
Si Si2 0.824859 0.315265 0.792201
Si Si3 0.913383 0.385217 0.082845
Si Si4 0.307765 0.736735 0.598572
Si Si5 0.088544 0.807899 0.917130
Si Si6 0.324744 0.364557 0.796390
O O1 0.201274 0.557781 0.609584
O O2 0.215175 0.280887 0.510075
O O3 0.252641 0.281525 0.702522
O O4 0.989836 0.257273 0.611742
O O5 0.769882 0.362380 0.687327
O O6 0.734438 0.387550 0.877921
O O7 0.986767 0.378165 0.821991
O O8 0.823706 0.089540 0.793460
O O9 0.764028 0.303510 0.114589
O O10 0.882394 0.596284 0.056500
O O11 0.000000 0.298186 0.000000
O O12 0.987231 0.806589 0.822520
O O13 0.000000 0.894539 0.000000
#
# Coordination Sequence:
#
# PCOD9122826 Si02
#       6
#     4   4   4   4   4   4
#     4  10  22  45  69 100 138 181 233 289 354 423
#     4  10  21  39  60  90 124 169 217 275 340 407
#     4  10  20  36  59  86 123 166 215 271 336 408
#     4  10  22  45  70  99 140 181 232 290 352 423
#     4  10  22  38  58  91 128 167 222 280 338 408
#     4  10  21  39  60  88 127 168 217 277 338 407
#
# _framework density 25.175699000000002
#
# number of rings (size 3 to 8) (size 9 to 14) (size 15 to 20)
#    0.000    2.000    1.667    1.000    0.000    3.333 
#   18.000    0.000    0.000    0.000    0.000    0.000 
#    0.000    0.000    0.000    0.000    0.000    0.000 
#
# Total GULP energy -66817.191790 kJ/mol
# GULP energy per Si atom -5568.099316 kJ/mol
# Density = 2.511840 g / cm^3
# Si number density = 25.175699 Si / 1000 Ang^3
#
#
#
# Elastic Constant Matrix: (Units=GPa)
#
#
# Indices 1 2 3 4 5 6 
#
# 1 89.1652 5.2885 13.0328 0.0000 9.4209 0.0000
# 2 5.2885 114.8593 -4.1305 0.0000 -9.0149 0.0000
# 3 13.0328 -4.1305 127.0705 0.0000 -2.4147 0.0000
# 4 0.0000 0.0000 0.0000 20.0891 0.0000 13.5696
# 5 9.4209 -9.0149 -2.4147 0.0000 38.1442 0.0000
# 6 0.0000 0.0000 0.0000 13.5696 0.0000 9.7224
#
#
#
# Elastic Compliance Matrix: (Units=1/GPa)
#
#
# Indices 1 2 3 4 5 6 
#
# 1 0.011792 -0.000840 -0.001297 0.000000 -0.003193 0.000000
# 2 -0.000840 0.008944 0.000422 0.000000 0.002348 0.000000
# 3 -0.001297 0.000422 0.008034 0.000000 0.000929 0.000000
# 4 0.000000 0.000000 0.000000 0.869653 0.000000 -1.213781
# 5 -0.003193 0.002348 0.000929 0.000000 0.027619 0.000000
# 6 0.000000 0.000000 0.000000 -1.213781 0.000000 1.796936
#
#
# Mechanical properties :
#
#
# Convention : Reuss Voigt Hill
#
# Bulk Modulus (GPa) = 39.46594 39.94185 39.70389
# Shear Modulus (GPa) = 1.82825 34.71808 18.27317
#
# Velocity S-wave (km/s) = 0.85310 3.71756 2.69704
# Velocity P-wave (km/s) = 4.08419 5.85890 5.05011
#
# Compressibility (1/GPa) = 0.02533831
#
# Stress axis : x y z
#
# Youngs Moduli (GPa) = 84.80343 111.80120 124.47004
#
# Poissons Ratio (x) = 0.09394 0.16149
# Poissons Ratio (y) = 0.07125 -0.05247
# Poissons Ratio (z) = 0.11003 -0.04713
#
# Static dielectric constant tensor:
#      x y z
#    x 1.961190 0.000000 -0.018540 
#    y 0.000000 2.016810 0.000000 
#    z -0.018540 0.000000 2.006650 
# 
# From -- ./inp_files/49885.got.cif
#   From: 2010.05.17/outbox.cif.g08.bks.cpg/sg5_25_cif.got.tgz:49885.got - 2010.06.03 18:56:24.
