data_PCOD9122219
_publ_section_title
;
Structure prediction by ZEFSAII (Michael W. Deem and Ramdas Pophale) SiO2 
 PCOD9122219
Probable space group: C 2
;
_chemical_formula_sum "Si O2"
_cell_formula_units_Z 32
_cell_length_a 18.048614
_cell_length_b 15.407313
_cell_length_c 12.859896
_cell_angle_alpha 90.000000
_cell_angle_beta 24.285828
_cell_angle_gamma 90.000000
_cell_volume 1470.805416
_symmetry_space_group_name_H-M "C 2"
_symmetry_group_IT_number 5
_symmetry_cell_setting 'monoclinic'
loop_
_space_group_symop_operation_xyz
x,y,z
-x,y,-z
1/2+x,1/2+y,z
1/2-x,1/2+y,-z
loop_
_atom_site_type_symbol
_atom_site_label
_atom_site_fract_x
_atom_site_fract_y
_atom_site_fract_z
Si Si1 0.161415 0.830840 0.376852
Si Si2 0.562492 0.924320 0.107622
Si Si3 0.618393 0.845798 0.454236
Si Si4 0.628114 0.136276 0.439925
Si Si5 0.549452 0.649545 0.557119
Si Si6 0.136367 0.989349 0.944735
Si Si7 0.193792 0.985679 0.491308
Si Si8 0.209336 0.559907 0.043779
O O1 0.173933 0.734504 0.406841
O O2 0.131326 0.903807 0.501994
O O3 0.000000 0.832526 0.500000
O O4 0.344095 0.852051 0.081541
O O5 0.483885 0.887141 0.316249
O O6 0.398959 0.968568 0.256974
O O7 0.715960 0.995150 0.938409
O O8 0.500000 0.849688 0.500000
O O9 0.639005 0.743710 0.452411
O O10 0.793268 0.903539 0.203176
O O11 0.500000 0.137139 0.500000
O O12 0.493034 0.094599 0.695256
O O13 0.796129 0.073691 0.204622
O O14 0.500000 0.635592 0.500000
O O15 0.662160 0.572815 0.465708
O O16 0.351638 0.638188 0.862969
O O17 0.246047 0.002160 0.912619
O O18 0.931871 0.988970 0.245313
#
# Coordination Sequence:
#
# PCOD9122219 Si02
#       8
#     4   4   4   4   4   4   4   4
#     4  11  24  40  68  96 129 170 221 266 321 388
#     4  12  24  41  66  95 136 173 211 270 338 382
#     4  11  22  40  70 102 128 171 223 277 317 384
#     4   9  19  36  63 100 119 157 216 278 313 371
#     4  10  23  40  70  97 130 174 226 270 322 389
#     4  10  19  41  69  93 128 168 218 267 320 387
#     4  11  25  43  63  95 137 177 212 267 331 399
#     4  10  19  39  66  95 126 167 219 268 328 374
#
# _framework density 21.756786000000002
#
# number of rings (size 3 to 8) (size 9 to 14) (size 15 to 20)
#    0.000    1.500    2.500    3.375    7.000    1.500 
#    2.250    1.250    8.250    0.000    0.000    0.000 
#    0.000    0.000    0.000    0.000    0.000    0.000 
#
# Total GULP energy -89396.135984 kJ/mol
# GULP energy per Si atom -5587.258499 kJ/mol
# Density = 2.170727 g / cm^3
# Si number density = 21.756786 Si / 1000 Ang^3
#
#
#
# Elastic Constant Matrix: (Units=GPa)
#
#
# Indices 1 2 3 4 5 6 
#
# 1 62.7147 40.2269 21.0605 -0.0003 -4.6624 0.0002
# 2 40.2269 153.1256 37.2311 -0.0001 -0.7108 0.0002
# 3 21.0605 37.2311 90.4652 0.0001 4.8958 0.0004
# 4 -0.0003 -0.0001 0.0001 14.5593 0.0001 11.6561
# 5 -4.6624 -0.7108 4.8958 0.0001 28.7359 0.0000
# 6 0.0002 0.0002 0.0004 11.6561 0.0000 13.2710
#
#
#
# Elastic Compliance Matrix: (Units=1/GPa)
#
#
# Indices 1 2 3 4 5 6 
#
# 1 0.020145 -0.004541 -0.003020 0.000002 0.003671 -0.000001
# 2 -0.004541 0.008294 -0.002349 0.000000 -0.000131 0.000000
# 3 -0.003020 -0.002349 0.012872 0.000000 -0.002741 -0.000001
# 4 0.000002 0.000000 0.000000 0.231399 -0.000001 -0.203242
# 5 0.003671 -0.000131 -0.002741 -0.000001 0.035859 0.000001
# 6 -0.000001 0.000000 -0.000001 -0.203242 0.000001 0.253863
#
#
# Mechanical properties :
#
#
# Convention : Reuss Voigt Hill
#
# Bulk Modulus (GPa) = 46.52986 55.92697 51.22842
# Shear Modulus (GPa) = 8.48298 25.16570 16.82434
#
# Velocity S-wave (km/s) = 1.97673 3.40469 2.78383
# Velocity P-wave (km/s) = 5.16166 6.42007 5.82495
#
# Compressibility (1/GPa) = 0.02149157
#
# Stress axis : x y z
#
# Youngs Moduli (GPa) = 49.64064 120.56787 77.68744
#
# Poissons Ratio (x) = 0.54749 0.23458
# Poissons Ratio (y) = 0.22541 0.18250
# Poissons Ratio (z) = 0.14989 0.28324
#
# Static dielectric constant tensor:
#      x y z
#    x 1.791120 0.000000 0.019780 
#    y 0.000000 1.768170 0.000000 
#    z 0.019780 0.000000 1.819280 
# 
# From -- ./inp_files/57182.got.cif
#   From: 2010.05.17/outbox.cif.g08.bks.cpg/sg5_29_cif.got.tgz:57182.got - 2010.06.03 18:56:24.
