data_PCOD9122054
_publ_section_title
;
Structure prediction by ZEFSAII (Michael W. Deem and Ramdas Pophale) SiO2 
 PCOD9122054
Probable space group: C 2
;
_chemical_formula_sum "Si O2"
_cell_formula_units_Z 32
_cell_length_a 11.218838
_cell_length_b 7.338978
_cell_length_c 28.399874
_cell_angle_alpha 90.000000
_cell_angle_beta 36.623971
_cell_angle_gamma 90.000000
_cell_volume 1394.936748
_symmetry_space_group_name_H-M "C 2"
_symmetry_group_IT_number 5
_symmetry_cell_setting 'monoclinic'
loop_
_space_group_symop_operation_xyz
x,y,z
-x,y,-z
1/2+x,1/2+y,z
1/2-x,1/2+y,-z
loop_
_atom_site_type_symbol
_atom_site_label
_atom_site_fract_x
_atom_site_fract_y
_atom_site_fract_z
Si Si1 0.310412 0.202090 0.588119
Si Si2 0.355702 0.524493 0.085639
Si Si3 0.901529 0.195316 0.670083
Si Si4 0.927087 0.635282 0.978390
Si Si5 0.981618 0.645815 0.153809
Si Si6 0.481558 0.587525 0.145312
Si Si7 0.121829 0.630112 0.322432
Si Si8 0.698807 0.637618 0.408987
O O1 0.500000 0.130096 0.500000
O O2 0.348481 0.168867 0.631510
O O3 0.300485 0.419700 0.585488
O O4 0.114394 0.131155 0.622862
O O5 0.441374 0.320071 0.063935
O O6 0.366185 0.609194 0.133205
O O7 0.133038 0.546896 0.139949
O O8 0.500000 0.606761 0.000000
O O9 0.738562 0.115040 0.757437
O O10 0.893844 0.412662 0.678314
O O11 0.840169 0.165735 0.634812
O O12 0.964249 0.566727 0.914590
O O13 0.697566 0.667070 0.063884
O O14 0.000000 0.521067 0.000000
O O15 0.014042 0.867872 0.143872
O O16 0.335906 0.673250 0.230171
O O17 0.914514 0.700498 0.363121
O O18 0.500000 0.704855 0.500000
#
# Coordination Sequence:
#
# PCOD9122054 Si02
#       8
#     4   4   4   4   4   4   4   4
#     4  10  22  40  63  94 127 161 202 250 306 368
#     4  10  19  38  61  83 116 158 203 246 300 352
#     4  10  22  39  62  91 124 163 204 254 307 359
#     4  10  22  37  58  87 117 158 204 246 301 357
#     4  10  21  39  61  87 122 159 203 255 301 354
#     4  10  21  39  58  88 121 157 206 251 303 355
#     4  10  22  39  61  90 128 160 203 260 302 359
#     4  10  21  40  64  93 126 164 203 248 307 368
#
# _framework density 22.940107999999999
#
# number of rings (size 3 to 8) (size 9 to 14) (size 15 to 20)
#    0.000    2.000    1.250    1.500    1.750    3.000 
#    4.500    0.000    0.000    0.000    0.000    0.000 
#    0.000    0.000    0.000    0.000    0.000    0.000 
#
# Total GULP energy -89239.835470 kJ/mol
# GULP energy per Si atom -5577.489717 kJ/mol
# Density = 2.288790 g / cm^3
# Si number density = 22.940108 Si / 1000 Ang^3
#
#
#
# Elastic Constant Matrix: (Units=GPa)
#
#
# Indices 1 2 3 4 5 6 
#
# 1 194.8647 2.6950 94.1857 -0.0002 -9.2627 -0.0001
# 2 2.6950 76.0674 9.3735 -0.0003 -9.4709 0.0019
# 3 94.1857 9.3735 168.3707 -0.0004 -14.1089 -0.0019
# 4 -0.0002 -0.0003 -0.0004 9.1711 -0.0002 -23.6572
# 5 -9.2627 -9.4709 -14.1089 -0.0002 38.6084 -0.0005
# 6 -0.0001 0.0019 -0.0019 -23.6572 -0.0005 -86.0573
#
#
#
# Elastic Compliance Matrix: (Units=1/GPa)
#
#
# Indices 1 2 3 4 5 6 
#
# 1 0.007041 0.000274 -0.003927 0.000000 0.000322 0.000000
# 2 0.000274 0.013611 -0.000646 0.000001 0.003169 0.000000
# 3 -0.003927 -0.000646 0.008335 0.000000 0.001945 0.000000
# 4 0.000000 0.000001 0.000000 0.063798 0.000000 -0.017538
# 5 0.000322 0.003169 0.001945 0.000000 0.027466 0.000000
# 6 0.000000 0.000000 0.000000 -0.017538 0.000000 -0.006799
#
#
# Mechanical properties :
#
#
# Convention : Reuss Voigt Hill
#
# Bulk Modulus (GPa) = 49.04340 72.42346 60.73343
# Shear Modulus (GPa) = 38.80582 14.54766 26.67674
#
# Velocity S-wave (km/s) = 4.11739 2.52098 3.41381
# Velocity P-wave (km/s) = 6.63544 6.33348 6.48622
#
# Compressibility (1/GPa) = 0.02039010
#
# Stress axis : x y z
#
# Youngs Moduli (GPa) = 142.01578 73.47210 119.97384
#
# Poissons Ratio (x) = -0.02017 0.47117
# Poissons Ratio (y) = -0.03898 0.07747
# Poissons Ratio (z) = 0.55774 0.04745
#
# Static dielectric constant tensor:
#      x y z
#    x 1.912640 0.000000 -0.010760 
#    y 0.000000 1.946820 0.000000 
#    z -0.010760 0.000000 1.807210 
# 
# From -- ./inp_files/71724.got.cif
#   From: 2010.05.17/outbox.cif.g08.bks.cpg/sg5_36_cif.got.tgz:71724.got - 2010.06.03 18:56:24.
