data_PCOD9122646
_publ_section_title
;
Structure prediction by ZEFSAII (Michael W. Deem and Ramdas Pophale) SiO2 
 PCOD9122646
Probable space group: C 2
;
_chemical_formula_sum "Si O2"
_cell_formula_units_Z 30
_cell_length_a 7.224363
_cell_length_b 14.435456
_cell_length_c 12.767166
_cell_angle_alpha 90.000000
_cell_angle_beta 82.354915
_cell_angle_gamma 90.000000
_cell_volume 1319.614078
_symmetry_space_group_name_H-M "C 2"
_symmetry_group_IT_number 5
_symmetry_cell_setting 'monoclinic'
loop_
_space_group_symop_operation_xyz
x,y,z
-x,y,-z
1/2+x,1/2+y,z
1/2-x,1/2+y,-z
loop_
_atom_site_type_symbol
_atom_site_label
_atom_site_fract_x
_atom_site_fract_y
_atom_site_fract_z
Si Si1 0.200882 0.904420 0.036197
Si Si2 0.338170 0.791069 0.841081
Si Si3 0.500000 0.578575 0.500000
Si Si4 0.251203 0.407329 0.580810
Si Si5 0.132311 0.099235 0.092384
Si Si6 0.194558 0.395547 0.356765
Si Si7 0.280813 0.280327 0.767060
Si Si8 0.836470 0.100657 0.300073
O O1 0.167516 0.828480 0.128360
O O2 0.254208 0.006613 0.071808
O O3 0.328451 0.865086 0.934650
O O4 0.000000 0.920444 0.000000
O O5 0.261014 0.694525 0.891080
O O6 0.247956 0.829210 0.742325
O O7 0.554076 0.777084 0.794974
O O8 0.344863 0.508594 0.561770
O O9 0.417126 0.634248 0.407224
O O10 0.270162 0.364316 0.463654
O O11 0.335244 0.348228 0.668715
O O12 0.029729 0.406781 0.618807
O O13 0.996530 0.085124 0.201702
O O14 0.000000 0.115768 0.000000
O O15 0.260767 0.499140 0.328961
O O16 0.314521 0.173462 0.734186
#
# Coordination Sequence:
#
# PCOD9122646 Si02
#       8
#     4   4   2   4   4   4   4   4
#     4  11  22  37  57  81 113 145 184 237 283 327
#     4  10  20  36  59  82 110 151 188 226 276 336
#     4  10  20  36  58  84 112 150 190 224 278 334
#     4   9  19  35  56  82 115 149 185 230 276 330
#     4  10  20  35  57  81 108 144 188 228 275 331
#     4   9  18  35  58  84 115 148 184 232 280 321
#     4  10  21  38  58  82 112 148 190 229 279 335
#     4  10  20  36  60  84 113 149 188 231 276 332
#
# _framework density 22.733920000000001
#
# number of rings (size 3 to 8) (size 9 to 14) (size 15 to 20)
#    0.000    2.133    0.000    4.400    0.000    4.267 
#    0.000    9.333    0.000    0.800    0.000    0.000 
#    0.000    0.000    0.000    0.000    0.000    0.000 
#
# Total GULP energy -83765.072117 kJ/mol
# GULP energy per Si atom -5584.338141 kJ/mol
# Density = 2.268218 g / cm^3
# Si number density = 22.733920 Si / 1000 Ang^3
#
#
#
# Elastic Constant Matrix: (Units=GPa)
#
#
# Indices 1 2 3 4 5 6 
#
# 1 22.0833 -5.5817 5.9265 0.0000 -4.2872 0.0000
# 2 -5.5817 111.1951 63.1127 0.0000 -0.0816 0.0000
# 3 5.9265 63.1127 160.0870 0.0000 1.1611 0.0000
# 4 0.0000 0.0000 0.0000 -119.3917 0.0000 -20.8473
# 5 -4.2872 -0.0816 1.1611 0.0000 32.5242 0.0000
# 6 0.0000 0.0000 0.0000 -20.8473 0.0000 7.6787
#
#
#
# Elastic Compliance Matrix: (Units=1/GPa)
#
#
# Indices 1 2 3 4 5 6 
#
# 1 0.048668 0.004506 -0.003626 0.000000 0.006556 0.000000
# 2 0.004506 0.012004 -0.004905 0.000000 0.000799 0.000000
# 3 -0.003626 -0.004905 0.008320 0.000000 -0.000787 0.000000
# 4 0.000000 0.000000 0.000000 -0.005682 0.000000 -0.015427
# 5 0.006556 0.000799 -0.000787 0.000000 0.031641 0.000000
# 6 0.000000 0.000000 0.000000 -0.015427 0.000000 0.088348
#
#
# Mechanical properties :
#
#
# Convention : Reuss Voigt Hill
#
# Bulk Modulus (GPa) = 16.40909 46.69785 31.55347
# Shear Modulus (GPa) = 23.62256 -0.51056 11.55600
#
# Velocity S-wave (km/s) = 3.22699 -0.47442 2.25703
# Velocity P-wave (km/s) = 4.59545 4.50395 4.54993
#
# Compressibility (1/GPa) = 0.06094184
#
# Stress axis : x y z
#
# Youngs Moduli (GPa) = 20.54757 83.30562 120.18792
#
# Poissons Ratio (x) = -0.37534 0.43575
# Poissons Ratio (y) = -0.09258 0.58953
# Poissons Ratio (z) = 0.07450 0.40862
#
# Static dielectric constant tensor:
#      x y z
#    x 2.261060 0.000000 -0.602820 
#    y 0.000000 1.931310 0.000000 
#    z -0.602820 0.000000 2.907650 
# 
# From -- ./inp_files/36163.got.cif
#   From: 2010.05.17/outbox.cif.g08.bks.cpg/sg5_19_cif.got.tgz:36163.got - 2010.06.03 18:56:24.
