data_PCOD9122734
_publ_section_title
;
Structure prediction by ZEFSAII (Michael W. Deem and Ramdas Pophale) SiO2 
 PCOD9122734
Probable space group: C 2
;
_chemical_formula_sum "Si O2"
_cell_formula_units_Z 22
_cell_length_a 13.677606
_cell_length_b 7.368326
_cell_length_c 22.303498
_cell_angle_alpha 90.000000
_cell_angle_beta 156.728392
_cell_angle_gamma 90.000000
_cell_volume 888.072264
_symmetry_space_group_name_H-M "C 2"
_symmetry_group_IT_number 5
_symmetry_cell_setting 'monoclinic'
loop_
_space_group_symop_operation_xyz
x,y,z
-x,y,-z
1/2+x,1/2+y,z
1/2-x,1/2+y,-z
loop_
_atom_site_type_symbol
_atom_site_label
_atom_site_fract_x
_atom_site_fract_y
_atom_site_fract_z
Si Si1 0.570698 0.227480 0.343556
Si Si2 0.349289 0.485277 0.296106
Si Si3 0.396425 0.395088 0.026650
Si Si4 0.820556 0.320188 0.971830
Si Si5 0.589024 0.814706 0.746504
Si Si6 0.000000 0.167605 0.500000
O O1 0.514078 0.306056 0.377338
O O2 0.339477 0.322338 0.178373
O O3 0.807062 0.271669 0.434789
O O4 0.546669 0.008877 0.330931
O O5 0.492212 0.634692 0.334542
O O6 0.355280 0.548329 0.368687
O O7 0.061900 0.444920 0.117195
O O8 0.361006 0.355551 0.075534
O O9 0.656456 0.340170 0.146695
O O10 0.392487 0.609872 0.015233
O O11 0.179574 0.296059 0.866336
#
# Coordination Sequence:
#
# PCOD9122734 Si02
#       6
#     4   4   4   4   4   2
#     4  11  26  50  74 111 159 204 259 325 382 469
#     4  12  26  48  79 106 158 210 256 319 397 456
#     4  10  20  35  66 109 153 181 250 319 377 445
#     4  11  22  43  70 116 150 193 259 322 377 461
#     4  10  22  42  69 106 148 201 250 309 385 456
#     4  12  30  54  76 118 160 204 272 316 386 490
#
# _framework density 24.772756999999999
#
# number of rings (size 3 to 8) (size 9 to 14) (size 15 to 20)
#    0.000    1.091    1.818    4.909   10.182    0.000 
#    0.000    1.818    0.000    0.000    0.000    0.000 
#    0.000    0.000    0.000    0.000    0.000    0.000 
#
# Total GULP energy -61462.312443 kJ/mol
# GULP energy per Si atom -5587.482949 kJ/mol
# Density = 2.471637 g / cm^3
# Si number density = 24.772757 Si / 1000 Ang^3
#
#
#
# Elastic Constant Matrix: (Units=GPa)
#
#
# Indices 1 2 3 4 5 6 
#
# 1 91.5055 5.3996 1.1932 -0.0005 -7.3895 -0.0001
# 2 5.3996 56.8983 12.1356 -0.0002 -8.5001 0.0000
# 3 1.1932 12.1356 87.2412 0.0074 -4.6016 -0.0016
# 4 -0.0005 -0.0002 0.0074 40.9248 -0.0009 4.7245
# 5 -7.3895 -8.5001 -4.6016 -0.0009 34.5137 -0.0004
# 6 -0.0001 0.0000 -0.0016 4.7245 -0.0004 46.8596
#
#
#
# Elastic Compliance Matrix: (Units=1/GPa)
#
#
# Indices 1 2 3 4 5 6 
#
# 1 0.011150 -0.000742 0.000067 0.000000 0.002214 0.000000
# 2 -0.000742 0.018773 -0.002383 0.000001 0.004147 0.000000
# 3 0.000067 -0.002383 0.011846 -0.000002 0.001007 0.000001
# 4 0.000000 0.000001 -0.000002 0.024723 0.000000 -0.002493
# 5 0.002214 0.004147 0.001007 0.000000 0.030604 0.000000
# 6 0.000000 0.000000 0.000001 -0.002493 0.000000 0.021592
#
#
# Mechanical properties :
#
#
# Convention : Reuss Voigt Hill
#
# Bulk Modulus (GPa) = 28.04613 30.34462 29.19537
# Shear Modulus (GPa) = 36.58008 38.92072 37.75040
#
# Velocity S-wave (km/s) = 3.84686 3.96802 3.90791
# Velocity P-wave (km/s) = 5.57468 5.76796 5.67214
#
# Compressibility (1/GPa) = 0.03565554
#
# Stress axis : x y z
#
# Youngs Moduli (GPa) = 89.68648 53.26708 84.41597
#
# Poissons Ratio (x) = 0.03951 -0.00569
# Poissons Ratio (y) = 0.06653 0.20113
# Poissons Ratio (z) = -0.00605 0.12691
#
# Static dielectric constant tensor:
#      x y z
#    x 1.892480 0.000000 -0.079940 
#    y 0.000000 2.032890 0.000000 
#    z -0.079940 0.000000 2.142340 
# 
# From -- ./inp_files/68742.got.cif
#   From: 2010.05.17/outbox.cif.g08.bks.cpg/sg5_35_cif.got.tgz:68742.got - 2010.06.03 18:56:24.
