data_PCOD9122075
_publ_section_title
;
Structure prediction by ZEFSAII (Michael W. Deem and Ramdas Pophale) SiO2 
 PCOD9122075
Probable space group: C 2
;
_chemical_formula_sum "Si O2"
_cell_formula_units_Z 28
_cell_length_a 20.666498
_cell_length_b 11.974359
_cell_length_c 15.849069
_cell_angle_alpha 90.000000
_cell_angle_beta 163.944221
_cell_angle_gamma 90.000000
_cell_volume 1084.757755
_symmetry_space_group_name_H-M "C 2"
_symmetry_group_IT_number 5
_symmetry_cell_setting 'monoclinic'
loop_
_space_group_symop_operation_xyz
x,y,z
-x,y,-z
1/2+x,1/2+y,z
1/2-x,1/2+y,-z
loop_
_atom_site_type_symbol
_atom_site_label
_atom_site_fract_x
_atom_site_fract_y
_atom_site_fract_z
Si Si1 0.028689 0.471860 0.885954
Si Si2 0.974904 0.224863 0.817041
Si Si3 0.738303 0.535760 0.362428
Si Si4 0.945630 0.346533 0.530142
Si Si5 0.954627 0.714693 0.343629
Si Si6 0.111582 0.941199 0.805337
Si Si7 0.246084 0.139576 0.608469
O O1 0.010188 0.346762 0.898830
O O2 0.827097 0.480919 0.560942
O O3 0.988271 0.570551 0.900715
O O4 0.262003 0.480688 0.122627
O O5 0.971831 0.120086 0.876112
O O6 0.751524 0.209070 0.477591
O O7 0.175909 0.214945 0.998093
O O8 0.748667 0.438440 0.306746
O O9 0.937004 0.619975 0.577112
O O10 0.000000 0.341705 0.500000
O O11 0.838379 0.230404 0.429771
O O12 0.182914 0.393896 0.874731
O O13 0.033114 0.832257 0.404312
O O14 0.000000 0.702252 0.500000
O O15 0.942039 0.037388 0.625254
#
# Coordination Sequence:
#
# PCOD9122075 Si02
#       7
#     4   4   4   4   4   4   4
#     4   9  19  35  62  94 119 165 215 259 314 388
#     4  10  19  38  62  93 124 162 213 267 316 381
#     4  10  20  36  60  93 127 164 209 271 321 379
#     4  11  23  41  66  99 135 167 217 267 322 392
#     4  11  22  38  62  95 128 169 220 269 320 383
#     4  10  22  41  64  94 127 173 216 263 327 383
#     4  11  20  39  65  91 125 171 209 261 326 379
#
# _framework density 25.812214000000001
#
# number of rings (size 3 to 8) (size 9 to 14) (size 15 to 20)
#    0.000    1.714    4.286    3.000    0.000    1.143 
#    0.000    2.857    0.000   12.000    0.000    0.000 
#    0.000    0.000    0.000    0.000    0.000    0.000 
#
# Total GULP energy -78202.807107 kJ/mol
# GULP energy per Si atom -5585.914793 kJ/mol
# Density = 2.575346 g / cm^3
# Si number density = 25.812214 Si / 1000 Ang^3
#
#
#
# Elastic Constant Matrix: (Units=GPa)
#
#
# Indices 1 2 3 4 5 6 
#
# 1 165.9994 73.4383 21.0600 -0.0035 13.3498 -0.0040
# 2 73.4383 205.2021 36.9308 -0.0084 22.2962 -0.0056
# 3 21.0600 36.9308 46.2031 0.0199 18.7966 0.0159
# 4 -0.0035 -0.0084 0.0199 24.7155 -0.0004 20.1794
# 5 13.3498 22.2962 18.7966 -0.0004 36.8205 -0.0018
# 6 -0.0040 -0.0056 0.0159 20.1794 -0.0018 50.4961
#
#
#
# Elastic Compliance Matrix: (Units=1/GPa)
#
#
# Indices 1 2 3 4 5 6 
#
# 1 0.007249 -0.002310 -0.001208 0.000001 -0.000612 0.000000
# 2 -0.002310 0.006488 -0.003629 0.000005 -0.001238 0.000000
# 3 -0.001208 -0.003629 0.030320 -0.000026 -0.012842 0.000000
# 4 0.000001 0.000005 -0.000026 0.060055 0.000009 -0.023999
# 5 -0.000612 -0.001238 -0.012842 0.000009 0.034687 0.000001
# 6 0.000000 0.000000 0.000000 -0.023999 0.000001 0.029394
#
#
# Mechanical properties :
#
#
# Convention : Reuss Voigt Hill
#
# Bulk Modulus (GPa) = 33.60086 75.58474 54.59280
# Shear Modulus (GPa) = 25.98656 41.47146 33.72901
#
# Velocity S-wave (km/s) = 3.17638 4.01267 3.61876
# Velocity P-wave (km/s) = 5.14764 7.12845 6.21743
#
# Compressibility (1/GPa) = 0.02976114
#
# Stress axis : x y z
#
# Youngs Moduli (GPa) = 137.95602 154.13856 32.98200
#
# Poissons Ratio (x) = 0.35609 0.03985
# Poissons Ratio (y) = 0.31870 0.11969
# Poissons Ratio (z) = 0.16670 0.55935
#
# Static dielectric constant tensor:
#      x y z
#    x 1.973180 0.000000 -0.091660 
#    y 0.000000 2.049960 0.000000 
#    z -0.091660 0.000000 2.298770 
# 
# From -- ./inp_files/62915.got.cif
#   From: 2010.05.17/outbox.cif.g08.bks.cpg/sg5_32_cif.got.tgz:62915.got - 2010.06.03 18:56:24.
