data_PCOD9122035
_publ_section_title
;
Structure prediction by ZEFSAII (Michael W. Deem and Ramdas Pophale) SiO2 
 PCOD9122035
Probable space group: C 2
;
_chemical_formula_sum "Si O2"
_cell_formula_units_Z 32
_cell_length_a 12.936340
_cell_length_b 11.887482
_cell_length_c 11.680875
_cell_angle_alpha 90.000000
_cell_angle_beta 113.698007
_cell_angle_gamma 90.000000
_cell_volume 1644.821499
_symmetry_space_group_name_H-M "C 2"
_symmetry_group_IT_number 5
_symmetry_cell_setting 'monoclinic'
loop_
_space_group_symop_operation_xyz
x,y,z
-x,y,-z
1/2+x,1/2+y,z
1/2-x,1/2+y,-z
loop_
_atom_site_type_symbol
_atom_site_label
_atom_site_fract_x
_atom_site_fract_y
_atom_site_fract_z
Si Si1 0.203234 0.593680 0.586431
Si Si2 0.312342 0.980756 0.906516
Si Si3 0.368254 0.520764 0.473403
Si Si4 0.751341 0.690716 0.755341
Si Si5 0.450141 0.205905 0.681870
Si Si6 0.665620 0.317419 0.692177
Si Si7 0.576040 0.876837 0.635527
Si Si8 0.522434 0.987225 0.827488
O O1 0.318489 0.553879 0.575169
O O2 0.118364 0.645243 0.451678
O O3 0.217450 0.696367 0.681966
O O4 0.140938 0.486513 0.614987
O O5 0.225756 0.888556 0.819439
O O6 0.418354 0.976813 0.866769
O O7 0.272163 0.110518 0.873560
O O8 0.363405 0.959189 0.054064
O O9 0.500000 0.532599 0.500000
O O10 0.301486 0.602870 0.358343
O O11 0.331085 0.395702 0.419285
O O12 0.861402 0.740102 0.740303
O O13 0.663564 0.789783 0.726286
O O14 0.535428 0.296715 0.669380
O O15 0.525763 0.112945 0.780033
O O16 0.500000 0.828291 0.500000
O O17 0.498707 0.912850 0.706382
#
# Coordination Sequence:
#
# PCOD9122035 Si02
#       8
#     4   4   4   4   4   4   4   4
#     4  11  22  35  56  90 120 151 197 235 292 355
#     4   9  22  41  60  87 112 157 206 240 288 344
#     4  10  22  35  53  84 123 157 187 237 300 350
#     4   9  22  36  56  87 120 150 193 243 289 347
#     4  10  19  38  58  86 118 155 196 234 290 353
#     4  11  21  36  60  85 115 158 198 241 287 358
#     4  12  22  35  60  91 119 150 189 248 298 347
#     4  10  20  40  63  83 117 155 201 246 283 350
#
# _framework density 19.454998
#
# number of rings (size 3 to 8) (size 9 to 14) (size 15 to 20)
#    0.000    1.750    2.500    2.250    5.250    2.000 
#    0.000    0.000    0.000    0.000    0.000    0.000 
#    0.000    0.000    0.000    0.000    0.000    0.000 
#
# Total GULP energy -89234.093011 kJ/mol
# GULP energy per Si atom -5577.130813 kJ/mol
# Density = 1.941072 g / cm^3
# Si number density = 19.454998 Si / 1000 Ang^3
#
#
#
# Elastic Constant Matrix: (Units=GPa)
#
#
# Indices 1 2 3 4 5 6 
#
# 1 68.8281 20.9411 7.0873 0.0000 7.1608 0.0000
# 2 20.9411 66.7012 7.6853 0.0000 9.2062 0.0000
# 3 7.0873 7.6853 72.4811 0.0000 11.8640 0.0000
# 4 0.0000 0.0000 0.0000 20.2151 0.0000 9.4158
# 5 7.1608 9.2062 11.8640 0.0000 22.0083 0.0000
# 6 0.0000 0.0000 0.0000 9.4158 0.0000 28.7728
#
#
#
# Elastic Compliance Matrix: (Units=1/GPa)
#
#
# Indices 1 2 3 4 5 6 
#
# 1 0.016318 -0.004633 -0.000606 0.000000 -0.003045 0.000000
# 2 -0.004633 0.017255 -0.000485 0.000000 -0.005449 0.000000
# 3 -0.000606 -0.000485 0.015181 0.000000 -0.007784 0.000000
# 4 0.000000 0.000000 0.000000 0.058364 0.000000 -0.019100
# 5 -0.003045 -0.005449 -0.007784 0.000000 0.052904 0.000000
# 6 0.000000 0.000000 0.000000 -0.019100 0.000000 0.041005
#
#
# Mechanical properties :
#
#
# Convention : Reuss Voigt Hill
#
# Bulk Modulus (GPa) = 26.80477 31.04862 28.92670
# Shear Modulus (GPa) = 22.23114 25.68567 23.95841
#
# Velocity S-wave (km/s) = 3.38405 3.63748 3.51305
# Velocity P-wave (km/s) = 5.39229 5.79962 5.59966
#
# Compressibility (1/GPa) = 0.03730679
#
# Stress axis : x y z
#
# Youngs Moduli (GPa) = 61.28320 57.95522 65.86986
#
# Poissons Ratio (x) = 0.26850 0.03991
# Poissons Ratio (y) = 0.28392 0.03192
# Poissons Ratio (z) = 0.03714 0.02809
#
# Static dielectric constant tensor:
#      x y z
#    x 1.710300 0.000000 0.010360 
#    y 0.000000 1.704200 0.000000 
#    z 0.010360 0.000000 1.688670 
# 
# From -- ./inp_files/39453.got.cif
#   From: 2010.05.17/outbox.cif.g08.bks.cpg/sg5_20_cif.got.tgz:39453.got - 2010.06.03 18:56:24.
