data_PCOD9122760
_publ_section_title
;
Structure prediction by ZEFSAII (Michael W. Deem and Ramdas Pophale) SiO2 
 PCOD9122760
Probable space group: C 2
;
_chemical_formula_sum "Si O2"
_cell_formula_units_Z 26
_cell_length_a 18.375637
_cell_length_b 8.595447
_cell_length_c 14.137015
_cell_angle_alpha 90.000000
_cell_angle_beta 30.704374
_cell_angle_gamma 90.000000
_cell_volume 1140.136051
_symmetry_space_group_name_H-M "C 2"
_symmetry_group_IT_number 5
_symmetry_cell_setting 'monoclinic'
loop_
_space_group_symop_operation_xyz
x,y,z
-x,y,-z
1/2+x,1/2+y,z
1/2-x,1/2+y,-z
loop_
_atom_site_type_symbol
_atom_site_label
_atom_site_fract_x
_atom_site_fract_y
_atom_site_fract_z
Si Si1 0.800514 0.065980 0.478988
Si Si2 0.157819 0.638858 0.437534
Si Si3 0.217214 0.432601 0.759386
Si Si4 0.500000 0.613952 0.500000
Si Si5 0.153850 0.526848 0.028960
Si Si6 0.961220 0.342132 0.393309
Si Si7 0.066124 0.845335 0.215243
O O1 0.726661 0.102288 0.462876
O O2 0.848028 0.231577 0.468225
O O3 0.698497 0.985078 0.671376
O O4 0.940792 0.955431 0.312879
O O5 0.263881 0.746563 0.260185
O O6 0.113959 0.468429 0.454648
O O7 0.016869 0.743566 0.612271
O O8 0.369646 0.513115 0.610298
O O9 0.125685 0.489162 0.950060
O O10 0.548863 0.725400 0.360701
O O11 0.308284 0.452987 0.884288
O O12 0.129463 0.709638 0.077524
O O13 0.050822 0.432908 0.215205
#
# Coordination Sequence:
#
# PCOD9122760 Si02
#       7
#     4   4   4   2   4   4   4
#     4  10  20  40  60  83 118 164 206 242 297 375
#     4  10  21  37  61  87 115 164 211 249 298 370
#     4  10  20  36  61  85 116 155 204 255 304 364
#     4  10  20  36  56  84 116 160 196 240 306 360
#     4  11  21  37  60  95 122 154 198 258 324 354
#     4  10  21  36  60  88 123 156 200 256 306 369
#     4  10  21  36  62  89 126 160 195 252 309 374
#
# _framework density 22.804296000000001
#
# number of rings (size 3 to 8) (size 9 to 14) (size 15 to 20)
#    0.000    1.846    0.000    6.462    0.000    3.077 
#    0.000   10.000    0.000    9.231    0.000    0.000 
#    0.000    0.000    0.000    0.000    0.000    0.000 
#
# Total GULP energy -72594.532292 kJ/mol
# GULP energy per Si atom -5584.194792 kJ/mol
# Density = 2.275239 g / cm^3
# Si number density = 22.804296 Si / 1000 Ang^3
#
#
#
# Elastic Constant Matrix: (Units=GPa)
#
#
# Indices 1 2 3 4 5 6 
#
# 1 86.8774 34.3086 26.7752 0.0000 7.6329 0.0000
# 2 34.3086 168.8742 45.6690 0.0000 5.5641 0.0000
# 3 26.7752 45.6690 85.4253 0.0000 2.5982 0.0000
# 4 0.0000 0.0000 0.0000 32.1046 0.0000 3.6296
# 5 7.6329 5.5641 2.5982 0.0000 37.0691 0.0000
# 6 0.0000 0.0000 0.0000 3.6296 0.0000 34.0846
#
#
#
# Elastic Compliance Matrix: (Units=1/GPa)
#
#
# Indices 1 2 3 4 5 6 
#
# 1 0.013394 -0.001788 -0.003173 0.000000 -0.002267 0.000000
# 2 -0.001788 0.007184 -0.003265 0.000000 -0.000481 0.000000
# 3 -0.003173 -0.003265 0.014442 0.000000 0.000131 0.000000
# 4 0.000000 0.000000 0.000000 0.031528 0.000000 -0.003357
# 5 -0.002267 -0.000481 0.000131 0.000000 0.027506 0.000000
# 6 0.000000 0.000000 0.000000 -0.003357 0.000000 0.029696
#
#
# Mechanical properties :
#
#
# Convention : Reuss Voigt Hill
#
# Bulk Modulus (GPa) = 53.86047 61.63139 57.74593
# Shear Modulus (GPa) = 34.15468 36.27993 35.21731
#
# Velocity S-wave (km/s) = 3.87425 3.99297 3.93406
# Velocity P-wave (km/s) = 6.60931 6.95293 6.78330
#
# Compressibility (1/GPa) = 0.01856649
#
# Stress axis : x y z
#
# Youngs Moduli (GPa) = 74.66138 139.20220 69.24058
#
# Poissons Ratio (x) = 0.24893 0.21971
# Poissons Ratio (y) = 0.13352 0.22610
# Poissons Ratio (z) = 0.23691 0.45455
#
# Static dielectric constant tensor:
#      x y z
#    x 1.890880 0.000000 0.002180 
#    y 0.000000 1.849720 0.000000 
#    z 0.002180 0.000000 1.898810 
# 
# From -- ./inp_files/56796.got.cif
#   From: 2010.05.17/outbox.cif.g08.bks.cpg/sg5_29_cif.got.tgz:56796.got - 2010.06.03 18:56:24.
