data_PCOD9122167
_publ_section_title
;
Structure prediction by ZEFSAII (Michael W. Deem and Ramdas Pophale) SiO2 
 PCOD9122167
Probable space group: C 2
;
_chemical_formula_sum "Si O2"
_cell_formula_units_Z 28
_cell_length_a 12.318717
_cell_length_b 10.939203
_cell_length_c 22.102684
_cell_angle_alpha 90.000000
_cell_angle_beta 154.566574
_cell_angle_gamma 90.000000
_cell_volume 1279.148536
_symmetry_space_group_name_H-M "C 2"
_symmetry_group_IT_number 5
_symmetry_cell_setting 'monoclinic'
loop_
_space_group_symop_operation_xyz
x,y,z
-x,y,-z
1/2+x,1/2+y,z
1/2-x,1/2+y,-z
loop_
_atom_site_type_symbol
_atom_site_label
_atom_site_fract_x
_atom_site_fract_y
_atom_site_fract_z
Si Si1 0.200255 0.406270 0.223784
Si Si2 0.870018 0.889697 0.858151
Si Si3 0.912832 0.055349 0.780997
Si Si4 0.392515 0.002366 0.172366
Si Si5 0.548071 0.223996 0.457386
Si Si6 0.134613 0.216766 0.002997
Si Si7 0.886889 0.138943 0.245900
O O1 0.427595 0.309683 0.345193
O O2 0.292867 0.527387 0.238446
O O3 0.111237 0.435113 0.246938
O O4 0.960321 0.349559 0.066472
O O5 0.649414 0.974309 0.778009
O O6 0.804652 0.752063 0.842978
O O7 0.891902 0.919798 0.798009
O O8 0.139294 0.934284 0.019515
O O9 0.630049 0.104757 0.630170
O O10 0.069484 0.086288 0.799860
O O11 0.032852 0.137012 0.895214
O O12 0.390332 0.143494 0.149264
O O13 0.500000 0.279481 0.500000
O O14 0.839371 0.190926 0.596480
O O15 0.000000 0.198577 0.000000
#
# Coordination Sequence:
#
# PCOD9122167 Si02
#       7
#     4   4   4   4   4   4   4
#     4  11  25  39  63 100 127 163 220 267 326 399
#     4  10  20  39  66  89 129 175 212 265 316 399
#     4   9  19  40  66  92 123 171 220 267 323 392
#     4  10  20  40  63  91 127 170 213 250 328 398
#     4   9  20  42  67  84 124 170 215 272 322 376
#     4  10  19  39  60  89 126 170 201 260 316 378
#     4  11  24  41  63  98 129 171 220 269 335 386
#
# _framework density 21.889562000000002
#
# number of rings (size 3 to 8) (size 9 to 14) (size 15 to 20)
#    0.000    2.000    2.857    2.571    4.000    2.286 
#    5.143    0.000    0.000    0.000    0.000    0.000 
#    0.000    0.000    0.000    0.000    0.000    0.000 
#
# Total GULP energy -77987.471938 kJ/mol
# GULP energy per Si atom -5570.533710 kJ/mol
# Density = 2.183974 g / cm^3
# Si number density = 21.889562 Si / 1000 Ang^3
#
#
#
# Elastic Constant Matrix: (Units=GPa)
#
#
# Indices 1 2 3 4 5 6 
#
# 1 118.8190 52.2748 26.1801 0.0006 -2.1124 -0.0003
# 2 52.2748 120.8223 34.7603 0.0002 7.2969 -0.0007
# 3 26.1801 34.7603 41.1188 0.0032 -0.0265 -0.0006
# 4 0.0006 0.0002 0.0032 21.0651 0.0005 -1.5617
# 5 -2.1124 7.2969 -0.0265 0.0005 23.8691 -0.0007
# 6 -0.0003 -0.0007 -0.0006 -1.5617 -0.0007 30.2938
#
#
#
# Elastic Compliance Matrix: (Units=1/GPa)
#
#
# Indices 1 2 3 4 5 6 
#
# 1 0.010948 -0.003779 -0.003775 0.000000 0.002120 0.000000
# 2 -0.003779 0.012516 -0.008177 0.000001 -0.004170 0.000000
# 3 -0.003775 -0.008177 0.033637 -0.000005 0.002203 0.000000
# 4 0.000000 0.000001 -0.000005 0.047654 -0.000001 0.002457
# 5 0.002120 -0.004170 0.002203 -0.000001 0.043360 0.000001
# 6 0.000000 0.000000 0.000000 0.002457 0.000001 0.033137
#
#
# Mechanical properties :
#
#
# Convention : Reuss Voigt Hill
#
# Bulk Modulus (GPa) = 39.00199 56.35450 47.67824
# Shear Modulus (GPa) = 22.59785 26.21527 24.40656
#
# Velocity S-wave (km/s) = 3.21652 3.46441 3.34276
# Velocity P-wave (km/s) = 5.62592 6.46558 6.06031
#
# Compressibility (1/GPa) = 0.02563972
#
# Stress axis : x y z
#
# Youngs Moduli (GPa) = 91.34038 79.89800 29.72890
#
# Poissons Ratio (x) = 0.30192 0.11222
# Poissons Ratio (y) = 0.34516 0.24310
# Poissons Ratio (z) = 0.34478 0.65335
#
# Static dielectric constant tensor:
#      x y z
#    x 1.836880 0.000000 -0.019000 
#    y 0.000000 1.864880 0.000000 
#    z -0.019000 0.000000 1.868880 
# 
# From -- ./inp_files/65320.got.cif
#   From: 2010.05.17/outbox.cif.g08.bks.cpg/sg5_33_cif.got.tgz:65320.got - 2010.06.03 18:56:24.
