data_PCOD9122525
_publ_section_title
;
Structure prediction by ZEFSAII (Michael W. Deem and Ramdas Pophale) SiO2 
 PCOD9122525
Probable space group: C 2
;
_chemical_formula_sum "Si O2"
_cell_formula_units_Z 20
_cell_length_a 5.242331
_cell_length_b 24.678992
_cell_length_c 8.234604
_cell_angle_alpha 90.000000
_cell_angle_beta 122.092361
_cell_angle_gamma 90.000000
_cell_volume 902.561516
_symmetry_space_group_name_H-M "C 2"
_symmetry_group_IT_number 5
_symmetry_cell_setting 'monoclinic'
loop_
_space_group_symop_operation_xyz
x,y,z
-x,y,-z
1/2+x,1/2+y,z
1/2-x,1/2+y,-z
loop_
_atom_site_type_symbol
_atom_site_label
_atom_site_fract_x
_atom_site_fract_y
_atom_site_fract_z
Si Si1 0.141620 0.757640 0.368079
Si Si2 0.861364 0.877441 0.633495
Si Si3 0.145079 0.538244 0.722092
Si Si4 0.641159 0.150876 0.875128
Si Si5 0.149092 0.986850 0.733157
O O1 0.500000 0.750308 0.500000
O O2 0.092354 0.817751 0.276273
O O3 0.000000 0.756912 0.500000
O O4 0.998589 0.707696 0.226320
O O5 0.500000 0.887880 0.500000
O O6 0.000000 0.872999 0.500000
O O7 0.043754 0.928482 0.764863
O O8 0.068652 0.600068 0.735526
O O9 0.495872 0.529906 0.802044
O O10 0.000000 0.523550 0.500000
O O11 0.992914 0.499814 0.805907
O O12 0.500000 0.137322 0.000000
O O13 0.000000 0.156154 0.000000
O O14 0.000000 0.990840 0.500000
#
# Coordination Sequence:
#
# PCOD9122525 Si02
#       5
#     4   4   4   4   4
#     4  10  21  38  61  85 110 145 191 234 274 331
#     4   9  16  29  52  84 113 135 172 230 282 321
#     4  10  20  34  56  81 108 143 185 225 267 328
#     4  12  25  40  57  80 116 153 188 234 285 330
#     4   9  16  29  52  84 111 134 172 227 278 320
#
# _framework density 22.159154999999998
#
# number of rings (size 3 to 8) (size 9 to 14) (size 15 to 20)
#    0.000    2.000    0.000    6.000    0.000    2.400 
#    0.000    0.000    0.000    7.200    0.000    0.000 
#    0.000    0.000    0.000    0.000    0.000    0.000 
#
# Total GULP energy -55829.135487 kJ/mol
# GULP energy per Si atom -5582.913549 kJ/mol
# Density = 2.210872 g / cm^3
# Si number density = 22.159155 Si / 1000 Ang^3
#
#
#
# Elastic Constant Matrix: (Units=GPa)
#
#
# Indices 1 2 3 4 5 6 
#
# 1 195.8751 54.2386 34.6855 0.0000 1.1576 0.0000
# 2 54.2386 157.9687 9.3685 0.0000 -5.9226 0.0000
# 3 34.6855 9.3685 24.3068 0.0000 -2.2558 0.0000
# 4 0.0000 0.0000 0.0000 5.1072 0.0000 3.2028
# 5 1.1576 -5.9226 -2.2558 0.0000 25.4760 0.0000
# 6 0.0000 0.0000 0.0000 3.2028 0.0000 37.8330
#
#
#
# Elastic Compliance Matrix: (Units=1/GPa)
#
#
# Indices 1 2 3 4 5 6 
#
# 1 0.007448 -0.002028 -0.010005 0.000000 -0.001696 0.000000
# 2 -0.002028 0.007073 0.000331 0.000000 0.001766 0.000000
# 3 -0.010005 0.000331 0.055797 0.000000 0.005472 0.000000
# 4 0.000000 0.000000 0.000000 0.206779 0.000000 -0.017505
# 5 -0.001696 0.001766 0.005472 0.000000 0.040225 0.000000
# 6 0.000000 0.000000 0.000000 -0.017505 0.000000 0.027914
#
#
# Mechanical properties :
#
#
# Convention : Reuss Voigt Hill
#
# Bulk Modulus (GPa) = 21.31442 63.85951 42.58697
# Shear Modulus (GPa) = 13.01144 32.34045 22.67595
#
# Velocity S-wave (km/s) = 2.42581 3.82444 3.20241
# Velocity P-wave (km/s) = 4.18160 6.95578 5.73884
#
# Compressibility (1/GPa) = 0.04691660
#
# Stress axis : x y z
#
# Youngs Moduli (GPa) = 134.25728 141.38014 17.92202
#
# Poissons Ratio (x) = 0.28667 0.17930
# Poissons Ratio (y) = 0.27223 -0.00593
# Poissons Ratio (z) = 1.34319 -0.04682
#
# Static dielectric constant tensor:
#      x y z
#    x 1.804550 0.000000 0.014470 
#    y 0.000000 1.857430 0.000000 
#    z 0.014470 0.000000 1.850370 
# 
# From -- ./inp_files/12607.got.cif
#   From: 2010.05.17/outbox.cif.g08.bks.cpg/sg5_7_cif.got.tgz:12607.got - 2010.06.03 18:56:24.
