data_PCOD9122100
_publ_section_title
;
Structure prediction by ZEFSAII (Michael W. Deem and Ramdas Pophale) SiO2 
 PCOD9122100
Probable space group: C 2
;
_chemical_formula_sum "Si O2"
_cell_formula_units_Z 30
_cell_length_a 19.286790
_cell_length_b 11.465198
_cell_length_c 7.012513
_cell_angle_alpha 90.000000
_cell_angle_beta 91.937179
_cell_angle_gamma 90.000000
_cell_volume 1549.768811
_symmetry_space_group_name_H-M "C 2"
_symmetry_group_IT_number 5
_symmetry_cell_setting 'monoclinic'
loop_
_space_group_symop_operation_xyz
x,y,z
-x,y,-z
1/2+x,1/2+y,z
1/2-x,1/2+y,-z
loop_
_atom_site_type_symbol
_atom_site_label
_atom_site_fract_x
_atom_site_fract_y
_atom_site_fract_z
Si Si1 0.608233 0.807250 0.855757
Si Si2 0.305659 0.147794 0.231888
Si Si3 0.721670 0.905154 0.598334
Si Si4 0.000000 0.713818 0.500000
Si Si5 0.420934 0.604610 0.430416
Si Si6 0.162264 0.249125 0.258970
Si Si7 0.943590 0.556731 0.154426
Si Si8 0.868098 0.855267 0.482683
O O1 0.681879 0.840033 0.765425
O O2 0.583386 0.690591 0.750025
O O3 0.560951 0.919070 0.803697
O O4 0.615484 0.794351 0.082380
O O5 0.227862 0.182773 0.168593
O O6 0.364945 0.098547 0.096509
O O7 0.337642 0.262383 0.330756
O O8 0.295617 0.041721 0.381691
O O9 0.691790 0.851543 0.398841
O O10 0.803661 0.881790 0.615322
O O11 0.032571 0.630512 0.661929
O O12 0.062288 0.795872 0.429105
O O13 0.500000 0.591021 0.500000
O O14 0.378623 0.664742 0.600270
O O15 0.388769 0.477856 0.390860
O O16 0.000000 0.578103 0.000000
#
# Coordination Sequence:
#
# PCOD9122100 Si02
#       8
#     4   4   4   2   4   4   4   4
#     4  10  24  39  60  93 118 154 206 245 304 358
#     4   9  19  39  62  90 118 155 203 244 295 363
#     4   9  19  40  63  90 117 154 200 249 299 355
#     4  10  22  40  62  88 116 162 198 244 304 356
#     4  11  23  39  63  86 122 161 197 244 303 358
#     4  10  21  40  63  89 121 155 198 253 297 355
#     4  10  23  39  60  88 120 151 203 248 297 356
#     4  10  19  38  64  86 120 160 198 239 302 359
#
# _framework density 19.357727000000001
#
# number of rings (size 3 to 8) (size 9 to 14) (size 15 to 20)
#    0.000    2.133    2.000    0.000    2.800    4.267 
#    9.600    2.667    0.000    0.000    0.000    0.000 
#    0.000    0.000    0.000    0.000    0.000    0.000 
#
# Total GULP energy -83617.626187 kJ/mol
# GULP energy per Si atom -5574.508412 kJ/mol
# Density = 1.931367 g / cm^3
# Si number density = 19.357727 Si / 1000 Ang^3
#
#
#
# Elastic Constant Matrix: (Units=GPa)
#
#
# Indices 1 2 3 4 5 6 
#
# 1 100.4738 31.7357 16.7849 0.0000 -18.6415 0.0000
# 2 31.7357 136.9946 28.6327 0.0000 2.6550 0.0000
# 3 16.7849 28.6327 57.5243 0.0000 -5.9608 0.0000
# 4 0.0000 0.0000 0.0000 18.5384 0.0000 11.2340
# 5 -18.6415 2.6550 -5.9608 0.0000 20.0918 0.0000
# 6 0.0000 0.0000 0.0000 11.2340 0.0000 38.4048
#
#
#
# Elastic Compliance Matrix: (Units=1/GPa)
#
#
# Indices 1 2 3 4 5 6 
#
# 1 0.013457 -0.003140 -0.001059 0.000000 0.012586 0.000000
# 2 -0.003140 0.008989 -0.004109 0.000000 -0.005320 0.000000
# 3 -0.001059 -0.004109 0.020318 0.000000 0.005588 0.000000
# 4 0.000000 0.000000 0.000000 0.065564 0.000000 -0.019178
# 5 0.012586 -0.005320 0.005588 0.000000 0.063810 0.000000
# 6 0.000000 0.000000 0.000000 -0.019178 0.000000 0.031648
#
#
# Mechanical properties :
#
#
# Convention : Reuss Voigt Hill
#
# Bulk Modulus (GPa) = 38.24693 49.92214 44.08454
# Shear Modulus (GPa) = 21.82285 29.92964 25.87624
#
# Velocity S-wave (km/s) = 3.36124 3.93636 3.66011
# Velocity P-wave (km/s) = 5.90464 6.81947 6.37847
#
# Compressibility (1/GPa) = 0.02614589
#
# Stress axis : x y z
#
# Youngs Moduli (GPa) = 74.31229 111.24826 49.21850
#
# Poissons Ratio (x) = 0.34930 0.05215
# Poissons Ratio (y) = 0.23333 0.20226
# Poissons Ratio (z) = 0.07873 0.45716
#
# Static dielectric constant tensor:
#      x y z
#    x 1.729460 0.000000 -0.015920 
#    y 0.000000 1.681250 0.000000 
#    z -0.015920 0.000000 1.632020 
# 
# From -- ./inp_files/9591.got.cif
#   From: 2010.05.17/outbox.cif.g08.bks.cpg/sg5_5_cif.got.tgz:9591.got - 2010.06.03 18:56:24.
