data_PCOD9122810
_publ_section_title
;
Structure prediction by ZEFSAII (Michael W. Deem and Ramdas Pophale) SiO2 
 PCOD9122810
Probable space group: C 2
;
_chemical_formula_sum "Si O2"
_cell_formula_units_Z 30
_cell_length_a 30.196644
_cell_length_b 8.356315
_cell_length_c 5.580161
_cell_angle_alpha 90.000000
_cell_angle_beta 79.577073
_cell_angle_gamma 90.000000
_cell_volume 1384.822794
_symmetry_space_group_name_H-M "C 2"
_symmetry_group_IT_number 5
_symmetry_cell_setting 'monoclinic'
loop_
_space_group_symop_operation_xyz
x,y,z
-x,y,-z
1/2+x,1/2+y,z
1/2-x,1/2+y,-z
loop_
_atom_site_type_symbol
_atom_site_label
_atom_site_fract_x
_atom_site_fract_y
_atom_site_fract_z
Si Si1 0.226744 0.946300 0.737407
Si Si2 0.729442 0.066533 0.805762
Si Si3 0.584788 0.783879 0.440957
Si Si4 0.047776 0.541101 0.823431
Si Si5 0.868564 0.432828 0.984885
Si Si6 0.456226 0.386629 0.202551
Si Si7 0.127069 0.081786 0.781572
Si Si8 0.000000 0.143603 0.500000
O O1 0.230207 0.756622 0.770097
O O2 0.251369 0.992886 0.462391
O O3 0.175340 0.002194 0.755353
O O4 0.245242 0.023468 0.968410
O O5 0.678814 0.002825 0.894850
O O6 0.620851 0.908686 0.303859
O O7 0.614293 0.642458 0.526107
O O8 0.541694 0.731227 0.322557
O O9 0.555887 0.882644 0.662666
O O10 0.051432 0.710276 0.679980
O O11 0.090209 0.537843 0.959689
O O12 0.000000 0.529739 0.000000
O O13 0.872827 0.248498 0.072470
O O14 0.412107 0.455858 0.114155
O O15 0.471923 0.527524 0.358695
O O16 0.500000 0.361940 0.000000
#
# Coordination Sequence:
#
# PCOD9122810 Si02
#       8
#     4   4   4   4   4   4   4   2
#     4  12  27  51  74 112 141 193 238 304 362 438
#     4  12  28  48  79 105 149 187 243 300 368 430
#     4  10  22  38  64  94 132 174 228 282 346 424
#     4  10  22  38  61  92 132 176 223 286 343 421
#     4  11  23  41  67  97 131 180 227 287 355 422
#     4  10  21  39  60  91 130 173 223 280 345 415
#     4  10  23  41  67  95 137 172 234 280 359 413
#     4  10  20  36  58  92 124 176 218 280 340 414
#
# _framework density 21.663419000000001
#
# number of rings (size 3 to 8) (size 9 to 14) (size 15 to 20)
#    0.000    1.333    0.000    4.800    7.467    6.400 
#    2.400    0.000    0.000    0.000    0.000    0.000 
#    0.000    0.000    0.000    0.000    0.000    0.000 
#
# Total GULP energy -83625.812619 kJ/mol
# GULP energy per Si atom -5575.054175 kJ/mol
# Density = 2.161411 g / cm^3
# Si number density = 21.663419 Si / 1000 Ang^3
#
#
#
# Elastic Constant Matrix: (Units=GPa)
#
#
# Indices 1 2 3 4 5 6 
#
# 1 188.5006 71.5510 71.1636 0.0000 -18.4618 0.0000
# 2 71.5510 125.6978 36.5069 0.0000 -13.7721 0.0000
# 3 71.1636 36.5069 89.1807 0.0000 -17.3356 0.0000
# 4 0.0000 0.0000 0.0000 37.9295 0.0000 12.1541
# 5 -18.4618 -13.7721 -17.3356 0.0000 30.0650 0.0000
# 6 0.0000 0.0000 0.0000 12.1541 0.0000 51.2451
#
#
#
# Elastic Compliance Matrix: (Units=1/GPa)
#
#
# Indices 1 2 3 4 5 6 
#
# 1 0.008673 -0.003281 -0.005445 0.000000 0.000683 0.000000
# 2 -0.003281 0.010408 -0.001248 0.000000 0.002034 0.000000
# 3 -0.005445 -0.001248 0.017240 0.000000 0.006026 0.000000
# 4 0.000000 0.000000 0.000000 0.028533 0.000000 -0.006767
# 5 0.000683 0.002034 0.006026 0.000000 0.038087 0.000000
# 6 0.000000 0.000000 0.000000 -0.006767 0.000000 0.021119
#
#
# Mechanical properties :
#
#
# Convention : Reuss Voigt Hill
#
# Bulk Modulus (GPa) = 61.06830 84.64689 72.85759
# Shear Modulus (GPa) = 33.45278 38.79177 36.12227
#
# Velocity S-wave (km/s) = 3.93390 4.23621 4.08785
# Velocity P-wave (km/s) = 6.99177 7.94265 7.48233
#
# Compressibility (1/GPa) = 0.01637511
#
# Stress axis : x y z
#
# Youngs Moduli (GPa) = 115.30376 96.07856 58.00457
#
# Poissons Ratio (x) = 0.31519 0.31583
# Poissons Ratio (y) = 0.37826 0.07236
# Poissons Ratio (z) = 0.62781 0.11986
#
# Static dielectric constant tensor:
#      x y z
#    x 1.812510 0.000000 0.046960 
#    y 0.000000 1.853210 0.000000 
#    z 0.046960 0.000000 1.876960 
# 
# From -- ./inp_files/11217.got.cif
#   From: 2010.05.17/outbox.cif.g08.bks.cpg/sg5_6_cif.got.tgz:11217.got - 2010.06.03 18:56:24.
