data_PCOD9122438
_publ_section_title
;
Structure prediction by ZEFSAII (Michael W. Deem and Ramdas Pophale) SiO2 
 PCOD9122438
Probable space group: C 2
;
_chemical_formula_sum "Si O2"
_cell_formula_units_Z 32
_cell_length_a 27.207602
_cell_length_b 10.690516
_cell_length_c 12.730958
_cell_angle_alpha 90.000000
_cell_angle_beta 25.932493
_cell_angle_gamma 90.000000
_cell_volume 1619.352071
_symmetry_space_group_name_H-M "C 2"
_symmetry_group_IT_number 5
_symmetry_cell_setting 'monoclinic'
loop_
_space_group_symop_operation_xyz
x,y,z
-x,y,-z
1/2+x,1/2+y,z
1/2-x,1/2+y,-z
loop_
_atom_site_type_symbol
_atom_site_label
_atom_site_fract_x
_atom_site_fract_y
_atom_site_fract_z
Si Si1 0.507716 0.928100 0.860799
Si Si2 0.224860 0.043617 0.903112
Si Si3 0.439309 0.177706 0.879784
Si Si4 0.995358 0.890672 0.390561
Si Si5 0.115232 0.507141 0.214171
Si Si6 0.635891 0.786057 0.018551
Si Si7 0.290225 0.810110 0.651512
Si Si8 0.437015 0.650623 0.509580
O O1 0.397418 0.864607 0.018949
O O2 0.613275 0.840420 0.620464
O O3 0.502896 0.071472 0.825538
O O4 0.500000 0.929714 0.000000
O O5 0.295035 0.051003 0.874291
O O6 0.271107 0.948784 0.729682
O O7 0.228652 0.180367 0.843909
O O8 0.109303 0.972711 0.157617
O O9 0.509410 0.293073 0.694901
O O10 0.402941 0.104832 0.843965
O O11 0.326853 0.238484 0.149987
O O12 0.000000 0.835552 0.500000
O O13 0.906206 0.004486 0.558098
O O14 0.148086 0.379287 0.092725
O O15 0.000000 0.486492 0.500000
O O16 0.528396 0.698403 0.250256
O O17 0.334920 0.737109 0.670104
O O18 0.500000 0.668928 0.500000
#
# Coordination Sequence:
#
# PCOD9122438 Si02
#       8
#     4   4   4   4   4   4   4   4
#     4  10  22  46  67  81 111 163 206 271 332 358
#     4  10  20  32  55  90 125 163 197 243 296 365
#     4  10  22  37  56  90 122 154 207 254 303 374
#     4   9  19  31  51  83 127 163 196 234 286 363
#     4  11  21  33  53  84 127 172 197 236 295 370
#     4   9  19  34  54  87 116 153 211 242 297 371
#     4  10  21  38  61  86 122 158 202 265 305 368
#     4   9  16  29  56  81 120 170 190 224 294 362
#
# _framework density 19.76099
#
# number of rings (size 3 to 8) (size 9 to 14) (size 15 to 20)
#    0.000    2.250    0.000    3.750    8.750    0.500 
#    2.250    0.000    0.000    5.250    0.000    0.000 
#    0.000    0.000    0.000    0.000    0.000    0.000 
#
# Total GULP energy -89072.116140 kJ/mol
# GULP energy per Si atom -5567.007259 kJ/mol
# Density = 1.971601 g / cm^3
# Si number density = 19.760990 Si / 1000 Ang^3
#
#
#
# Elastic Constant Matrix: (Units=GPa)
#
#
# Indices 1 2 3 4 5 6 
#
# 1 84.5801 42.3693 25.2532 0.0000 17.0530 0.0000
# 2 42.3693 130.6875 28.5444 0.0000 8.1516 0.0000
# 3 25.2532 28.5444 54.5676 0.0000 10.3589 0.0000
# 4 0.0000 0.0000 0.0000 40.5341 0.0000 -23.8878
# 5 17.0530 8.1516 10.3589 0.0000 16.0723 0.0000
# 6 0.0000 0.0000 0.0000 -23.8878 0.0000 46.8420
#
#
#
# Elastic Compliance Matrix: (Units=1/GPa)
#
#
# Indices 1 2 3 4 5 6 
#
# 1 0.017853 -0.004150 -0.003299 0.000000 -0.014712 0.000000
# 2 -0.004150 0.009643 -0.003454 0.000000 0.001738 0.000000
# 3 -0.003299 -0.003454 0.023543 0.000000 -0.009922 0.000000
# 4 0.000000 0.000000 0.000000 0.035271 0.000000 0.017987
# 5 -0.014712 0.001738 -0.009922 0.000000 0.083341 0.000000
# 6 0.000000 0.000000 0.000000 0.017987 0.000000 0.030521
#
#
# Mechanical properties :
#
#
# Convention : Reuss Voigt Hill
#
# Bulk Modulus (GPa) = 34.20641 51.35213 42.77927
# Shear Modulus (GPa) = 21.57765 32.26757 26.92261
#
# Velocity S-wave (km/s) = 3.30802 4.04529 3.69509
# Velocity P-wave (km/s) = 5.65140 6.91825 6.31667
#
# Compressibility (1/GPa) = 0.02923429
#
# Stress axis : x y z
#
# Youngs Moduli (GPa) = 56.01322 103.69991 42.47607
#
# Poissons Ratio (x) = 0.43034 0.14011
# Poissons Ratio (y) = 0.23245 0.14671
# Poissons Ratio (z) = 0.18476 0.35816
#
# Static dielectric constant tensor:
#      x y z
#    x 1.673580 0.000000 -0.070990 
#    y 0.000000 1.784780 0.000000 
#    z -0.070990 0.000000 1.881360 
# 
# From -- ./inp_files/47476.got.cif
#   From: 2010.05.17/outbox.cif.g08.bks.cpg/sg5_24_cif.got.tgz:47476.got - 2010.06.03 18:56:24.
