data_PCOD9122897
_publ_section_title
;
Structure prediction by ZEFSAII (Michael W. Deem and Ramdas Pophale) SiO2 
 PCOD9122897
Probable space group: C 2
;
_chemical_formula_sum "Si O2"
_cell_formula_units_Z 26
_cell_length_a 14.004980
_cell_length_b 19.969610
_cell_length_c 4.896778
_cell_angle_alpha 90.000000
_cell_angle_beta 66.521446
_cell_angle_gamma 90.000000
_cell_volume 1256.119402
_symmetry_space_group_name_H-M "C 2"
_symmetry_group_IT_number 5
_symmetry_cell_setting 'monoclinic'
loop_
_space_group_symop_operation_xyz
x,y,z
-x,y,-z
1/2+x,1/2+y,z
1/2-x,1/2+y,-z
loop_
_atom_site_type_symbol
_atom_site_label
_atom_site_fract_x
_atom_site_fract_y
_atom_site_fract_z
Si Si1 0.373963 0.039880 0.639035
Si Si2 0.000000 0.297062 0.500000
Si Si3 0.795577 0.616832 0.241885
Si Si4 0.737064 0.810305 0.763171
Si Si5 0.567316 0.237617 0.686293
Si Si6 0.177057 0.386126 0.291658
Si Si7 0.608080 0.689336 0.752851
O O1 0.500000 0.045841 0.500000
O O2 0.333320 0.055644 0.384107
O O3 0.339631 0.963870 0.732904
O O4 0.315696 0.092031 0.910345
O O5 0.078346 0.347655 0.266544
O O6 0.064435 0.247705 0.611651
O O7 0.874958 0.675841 0.231148
O O8 0.683026 0.641801 0.486103
O O9 0.844613 0.786535 0.515394
O O10 0.686899 0.860448 0.591725
O O11 0.677335 0.737462 0.874694
O O12 0.762659 0.850965 0.007876
O O13 0.500000 0.215824 0.500000
O O14 0.500000 0.269995 0.000000
O O15 0.500000 0.659136 0.000000
#
# Coordination Sequence:
#
# PCOD9122897 Si02
#       7
#     4   2   4   4   4   4   4
#     4  12  24  41  61  88 126 170 200 246 305 376
#     4  10  20  36  62  96 114 154 196 254 320 358
#     4  11  25  38  59  92 125 163 209 242 300 378
#     4  10  22  36  61  95 119 147 200 261 315 362
#     4  11  21  38  62  87 122 163 200 252 303 365
#     4  11  21  38  60  90 125 150 198 254 312 367
#     4  10  21  37  63  89 126 152 199 263 316 356
#
# _framework density 20.698668000000001
#
# number of rings (size 3 to 8) (size 9 to 14) (size 15 to 20)
#    0.000    1.231    2.308    4.615    2.154    2.462 
#    0.000    0.000    0.000    9.231    0.000    0.000 
#    0.000    0.000    0.000    0.000    0.000    0.000 
#
# Total GULP energy -72470.307504 kJ/mol
# GULP energy per Si atom -5574.639039 kJ/mol
# Density = 2.065156 g / cm^3
# Si number density = 20.698668 Si / 1000 Ang^3
#
#
#
# Elastic Constant Matrix: (Units=GPa)
#
#
# Indices 1 2 3 4 5 6 
#
# 1 44.2919 2.4811 9.1817 0.0000 -12.4352 0.0000
# 2 2.4811 68.6615 4.0857 0.0000 -11.1544 0.0000
# 3 9.1817 4.0857 85.4286 0.0000 -8.1069 0.0000
# 4 0.0000 0.0000 0.0000 28.4682 0.0000 4.1331
# 5 -12.4352 -11.1544 -8.1069 0.0000 40.2383 0.0000
# 6 0.0000 0.0000 0.0000 4.1331 0.0000 15.1704
#
#
#
# Elastic Compliance Matrix: (Units=1/GPa)
#
#
# Indices 1 2 3 4 5 6 
#
# 1 0.025064 0.000426 -0.002006 0.000000 0.007459 0.000000
# 2 0.000426 0.015268 -0.000369 0.000000 0.004289 0.000000
# 3 -0.002006 -0.000369 0.012102 0.000000 0.001716 0.000000
# 4 0.000000 0.000000 0.000000 0.036574 0.000000 -0.009964
# 5 0.007459 0.004289 0.001716 0.000000 0.028692 0.000000
# 6 0.000000 0.000000 0.000000 -0.009964 0.000000 0.068632
#
#
# Mechanical properties :
#
#
# Convention : Reuss Voigt Hill
#
# Bulk Modulus (GPa) = 20.60412 25.54211 23.07311
# Shear Modulus (GPa) = 24.22383 28.95097 26.58740
#
# Velocity S-wave (km/s) = 3.42469 3.74396 3.58788
# Velocity P-wave (km/s) = 5.06102 5.57283 5.32308
#
# Compressibility (1/GPa) = 0.04853399
#
# Stress axis : x y z
#
# Youngs Moduli (GPa) = 39.89817 65.49808 82.63245
#
# Poissons Ratio (x) = -0.02787 0.16578
# Poissons Ratio (y) = -0.01698 0.03048
# Poissons Ratio (z) = 0.08005 0.02416
#
# Static dielectric constant tensor:
#      x y z
#    x 1.875460 0.000000 -0.111060 
#    y 0.000000 1.715850 0.000000 
#    z -0.111060 0.000000 2.247510 
# 
# From -- ./inp_files/7152.got.cif
#   From: 2010.05.17/outbox.cif.g08.bks.cpg/sg5_4_cif.got.tgz:7152.got - 2010.06.03 18:56:24.
