data_PCOD9122020
_publ_section_title
;
Structure prediction by ZEFSAII (Michael W. Deem and Ramdas Pophale) SiO2 
 PCOD9122020
Probable space group: C 2
;
_chemical_formula_sum "Si O2"
_cell_formula_units_Z 22
_cell_length_a 17.046974
_cell_length_b 8.575268
_cell_length_c 8.673204
_cell_angle_alpha 90.000000
_cell_angle_beta 68.974668
_cell_angle_gamma 90.000000
_cell_volume 1183.457167
_symmetry_space_group_name_H-M "C 2"
_symmetry_group_IT_number 5
_symmetry_cell_setting 'monoclinic'
loop_
_space_group_symop_operation_xyz
x,y,z
-x,y,-z
1/2+x,1/2+y,z
1/2-x,1/2+y,-z
loop_
_atom_site_type_symbol
_atom_site_label
_atom_site_fract_x
_atom_site_fract_y
_atom_site_fract_z
Si Si1 0.917201 0.244000 0.663988
Si Si2 0.348770 0.990493 0.512775
Si Si3 0.414603 0.590401 0.983112
Si Si4 0.000000 0.690723 0.500000
Si Si5 0.288180 0.741330 0.309247
Si Si6 0.361556 0.411738 0.744877
O O1 0.859668 0.391405 0.663637
O O2 0.000000 0.257556 0.500000
O O3 0.874166 0.078684 0.651645
O O4 0.934629 0.217621 0.833303
O O5 0.436490 0.085967 0.442342
O O6 0.272028 0.111815 0.569840
O O7 0.331643 0.860262 0.396652
O O8 0.356467 0.658936 0.155457
O O9 0.500000 0.534927 0.000000
O O10 0.368797 0.454980 0.919004
O O11 0.061868 0.799780 0.357408
O O12 0.224710 0.836352 0.244621
#
# Coordination Sequence:
#
# PCOD9122020 Si02
#       6
#     4   4   4   2   4   4
#     4  10  19  37  67  88 125 165 209 255 316 369
#     4  11  23  38  66  94 125 171 214 266 308 389
#     4  10  23  38  66  86 127 169 209 257 320 371
#     4  10  20  40  66  94 120 166 220 254 320 372
#     4  11  24  41  62  97 128 167 216 259 327 365
#     4   9  21  39  63  89 126 167 202 268 307 382
#
# _framework density 18.589604000000001
#
# number of rings (size 3 to 8) (size 9 to 14) (size 15 to 20)
#    1.091    0.727    1.818    2.182    2.545    2.909 
#    0.000    1.818    0.000    0.000    0.000    0.000 
#    0.000    0.000    0.000    0.000    0.000    0.000 
#
# Total GULP energy -61281.354192 kJ/mol
# GULP energy per Si atom -5571.032199 kJ/mol
# Density = 1.854729 g / cm^3
# Si number density = 18.589604 Si / 1000 Ang^3
#
#
#
# Elastic Constant Matrix: (Units=GPa)
#
#
# Indices 1 2 3 4 5 6 
#
# 1 69.2488 19.7041 15.3560 0.0000 0.0751 0.0000
# 2 19.7041 75.1900 -1.5311 0.0000 3.6025 0.0000
# 3 15.3560 -1.5311 41.9966 0.0000 6.5528 0.0000
# 4 0.0000 0.0000 0.0000 19.0918 0.0000 25.7570
# 5 0.0751 3.6025 6.5528 0.0000 30.6980 0.0000
# 6 0.0000 0.0000 0.0000 25.7570 0.0000 35.9412
#
#
#
# Elastic Compliance Matrix: (Units=1/GPa)
#
#
# Indices 1 2 3 4 5 6 
#
# 1 0.017305 -0.004768 -0.006809 0.000000 0.001971 0.000000
# 2 -0.004768 0.014712 0.002635 0.000000 -0.002277 0.000000
# 3 -0.006809 0.002635 0.027354 0.000000 -0.006132 0.000000
# 4 0.000000 0.000000 0.000000 1.579169 0.000000 -1.131698
# 5 0.001971 -0.002277 -0.006132 0.000000 0.034147 0.000000
# 6 0.000000 0.000000 0.000000 -1.131698 0.000000 0.838845
#
#
# Mechanical properties :
#
#
# Convention : Reuss Voigt Hill
#
# Bulk Modulus (GPa) = 24.10373 28.16592 26.13483
# Shear Modulus (GPa) = 1.96599 27.33998 14.65298
#
# Velocity S-wave (km/s) = 1.02950 3.83915 2.81060
# Velocity P-wave (km/s) = 3.79573 5.90224 4.96205
#
# Compressibility (1/GPa) = 0.04148736
#
# Stress axis : x y z
#
# Youngs Moduli (GPa) = 57.78645 67.97221 36.55785
#
# Poissons Ratio (x) = 0.32409 0.24892
# Poissons Ratio (y) = 0.27553 -0.09633
# Poissons Ratio (z) = 0.39346 -0.17911
#
# Static dielectric constant tensor:
#      x y z
#    x 1.636390 0.000000 0.009470 
#    y 0.000000 1.668770 0.000000 
#    z 0.009470 0.000000 1.629630 
# 
# From -- ./inp_files/22651.got.cif
#   From: 2010.05.17/outbox.cif.g08.bks.cpg/sg5_12_cif.got.tgz:22651.got - 2010.06.03 18:56:24.
