data_PCOD9122857
_publ_section_title
;
Structure prediction by ZEFSAII (Michael W. Deem and Ramdas Pophale) SiO2 
 PCOD9122857
Probable space group: C 2
;
_chemical_formula_sum "Si O2"
_cell_formula_units_Z 32
_cell_length_a 17.924538
_cell_length_b 11.595296
_cell_length_c 23.585313
_cell_angle_alpha 90.000000
_cell_angle_beta 19.050059
_cell_angle_gamma 90.000000
_cell_volume 1599.977173
_symmetry_space_group_name_H-M "C 2"
_symmetry_group_IT_number 5
_symmetry_cell_setting 'monoclinic'
loop_
_space_group_symop_operation_xyz
x,y,z
-x,y,-z
1/2+x,1/2+y,z
1/2-x,1/2+y,-z
loop_
_atom_site_type_symbol
_atom_site_label
_atom_site_fract_x
_atom_site_fract_y
_atom_site_fract_z
Si Si1 0.464415 0.615500 0.285844
Si Si2 0.748039 0.639728 0.680511
Si Si3 0.811116 0.895937 0.680821
Si Si4 0.732035 0.280374 0.176660
Si Si5 0.791239 0.347581 0.892010
Si Si6 0.313218 0.916422 0.007139
Si Si7 0.500345 0.028783 0.657779
Si Si8 0.127283 0.956327 0.850658
O O1 0.326744 0.655435 0.329343
O O2 0.589508 0.731248 0.216580
O O3 0.271752 0.550651 0.461088
O O4 0.649255 0.525263 0.130697
O O5 0.765143 0.763126 0.696554
O O6 0.596124 0.555283 0.826514
O O7 0.000000 0.587476 0.500000
O O8 0.865240 0.876590 0.708654
O O9 0.567959 0.953910 0.843518
O O10 0.000000 0.938281 0.500000
O O11 0.607395 0.157364 0.270175
O O12 0.726242 0.325575 0.116647
O O13 0.000000 0.268916 0.000000
O O14 0.811613 0.363052 0.945209
O O15 0.916907 0.456690 0.772132
O O16 0.523592 0.351739 0.065448
O O17 0.389269 0.955891 0.684576
O O18 0.000000 0.988567 0.000000
#
# Coordination Sequence:
#
# PCOD9122857 Si02
#       8
#     4   4   4   4   4   4   4   4
#     4  12  25  41  58  97 138 163 211 273 336 386
#     4  11  18  34  62  93 119 154 206 268 319 374
#     4  10  20  37  64  94 122 160 214 276 323 378
#     4  10  21  38  64  96 123 160 223 273 317 381
#     4  11  25  39  62  94 133 169 208 272 334 381
#     4  11  25  36  61  93 133 168 207 269 338 381
#     4  11  23  40  67  90 126 170 222 266 320 386
#     4  10  20  36  60  92 115 162 214 261 315 375
#
# _framework density 20.000285999999999
#
# number of rings (size 3 to 8) (size 9 to 14) (size 15 to 20)
#    0.000    1.250    5.000    1.875    7.000    0.000 
#    0.000    5.625    0.000    2.250    0.000    0.000 
#    0.000    0.000    0.000    0.000    0.000    0.000 
#
# Total GULP energy -89175.223477 kJ/mol
# GULP energy per Si atom -5573.451467 kJ/mol
# Density = 1.995476 g / cm^3
# Si number density = 20.000286 Si / 1000 Ang^3
#
#
#
# Elastic Constant Matrix: (Units=GPa)
#
#
# Indices 1 2 3 4 5 6 
#
# 1 92.5674 16.1559 22.6039 0.0355 10.9724 -0.0055
# 2 16.1559 43.1998 36.0986 -0.0171 -9.0804 0.0154
# 3 22.6039 36.0986 100.3144 -0.0163 -1.7273 -0.0019
# 4 0.0355 -0.0171 -0.0163 24.4627 -0.0186 -1.5277
# 5 10.9724 -9.0804 -1.7273 -0.0186 26.2693 0.0138
# 6 -0.0055 0.0154 -0.0019 -1.5277 0.0138 26.4258
#
#
#
# Elastic Compliance Matrix: (Units=1/GPa)
#
#
# Indices 1 2 3 4 5 6 
#
# 1 0.012889 -0.005480 -0.001059 -0.000028 -0.007347 0.000008
# 2 -0.005480 0.038716 -0.012442 0.000036 0.014854 -0.000030
# 3 -0.001059 -0.012442 0.014635 0.000001 -0.002896 0.000010
# 4 -0.000028 0.000036 0.000001 0.041027 0.000052 0.002372
# 5 -0.007347 0.014854 -0.002896 0.000052 0.046080 -0.000031
# 6 0.000008 -0.000030 0.000010 0.002372 -0.000031 0.037979
#
#
# Mechanical properties :
#
#
# Convention : Reuss Voigt Hill
#
# Bulk Modulus (GPa) = 35.36183 42.86647 39.11415
# Shear Modulus (GPa) = 20.94570 26.17977 23.56274
#
# Velocity S-wave (km/s) = 3.23967 3.62189 3.43610
# Velocity P-wave (km/s) = 5.63143 6.24262 5.94488
#
# Compressibility (1/GPa) = 0.02827908
#
# Stress axis : x y z
#
# Youngs Moduli (GPa) = 77.58666 25.82893 68.33129
#
# Poissons Ratio (x) = 0.14154 0.07235
# Poissons Ratio (y) = 0.42515 0.85016
# Poissons Ratio (z) = 0.08215 0.32136
#
# Static dielectric constant tensor:
#      x y z
#    x 1.750220 -0.000010 -0.006440 
#    y -0.000010 1.693680 0.000030 
#    z -0.006440 0.000030 1.824010 
# 
# From -- ./inp_files/69260.got.cif
#   From: 2010.05.17/outbox.cif.g08.bks.cpg/sg5_35_cif.got.tgz:69260.got - 2010.06.03 18:56:24.
