data_PCOD9122364
_publ_section_title
;
Structure prediction by ZEFSAII (Michael W. Deem and Ramdas Pophale) SiO2 
 PCOD9122364
Probable space group: C 2
;
_chemical_formula_sum "Si O2"
_cell_formula_units_Z 30
_cell_length_a 22.704361
_cell_length_b 11.063447
_cell_length_c 27.467756
_cell_angle_alpha 90.000000
_cell_angle_beta 168.569304
_cell_angle_gamma 90.000000
_cell_volume 1367.376783
_symmetry_space_group_name_H-M "C 2"
_symmetry_group_IT_number 5
_symmetry_cell_setting 'monoclinic'
loop_
_space_group_symop_operation_xyz
x,y,z
-x,y,-z
1/2+x,1/2+y,z
1/2-x,1/2+y,-z
loop_
_atom_site_type_symbol
_atom_site_label
_atom_site_fract_x
_atom_site_fract_y
_atom_site_fract_z
Si Si1 0.214490 0.012050 0.720307
Si Si2 0.817357 0.740174 0.101655
Si Si3 0.805055 0.506693 0.966022
Si Si4 0.143879 0.083936 0.324296
Si Si5 0.000000 0.299283 0.000000
Si Si6 0.328620 0.420030 0.747633
Si Si7 0.738992 0.595194 0.130395
Si Si8 0.744676 0.183326 0.368355
O O1 0.000000 0.989051 0.500000
O O2 0.074165 0.129209 0.632499
O O3 0.540656 0.032382 0.960661
O O4 0.239144 0.893012 0.773634
O O5 0.862168 0.639388 0.178648
O O6 0.118846 0.745606 0.314591
O O7 0.731201 0.864969 0.056511
O O8 0.537400 0.700228 0.841540
O O9 0.494701 0.556459 0.734889
O O10 0.035250 0.566642 0.190733
O O11 0.494797 0.089543 0.615819
O O12 0.096295 0.986304 0.242737
O O13 0.039988 0.206651 0.987938
O O14 0.318733 0.278173 0.726525
O O15 0.000000 0.453771 0.500000
O O16 0.557962 0.472836 0.973166
#
# Coordination Sequence:
#
# PCOD9122364 Si02
#       8
#     4   4   4   4   2   4   4   4
#     4  10  23  40  67  97 135 173 223 288 344 406
#     4  10  21  43  66  95 132 169 226 279 341 408
#     4  10  19  42  65  97 129 171 227 276 338 404
#     4  10  23  40  66  94 130 175 220 282 338 405
#     4  12  24  40  64 102 134 172 236 282 342 408
#     4  11  22  43  66  92 136 177 221 275 337 418
#     4  11  25  41  64 100 129 175 226 280 346 407
#     4  10  22  42  69  96 131 182 221 275 351 403
#
# _framework density 21.939817999999999
#
# number of rings (size 3 to 8) (size 9 to 14) (size 15 to 20)
#    0.000    1.600    2.667    2.000    3.733    1.600 
#    4.800    4.000    0.000    0.000    0.000    0.000 
#    0.000    0.000    0.000    0.000    0.000    0.000 
#
# Total GULP energy -83576.511496 kJ/mol
# GULP energy per Si atom -5571.767433 kJ/mol
# Density = 2.188988 g / cm^3
# Si number density = 21.939818 Si / 1000 Ang^3
#
#
#
# Elastic Constant Matrix: (Units=GPa)
#
#
# Indices 1 2 3 4 5 6 
#
# 1 65.8722 20.0490 31.5251 -0.0145 16.9985 -0.0418
# 2 20.0490 78.5862 29.6611 0.2776 8.6638 -0.0278
# 3 31.5251 29.6611 74.5428 0.1993 8.9785 0.2679
# 4 -0.0145 0.2776 0.1993 24.8022 0.0609 2.9429
# 5 16.9985 8.6638 8.9785 0.0609 48.1665 -0.0353
# 6 -0.0418 -0.0278 0.2679 2.9429 -0.0353 25.4770
#
#
#
# Elastic Compliance Matrix: (Units=1/GPa)
#
#
# Indices 1 2 3 4 5 6 
#
# 1 0.020713 -0.001901 -0.007329 0.000095 -0.005602 0.000090
# 2 -0.001901 0.015273 -0.005139 -0.000138 -0.001118 0.000082
# 3 -0.007329 -0.005139 0.018554 -0.000072 0.000052 -0.000204
# 4 0.000095 -0.000138 -0.000072 0.040881 -0.000051 -0.004722
# 5 -0.005602 -0.001118 0.000052 -0.000051 0.022930 0.000027
# 6 0.000090 0.000082 -0.000204 -0.004722 0.000027 0.039799
#
#
# Mechanical properties :
#
#
# Convention : Reuss Voigt Hill
#
# Bulk Modulus (GPa) = 38.75567 42.38574 40.57071
# Shear Modulus (GPa) = 25.57702 28.87354 27.22528
#
# Velocity S-wave (km/s) = 3.41806 3.63165 3.52647
# Velocity P-wave (km/s) = 5.76891 6.07834 5.92565
#
# Compressibility (1/GPa) = 0.02580268
#
# Stress axis : x y z
#
# Youngs Moduli (GPa) = 48.27976 65.47463 53.89656
#
# Poissons Ratio (x) = 0.12445 0.39502
# Poissons Ratio (y) = 0.09176 0.27696
# Poissons Ratio (z) = 0.35385 0.33645
#
# Static dielectric constant tensor:
#      x y z
#    x 1.858780 0.000020 0.052750 
#    y 0.000020 1.799160 -0.000280 
#    z 0.052750 -0.000280 1.847290 
# 
# From -- ./inp_files/72325.got.cif
#   From: 2010.05.17/outbox.cif.g08.bks.cpg/sg5_37_cif.got.tgz:72325.got - 2010.06.03 18:56:24.
