data_PCOD9122945
_publ_section_title
;
Structure prediction by ZEFSAII (Michael W. Deem and Ramdas Pophale) SiO2 
 PCOD9122945
Probable space group: C 2
;
_chemical_formula_sum "Si O2"
_cell_formula_units_Z 24
_cell_length_a 20.074625
_cell_length_b 8.076154
_cell_length_c 13.978700
_cell_angle_alpha 90.000000
_cell_angle_beta 25.019686
_cell_angle_gamma 90.000000
_cell_volume 958.488554
_symmetry_space_group_name_H-M "C 2"
_symmetry_group_IT_number 5
_symmetry_cell_setting 'monoclinic'
loop_
_space_group_symop_operation_xyz
x,y,z
-x,y,-z
1/2+x,1/2+y,z
1/2-x,1/2+y,-z
loop_
_atom_site_type_symbol
_atom_site_label
_atom_site_fract_x
_atom_site_fract_y
_atom_site_fract_z
Si Si1 0.161807 0.797110 0.827186
Si Si2 0.703386 0.968944 0.520222
Si Si3 0.412508 0.634741 0.392049
Si Si4 0.661421 0.370620 0.238060
Si Si5 0.594820 0.112596 0.162982
Si Si6 0.267429 0.531801 0.097856
O O1 0.186770 0.941337 0.715000
O O2 0.315834 0.684286 0.611506
O O3 0.170063 0.885321 0.917985
O O4 0.000000 0.714938 0.000000
O O5 0.607063 0.797969 0.648858
O O6 0.808292 0.999196 0.474748
O O7 0.573964 0.107430 0.666274
O O8 0.593523 0.591562 0.154600
O O9 0.500000 0.417511 0.500000
O O10 0.784651 0.519992 0.065615
O O11 0.628538 0.282742 0.175985
O O12 0.726631 0.203627 0.206331
O O13 0.612642 0.993165 0.235153
#
# Coordination Sequence:
#
# PCOD9122945 Si02
#       6
#     4   4   4   4   4   4
#     4  10  20  36  65  91 118 168 217 243 322 377
#     4  10  20  39  62  93 127 164 211 264 311 377
#     4  10  21  38  67  88 127 169 210 259 322 372
#     4  10  21  39  65  91 125 167 211 260 321 373
#     4  10  22  39  65  96 130 166 215 265 317 377
#     4  10  20  40  62  91 129 164 209 265 311 381
#
# _framework density 25.039422999999999
#
# number of rings (size 3 to 8) (size 9 to 14) (size 15 to 20)
#    2.000    0.000    3.333    1.000    0.000    2.667 
#    0.000    4.167    3.667    0.000    0.000    0.000 
#    0.000    0.000    0.000    0.000    0.000    0.000 
#
# Total GULP energy -66855.670760 kJ/mol
# GULP energy per Si atom -5571.305897 kJ/mol
# Density = 2.498243 g / cm^3
# Si number density = 25.039423 Si / 1000 Ang^3
#
#
#
# Elastic Constant Matrix: (Units=GPa)
#
#
# Indices 1 2 3 4 5 6 
#
# 1 49.4862 4.0635 17.8637 0.0000 -4.8232 0.0000
# 2 4.0635 81.6531 14.4419 0.0000 -1.0803 0.0000
# 3 17.8637 14.4419 124.0705 0.0000 -0.6470 0.0000
# 4 0.0000 0.0000 0.0000 23.6874 0.0000 -1.9024
# 5 -4.8232 -1.0803 -0.6470 0.0000 37.7571 0.0000
# 6 0.0000 0.0000 0.0000 -1.9024 0.0000 36.1960
#
#
#
# Elastic Compliance Matrix: (Units=1/GPa)
#
#
# Indices 1 2 3 4 5 6 
#
# 1 0.021608 -0.000502 -0.003039 0.000000 0.002694 0.000000
# 2 -0.000502 0.012520 -0.001384 0.000000 0.000270 0.000000
# 3 -0.003039 -0.001384 0.008657 0.000000 -0.000279 0.000000
# 4 0.000000 0.000000 0.000000 0.042396 0.000000 0.002228
# 5 0.002694 0.000270 -0.000279 0.000000 0.026832 0.000000
# 6 0.000000 0.000000 0.000000 0.002228 0.000000 0.027744
#
#
# Mechanical properties :
#
#
# Convention : Reuss Voigt Hill
#
# Bulk Modulus (GPa) = 30.36147 36.43867 33.40007
# Shear Modulus (GPa) = 31.13602 34.11749 32.62675
#
# Velocity S-wave (km/s) = 3.53013 3.69528 3.61365
# Velocity P-wave (km/s) = 5.36354 5.72633 5.54790
#
# Compressibility (1/GPa) = 0.03293649
#
# Stress axis : x y z
#
# Youngs Moduli (GPa) = 46.27840 79.87074 115.51294
#
# Poissons Ratio (x) = 0.04012 0.35100
# Poissons Ratio (y) = 0.02324 0.15983
# Poissons Ratio (z) = 0.14062 0.11051
#
# Static dielectric constant tensor:
#      x y z
#    x 2.002180 0.000000 0.023090 
#    y 0.000000 2.058670 0.000000 
#    z 0.023090 0.000000 2.027520 
# 
# From -- ./inp_files/57747.got.cif
#   From: 2010.05.17/outbox.cif.g08.bks.cpg/sg5_29_cif.got.tgz:57747.got - 2010.06.03 18:56:24.
