data_PCOD9122730
_publ_section_title
;
Structure prediction by ZEFSAII (Michael W. Deem and Ramdas Pophale) SiO2 
 PCOD9122730
Probable space group: C 2
;
_chemical_formula_sum "Si O2"
_cell_formula_units_Z 28
_cell_length_a 5.940320
_cell_length_b 19.529553
_cell_length_c 11.520403
_cell_angle_alpha 90.000000
_cell_angle_beta 115.395741
_cell_angle_gamma 90.000000
_cell_volume 1207.352598
_symmetry_space_group_name_H-M "C 2"
_symmetry_group_IT_number 5
_symmetry_cell_setting 'monoclinic'
loop_
_space_group_symop_operation_xyz
x,y,z
-x,y,-z
1/2+x,1/2+y,z
1/2-x,1/2+y,-z
loop_
_atom_site_type_symbol
_atom_site_label
_atom_site_fract_x
_atom_site_fract_y
_atom_site_fract_z
Si Si1 0.710104 0.563210 0.698287
Si Si2 0.500000 0.100360 0.000000
Si Si3 0.042591 0.822157 0.262354
Si Si4 0.253553 0.708686 0.902065
Si Si5 0.176617 0.954395 0.147094
Si Si6 0.274090 0.098739 0.294067
Si Si7 0.301499 0.912008 0.684609
Si Si8 0.500000 0.850937 0.500000
O O1 0.437915 0.598370 0.651243
O O2 0.659066 0.483634 0.659661
O O3 0.919330 0.591706 0.651836
O O4 0.854188 0.566490 0.857822
O O5 0.301796 0.149329 0.018416
O O6 0.068277 0.894132 0.202036
O O7 0.292523 0.808034 0.387734
O O8 0.968269 0.761882 0.161134
O O9 0.827919 0.842088 0.305297
O O10 0.280043 0.668105 0.787978
O O11 0.500000 0.746107 0.000000
O O12 0.453319 0.926178 0.183903
O O13 0.203396 0.027280 0.214772
O O14 0.000000 0.963857 0.000000
O O15 0.379708 0.899765 0.569670
#
# Coordination Sequence:
#
# PCOD9122730 Si02
#       8
#     4   2   4   4   4   4   4   2
#     4  10  20  35  65  95 136 178 225 271 352 423
#     4  10  22  38  60  96 152 184 208 270 358 462
#     4  11  24  40  65  97 132 186 234 298 347 423
#     4  11  23  36  60  99 145 186 223 268 359 441
#     4  10  22  35  60  96 145 171 221 278 364 431
#     4  10  20  39  58  95 139 188 214 267 339 445
#     4  10  22  39  66  96 124 181 236 303 346 413
#     4  10  24  48  62  92 130 184 256 298 362 400
#
# _framework density 23.191238999999999
#
# number of rings (size 3 to 8) (size 9 to 14) (size 15 to 20)
#    0.000    1.714    2.857    0.857    7.000    1.143 
#    0.000    0.000    0.000    0.000  104.000    0.000 
#    0.000    0.000    0.000    0.000    0.000    0.000 
#
# Total GULP energy -78060.144730 kJ/mol
# GULP energy per Si atom -5575.724624 kJ/mol
# Density = 2.313845 g / cm^3
# Si number density = 23.191239 Si / 1000 Ang^3
#
#
#
# Elastic Constant Matrix: (Units=GPa)
#
#
# Indices 1 2 3 4 5 6 
#
# 1 117.6343 5.1350 18.4431 0.0000 -1.1929 0.0000
# 2 5.1350 56.5687 18.1948 0.0000 13.1527 0.0000
# 3 18.4431 18.1948 75.0831 0.0000 30.9693 0.0000
# 4 0.0000 0.0000 0.0000 24.6921 0.0000 16.9693
# 5 -1.1929 13.1527 30.9693 0.0000 31.7811 0.0000
# 6 0.0000 0.0000 0.0000 16.9693 0.0000 15.8319
#
#
#
# Elastic Compliance Matrix: (Units=1/GPa)
#
#
# Indices 1 2 3 4 5 6 
#
# 1 0.009190 -0.000597 -0.003941 0.000000 0.004432 0.000000
# 2 -0.000597 0.019848 -0.002116 0.000000 -0.006174 0.000000
# 3 -0.003941 -0.002116 0.024243 0.000000 -0.022896 0.000000
# 4 0.000000 0.000000 0.000000 0.153759 0.000000 -0.164805
# 5 0.004432 -0.006174 -0.022896 0.000000 0.056498 0.000000
# 6 0.000000 0.000000 0.000000 -0.164805 0.000000 0.239809
#
#
# Mechanical properties :
#
#
# Convention : Reuss Voigt Hill
#
# Bulk Modulus (GPa) = 25.01713 36.98131 30.99922
# Shear Modulus (GPa) = 9.43431 28.29522 18.86476
#
# Velocity S-wave (km/s) = 2.01913 3.49676 2.85519
# Velocity P-wave (km/s) = 4.03070 5.68190 4.92598
#
# Compressibility (1/GPa) = 0.03997260
#
# Stress axis : x y z
#
# Youngs Moduli (GPa) = 108.81653 50.38254 41.24844
#
# Poissons Ratio (x) = 0.03009 0.16255
# Poissons Ratio (y) = 0.06499 0.08730
# Poissons Ratio (z) = 0.42882 0.10663
#
# Static dielectric constant tensor:
#      x y z
#    x 2.025330 0.000000 0.010290 
#    y 0.000000 1.787050 0.000000 
#    z 0.010290 0.000000 1.867380 
# 
# From -- ./inp_files/34012.got.cif
#   From: 2010.05.17/outbox.cif.g08.bks.cpg/sg5_18_cif.got.tgz:34012.got - 2010.06.03 18:56:24.
