data_PCOD9122688
_publ_section_title
;
Structure prediction by ZEFSAII (Michael W. Deem and Ramdas Pophale) SiO2 
 PCOD9122688
Probable space group: C 2
;
_chemical_formula_sum "Si O2"
_cell_formula_units_Z 26
_cell_length_a 7.919160
_cell_length_b 30.544963
_cell_length_c 5.380593
_cell_angle_alpha 90.000000
_cell_angle_beta 61.896743
_cell_angle_gamma 90.000000
_cell_volume 1148.065667
_symmetry_space_group_name_H-M "C 2"
_symmetry_group_IT_number 5
_symmetry_cell_setting 'monoclinic'
loop_
_space_group_symop_operation_xyz
x,y,z
-x,y,-z
1/2+x,1/2+y,z
1/2-x,1/2+y,-z
loop_
_atom_site_type_symbol
_atom_site_label
_atom_site_fract_x
_atom_site_fract_y
_atom_site_fract_z
Si Si1 0.766457 0.948340 0.178356
Si Si2 0.275487 0.401592 0.664907
Si Si3 0.626052 0.807322 0.663160
Si Si4 0.208838 0.118989 0.721223
Si Si5 0.629929 0.710982 0.659699
Si Si6 0.824871 0.538576 0.936796
Si Si7 0.000000 0.061209 0.500000
O O1 0.698235 0.926388 0.478905
O O2 0.704128 0.920283 0.978002
O O3 0.000000 0.948401 0.000000
O O4 0.689782 0.997717 0.234062
O O5 0.500000 0.410614 0.500000
O O6 0.249063 0.350141 0.631218
O O7 0.500000 0.813492 0.500000
O O8 0.721476 0.759170 0.567333
O O9 0.500000 0.804390 0.000000
O O10 0.261702 0.168387 0.613383
O O11 0.160520 0.091939 0.509074
O O12 0.332030 0.086538 0.805593
O O13 0.000000 0.121730 0.000000
O O14 0.500000 0.703550 0.500000
O O15 0.500000 0.713080 0.000000
O O16 0.619792 0.534634 0.218973
O O17 0.000000 0.532959 0.000000
#
# Coordination Sequence:
#
# PCOD9122688 Si02
#       7
#     4   4   4   4   4   4   2
#     4  10  22  40  62  85 114 166 207 250 306 373
#     4  10  22  39  62  83 120 157 201 248 309 367
#     4  10  20  35  60  90 121 153 200 256 303 365
#     4   9  18  35  59  86 117 161 206 248 302 369
#     4   9  17  32  58  90 117 157 206 246 303 369
#     4  11  25  39  60  93 125 162 211 261 312 375
#     4  10  20  38  66  80 122 166 204 250 312 364
#
# _framework density 22.646788999999998
#
# number of rings (size 3 to 8) (size 9 to 14) (size 15 to 20)
#    0.000    2.154    0.769    2.308    5.385    2.462 
#    0.000    0.000    3.385    0.923    0.000    0.000 
#    0.000    0.000    0.000    0.000    0.000    0.000 
#
# Total GULP energy -72587.232348 kJ/mol
# GULP energy per Si atom -5583.633258 kJ/mol
# Density = 2.259524 g / cm^3
# Si number density = 22.646789 Si / 1000 Ang^3
#
#
#
# Elastic Constant Matrix: (Units=GPa)
#
#
# Indices 1 2 3 4 5 6 
#
# 1 75.1852 33.8708 32.9063 0.0000 17.7837 0.0000
# 2 33.8708 167.6021 42.5411 0.0000 19.0791 0.0000
# 3 32.9063 42.5411 128.9679 0.0000 21.5010 0.0000
# 4 0.0000 0.0000 0.0000 44.5591 0.0000 31.0860
# 5 17.7837 19.0791 21.5010 0.0000 34.9117 0.0000
# 6 0.0000 0.0000 0.0000 31.0860 0.0000 45.8274
#
#
#
# Elastic Compliance Matrix: (Units=1/GPa)
#
#
# Indices 1 2 3 4 5 6 
#
# 1 0.016747 -0.002058 -0.002629 0.000000 -0.005787 0.000000
# 2 -0.002058 0.006965 -0.001463 0.000000 -0.001857 0.000000
# 3 -0.002629 -0.001463 0.009529 0.000000 -0.003730 0.000000
# 4 0.000000 0.000000 0.000000 0.042603 0.000000 -0.028899
# 5 -0.005787 -0.001857 -0.003730 0.000000 0.034903 0.000000
# 6 0.000000 0.000000 0.000000 -0.028899 0.000000 0.041424
#
#
# Mechanical properties :
#
#
# Convention : Reuss Voigt Hill
#
# Bulk Modulus (GPa) = 47.75407 65.59906 56.67657
# Shear Modulus (GPa) = 29.16257 42.55544 35.85901
#
# Velocity S-wave (km/s) = 3.59237 4.33955 3.98352
# Velocity P-wave (km/s) = 6.19185 7.35785 6.79989
#
# Compressibility (1/GPa) = 0.02094062
#
# Stress axis : x y z
#
# Youngs Moduli (GPa) = 59.71107 143.57177 104.94181
#
# Poissons Ratio (x) = 0.29552 0.27593
# Poissons Ratio (y) = 0.12291 0.15350
# Poissons Ratio (z) = 0.15700 0.21001
#
# Static dielectric constant tensor:
#      x y z
#    x 1.759460 0.000000 0.032040 
#    y 0.000000 1.880340 0.000000 
#    z 0.032040 0.000000 1.919030 
# 
# From -- ./inp_files/3596.got.cif
#   From: 2010.05.17/outbox.cif.g08.bks.cpg/sg5_2_cif.got.tgz:3596.got - 2010.06.03 18:56:24.
