data_PCOD9122784
_publ_section_title
;
Structure prediction by ZEFSAII (Michael W. Deem and Ramdas Pophale) SiO2 
 PCOD9122784
Probable space group: C 2
;
_chemical_formula_sum "Si O2"
_cell_formula_units_Z 22
_cell_length_a 11.623846
_cell_length_b 11.120066
_cell_length_c 14.873414
_cell_angle_alpha 90.000000
_cell_angle_beta 152.802097
_cell_angle_gamma 90.000000
_cell_volume 878.711279
_symmetry_space_group_name_H-M "C 2"
_symmetry_group_IT_number 5
_symmetry_cell_setting 'monoclinic'
loop_
_space_group_symop_operation_xyz
x,y,z
-x,y,-z
1/2+x,1/2+y,z
1/2-x,1/2+y,-z
loop_
_atom_site_type_symbol
_atom_site_label
_atom_site_fract_x
_atom_site_fract_y
_atom_site_fract_z
Si Si1 0.874125 0.185130 0.205012
Si Si2 0.991870 0.629366 0.206549
Si Si3 0.212757 0.896408 0.327219
Si Si4 0.571993 0.474958 0.428508
Si Si5 0.962353 0.709170 0.572135
Si Si6 0.500000 0.392678 0.000000
O O1 0.733113 0.303857 0.139689
O O2 0.882224 0.086525 0.289638
O O3 0.162410 0.215581 0.382496
O O4 0.725385 0.127470 0.018044
O O5 0.124089 0.758129 0.278321
O O6 0.191696 0.520307 0.348543
O O7 0.911639 0.643097 0.255776
O O8 0.500000 0.894080 0.500000
O O9 0.062900 0.952871 0.138566
O O10 0.165107 0.958198 0.389768
O O11 0.452749 0.348344 0.370896
O O12 0.000000 0.655578 0.500000
#
# Coordination Sequence:
#
# PCOD9122784 Si02
#       6
#     4   4   4   4   4   2
#     4  10  22  40  59  83 114 148 189 231 278 333
#     4   9  21  39  57  80 113 150 188 231 276 328
#     4  10  20  36  58  82 113 148 187 233 278 329
#     4  10  21  36  57  86 114 144 188 233 279 331
#     4  10  22  39  58  82 116 152 184 227 281 336
#     4  10  20  38  62  82 110 150 188 234 278 324
#
# _framework density 25.036664999999999
#
# number of rings (size 3 to 8) (size 9 to 14) (size 15 to 20)
#    0.000    2.182    0.000    3.273    0.000   13.091 
#    0.000    0.000    0.000    0.000    0.000    0.000 
#    0.000    0.000    0.000    0.000    0.000    0.000 
#
# Total GULP energy -61585.733770 kJ/mol
# GULP energy per Si atom -5598.703070 kJ/mol
# Density = 2.497968 g / cm^3
# Si number density = 25.036665 Si / 1000 Ang^3
#
#
#
# Elastic Constant Matrix: (Units=GPa)
#
#
# Indices 1 2 3 4 5 6 
#
# 1 122.8180 -13.6257 24.7425 0.0008 -32.8609 0.0001
# 2 -13.6257 65.0478 2.0917 -0.0003 -0.4409 0.0001
# 3 24.7425 2.0917 123.6179 0.0005 -35.2454 0.0029
# 4 0.0008 -0.0003 0.0005 29.5338 -0.0001 -8.7021
# 5 -32.8609 -0.4409 -35.2454 -0.0001 45.6854 0.0005
# 6 0.0001 0.0001 0.0029 -8.7021 0.0005 25.7950
#
#
#
# Elastic Compliance Matrix: (Units=1/GPa)
#
#
# Indices 1 2 3 4 5 6 
#
# 1 0.010396 0.002228 0.000025 0.000000 0.007519 0.000000
# 2 0.002228 0.015859 -0.000274 0.000000 0.001544 0.000000
# 3 0.000025 -0.000274 0.010376 -0.000001 0.008020 -0.000001
# 4 0.000000 0.000000 -0.000001 0.037597 -0.000001 0.012683
# 5 0.007519 0.001544 0.008020 -0.000001 0.033499 -0.000002
# 6 0.000000 0.000000 -0.000001 0.012683 -0.000002 0.043046
#
#
# Mechanical properties :
#
#
# Convention : Reuss Voigt Hill
#
# Bulk Modulus (GPa) = 24.63738 37.54453 31.09095
# Shear Modulus (GPa) = 31.18291 40.08785 35.63538
#
# Velocity S-wave (km/s) = 3.53298 4.00580 3.77679
# Velocity P-wave (km/s) = 5.14825 6.03520 5.60928
#
# Compressibility (1/GPa) = 0.04058873
#
# Stress axis : x y z
#
# Youngs Moduli (GPa) = 96.19227 63.05471 96.37908
#
# Poissons Ratio (x) = -0.14047 -0.00243
# Poissons Ratio (y) = -0.21430 0.02641
# Poissons Ratio (z) = -0.00242 0.01728
#
# Static dielectric constant tensor:
#      x y z
#    x 2.028990 0.000000 -0.027430 
#    y 0.000000 2.024370 0.000000 
#    z -0.027430 0.000000 1.954880 
# 
# From -- ./inp_files/39051.got.cif
#   From: 2010.05.17/outbox.cif.g08.bks.cpg/sg5_20_cif.got.tgz:39051.got - 2010.06.03 18:56:24.
