data_PCOD9122010
_publ_section_title
;
Structure prediction by ZEFSAII (Michael W. Deem and Ramdas Pophale) SiO2 
 PCOD9122010
Probable space group: C 2
;
_chemical_formula_sum "Si O2"
_cell_formula_units_Z 32
_cell_length_a 21.887417
_cell_length_b 8.091124
_cell_length_c 12.852392
_cell_angle_alpha 90.000000
_cell_angle_beta 145.296806
_cell_angle_gamma 90.000000
_cell_volume 1295.829483
_symmetry_space_group_name_H-M "C 2"
_symmetry_group_IT_number 5
_symmetry_cell_setting 'monoclinic'
loop_
_space_group_symop_operation_xyz
x,y,z
-x,y,-z
1/2+x,1/2+y,z
1/2-x,1/2+y,-z
loop_
_atom_site_type_symbol
_atom_site_label
_atom_site_fract_x
_atom_site_fract_y
_atom_site_fract_z
Si Si1 0.234997 0.619600 0.215177
Si Si2 0.714710 0.139089 0.521271
Si Si3 0.124936 0.842505 0.210450
Si Si4 0.693328 0.993175 0.953344
Si Si5 0.380101 0.812236 0.868618
Si Si6 0.965441 0.129821 0.567357
Si Si7 0.465644 0.030953 0.568843
Si Si8 0.657885 0.625408 0.985060
O O1 0.188792 0.785639 0.196611
O O2 0.145755 0.481877 0.110372
O O3 0.346178 0.570798 0.425016
O O4 0.258663 0.604535 0.126251
O O5 0.644978 0.192038 0.322473
O O6 0.793313 0.291190 0.657730
O O7 0.633723 0.104247 0.505322
O O8 0.805684 0.994358 0.645378
O O9 0.000000 0.865792 0.000000
O O10 0.573817 0.062368 0.784725
O O11 0.692869 0.805478 0.990029
O O12 0.746396 0.007042 0.914674
O O13 0.500000 0.810434 0.000000
O O14 0.363773 0.661436 0.926056
O O15 0.956298 0.330514 0.552597
O O16 0.000000 0.075626 0.500000
O O17 0.050455 0.077237 0.773032
O O18 0.500000 0.087080 0.500000
#
# Coordination Sequence:
#
# PCOD9122010 Si02
#       8
#     4   4   4   4   4   4   4   4
#     4  11  22  41  68  99 139 187 235 294 359 431
#     4  12  26  49  72 106 145 191 247 297 365 434
#     4  12  27  47  76 107 146 194 249 303 358 438
#     4  10  21  38  64 100 133 180 229 288 360 423
#     4  11  26  45  67  99 145 191 240 295 365 431
#     4  10  19  37  66 101 136 181 228 285 364 429
#     4  10  21  40  68  97 136 179 228 288 356 427
#     4  10  22  40  67  99 140 180 232 294 353 435
#
# _framework density 24.694607000000001
#
# number of rings (size 3 to 8) (size 9 to 14) (size 15 to 20)
#    0.000    1.250    2.500    3.000    1.750    4.000 
#    4.500    1.250    0.000    0.000    0.000    0.000 
#    0.000    0.000    0.000    0.000    0.000    0.000 
#
# Total GULP energy -89448.272853 kJ/mol
# GULP energy per Si atom -5590.517053 kJ/mol
# Density = 2.463840 g / cm^3
# Si number density = 24.694607 Si / 1000 Ang^3
#
#
#
# Elastic Constant Matrix: (Units=GPa)
#
#
# Indices 1 2 3 4 5 6 
#
# 1 101.2403 21.4965 59.4756 0.0000 18.7717 0.0000
# 2 21.4965 57.1610 25.0831 0.0000 1.6431 0.0000
# 3 59.4756 25.0831 163.2925 0.0000 15.6065 0.0000
# 4 0.0000 0.0000 0.0000 25.3423 0.0000 -0.7676
# 5 18.7717 1.6431 15.6065 0.0000 51.0088 0.0000
# 6 0.0000 0.0000 0.0000 -0.7676 0.0000 36.3558
#
#
#
# Elastic Compliance Matrix: (Units=1/GPa)
#
#
# Indices 1 2 3 4 5 6 
#
# 1 0.013669 -0.003221 -0.004134 0.000000 -0.003662 0.000000
# 2 -0.003221 0.019522 -0.001935 0.000000 0.001149 0.000000
# 3 -0.004134 -0.001935 0.008010 0.000000 -0.000867 0.000000
# 4 0.000000 0.000000 0.000000 0.039485 0.000000 0.000834
# 5 -0.003662 0.001149 -0.000867 0.000000 0.021180 0.000000
# 6 0.000000 0.000000 0.000000 0.000834 0.000000 0.027524
#
#
# Mechanical properties :
#
#
# Convention : Reuss Voigt Hill
#
# Bulk Modulus (GPa) = 44.20846 59.31156 51.76001
# Shear Modulus (GPa) = 32.15226 36.91730 34.53478
#
# Velocity S-wave (km/s) = 3.61223 3.87066 3.74368
# Velocity P-wave (km/s) = 5.94462 6.63673 6.30019
#
# Compressibility (1/GPa) = 0.02262010
#
# Stress axis : x y z
#
# Youngs Moduli (GPa) = 73.15888 51.22412 124.84756
#
# Poissons Ratio (x) = 0.16500 0.51610
# Poissons Ratio (y) = 0.23566 0.24162
# Poissons Ratio (z) = 0.30242 0.09913
#
# Static dielectric constant tensor:
#      x y z
#    x 1.961880 0.000000 -0.045040 
#    y 0.000000 1.991570 0.000000 
#    z -0.045040 0.000000 1.938230 
# 
# From -- ./inp_files/57727.got.cif
#   From: 2010.05.17/outbox.cif.g08.bks.cpg/sg5_29_cif.got.tgz:57727.got - 2010.06.03 18:56:24.
