data_PCOD9122201
_publ_section_title
;
Structure prediction by ZEFSAII (Michael W. Deem and Ramdas Pophale) SiO2 
 PCOD9122201
Probable space group: C 2
;
_chemical_formula_sum "Si O2"
_cell_formula_units_Z 26
_cell_length_a 20.681335
_cell_length_b 10.218819
_cell_length_c 8.634677
_cell_angle_alpha 90.000000
_cell_angle_beta 133.770809
_cell_angle_gamma 90.000000
_cell_volume 1317.742023
_symmetry_space_group_name_H-M "C 2"
_symmetry_group_IT_number 5
_symmetry_cell_setting 'monoclinic'
loop_
_space_group_symop_operation_xyz
x,y,z
-x,y,-z
1/2+x,1/2+y,z
1/2-x,1/2+y,-z
loop_
_atom_site_type_symbol
_atom_site_label
_atom_site_fract_x
_atom_site_fract_y
_atom_site_fract_z
Si Si1 0.585180 0.308260 0.944928
Si Si2 0.132034 0.432003 0.449284
Si Si3 0.396290 0.233794 0.666388
Si Si4 0.801107 0.318473 0.751653
Si Si5 0.330771 0.055412 0.037356
Si Si6 0.000000 0.441834 0.500000
Si Si7 0.803682 0.045483 0.913237
O O1 0.484991 0.277933 0.725203
O O2 0.653317 0.201577 0.992730
O O3 0.593363 0.285640 0.142441
O O4 0.612079 0.452321 0.943753
O O5 0.102096 0.575669 0.337433
O O6 0.151006 0.339265 0.334572
O O7 0.227599 0.469099 0.685677
O O8 0.058790 0.380893 0.453711
O O9 0.304803 0.292794 0.449278
O O10 0.828669 0.185812 0.884633
O O11 0.819476 0.446980 0.885015
O O12 0.244204 0.056922 0.001789
O O13 0.419812 0.019332 0.282648
#
# Coordination Sequence:
#
# PCOD9122201 Si02
#       7
#     4   4   4   4   4   2   4
#     4  11  20  39  68  92 128 167 216 267 305 390
#     4  10  19  39  64  93 125 166 220 266 310 385
#     4  10  21  37  65  96 120 166 225 253 317 384
#     4  11  22  40  67  96 128 175 213 269 331 382
#     4  11  22  40  69  94 131 171 221 262 321 381
#     4  10  22  38  62 102 120 160 224 278 296 382
#     4  10  23  39  60 100 135 165 208 273 327 376
#
# _framework density 19.730720000000002
#
# number of rings (size 3 to 8) (size 9 to 14) (size 15 to 20)
#    0.000    1.538    4.615    0.923    0.000    0.615 
#    0.000    3.077    6.769    0.000    0.000    0.000 
#    0.000    0.000    0.000    0.000    0.000    0.000 
#
# Total GULP energy -72507.115635 kJ/mol
# GULP energy per Si atom -5577.470433 kJ/mol
# Density = 1.968581 g / cm^3
# Si number density = 19.730720 Si / 1000 Ang^3
#
#
#
# Elastic Constant Matrix: (Units=GPa)
#
#
# Indices 1 2 3 4 5 6 
#
# 1 123.9295 50.3231 15.0112 0.0000 -13.3130 0.0000
# 2 50.3231 74.5192 21.4283 0.0000 -0.1050 0.0000
# 3 15.0112 21.4283 32.8170 0.0000 1.7889 0.0000
# 4 0.0000 0.0000 0.0000 4.3542 0.0000 25.9973
# 5 -13.3130 -0.1050 1.7889 0.0000 32.7594 0.0000
# 6 0.0000 0.0000 0.0000 25.9973 0.0000 -17.3788
#
#
#
# Elastic Compliance Matrix: (Units=1/GPa)
#
#
# Indices 1 2 3 4 5 6 
#
# 1 0.011830 -0.007818 -0.000568 0.000000 0.004813 0.000000
# 2 -0.007818 0.021702 -0.010456 0.000000 -0.002537 0.000000
# 3 -0.000568 -0.010456 0.037686 0.000000 -0.002322 0.000000
# 4 0.000000 0.000000 0.000000 0.023125 0.000000 0.034593
# 5 0.004813 -0.002537 -0.002322 0.000000 0.032600 0.000000
# 6 0.000000 0.000000 0.000000 0.034593 0.000000 -0.005794
#
#
# Mechanical properties :
#
#
# Convention : Reuss Voigt Hill
#
# Bulk Modulus (GPa) = 29.82217 44.97675 37.39946
# Shear Modulus (GPa) = 29.40947 13.58049 21.49498
#
# Velocity S-wave (km/s) = 3.86494 2.62638 3.30421
# Velocity P-wave (km/s) = 5.92152 5.66056 5.79251
#
# Compressibility (1/GPa) = 0.03353210
#
# Stress axis : x y z
#
# Youngs Moduli (GPa) = 84.53203 46.07795 26.53493
#
# Poissons Ratio (x) = 0.36026 0.01508
# Poissons Ratio (y) = 0.66091 0.27745
# Poissons Ratio (z) = 0.04805 0.48180
#
# Static dielectric constant tensor:
#      x y z
#    x 1.756950 0.000000 -0.002870 
#    y 0.000000 1.653530 0.000000 
#    z -0.002870 0.000000 1.721170 
# 
# From -- ./inp_files/29139.got.cif
#   From: 2010.05.17/outbox.cif.g08.bks.cpg/sg5_15_cif.got.tgz:29139.got - 2010.06.03 18:56:24.
