data_PCOD9122118
_publ_section_title
;
Structure prediction by ZEFSAII (Michael W. Deem and Ramdas Pophale) SiO2 
 PCOD9122118
Probable space group: C 2
;
_chemical_formula_sum "Si O2"
_cell_formula_units_Z 32
_cell_length_a 13.868247
_cell_length_b 8.589720
_cell_length_c 23.572326
_cell_angle_alpha 90.000000
_cell_angle_beta 151.028598
_cell_angle_gamma 90.000000
_cell_volume 1360.137927
_symmetry_space_group_name_H-M "C 2"
_symmetry_group_IT_number 5
_symmetry_cell_setting 'monoclinic'
loop_
_space_group_symop_operation_xyz
x,y,z
-x,y,-z
1/2+x,1/2+y,z
1/2-x,1/2+y,-z
loop_
_atom_site_type_symbol
_atom_site_label
_atom_site_fract_x
_atom_site_fract_y
_atom_site_fract_z
Si Si1 0.235955 0.610690 0.765664
Si Si2 0.146081 0.792567 0.453897
Si Si3 0.763849 0.363677 0.152552
Si Si4 0.451125 0.839090 0.408849
Si Si5 0.567312 0.249812 0.941724
Si Si6 0.163006 0.237442 0.333976
Si Si7 0.079926 0.040171 0.874260
Si Si8 0.112758 0.006164 0.616161
O O1 0.283856 0.532350 0.849654
O O2 0.155972 0.478633 0.679781
O O3 0.452385 0.648181 0.852210
O O4 0.046257 0.718312 0.674508
O O5 0.338683 0.805282 0.514202
O O6 0.186910 0.708143 0.536513
O O7 0.055779 0.958808 0.425710
O O8 0.706953 0.342200 0.058762
O O9 0.996245 0.340274 0.279023
O O10 0.637528 0.247203 0.127652
O O11 0.500000 0.876231 0.500000
O O12 0.316339 0.680551 0.334089
O O13 0.689856 0.090491 0.001723
O O14 0.560037 0.361812 0.883615
O O15 0.256480 0.352519 0.333436
O O16 0.035360 0.092850 0.242987
O O17 0.000000 0.034628 0.500000
#
# Coordination Sequence:
#
# PCOD9122118 Si02
#       8
#     4   4   4   4   4   4   4   4
#     4  11  22  38  62  93 124 164 207 246 310 364
#     4  11  21  38  60  88 134 169 204 241 286 384
#     4   9  19  39  63  85 113 170 201 242 314 383
#     4  11  24  36  55  87 133 170 201 251 293 348
#     4   9  20  41  67  87 116 150 212 267 312 360
#     4  10  19  38  65  90 118 170 204 240 304 385
#     4  10  21  40  64  92 113 156 205 262 316 361
#     4   9  20  37  56  85 122 171 205 234 290 365
#
# _framework density 23.527027
#
# number of rings (size 3 to 8) (size 9 to 14) (size 15 to 20)
#    0.000    2.000    2.500    0.750    5.250    0.000 
#    9.000    0.000    0.000   12.000    0.000    0.000 
#    0.000    0.000    0.000    0.000    0.000    0.000 
#
# Total GULP energy -89106.063898 kJ/mol
# GULP energy per Si atom -5569.128994 kJ/mol
# Density = 2.347348 g / cm^3
# Si number density = 23.527027 Si / 1000 Ang^3
#
#
#
# Elastic Constant Matrix: (Units=GPa)
#
#
# Indices 1 2 3 4 5 6 
#
# 1 84.7512 15.4814 8.1937 0.0000 16.5828 0.0000
# 2 15.4814 54.3264 10.6865 -0.0001 -5.3445 0.0000
# 3 8.1937 10.6865 46.9460 0.0000 15.7366 0.0000
# 4 0.0000 -0.0001 0.0000 32.3215 0.0000 5.6330
# 5 16.5828 -5.3445 15.7366 0.0000 49.1367 0.0000
# 6 0.0000 0.0000 0.0000 5.6330 0.0000 22.8980
#
#
#
# Elastic Compliance Matrix: (Units=1/GPa)
#
#
# Indices 1 2 3 4 5 6 
#
# 1 0.013594 -0.004461 0.000385 0.000000 -0.005196 0.000000
# 2 -0.004461 0.021433 -0.006034 0.000000 0.005769 0.000000
# 3 0.000385 -0.006034 0.025622 0.000000 -0.008992 0.000000
# 4 0.000000 0.000000 0.000000 0.032325 0.000000 -0.007952
# 5 -0.005196 0.005769 -0.008992 0.000000 0.025612 0.000000
# 6 0.000000 0.000000 0.000000 -0.007952 0.000000 0.045628
#
#
# Mechanical properties :
#
#
# Convention : Reuss Voigt Hill
#
# Bulk Modulus (GPa) = 24.73554 28.30520 26.52037
# Shear Modulus (GPa) = 25.26405 30.98205 28.12305
#
# Velocity S-wave (km/s) = 3.28049 3.63281 3.46114
# Velocity P-wave (km/s) = 4.98852 5.44550 5.22201
#
# Compressibility (1/GPa) = 0.04042767
#
# Stress axis : x y z
#
# Youngs Moduli (GPa) = 73.56442 46.65724 39.02950
#
# Poissons Ratio (x) = 0.20812 -0.01501
# Poissons Ratio (y) = 0.32814 0.23551
# Poissons Ratio (z) = -0.02829 0.28154
#
# Static dielectric constant tensor:
#      x y z
#    x 1.926640 0.000000 -0.007080 
#    y 0.000000 2.001750 0.000000 
#    z -0.007080 0.000000 1.968740 
# 
# From -- ./inp_files/70612.got.cif
#   From: 2010.05.17/outbox.cif.g08.bks.cpg/sg5_36_cif.got.tgz:70612.got - 2010.06.03 18:56:24.
