data_PCOD9122766
_publ_section_title
;
Structure prediction by ZEFSAII (Michael W. Deem and Ramdas Pophale) SiO2 
 PCOD9122766
Probable space group: C 2
;
_chemical_formula_sum "Si O2"
_cell_formula_units_Z 22
_cell_length_a 13.181113
_cell_length_b 8.185491
_cell_length_c 12.689072
_cell_angle_alpha 90.000000
_cell_angle_beta 41.263493
_cell_angle_gamma 90.000000
_cell_volume 902.935086
_symmetry_space_group_name_H-M "C 2"
_symmetry_group_IT_number 5
_symmetry_cell_setting 'monoclinic'
loop_
_space_group_symop_operation_xyz
x,y,z
-x,y,-z
1/2+x,1/2+y,z
1/2-x,1/2+y,-z
loop_
_atom_site_type_symbol
_atom_site_label
_atom_site_fract_x
_atom_site_fract_y
_atom_site_fract_z
Si Si1 0.613041 0.834500 0.547670
Si Si2 0.387472 0.440008 0.923032
Si Si3 0.443480 0.165610 0.323935
Si Si4 0.677139 0.594559 0.248230
Si Si5 0.500000 0.334718 0.500000
Si Si6 0.298731 0.415312 0.214953
O O1 0.770916 0.738414 0.446132
O O2 0.476080 0.707705 0.639684
O O3 0.660490 0.929976 0.403660
O O4 0.569063 0.971040 0.666900
O O5 0.437694 0.257282 0.846887
O O6 0.319132 0.520151 0.871756
O O7 0.554892 0.492968 0.839973
O O8 0.282675 0.472547 0.107188
O O9 0.486763 0.231026 0.405600
O O10 0.642621 0.455728 0.361232
O O11 0.808841 0.718629 0.183545
#
# Coordination Sequence:
#
# PCOD9122766 Si02
#       6
#     4   4   4   4   2   4
#     4  11  21  38  63  89 117 159 209 248 309 360
#     4   9  22  40  59  88 123 161 202 249 314 363
#     4  10  22  36  61  88 120 155 203 259 298 370
#     4  11  21  39  63  88 121 163 203 253 302 373
#     4  10  20  36  56  92 118 150 204 256 302 354
#     4  10  20  38  65  82 123 161 197 249 313 356
#
# _framework density 24.364985999999998
#
# number of rings (size 3 to 8) (size 9 to 14) (size 15 to 20)
#    0.000    1.818    1.818    3.273    5.091    1.455 
#    3.273    0.000    0.000    4.364    0.000    0.000 
#    0.000    0.000    0.000    0.000    0.000    0.000 
#
# Total GULP energy -61367.142056 kJ/mol
# GULP energy per Si atom -5578.831096 kJ/mol
# Density = 2.430953 g / cm^3
# Si number density = 24.364986 Si / 1000 Ang^3
#
#
#
# Elastic Constant Matrix: (Units=GPa)
#
#
# Indices 1 2 3 4 5 6 
#
# 1 73.7396 5.5672 1.5977 0.0000 -1.1879 0.0000
# 2 5.5672 62.4283 -8.2499 0.0000 -5.4011 0.0000
# 3 1.5977 -8.2499 71.2908 0.0000 16.2645 0.0000
# 4 0.0000 0.0000 0.0000 33.0291 0.0000 8.5091
# 5 -1.1879 -5.4011 16.2645 0.0000 43.8115 0.0000
# 6 0.0000 0.0000 0.0000 8.5091 0.0000 35.0740
#
#
#
# Elastic Compliance Matrix: (Units=1/GPa)
#
#
# Indices 1 2 3 4 5 6 
#
# 1 0.013675 -0.001256 -0.000547 0.000000 0.000419 0.000000
# 2 -0.001256 0.016465 0.001615 0.000000 0.001396 0.000000
# 3 -0.000547 0.001615 0.015497 0.000000 -0.005569 0.000000
# 4 0.000000 0.000000 0.000000 0.032295 0.000000 -0.007835
# 5 0.000419 0.001396 -0.005569 0.000000 0.025076 0.000000
# 6 0.000000 0.000000 0.000000 -0.007835 0.000000 0.030412
#
#
# Mechanical properties :
#
#
# Convention : Reuss Voigt Hill
#
# Bulk Modulus (GPa) = 22.09468 22.80987 22.45228
# Shear Modulus (GPa) = 33.58386 36.28582 34.93484
#
# Velocity S-wave (km/s) = 3.71666 3.86328 3.79068
# Velocity P-wave (km/s) = 5.24462 5.41128 5.32860
#
# Compressibility (1/GPa) = 0.04525977
#
# Stress axis : x y z
#
# Youngs Moduli (GPa) = 73.12808 60.73658 64.53001
#
# Poissons Ratio (x) = 0.07626 0.03532
# Poissons Ratio (y) = 0.09182 -0.10421
# Poissons Ratio (z) = 0.04003 -0.09808
#
# Static dielectric constant tensor:
#      x y z
#    x 2.003090 0.000000 0.040400 
#    y 0.000000 1.991880 0.000000 
#    z 0.040400 0.000000 1.982120 
# 
# From -- ./inp_files/41351.got.cif
#   From: 2010.05.17/outbox.cif.g08.bks.cpg/sg5_21_cif.got.tgz:41351.got - 2010.06.03 18:56:24.
