data_PCOD9122552
_publ_section_title
;
Structure prediction by ZEFSAII (Michael W. Deem and Ramdas Pophale) SiO2 
 PCOD9122552
Probable space group: C 2
;
_chemical_formula_sum "Si O2"
_cell_formula_units_Z 28
_cell_length_a 21.367266
_cell_length_b 7.095053
_cell_length_c 8.326098
_cell_angle_alpha 90.000000
_cell_angle_beta 97.842073
_cell_angle_gamma 90.000000
_cell_volume 1250.447461
_symmetry_space_group_name_H-M "C 2"
_symmetry_group_IT_number 5
_symmetry_cell_setting 'monoclinic'
loop_
_space_group_symop_operation_xyz
x,y,z
-x,y,-z
1/2+x,1/2+y,z
1/2-x,1/2+y,-z
loop_
_atom_site_type_symbol
_atom_site_label
_atom_site_fract_x
_atom_site_fract_y
_atom_site_fract_z
Si Si1 0.432058 0.187480 0.535783
Si Si2 0.690408 0.637478 0.442600
Si Si3 0.068953 0.132083 0.554809
Si Si4 0.188698 0.647717 0.715312
Si Si5 0.266465 0.731023 0.188029
Si Si6 0.367154 0.313537 0.797625
Si Si7 0.867446 0.000347 0.109079
O O1 0.500000 0.116765 0.500000
O O2 0.433188 0.411386 0.494641
O O3 0.370293 0.109502 0.424705
O O4 0.417092 0.188367 0.720077
O O5 0.621225 0.723793 0.455522
O O6 0.748292 0.716224 0.358423
O O7 0.715786 0.634665 0.634363
O O8 0.670681 0.445047 0.344603
O O9 0.089949 0.116297 0.748649
O O10 0.000000 0.209712 0.500000
O O11 0.209431 0.446549 0.794795
O O12 0.159693 0.811896 0.815181
O O13 0.191950 0.706160 0.145413
O O14 0.305833 0.629503 0.063175
O O15 0.396122 0.440957 0.949108
#
# Coordination Sequence:
#
# PCOD9122552 Si02
#       7
#     4   4   4   4   4   4   4
#     4   9  17  34  58  84 115 153 208 247 283 355
#     4   9  18  33  54  79 112 152 198 241 280 345
#     4   8  16  34  56  80 112 155 197 240 285 354
#     4  10  20  36  56  84 117 158 200 245 296 355
#     4  10  21  35  57  83 122 156 195 249 291 354
#     4  10  20  34  57  92 119 155 199 244 308 349
#     4  10  22  36  56  90 124 151 191 251 307 358
#
# _framework density 22.391984000000001
#
# number of rings (size 3 to 8) (size 9 to 14) (size 15 to 20)
#    0.000    2.571    1.429    0.857    8.000    0.000 
#    0.000   15.714    0.000    0.000    0.000   16.000 
#    0.000    0.000    0.000    0.000    0.000    0.000 
#
# Total GULP energy -77957.169208 kJ/mol
# GULP energy per Si atom -5568.369229 kJ/mol
# Density = 2.234102 g / cm^3
# Si number density = 22.391984 Si / 1000 Ang^3
#
#
#
# Elastic Constant Matrix: (Units=GPa)
#
#
# Indices 1 2 3 4 5 6 
#
# 1 168.6296 13.9029 49.8459 0.0000 -11.2297 0.0000
# 2 13.9029 89.4034 13.7612 0.0000 -5.6177 0.0000
# 3 49.8459 13.7612 93.0518 0.0000 -1.4110 0.0000
# 4 0.0000 0.0000 0.0000 17.1932 0.0000 -3.1982
# 5 -11.2297 -5.6177 -1.4110 0.0000 14.4796 0.0000
# 6 0.0000 0.0000 0.0000 -3.1982 0.0000 6.6143
#
#
#
# Elastic Compliance Matrix: (Units=1/GPa)
#
#
# Indices 1 2 3 4 5 6 
#
# 1 0.007448 -0.000228 -0.003876 0.000000 0.005310 0.000000
# 2 -0.000228 0.011724 -0.001548 0.000000 0.004221 0.000000
# 3 -0.003876 -0.001548 0.013016 0.000000 -0.002338 0.000000
# 4 0.000000 0.000000 0.000000 0.063911 0.000000 0.030902
# 5 0.005310 0.004221 -0.002338 0.000000 0.074591 0.000000
# 6 0.000000 0.000000 0.000000 0.030902 0.000000 0.166130
#
#
# Mechanical properties :
#
#
# Convention : Reuss Voigt Hill
#
# Bulk Modulus (GPa) = 47.87913 56.23386 52.05650
# Shear Modulus (GPa) = 14.08114 25.89573 19.98844
#
# Velocity S-wave (km/s) = 2.51040 3.40439 2.99098
# Velocity P-wave (km/s) = 5.46182 6.37346 5.93517
#
# Compressibility (1/GPa) = 0.02088593
#
# Stress axis : x y z
#
# Youngs Moduli (GPa) = 134.26060 85.29386 76.82718
#
# Poissons Ratio (x) = 0.01945 0.29775
# Poissons Ratio (y) = 0.03062 0.11891
# Poissons Ratio (z) = 0.52034 0.13201
#
# Static dielectric constant tensor:
#      x y z
#    x 1.903510 0.000000 -0.009210 
#    y 0.000000 1.904320 0.000000 
#    z -0.009210 0.000000 1.900900 
# 
# From -- ./inp_files/28730.got.cif
#   From: 2010.05.17/outbox.cif.g08.bks.cpg/sg5_15_cif.got.tgz:28730.got - 2010.06.03 18:56:24.
