data_PCOD9122511
_publ_section_title
;
Structure prediction by ZEFSAII (Michael W. Deem and Ramdas Pophale) SiO2 
 PCOD9122511
Probable space group: C 2
;
_chemical_formula_sum "Si O2"
_cell_formula_units_Z 28
_cell_length_a 5.180334
_cell_length_b 32.722554
_cell_length_c 8.273312
_cell_angle_alpha 90.000000
_cell_angle_beta 60.091329
_cell_angle_gamma 90.000000
_cell_volume 1215.665051
_symmetry_space_group_name_H-M "C 2"
_symmetry_group_IT_number 5
_symmetry_cell_setting 'monoclinic'
loop_
_space_group_symop_operation_xyz
x,y,z
-x,y,-z
1/2+x,1/2+y,z
1/2-x,1/2+y,-z
loop_
_atom_site_type_symbol
_atom_site_label
_atom_site_fract_x
_atom_site_fract_y
_atom_site_fract_z
Si Si1 0.332603 0.601510 0.728746
Si Si2 0.848926 0.917225 0.721459
Si Si3 0.598341 0.692665 0.287287
Si Si4 0.816459 0.741189 0.805855
Si Si5 0.853052 0.829928 0.868818
Si Si6 0.166151 0.554319 0.272567
Si Si7 0.159830 0.461636 0.271400
O O1 0.500000 0.601186 0.500000
O O2 0.350600 0.647094 0.795036
O O3 0.506172 0.569885 0.787846
O O4 0.005736 0.585831 0.787980
O O5 0.926071 0.871798 0.756136
O O6 0.509689 0.929696 0.791575
O O7 0.000000 0.922495 0.500000
O O8 0.006184 0.947959 0.795635
O O9 0.500000 0.686726 0.500000
O O10 0.313757 0.715746 0.301692
O O11 0.907187 0.718048 0.197033
O O12 0.920533 0.787985 0.752083
O O13 0.500000 0.743574 0.000000
O O14 0.500000 0.831785 0.000000
O O15 0.000000 0.827231 0.000000
O O16 0.144095 0.508081 0.217830
O O17 0.000000 0.554448 0.500000
O O18 0.000000 0.460646 0.500000
#
# Coordination Sequence:
#
# PCOD9122511 Si02
#       7
#     4   4   4   4   4   4   4
#     4   9  17  28  46  76 111 143 178 224 274 325
#     4  10  20  34  54  83 113 139 177 230 280 323
#     4  11  22  37  59  89 119 146 188 243 291 332
#     4  11  23  41  60  82 113 153 194 233 282 348
#     4  11  23  41  60  80 108 145 189 228 271 338
#     4   9  15  26  45  72 110 148 176 213 271 327
#     4   9  17  29  48  78 113 144 177 221 272 327
#
# _framework density 23.032661000000001
#
# number of rings (size 3 to 8) (size 9 to 14) (size 15 to 20)
#    0.000    2.000    0.000    5.143    0.000    6.857 
#    0.000    1.429    0.000    0.000    0.000   35.000 
#    0.000    0.000    0.000    0.000    0.000    0.000 
#
# Total GULP energy -78208.731183 kJ/mol
# GULP energy per Si atom -5586.337942 kJ/mol
# Density = 2.298024 g / cm^3
# Si number density = 23.032661 Si / 1000 Ang^3
#
#
#
# Elastic Constant Matrix: (Units=GPa)
#
#
# Indices 1 2 3 4 5 6 
#
# 1 157.5769 49.9297 9.3336 0.0000 13.9259 0.0000
# 2 49.9297 149.2246 -2.2914 0.0000 21.0708 0.0000
# 3 9.3336 -2.2914 35.5627 0.0000 -4.7911 0.0000
# 4 0.0000 0.0000 0.0000 12.7446 0.0000 3.2707
# 5 13.9259 21.0708 -4.7911 0.0000 31.2714 0.0000
# 6 0.0000 0.0000 0.0000 3.2707 0.0000 40.9387
#
#
#
# Elastic Compliance Matrix: (Units=1/GPa)
#
#
# Indices 1 2 3 4 5 6 
#
# 1 0.007374 -0.002198 -0.002369 0.000000 -0.002166 0.000000
# 2 -0.002198 0.008062 0.000507 0.000000 -0.004376 0.000000
# 3 -0.002369 0.000507 0.029478 0.000000 0.005230 0.000000
# 4 0.000000 0.000000 0.000000 0.080107 0.000000 -0.006400
# 5 -0.002166 -0.004376 0.005230 0.000000 0.036693 0.000000
# 6 0.000000 0.000000 0.000000 -0.006400 0.000000 0.024938
#
#
# Mechanical properties :
#
#
# Convention : Reuss Voigt Hill
#
# Bulk Modulus (GPa) = 27.17762 50.70091 38.93926
# Shear Modulus (GPa) = 24.15019 36.01707 30.08363
#
# Velocity S-wave (km/s) = 3.24160 3.95870 3.61796
# Velocity P-wave (km/s) = 5.08289 6.55405 5.86478
#
# Compressibility (1/GPa) = 0.03679498
#
# Stress axis : x y z
#
# Youngs Moduli (GPa) = 135.60664 124.03236 33.92329
#
# Poissons Ratio (x) = 0.27261 0.08036
# Poissons Ratio (y) = 0.29805 -0.01719
# Poissons Ratio (z) = 0.32123 -0.06286
#
# Static dielectric constant tensor:
#      x y z
#    x 1.811240 0.000000 0.016220 
#    y 0.000000 1.876300 0.000000 
#    z 0.016220 0.000000 1.942740 
# 
# From -- ./inp_files/13292.got.cif
#   From: 2010.05.17/outbox.cif.g08.bks.cpg/sg5_7_cif.got.tgz:13292.got - 2010.06.03 18:56:24.
