data_PCOD9122824
_publ_section_title
;
Structure prediction by ZEFSAII (Michael W. Deem and Ramdas Pophale) SiO2 
 PCOD9122824
Probable space group: C 2
;
_chemical_formula_sum "Si O2"
_cell_formula_units_Z 32
_cell_length_a 9.188303
_cell_length_b 11.316874
_cell_length_c 20.646039
_cell_angle_alpha 90.000000
_cell_angle_beta 38.995431
_cell_angle_gamma 90.000000
_cell_volume 1350.913573
_symmetry_space_group_name_H-M "C 2"
_symmetry_group_IT_number 5
_symmetry_cell_setting 'monoclinic'
loop_
_space_group_symop_operation_xyz
x,y,z
-x,y,-z
1/2+x,1/2+y,z
1/2-x,1/2+y,-z
loop_
_atom_site_type_symbol
_atom_site_label
_atom_site_fract_x
_atom_site_fract_y
_atom_site_fract_z
Si Si1 0.672661 0.277350 0.081052
Si Si2 0.777529 0.267267 0.901788
Si Si3 0.315283 0.140544 0.792079
Si Si4 0.870563 0.890962 0.723991
Si Si5 0.148365 0.067881 0.386173
Si Si6 0.224240 0.523386 0.888198
Si Si7 0.873227 0.344681 0.610815
Si Si8 0.791876 0.395557 0.778043
O O1 0.719362 0.187752 0.123066
O O2 0.730932 0.407502 0.085793
O O3 0.396311 0.289451 0.166241
O O4 0.812724 0.255678 0.966951
O O5 0.891620 0.363993 0.814504
O O6 0.864554 0.143942 0.840158
O O7 0.500000 0.303743 0.000000
O O8 0.298493 0.253296 0.750135
O O9 0.576960 0.086518 0.697366
O O10 0.172273 0.023192 0.826832
O O11 0.699218 0.971965 0.825588
O O12 0.106963 0.879706 0.685885
O O13 0.905524 0.966919 0.647797
O O14 0.080714 0.204687 0.394857
O O15 0.000000 0.035297 0.500000
O O16 0.000000 0.575639 0.000000
O O17 0.926908 0.398032 0.662966
O O18 0.000000 0.379391 0.500000
#
# Coordination Sequence:
#
# PCOD9122824 Si02
#       8
#     4   4   4   4   4   4   4   4
#     4  10  21  42  55  89 130 157 204 263 303 366
#     4   9  21  34  61  84 115 158 206 250 299 371
#     4  10  23  40  63  89 131 161 204 267 309 372
#     4  10  21  42  62  89 130 159 206 266 308 378
#     4  10  21  39  66  92 121 166 210 259 320 377
#     4  10  20  36  59  85 117 163 202 246 311 368
#     4  10  21  40  66  91 123 169 209 262 321 366
#     4  11  20  41  62  88 121 166 206 257 315 365
#
# _framework density 23.687674999999999
#
# number of rings (size 3 to 8) (size 9 to 14) (size 15 to 20)
#    0.000    2.000    3.750    0.750    7.000    0.000 
#    6.750    1.250    0.000    0.000    0.000    0.000 
#    0.000    0.000    0.000    0.000    0.000    0.000 
#
# Total GULP energy -89142.750760 kJ/mol
# GULP energy per Si atom -5571.421922 kJ/mol
# Density = 2.363376 g / cm^3
# Si number density = 23.687675 Si / 1000 Ang^3
#
#
#
# Elastic Constant Matrix: (Units=GPa)
#
#
# Indices 1 2 3 4 5 6 
#
# 1 70.3130 41.9687 41.5604 0.0001 25.9088 -0.0001
# 2 41.9687 164.2714 58.2237 -0.0001 49.1285 0.0000
# 3 41.5604 58.2237 138.0727 0.0002 50.1319 -0.0001
# 4 0.0001 -0.0001 0.0002 34.8831 -0.0001 14.8294
# 5 25.9088 49.1285 50.1319 -0.0001 48.9393 0.0001
# 6 -0.0001 0.0000 -0.0001 14.8294 0.0001 35.4340
#
#
#
# Elastic Compliance Matrix: (Units=1/GPa)
#
#
# Indices 1 2 3 4 5 6 
#
# 1 0.019182 -0.002450 -0.003099 0.000000 -0.004521 0.000000
# 2 -0.002450 0.009067 -0.000401 0.000000 -0.007394 0.000000
# 3 -0.003099 -0.000401 0.012105 0.000000 -0.010356 0.000000
# 4 0.000000 0.000000 0.000000 0.034871 0.000000 -0.014594
# 5 -0.004521 -0.007394 -0.010356 0.000000 0.040858 0.000000
# 6 0.000000 0.000000 0.000000 -0.014594 0.000000 0.034329
#
#
# Mechanical properties :
#
#
# Convention : Reuss Voigt Hill
#
# Bulk Modulus (GPa) = 35.14662 72.90697 54.02679
# Shear Modulus (GPa) = 29.10393 39.24489 34.17441
#
# Velocity S-wave (km/s) = 3.50902 4.07475 3.80242
# Velocity P-wave (km/s) = 5.59351 7.27897 6.49118
#
# Compressibility (1/GPa) = 0.02845224
#
# Stress axis : x y z
#
# Youngs Moduli (GPa) = 52.13126 110.29024 82.61142
#
# Poissons Ratio (x) = 0.27024 0.25604
# Poissons Ratio (y) = 0.12774 0.03316
# Poissons Ratio (z) = 0.16157 0.04427
#
# Static dielectric constant tensor:
#      x y z
#    x 2.190870 0.000000 -0.093060 
#    y 0.000000 1.897020 0.000000 
#    z -0.093060 0.000000 1.972840 
# 
# From -- ./inp_files/65234.got.cif
#   From: 2010.05.17/outbox.cif.g08.bks.cpg/sg5_33_cif.got.tgz:65234.got - 2010.06.03 18:56:24.
