data_PCOD9122203
_publ_section_title
;
Structure prediction by ZEFSAII (Michael W. Deem and Ramdas Pophale) SiO2 
 PCOD9122203
Probable space group: C 2
;
_chemical_formula_sum "Si O2"
_cell_formula_units_Z 26
_cell_length_a 11.453673
_cell_length_b 8.409051
_cell_length_c 26.592011
_cell_angle_alpha 90.000000
_cell_angle_beta 150.405776
_cell_angle_gamma 90.000000
_cell_volume 1264.857816
_symmetry_space_group_name_H-M "C 2"
_symmetry_group_IT_number 5
_symmetry_cell_setting 'monoclinic'
loop_
_space_group_symop_operation_xyz
x,y,z
-x,y,-z
1/2+x,1/2+y,z
1/2-x,1/2+y,-z
loop_
_atom_site_type_symbol
_atom_site_label
_atom_site_fract_x
_atom_site_fract_y
_atom_site_fract_z
Si Si1 0.359119 0.394710 0.397569
Si Si2 0.845990 0.381683 0.251402
Si Si3 0.110362 0.548199 0.627361
Si Si4 0.500000 0.828825 0.500000
Si Si5 0.786430 0.542940 0.753455
Si Si6 0.238440 0.074851 0.118849
Si Si7 0.991557 0.845452 0.720581
O O1 0.500000 0.438631 0.500000
O O2 0.447339 0.229558 0.406251
O O3 0.351399 0.525600 0.351140
O O4 0.096244 0.356654 0.318216
O O5 0.893052 0.498239 0.316160
O O6 0.744736 0.218070 0.235435
O O7 0.692610 0.461928 0.149872
O O8 0.369855 0.492593 0.704599
O O9 0.950390 0.439961 0.530478
O O10 0.758411 0.759019 0.609510
O O11 0.667912 0.416135 0.745830
O O12 0.058900 0.506059 0.842333
O O13 0.367721 0.229266 0.190352
O O14 0.000000 0.108362 0.000000
#
# Coordination Sequence:
#
# PCOD9122203 Si02
#       7
#     4   4   4   2   4   4   4
#     4  11  23  36  60  98 130 179 213 253 325 401
#     4  11  23  42  62  92 132 170 216 280 318 387
#     4  10  19  39  64  93 139 171 207 259 324 395
#     4   8  18  34  66 102 136 172 206 258 322 410
#     4  11  23  43  64  95 132 168 226 267 330 397
#     4  11  26  47  67  94 128 173 234 283 334 383
#     4  10  20  41  69  96 134 174 214 268 330 400
#
# _framework density 20.555669000000002
#
# number of rings (size 3 to 8) (size 9 to 14) (size 15 to 20)
#    0.923    0.615    3.846    0.923    2.154    1.231 
#   12.462    0.769    0.000    0.000    0.000    0.000 
#    0.000    0.000    0.000    0.000    0.000    0.000 
#
# Total GULP energy -72548.215723 kJ/mol
# GULP energy per Si atom -5580.631979 kJ/mol
# Density = 2.050888 g / cm^3
# Si number density = 20.555669 Si / 1000 Ang^3
#
#
#
# Elastic Constant Matrix: (Units=GPa)
#
#
# Indices 1 2 3 4 5 6 
#
# 1 95.4174 35.7042 26.5641 0.0000 -6.0389 0.0000
# 2 35.7042 74.9442 46.1850 0.0000 -9.3800 0.0000
# 3 26.5641 46.1850 151.0547 0.0004 -13.7039 0.0000
# 4 0.0000 0.0000 0.0004 21.1652 0.0001 -1.7701
# 5 -6.0389 -9.3800 -13.7039 0.0001 22.6417 0.0000
# 6 0.0000 0.0000 0.0000 -1.7701 0.0000 42.6031
#
#
#
# Elastic Compliance Matrix: (Units=1/GPa)
#
#
# Indices 1 2 3 4 5 6 
#
# 1 0.012794 -0.005736 -0.000426 0.000000 0.000779 0.000000
# 2 -0.005736 0.019360 -0.004573 0.000000 0.003723 0.000000
# 3 -0.000426 -0.004573 0.008371 0.000000 0.003058 0.000000
# 4 0.000000 0.000000 0.000000 0.047412 0.000000 0.001970
# 5 0.000779 0.003723 0.003058 0.000000 0.047767 0.000000
# 6 0.000000 0.000000 0.000000 0.001970 0.000000 0.023554
#
#
# Mechanical properties :
#
#
# Convention : Reuss Voigt Hill
#
# Bulk Modulus (GPa) = 52.47571 59.81365 56.14468
# Shear Modulus (GPa) = 26.72671 31.47952 29.10312
#
# Velocity S-wave (km/s) = 3.60976 3.91759 3.76682
# Velocity P-wave (km/s) = 6.55422 7.04449 6.80377
#
# Compressibility (1/GPa) = 0.01905644
#
# Stress axis : x y z
#
# Youngs Moduli (GPa) = 78.16019 51.65353 119.46595
#
# Poissons Ratio (x) = 0.29626 0.05085
# Poissons Ratio (y) = 0.44829 0.54630
# Poissons Ratio (z) = 0.03327 0.23620
#
# Static dielectric constant tensor:
#      x y z
#    x 1.751440 0.000000 0.002730 
#    y 0.000000 1.777840 0.000000 
#    z 0.002730 0.000000 1.707450 
# 
# From -- ./inp_files/60197.got.cif
#   From: 2010.05.17/outbox.cif.g08.bks.cpg/sg5_31_cif.got.tgz:60197.got - 2010.06.03 18:56:24.
