data_PCOD9122272
_publ_section_title
;
Structure prediction by ZEFSAII (Michael W. Deem and Ramdas Pophale) SiO2 
 PCOD9122272
Probable space group: C 2
;
_chemical_formula_sum "Si O2"
_cell_formula_units_Z 24
_cell_length_a 9.149960
_cell_length_b 19.171775
_cell_length_c 12.787224
_cell_angle_alpha 90.000000
_cell_angle_beta 34.517751
_cell_angle_gamma 90.000000
_cell_volume 1271.105289
_symmetry_space_group_name_H-M "C 2"
_symmetry_group_IT_number 5
_symmetry_cell_setting 'monoclinic'
loop_
_space_group_symop_operation_xyz
x,y,z
-x,y,-z
1/2+x,1/2+y,z
1/2-x,1/2+y,-z
loop_
_atom_site_type_symbol
_atom_site_label
_atom_site_fract_x
_atom_site_fract_y
_atom_site_fract_z
Si Si1 0.691080 0.087170 0.297829
Si Si2 0.296475 0.861959 0.328548
Si Si3 0.214871 0.432620 0.214745
Si Si4 0.258298 0.152842 0.941626
Si Si5 0.500000 0.786055 0.000000
Si Si6 0.000000 0.693952 0.000000
Si Si7 0.053183 0.286557 0.354772
O O1 0.500000 0.112639 0.500000
O O2 0.610125 0.113683 0.231671
O O3 0.685690 0.003653 0.295118
O O4 0.982061 0.117504 0.132396
O O5 0.499996 0.920114 0.250367
O O6 0.383222 0.830815 0.164980
O O7 0.327311 0.804121 0.404416
O O8 0.000000 0.884737 0.500000
O O9 0.183036 0.362185 0.300194
O O10 0.500000 0.433571 0.000000
O O11 0.432305 0.150272 0.939311
O O12 0.200715 0.231912 0.936475
O O13 0.756957 0.741679 0.170778
O O14 0.000000 0.255271 0.500000
#
# Coordination Sequence:
#
# PCOD9122272 Si02
#       7
#     4   4   4   4   2   2   4
#     4  10  21  42  65  84 112 163 210 253 301 356
#     4  10  23  36  60  98 124 154 200 248 307 365
#     4  10  19  40  65  88 120 159 206 245 313 367
#     4  10  23  38  63  85 118 163 208 243 298 363
#     4  10  20  40  58  88 126 162 190 246 308 364
#     4  12  22  42  56  94 126 158 206 246 304 358
#     4  10  22  36  63  92 120 160 191 254 310 371
#
# _framework density 18.881205000000001
#
# number of rings (size 3 to 8) (size 9 to 14) (size 15 to 20)
#    1.000    1.000    4.167    0.500    2.333    4.000 
#    0.000    2.500    0.000    0.000    0.000    0.000 
#    0.000    0.000    0.000    0.000    0.000    0.000 
#
# Total GULP energy -66811.959817 kJ/mol
# GULP energy per Si atom -5567.663318 kJ/mol
# Density = 1.883823 g / cm^3
# Si number density = 18.881205 Si / 1000 Ang^3
#
#
#
# Elastic Constant Matrix: (Units=GPa)
#
#
# Indices 1 2 3 4 5 6 
#
# 1 101.1139 -2.2114 27.7911 -0.0054 -6.2301 0.0029
# 2 -2.2114 37.4418 9.7938 -0.0034 -6.0784 0.0021
# 3 27.7911 9.7938 115.4894 -0.0100 5.6936 0.0040
# 4 -0.0054 -0.0034 -0.0100 23.2591 0.0045 13.4039
# 5 -6.2301 -6.0784 5.6936 0.0045 27.2831 -0.0010
# 6 0.0029 0.0021 0.0040 13.4039 -0.0010 8.7841
#
#
#
# Elastic Compliance Matrix: (Units=1/GPa)
#
#
# Indices 1 2 3 4 5 6 
#
# 1 0.010976 0.002011 -0.002988 0.000018 0.003578 -0.000030
# 2 0.002011 0.028926 -0.003311 0.000039 0.007595 -0.000064
# 3 -0.002988 -0.003311 0.009830 0.000046 -0.003471 -0.000073
# 4 0.000018 0.000039 0.000046 0.356424 -0.000076 -0.543876
# 5 0.003578 0.007595 -0.003471 -0.000076 0.039886 0.000119
# 6 -0.000030 -0.000064 -0.000073 -0.543876 0.000119 0.943758
#
#
# Mechanical properties :
#
#
# Convention : Reuss Voigt Hill
#
# Bulk Modulus (GPa) = 24.29898 36.08801 30.19349
# Shear Modulus (GPa) = 3.54084 26.44337 14.99211
#
# Velocity S-wave (km/s) = 1.37091 3.74640 2.82090
# Velocity P-wave (km/s) = 3.92469 6.15376 5.16100
#
# Compressibility (1/GPa) = 0.04115400
#
# Stress axis : x y z
#
# Youngs Moduli (GPa) = 91.11198 34.57110 101.73167
#
# Poissons Ratio (x) = -0.06951 0.30398
# Poissons Ratio (y) = -0.18319 0.33686
# Poissons Ratio (z) = 0.27224 0.11447
#
# Static dielectric constant tensor:
#      x y z
#    x 1.678460 0.000000 0.003300 
#    y 0.000000 1.670910 0.000000 
#    z 0.003300 0.000000 1.653610 
# 
# From -- ./inp_files/37131.got.cif
#   From: 2010.05.17/outbox.cif.g08.bks.cpg/sg5_19_cif.got.tgz:37131.got - 2010.06.03 18:56:24.
