data_PCOD9122016
_publ_section_title
;
Structure prediction by ZEFSAII (Michael W. Deem and Ramdas Pophale) SiO2 
 PCOD9122016
Probable space group: C 2
;
_chemical_formula_sum "Si O2"
_cell_formula_units_Z 32
_cell_length_a 8.897887
_cell_length_b 23.623842
_cell_length_c 14.001511
_cell_angle_alpha 90.000000
_cell_angle_beta 153.303653
_cell_angle_gamma 90.000000
_cell_volume 1322.245341
_symmetry_space_group_name_H-M "C 2"
_symmetry_group_IT_number 5
_symmetry_cell_setting 'monoclinic'
loop_
_space_group_symop_operation_xyz
x,y,z
-x,y,-z
1/2+x,1/2+y,z
1/2-x,1/2+y,-z
loop_
_atom_site_type_symbol
_atom_site_label
_atom_site_fract_x
_atom_site_fract_y
_atom_site_fract_z
Si Si1 0.974746 0.227060 0.151033
Si Si2 0.323837 0.332568 0.637503
Si Si3 0.765141 0.916438 0.237660
Si Si4 0.961720 0.714133 0.680682
Si Si5 0.691522 0.604479 0.895054
Si Si6 0.869528 0.587512 0.671428
Si Si7 0.282774 0.849474 0.081783
Si Si8 0.276391 0.009434 0.456791
O O1 0.934542 0.168966 0.185644
O O2 0.932675 0.286222 0.182597
O O3 0.317078 0.223852 0.287162
O O4 0.696148 0.220888 0.908185
O O5 0.494457 0.363040 0.645808
O O6 0.230781 0.268755 0.556607
O O7 0.000000 0.359683 0.500000
O O8 0.597563 0.338950 0.875803
O O9 0.549822 0.899354 0.209255
O O10 0.500000 0.922581 0.000000
O O11 0.013393 0.969010 0.362170
O O12 0.824319 0.651069 0.604899
O O13 0.421855 0.558825 0.711309
O O14 0.000000 0.597554 0.000000
O O15 0.847239 0.592292 0.087376
O O16 0.500000 0.571471 0.500000
O O17 0.975596 0.542742 0.651884
O O18 0.000000 0.862855 0.000000
O O19 0.500000 0.982193 0.500000
#
# Coordination Sequence:
#
# PCOD9122016 Si02
#       8
#     4   4   4   4   4   4   4   4
#     4   9  17  33  62 100 134 179 216 279 355 423
#     4  10  19  37  66  94 129 178 219 275 346 414
#     4  10  22  43  72  92 131 183 231 283 346 417
#     4   9  17  33  60  97 138 175 220 276 349 422
#     4  11  22  41  70 100 142 188 230 288 361 424
#     4  11  23  41  67 104 139 185 237 293 351 420
#     4  10  20  39  68  99 133 170 227 284 349 419
#     4  12  26  45  71 104 139 190 243 296 349 419
#
# _framework density 24.201257999999999
#
# number of rings (size 3 to 8) (size 9 to 14) (size 15 to 20)
#    0.000    1.750    2.500    2.250    0.000    1.500 
#    2.250    4.375    0.000    0.000    0.000    0.000 
#    0.000    0.000    0.000    0.000    0.000    0.000 
#
# Total GULP energy -89426.389495 kJ/mol
# GULP energy per Si atom -5589.149343 kJ/mol
# Density = 2.414618 g / cm^3
# Si number density = 24.201258 Si / 1000 Ang^3
#
#
#
# Elastic Constant Matrix: (Units=GPa)
#
#
# Indices 1 2 3 4 5 6 
#
# 1 133.6408 54.3006 29.1998 0.0005 16.2476 0.0005
# 2 54.3006 127.7584 33.7422 0.0002 2.7966 0.0003
# 3 29.1998 33.7422 53.3393 -0.0003 -13.5100 -0.0027
# 4 0.0005 0.0002 -0.0003 25.7142 0.0005 19.6901
# 5 16.2476 2.7966 -13.5100 0.0005 45.9134 -0.0006
# 6 0.0005 0.0003 -0.0027 19.6901 -0.0006 42.7953
#
#
#
# Elastic Compliance Matrix: (Units=1/GPa)
#
#
# Indices 1 2 3 4 5 6 
#
# 1 0.010409 -0.002972 -0.005084 0.000000 -0.004998 -0.000001
# 2 -0.002972 0.010521 -0.005321 0.000000 -0.001155 -0.000001
# 3 -0.005084 -0.005321 0.027483 -0.000002 0.010210 0.000003
# 4 0.000000 0.000000 -0.000002 0.060043 -0.000002 -0.027626
# 5 -0.004998 -0.001155 0.010210 -0.000002 0.026624 0.000002
# 6 -0.000001 -0.000001 0.000003 -0.027626 0.000002 0.036078
#
#
# Mechanical properties :
#
#
# Convention : Reuss Voigt Hill
#
# Bulk Modulus (GPa) = 46.17060 61.02486 53.59773
# Shear Modulus (GPa) = 24.37464 36.05097 30.21280
#
# Velocity S-wave (km/s) = 3.17703 3.86376 3.53710
# Velocity P-wave (km/s) = 5.70764 6.72125 6.23508
#
# Compressibility (1/GPa) = 0.02165880
#
# Stress axis : x y z
#
# Youngs Moduli (GPa) = 96.07238 95.04775 36.38553
#
# Poissons Ratio (x) = 0.28246 0.18499
# Poissons Ratio (y) = 0.28551 0.19362
# Poissons Ratio (z) = 0.48845 0.50577
#
# Static dielectric constant tensor:
#      x y z
#    x 1.932660 0.000000 -0.055670 
#    y 0.000000 1.953240 0.000000 
#    z -0.055670 0.000000 1.974210 
# 
# From -- ./inp_files/51717.got.cif
#   From: 2010.05.17/outbox.cif.g08.bks.cpg/sg5_26_cif.got.tgz:51717.got - 2010.06.03 18:56:24.
