data_PCOD9122260
_publ_section_title
;
Structure prediction by ZEFSAII (Michael W. Deem and Ramdas Pophale) SiO2 
 PCOD9122260
Probable space group: C 2
;
_chemical_formula_sum "Si O2"
_cell_formula_units_Z 24
_cell_length_a 31.438593
_cell_length_b 8.515891
_cell_length_c 9.753509
_cell_angle_alpha 90.000000
_cell_angle_beta 26.737473
_cell_angle_gamma 90.000000
_cell_volume 1174.824943
_symmetry_space_group_name_H-M "C 2"
_symmetry_group_IT_number 5
_symmetry_cell_setting 'monoclinic'
loop_
_space_group_symop_operation_xyz
x,y,z
-x,y,-z
1/2+x,1/2+y,z
1/2-x,1/2+y,-z
loop_
_atom_site_type_symbol
_atom_site_label
_atom_site_fract_x
_atom_site_fract_y
_atom_site_fract_z
Si Si1 0.729630 0.346100 0.419274
Si Si2 0.202130 0.909718 0.973547
Si Si3 0.328480 0.188572 0.685112
Si Si4 0.305536 0.710227 0.455242
Si Si5 0.500000 0.421824 0.500000
Si Si6 0.000000 0.096613 0.000000
Si Si7 0.977618 0.812351 0.865834
O O1 0.724214 0.293048 0.278450
O O2 0.735168 0.533675 0.416580
O O3 0.806193 0.262024 0.294886
O O4 0.627427 0.291733 0.774967
O O5 0.243322 0.836404 0.716103
O O6 0.279603 0.022152 0.815694
O O7 0.183446 0.769115 0.133486
O O8 0.101774 0.998516 0.239700
O O9 0.440634 0.190151 0.330718
O O10 0.407982 0.696559 0.230317
O O11 0.476478 0.325936 0.705525
O O12 0.012609 0.976902 0.834866
#
# Coordination Sequence:
#
# PCOD9122260 Si02
#       7
#     4   4   4   4   2   2   4
#     4  11  21  39  66  91 125 165 214 257 314 375
#     4  11  24  41  64  91 125 169 215 260 316 373
#     4  11  22  39  64  91 122 168 211 260 308 379
#     4  11  22  42  61  96 124 165 214 257 316 372
#     4  10  22  38  62  86 120 176 208 248 320 386
#     4  10  22  40  64  90 132 168 202 264 322 376
#     4  10  19  40  63  87 122 175 206 248 323 380
#
# _framework density 20.428576
#
# number of rings (size 3 to 8) (size 9 to 14) (size 15 to 20)
#    0.000    1.333    5.000    2.000    4.667    0.000 
#    6.000    0.000    0.000    0.000    0.000    0.000 
#    0.000    0.000    0.000    0.000    0.000    0.000 
#
# Total GULP energy -66941.121741 kJ/mol
# GULP energy per Si atom -5578.426812 kJ/mol
# Density = 2.038208 g / cm^3
# Si number density = 20.428576 Si / 1000 Ang^3
#
#
#
# Elastic Constant Matrix: (Units=GPa)
#
#
# Indices 1 2 3 4 5 6 
#
# 1 98.2764 -10.9526 13.1377 0.0000 -3.4695 0.0000
# 2 -10.9526 29.9611 6.8025 0.0000 -16.0778 0.0000
# 3 13.1377 6.8025 64.8663 0.0000 -20.8206 0.0000
# 4 0.0000 0.0000 0.0000 20.8346 0.0000 -3.9774
# 5 -3.4695 -16.0778 -20.8206 0.0000 48.8049 0.0000
# 6 0.0000 0.0000 0.0000 -3.9774 0.0000 24.8255
#
#
#
# Elastic Compliance Matrix: (Units=1/GPa)
#
#
# Indices 1 2 3 4 5 6 
#
# 1 0.011150 0.005463 -0.002316 0.000000 0.001604 0.000000
# 2 0.005463 0.043220 -0.001094 0.000000 0.014160 0.000000
# 3 -0.002316 -0.001094 0.018343 0.000000 0.007300 0.000000
# 4 0.000000 0.000000 0.000000 0.049512 0.000000 0.007932
# 5 0.001604 0.014160 0.007300 0.000000 0.028383 0.000000
# 6 0.000000 0.000000 0.000000 0.007932 0.000000 0.041552
#
#
# Mechanical properties :
#
#
# Convention : Reuss Voigt Hill
#
# Bulk Modulus (GPa) = 13.01751 23.45321 18.23536
# Shear Modulus (GPa) = 23.40143 31.16741 27.28442
#
# Velocity S-wave (km/s) = 3.38823 3.91023 3.65855
# Velocity P-wave (km/s) = 4.65756 5.64730 5.17614
#
# Compressibility (1/GPa) = 0.07681960
#
# Stress axis : x y z
#
# Youngs Moduli (GPa) = 89.68217 23.13721 54.51527
#
# Poissons Ratio (x) = -0.12640 0.12628
# Poissons Ratio (y) = -0.48992 0.05964
# Poissons Ratio (z) = 0.20774 0.02531
#
# Static dielectric constant tensor:
#      x y z
#    x 1.752940 0.000000 -0.018410 
#    y 0.000000 1.711130 0.000000 
#    z -0.018410 0.000000 1.756630 
# 
# From -- ./inp_files/32463.got.cif
#   From: 2010.05.17/outbox.cif.g08.bks.cpg/sg5_17_cif.got.tgz:32463.got - 2010.06.03 18:56:24.
