data_PCOD9122292
_publ_section_title
;
Structure prediction by ZEFSAII (Michael W. Deem and Ramdas Pophale) SiO2 
 PCOD9122292
Probable space group: C 2
;
_chemical_formula_sum "Si O2"
_cell_formula_units_Z 32
_cell_length_a 13.345383
_cell_length_b 13.363697
_cell_length_c 18.896763
_cell_angle_alpha 90.000000
_cell_angle_beta 151.046104
_cell_angle_gamma 90.000000
_cell_volume 1631.493178
_symmetry_space_group_name_H-M "C 2"
_symmetry_group_IT_number 5
_symmetry_cell_setting 'monoclinic'
loop_
_space_group_symop_operation_xyz
x,y,z
-x,y,-z
1/2+x,1/2+y,z
1/2-x,1/2+y,-z
loop_
_atom_site_type_symbol
_atom_site_label
_atom_site_fract_x
_atom_site_fract_y
_atom_site_fract_z
Si Si1 0.882077 0.790080 0.589630
Si Si2 0.853401 0.937225 0.340691
Si Si3 0.753933 0.003044 0.858817
Si Si4 0.086240 0.614929 0.629212
Si Si5 0.541773 0.759754 0.176516
Si Si6 0.070515 0.292363 0.738757
Si Si7 0.633199 0.135834 0.151216
Si Si8 0.386596 0.194726 0.138566
O O1 0.641294 0.814627 0.433801
O O2 0.016515 0.880296 0.639801
O O3 0.931311 0.694381 0.569694
O O4 0.961819 0.755247 0.715463
O O5 0.663535 0.864125 0.244199
O O6 0.000000 0.946915 0.500000
O O7 0.767334 0.042675 0.261672
O O8 0.636807 0.025815 0.712943
O O9 0.674219 0.088647 0.862900
O O10 0.687525 0.891733 0.837473
O O11 0.000000 0.010419 0.000000
O O12 0.299626 0.676482 0.753200
O O13 0.000000 0.585562 0.500000
O O14 0.493319 0.737779 0.228211
O O15 0.327509 0.754811 0.002299
O O16 0.219551 0.225175 0.783716
O O17 0.489472 0.173481 0.126568
O O18 0.500000 0.105758 0.000000
#
# Coordination Sequence:
#
# PCOD9122292 Si02
#       8
#     4   4   4   4   4   4   4   4
#     4  10  23  41  70  98 127 175 222 276 331 388
#     4  11  24  43  71 104 133 175 227 276 331 396
#     4  11  24  42  67  97 128 171 219 272 336 394
#     4  10  19  40  68 100 124 160 224 273 322 387
#     4  11  20  43  71  94 131 172 216 275 333 391
#     4  12  24  45  64  91 140 178 215 267 335 399
#     4  12  28  45  64  98 138 183 224 270 334 402
#     4  11  25  44  69  98 130 172 224 280 337 393
#
# _framework density 19.613934
#
# number of rings (size 3 to 8) (size 9 to 14) (size 15 to 20)
#    0.000    1.000    5.000    1.875    3.500    1.000 
#    2.250    0.000    0.000    0.000    0.000    0.000 
#    0.000    0.000    0.000    0.000    0.000    0.000 
#
# Total GULP energy -89433.398129 kJ/mol
# GULP energy per Si atom -5589.587383 kJ/mol
# Density = 1.956929 g / cm^3
# Si number density = 19.613934 Si / 1000 Ang^3
#
#
#
# Elastic Constant Matrix: (Units=GPa)
#
#
# Indices 1 2 3 4 5 6 
#
# 1 77.9685 29.7564 32.0424 0.0011 -8.9942 0.0001
# 2 29.7564 63.7884 41.9302 0.0044 8.6222 0.0008
# 3 32.0424 41.9302 110.1811 0.0090 -6.7341 0.0017
# 4 0.0011 0.0044 0.0090 25.3276 0.0018 -0.6819
# 5 -8.9942 8.6222 -6.7341 0.0018 32.5919 0.0000
# 6 0.0001 0.0008 0.0017 -0.6819 0.0000 10.4118
#
#
#
# Elastic Compliance Matrix: (Units=1/GPa)
#
#
# Indices 1 2 3 4 5 6 
#
# 1 0.017241 -0.007850 -0.001629 0.000001 0.006498 0.000001
# 2 -0.007850 0.026330 -0.008402 0.000000 -0.010868 -0.000001
# 3 -0.001629 -0.008402 0.013020 -0.000003 0.004463 -0.000002
# 4 0.000001 0.000000 -0.000003 0.039552 -0.000003 0.002590
# 5 0.006498 -0.010868 0.004463 -0.000003 0.036273 0.000000
# 6 0.000001 -0.000001 -0.000002 0.002590 0.000000 0.096215
#
#
# Mechanical properties :
#
#
# Convention : Reuss Voigt Hill
#
# Bulk Modulus (GPa) = 48.00928 51.04403 49.52666
# Shear Modulus (GPa) = 18.42734 23.54684 20.98709
#
# Velocity S-wave (km/s) = 3.06846 3.46860 3.27465
# Velocity P-wave (km/s) = 6.08968 6.49018 6.29312
#
# Compressibility (1/GPa) = 0.02082930
#
# Stress axis : x y z
#
# Youngs Moduli (GPa) = 58.00214 37.97913 76.80556
#
# Poissons Ratio (x) = 0.29813 0.12515
# Poissons Ratio (y) = 0.45530 0.64529
# Poissons Ratio (z) = 0.09451 0.31908
#
# Static dielectric constant tensor:
#      x y z
#    x 1.676370 0.000000 -0.000620 
#    y 0.000000 1.651250 0.000000 
#    z -0.000620 0.000000 1.683330 
# 
# From -- ./inp_files/60727.got.cif
#   From: 2010.05.17/outbox.cif.g08.bks.cpg/sg5_31_cif.got.tgz:60727.got - 2010.06.03 18:56:24.
