data_PCOD9122583
_publ_section_title
;
Structure prediction by ZEFSAII (Michael W. Deem and Ramdas Pophale) SiO2 
 PCOD9122583
Probable space group: C 2
;
_chemical_formula_sum "Si O2"
_cell_formula_units_Z 26
_cell_length_a 14.409900
_cell_length_b 20.145302
_cell_length_c 9.157833
_cell_angle_alpha 90.000000
_cell_angle_beta 31.879142
_cell_angle_gamma 90.000000
_cell_volume 1404.001854
_symmetry_space_group_name_H-M "C 2"
_symmetry_group_IT_number 5
_symmetry_cell_setting 'monoclinic'
loop_
_space_group_symop_operation_xyz
x,y,z
-x,y,-z
1/2+x,1/2+y,z
1/2-x,1/2+y,-z
loop_
_atom_site_type_symbol
_atom_site_label
_atom_site_fract_x
_atom_site_fract_y
_atom_site_fract_z
Si Si1 0.500000 0.869051 0.500000
Si Si2 0.901768 0.286000 0.911043
Si Si3 0.267148 0.315974 0.570886
Si Si4 0.323659 0.159383 0.814085
Si Si5 0.792925 0.085150 0.291760
Si Si6 0.957936 0.688103 0.225221
Si Si7 0.293826 0.434569 0.317612
O O1 0.411323 0.823818 0.744614
O O2 0.654911 0.908794 0.379734
O O3 0.094995 0.285259 0.722349
O O4 0.776221 0.320143 0.199965
O O5 0.830490 0.211933 0.992104
O O6 0.420876 0.263520 0.328896
O O7 0.282607 0.386733 0.472624
O O8 0.500000 0.187387 0.500000
O O9 0.281127 0.095634 0.773807
O O10 0.380352 0.154441 0.904584
O O11 0.705457 0.142105 0.507435
O O12 0.751874 0.011628 0.402283
O O13 0.000000 0.093996 0.000000
O O14 0.000000 0.689431 0.000000
O O15 0.500000 0.431539 0.000000
#
# Coordination Sequence:
#
# PCOD9122583 Si02
#       7
#     2   4   4   4   4   4   4
#     4  10  24  36  60  90 120 164 204 266 302 374
#     4  10  20  36  56  89 118 158 203 253 312 362
#     4  10  20  38  59  85 125 159 200 257 314 371
#     4  10  20  34  60  88 114 160 200 251 314 362
#     4  10  21  43  62  84 122 170 207 248 315 379
#     4  11  23  36  60  93 124 155 208 265 306 367
#     4  10  23  40  63  88 124 165 206 254 311 375
#
# _framework density 18.518494
#
# number of rings (size 3 to 8) (size 9 to 14) (size 15 to 20)
#    0.000    1.846    3.077    1.385    9.692    0.000 
#    5.538    0.000    0.000    3.692    0.000    0.000 
#    0.000    0.000    0.000    0.000    0.000    0.000 
#
# Total GULP energy -72444.384231 kJ/mol
# GULP energy per Si atom -5572.644941 kJ/mol
# Density = 1.847635 g / cm^3
# Si number density = 18.518494 Si / 1000 Ang^3
#
#
#
# Elastic Constant Matrix: (Units=GPa)
#
#
# Indices 1 2 3 4 5 6 
#
# 1 77.2228 28.0291 34.4324 -0.0002 24.7865 -0.0023
# 2 28.0291 113.8718 32.3491 0.0008 10.6392 -0.0003
# 3 34.4324 32.3491 52.2436 0.0012 15.6664 0.0017
# 4 -0.0002 0.0008 0.0012 18.2275 0.0007 -0.3611
# 5 24.7865 10.6392 15.6664 0.0007 38.9813 0.0004
# 6 -0.0023 -0.0003 0.0017 -0.3611 0.0004 22.3197
#
#
#
# Elastic Compliance Matrix: (Units=1/GPa)
#
#
# Indices 1 2 3 4 5 6 
#
# 1 0.020831 -0.001402 -0.010238 0.000001 -0.008749 0.000003
# 2 -0.001402 0.010754 -0.005824 0.000000 0.000297 0.000000
# 3 -0.010238 -0.005824 0.030775 -0.000002 -0.004269 -0.000003
# 4 0.000001 0.000000 -0.000002 0.054880 -0.000001 0.000888
# 5 -0.008749 0.000297 -0.004269 -0.000001 0.032851 -0.000001
# 6 0.000003 0.000000 -0.000003 0.000888 -0.000001 0.044818
#
#
# Mechanical properties :
#
#
# Convention : Reuss Voigt Hill
#
# Bulk Modulus (GPa) = 36.45265 48.10659 42.27962
# Shear Modulus (GPa) = 20.92228 25.80751 23.36490
#
# Velocity S-wave (km/s) = 3.36490 3.73716 3.55590
# Velocity P-wave (km/s) = 5.90118 6.68250 6.30396
#
# Compressibility (1/GPa) = 0.02743285
#
# Stress axis : x y z
#
# Youngs Moduli (GPa) = 48.00458 92.99275 32.49399
#
# Poissons Ratio (x) = 0.13035 0.33267
# Poissons Ratio (y) = 0.06729 0.18924
# Poissons Ratio (z) = 0.49147 0.54157
#
# Static dielectric constant tensor:
#      x y z
#    x 1.697810 0.000000 -0.018970 
#    y 0.000000 1.633250 0.000000 
#    z -0.018970 0.000000 1.639030 
# 
# From -- ./inp_files/17062.got.cif
#   From: 2010.05.17/outbox.cif.g08.bks.cpg/sg5_9_cif.got.tgz:17062.got - 2010.06.03 18:56:24.
