data_PCOD9122522
_publ_section_title
;
Structure prediction by ZEFSAII (Michael W. Deem and Ramdas Pophale) SiO2 
 PCOD9122522
Probable space group: C 2
;
_chemical_formula_sum "Si O2"
_cell_formula_units_Z 22
_cell_length_a 18.539200
_cell_length_b 5.131124
_cell_length_c 16.282228
_cell_angle_alpha 90.000000
_cell_angle_beta 148.803846
_cell_angle_gamma 90.000000
_cell_volume 802.271927
_symmetry_space_group_name_H-M "C 2"
_symmetry_group_IT_number 5
_symmetry_cell_setting 'monoclinic'
loop_
_space_group_symop_operation_xyz
x,y,z
-x,y,-z
1/2+x,1/2+y,z
1/2-x,1/2+y,-z
loop_
_atom_site_type_symbol
_atom_site_label
_atom_site_fract_x
_atom_site_fract_y
_atom_site_fract_z
Si Si1 0.581361 0.622210 0.279433
Si Si2 0.739122 0.532997 0.137858
Si Si3 0.555814 0.110601 0.791460
Si Si4 0.218499 0.021289 0.726030
Si Si5 0.500000 0.779022 0.000000
Si Si6 0.666028 0.848392 0.526311
O O1 0.483487 0.385476 0.210450
O O2 0.679148 0.675696 0.456420
O O3 0.694307 0.516436 0.324542
O O4 0.493189 0.888950 0.192506
O O5 0.770967 0.236497 0.192136
O O6 0.791541 0.588689 0.097475
O O7 0.821262 0.743083 0.275477
O O8 0.580775 0.600264 0.011999
O O9 0.458515 0.039798 0.618234
O O10 0.137535 0.155581 0.573330
O O11 0.376417 0.965763 0.848818
#
# Coordination Sequence:
#
# PCOD9122522 Si02
#       6
#     4   4   4   4   2   4
#     4  10  20  35  53  84 119 161 191 231 296 365
#     4  10  21  38  54  88 115 153 204 243 301 350
#     4  10  20  34  55  82 122 157 188 242 296 359
#     4  10  22  35  59  86 114 160 194 251 292 356
#     4   8  22  38  60  82 116 154 210 234 304 346
#     4  10  21  35  57  86 126 155 196 234 302 366
#
# _framework density 27.422121000000001
#
# number of rings (size 3 to 8) (size 9 to 14) (size 15 to 20)
#    2.182    0.000    1.818    1.636    2.545    0.727 
#    0.000    0.000    0.000    0.000    9.455    0.000 
#    0.000    0.000    0.000    0.000    0.000    0.000 
#
# Total GULP energy -61536.228607 kJ/mol
# GULP energy per Si atom -5594.202601 kJ/mol
# Density = 2.735971 g / cm^3
# Si number density = 27.422121 Si / 1000 Ang^3
#
#
#
# Elastic Constant Matrix: (Units=GPa)
#
#
# Indices 1 2 3 4 5 6 
#
# 1 136.3644 52.7035 22.1496 0.0002 20.2188 0.0000
# 2 52.7035 161.1153 32.9492 0.0018 11.1161 0.0004
# 3 22.1496 32.9492 77.7346 0.0004 21.2192 0.0002
# 4 0.0002 0.0018 0.0004 37.5275 0.0001 -11.3688
# 5 20.2188 11.1161 21.2192 0.0001 36.8130 -0.0001
# 6 0.0000 0.0004 0.0002 -11.3688 -0.0001 57.5632
#
#
#
# Elastic Compliance Matrix: (Units=1/GPa)
#
#
# Indices 1 2 3 4 5 6 
#
# 1 0.008978 -0.002586 -0.000391 0.000000 -0.003925 0.000000
# 2 -0.002586 0.007548 -0.002644 0.000000 0.000665 0.000000
# 3 -0.000391 -0.002644 0.016400 0.000000 -0.008440 0.000000
# 4 0.000000 0.000000 0.000000 0.028343 0.000000 0.005598
# 5 -0.003925 0.000665 -0.008440 0.000000 0.033984 0.000000
# 6 0.000000 0.000000 0.000000 0.005598 0.000000 0.018478
#
#
# Mechanical properties :
#
#
# Convention : Reuss Voigt Hill
#
# Bulk Modulus (GPa) = 46.11579 65.64655 55.88117
# Shear Modulus (GPa) = 37.82135 44.20819 41.01477
#
# Velocity S-wave (km/s) = 3.71782 4.01950 3.87160
# Velocity P-wave (km/s) = 5.93996 6.74782 6.35674
#
# Compressibility (1/GPa) = 0.02168455
#
# Stress axis : x y z
#
# Youngs Moduli (GPa) = 111.38010 132.49381 60.97495
#
# Poissons Ratio (x) = 0.34266 0.02382
# Poissons Ratio (y) = 0.28806 0.16121
# Poissons Ratio (z) = 0.04351 0.35029
#
# Static dielectric constant tensor:
#      x y z
#    x 2.137160 0.000000 -0.097980 
#    y 0.000000 2.011960 0.000000 
#    z -0.097980 0.000000 2.373260 
# 
# From -- ./inp_files/61029.got.cif
#   From: 2010.05.17/outbox.cif.g08.bks.cpg/sg5_31_cif.got.tgz:61029.got - 2010.06.03 18:56:24.
