data_PCOD9122411
_publ_section_title
;
Structure prediction by ZEFSAII (Michael W. Deem and Ramdas Pophale) SiO2 
 PCOD9122411
Probable space group: C 2
;
_chemical_formula_sum "Si O2"
_cell_formula_units_Z 26
_cell_length_a 21.478164
_cell_length_b 4.936887
_cell_length_c 10.625818
_cell_angle_alpha 90.000000
_cell_angle_beta 121.099337
_cell_angle_gamma 90.000000
_cell_volume 964.772677
_symmetry_space_group_name_H-M "C 2"
_symmetry_group_IT_number 5
_symmetry_cell_setting 'monoclinic'
loop_
_space_group_symop_operation_xyz
x,y,z
-x,y,-z
1/2+x,1/2+y,z
1/2-x,1/2+y,-z
loop_
_atom_site_type_symbol
_atom_site_label
_atom_site_fract_x
_atom_site_fract_y
_atom_site_fract_z
Si Si1 0.156458 0.364950 0.957817
Si Si2 0.868384 0.522355 0.428241
Si Si3 0.993564 0.069046 0.193581
Si Si4 0.312032 0.374928 0.174919
Si Si5 0.734640 0.237484 0.394960
Si Si6 0.000000 0.155807 0.500000
Si Si7 0.919328 0.576479 0.764900
O O1 0.158453 0.668489 0.903566
O O2 0.080533 0.230134 0.916758
O O3 0.180070 0.173171 0.867035
O O4 0.227280 0.328186 0.118365
O O5 0.858670 0.796420 0.342443
O O6 0.793528 0.358301 0.361508
O O7 0.930812 0.351450 0.429643
O O8 0.893512 0.589324 0.593536
O O9 0.055482 0.267538 0.200867
O O10 0.998204 0.037845 0.352914
O O11 0.012435 0.778404 0.154708
O O12 0.733603 0.470506 0.502650
O O13 0.655916 0.174237 0.250794
#
# Coordination Sequence:
#
# PCOD9122411 Si02
#       7
#     4   4   4   4   4   2   4
#     4  10  21  36  53  76 114 149 180 223 267 337
#     4  10  21  35  56  83 113 144 180 232 269 336
#     4  11  21  34  54  79 115 144 175 226 278 330
#     4  10  21  36  53  79 110 149 186 216 272 332
#     4  10  20  37  54  78 114 149 188 221 273 330
#     4  10  20  30  52  82 116 132 174 220 284 328
#     4  10  22  34  54  81 108 147 180 224 275 327
#
# _framework density 26.949352000000001
#
# number of rings (size 3 to 8) (size 9 to 14) (size 15 to 20)
#    0.000    1.846    1.538    3.692    4.308    3.077 
#    0.000    0.000    0.000    0.923    0.000    6.462 
#    0.000    0.000    0.000    0.000    0.000    0.000 
#
# Total GULP energy -72756.041687 kJ/mol
# GULP energy per Si atom -5596.618591 kJ/mol
# Density = 2.688801 g / cm^3
# Si number density = 26.949352 Si / 1000 Ang^3
#
#
#
# Elastic Constant Matrix: (Units=GPa)
#
#
# Indices 1 2 3 4 5 6 
#
# 1 131.4002 33.6741 18.7605 0.0000 24.5659 0.0000
# 2 33.6741 101.3145 -15.4992 0.0000 -6.2062 0.0000
# 3 18.7605 -15.4992 55.6759 0.0000 8.1721 0.0000
# 4 0.0000 0.0000 0.0000 16.2998 0.0000 10.9766
# 5 24.5659 -6.2062 8.1721 0.0000 47.8704 0.0000
# 6 0.0000 0.0000 0.0000 10.9766 0.0000 37.8209
#
#
#
# Elastic Compliance Matrix: (Units=1/GPa)
#
#
# Indices 1 2 3 4 5 6 
#
# 1 0.010233 -0.004312 -0.003893 0.000000 -0.005146 0.000000
# 2 -0.004312 0.012162 0.004392 0.000000 0.003040 0.000000
# 3 -0.003893 0.004392 0.020636 0.000000 -0.000955 0.000000
# 4 0.000000 0.000000 0.000000 0.076254 0.000000 -0.022131
# 5 -0.005146 0.003040 -0.000955 0.000000 0.024088 0.000000
# 6 0.000000 0.000000 0.000000 -0.022131 0.000000 0.032863
#
#
# Mechanical properties :
#
#
# Convention : Reuss Voigt Hill
#
# Bulk Modulus (GPa) = 28.24464 40.25127 34.24795
# Shear Modulus (GPa) = 25.55413 37.16191 31.35802
#
# Velocity S-wave (km/s) = 3.08267 3.71746 3.41485
# Velocity P-wave (km/s) = 4.81393 5.77878 5.31828
#
# Compressibility (1/GPa) = 0.03540495
#
# Stress axis : x y z
#
# Youngs Moduli (GPa) = 97.72007 82.22584 48.45909
#
# Poissons Ratio (x) = 0.35456 0.18867
# Poissons Ratio (y) = 0.42138 -0.21285
# Poissons Ratio (z) = 0.38045 -0.36117
#
# Static dielectric constant tensor:
#      x y z
#    x 2.166370 0.000000 -0.009730 
#    y 0.000000 2.041050 0.000000 
#    z -0.009730 0.000000 2.168770 
# 
# From -- ./inp_files/45530.got.cif
#   From: 2010.05.17/outbox.cif.g08.bks.cpg/sg5_23_cif.got.tgz:45530.got - 2010.06.03 18:56:24.
