data_PCOD9122463
_publ_section_title
;
Structure prediction by ZEFSAII (Michael W. Deem and Ramdas Pophale) SiO2 
 PCOD9122463
Probable space group: C 2
;
_chemical_formula_sum "Si O2"
_cell_formula_units_Z 22
_cell_length_a 23.868149
_cell_length_b 9.287754
_cell_length_c 6.169273
_cell_angle_alpha 90.000000
_cell_angle_beta 121.456369
_cell_angle_gamma 90.000000
_cell_volume 1166.626159
_symmetry_space_group_name_H-M "C 2"
_symmetry_group_IT_number 5
_symmetry_cell_setting 'monoclinic'
loop_
_space_group_symop_operation_xyz
x,y,z
-x,y,-z
1/2+x,1/2+y,z
1/2-x,1/2+y,-z
loop_
_atom_site_type_symbol
_atom_site_label
_atom_site_fract_x
_atom_site_fract_y
_atom_site_fract_z
Si Si1 0.203500 0.526810 0.444892
Si Si2 0.384737 0.237515 0.489080
Si Si3 0.313715 0.822935 0.205104
Si Si4 0.904689 0.519251 0.147264
Si Si5 0.500000 0.113093 0.000000
Si Si6 0.300270 0.496529 0.280207
O O1 0.181364 0.657818 0.554529
O O2 0.191478 0.384050 0.561213
O O3 0.273601 0.522553 0.471013
O O4 0.153033 0.537280 0.144423
O O5 0.404172 0.154532 0.308856
O O6 0.365793 0.401838 0.415738
O O7 0.442167 0.207812 0.777874
O O8 0.307539 0.652411 0.188031
O O9 0.381568 0.882495 0.240343
O O10 0.253915 0.902355 0.959329
O O11 0.970087 0.518676 0.135612
#
# Coordination Sequence:
#
# PCOD9122463 Si02
#       6
#     4   4   4   4   2   4
#     4   9  18  33  53  82 113 145 179 218 275 335
#     4  10  20  35  59  84 110 148 190 230 272 327
#     4  10  20  33  54  85 118 147 179 225 280 337
#     4   9  19  36  57  80 105 143 188 230 274 324
#     4  10  20  38  62  78 104 150 200 234 268 324
#     4  11  20  33  54  85 120 148 179 224 281 336
#
# _framework density 18.857797000000001
#
# number of rings (size 3 to 8) (size 9 to 14) (size 15 to 20)
#    0.000    2.182    0.000    4.909    0.000    2.909 
#    0.000    0.000    0.000   26.182    0.000    0.000 
#    0.000    0.000    0.000    0.000    0.000    0.000 
#
# Total GULP energy -61331.922162 kJ/mol
# GULP energy per Si atom -5575.629287 kJ/mol
# Density = 1.881488 g / cm^3
# Si number density = 18.857797 Si / 1000 Ang^3
#
#
#
# Elastic Constant Matrix: (Units=GPa)
#
#
# Indices 1 2 3 4 5 6 
#
# 1 115.0137 57.8004 28.9823 0.0000 -20.5442 0.0000
# 2 57.8004 153.5205 33.8598 0.0000 -1.7013 0.0000
# 3 28.9823 33.8598 80.2008 0.0000 -3.9966 0.0000
# 4 0.0000 0.0000 0.0000 18.0518 0.0000 8.4063
# 5 -20.5442 -1.7013 -3.9966 0.0000 33.8260 0.0000
# 6 0.0000 0.0000 0.0000 8.4063 0.0000 10.3271
#
#
#
# Elastic Compliance Matrix: (Units=1/GPa)
#
#
# Indices 1 2 3 4 5 6 
#
# 1 0.012693 -0.004153 -0.002474 0.000000 0.007208 0.000000
# 2 -0.004153 0.008542 -0.002223 0.000000 -0.002355 0.000000
# 3 -0.002474 -0.002223 0.014305 0.000000 0.000076 0.000000
# 4 0.000000 0.000000 0.000000 0.089214 0.000000 -0.072621
# 5 0.007208 -0.002355 0.000076 0.000000 0.033831 0.000000
# 6 0.000000 0.000000 0.000000 -0.072621 0.000000 0.155946
#
#
# Mechanical properties :
#
#
# Convention : Reuss Voigt Hill
#
# Bulk Modulus (GPa) = 56.05654 65.55778 60.80716
# Shear Modulus (GPa) = 14.78515 27.64715 21.21615
#
# Velocity S-wave (km/s) = 2.80310 3.83310 3.35783
# Velocity P-wave (km/s) = 6.34562 7.37767 6.88102
#
# Compressibility (1/GPa) = 0.01783913
#
# Stress axis : x y z
#
# Youngs Moduli (GPa) = 78.78479 117.07391 69.90581
#
# Poissons Ratio (x) = 0.48624 0.17296
# Poissons Ratio (y) = 0.32721 0.15538
# Poissons Ratio (z) = 0.19493 0.26022
#
# Static dielectric constant tensor:
#      x y z
#    x 1.709130 0.000000 -0.011750 
#    y 0.000000 1.649930 0.000000 
#    z -0.011750 0.000000 1.674100 
# 
# From -- ./inp_files/9231.got.cif
#   From: 2010.05.17/outbox.cif.g08.bks.cpg/sg5_5_cif.got.tgz:9231.got - 2010.06.03 18:56:24.
