data_PCOD9122711
_publ_section_title
;
Structure prediction by ZEFSAII (Michael W. Deem and Ramdas Pophale) SiO2 
 PCOD9122711
Probable space group: C 2
;
_chemical_formula_sum "Si O2"
_cell_formula_units_Z 30
_cell_length_a 20.605201
_cell_length_b 5.668352
_cell_length_c 13.428897
_cell_angle_alpha 90.000000
_cell_angle_beta 49.986281
_cell_angle_gamma 90.000000
_cell_volume 1201.270186
_symmetry_space_group_name_H-M "C 2"
_symmetry_group_IT_number 5
_symmetry_cell_setting 'monoclinic'
loop_
_space_group_symop_operation_xyz
x,y,z
-x,y,-z
1/2+x,1/2+y,z
1/2-x,1/2+y,-z
loop_
_atom_site_type_symbol
_atom_site_label
_atom_site_fract_x
_atom_site_fract_y
_atom_site_fract_z
Si Si1 0.256500 0.485060 0.052141
Si Si2 0.292398 0.799377 0.424988
Si Si3 0.132353 0.694689 0.305371
Si Si4 0.221993 0.514979 0.770228
Si Si5 0.052514 0.034008 0.056540
Si Si6 0.548434 0.040116 0.056584
Si Si7 0.000000 0.985114 0.500000
Si Si8 0.862745 0.329299 0.544585
O O1 0.169041 0.490274 0.201398
O O2 0.343161 0.520784 0.032891
O O3 0.245154 0.727619 0.998629
O O4 0.258471 0.534049 0.482746
O O5 0.304555 0.848551 0.296710
O O6 0.372435 0.819128 0.417461
O O7 0.206218 0.885193 0.237869
O O8 0.045174 0.823391 0.372433
O O9 0.124633 0.585571 0.422924
O O10 0.144174 0.555483 0.919580
O O11 0.269255 0.736790 0.672165
O O12 0.025375 0.785393 0.131348
O O13 0.034141 0.289005 0.120470
O O14 0.000000 0.034294 0.000000
O O15 0.500000 0.035016 0.000000
O O16 0.071266 0.150572 0.474007
#
# Coordination Sequence:
#
# PCOD9122711 Si02
#       8
#     4   4   4   4   4   4   2   4
#     4  12  27  44  73 108 143 184 246 304 348 420
#     4  10  20  36  60 101 126 152 212 278 326 387
#     4  11  22  43  71  94 136 189 233 282 356 419
#     4  10  20  35  66  96 125 172 221 270 344 409
#     4  10  21  41  68  91 136 177 230 280 349 416
#     4  10  20  35  62  96 128 171 219 271 328 425
#     4  10  24  40  70  98 128 190 234 276 348 436
#     4  10  21  39  67  93 133 174 225 280 335 420
#
# _framework density 24.973566999999999
#
# number of rings (size 3 to 8) (size 9 to 14) (size 15 to 20)
#    0.000    1.600    2.667    2.000    3.733    0.000 
#    0.000    2.667   11.733    0.000    0.000    0.000 
#    0.000    0.000    0.000    0.000    0.000    0.000 
#
# Total GULP energy -83569.216833 kJ/mol
# GULP energy per Si atom -5571.281122 kJ/mol
# Density = 2.491673 g / cm^3
# Si number density = 24.973567 Si / 1000 Ang^3
#
#
#
# Elastic Constant Matrix: (Units=GPa)
#
#
# Indices 1 2 3 4 5 6 
#
# 1 101.1744 29.3984 39.0157 0.0004 -15.0976 0.0003
# 2 29.3984 185.5013 26.0526 0.0012 -1.6784 -0.0013
# 3 39.0157 26.0526 62.3334 -0.0009 -1.4601 0.0000
# 4 0.0004 0.0012 -0.0009 39.3774 0.0004 8.9554
# 5 -15.0976 -1.6784 -1.4601 0.0004 26.1898 0.0003
# 6 0.0003 -0.0013 0.0000 8.9554 0.0003 30.0410
#
#
#
# Elastic Compliance Matrix: (Units=1/GPa)
#
#
# Indices 1 2 3 4 5 6 
#
# 1 0.014670 -0.001051 -0.008558 0.000000 0.007912 0.000000
# 2 -0.001051 0.005804 -0.001775 0.000000 -0.000333 0.000000
# 3 -0.008558 -0.001775 0.022052 0.000001 -0.003818 0.000000
# 4 0.000000 0.000000 0.000001 0.027242 -0.000001 -0.008121
# 5 0.007912 -0.000333 -0.003818 -0.000001 0.042510 0.000000
# 6 0.000000 0.000000 0.000000 -0.008121 0.000000 0.035709
#
#
# Mechanical properties :
#
#
# Convention : Reuss Voigt Hill
#
# Bulk Modulus (GPa) = 50.61538 59.77141 55.19339
# Shear Modulus (GPa) = 28.19424 36.09113 32.14269
#
# Velocity S-wave (km/s) = 3.36365 3.80567 3.59147
# Velocity P-wave (km/s) = 5.94955 6.58002 6.27271
#
# Compressibility (1/GPa) = 0.01975684
#
# Stress axis : x y z
#
# Youngs Moduli (GPa) = 68.16528 172.30195 45.34792
#
# Poissons Ratio (x) = 0.18118 0.38807
# Poissons Ratio (y) = 0.07168 0.08051
# Poissons Ratio (z) = 0.58333 0.30590
#
# Static dielectric constant tensor:
#      x y z
#    x 2.054280 0.000000 -0.001780 
#    y 0.000000 2.042510 0.000000 
#    z -0.001780 0.000000 1.984930 
# 
# From -- ./inp_files/56525.got.cif
#   From: 2010.05.17/outbox.cif.g08.bks.cpg/sg5_29_cif.got.tgz:56525.got - 2010.06.03 18:56:24.
