data_PCOD9122678
_publ_section_title
;
Structure prediction by ZEFSAII (Michael W. Deem and Ramdas Pophale) SiO2 
 PCOD9122678
Probable space group: C 2
;
_chemical_formula_sum "Si O2"
_cell_formula_units_Z 28
_cell_length_a 20.963740
_cell_length_b 7.952025
_cell_length_c 29.813331
_cell_angle_alpha 90.000000
_cell_angle_beta 164.680312
_cell_angle_gamma 90.000000
_cell_volume 1313.098104
_symmetry_space_group_name_H-M "C 2"
_symmetry_group_IT_number 5
_symmetry_cell_setting 'monoclinic'
loop_
_space_group_symop_operation_xyz
x,y,z
-x,y,-z
1/2+x,1/2+y,z
1/2-x,1/2+y,-z
loop_
_atom_site_type_symbol
_atom_site_label
_atom_site_fract_x
_atom_site_fract_y
_atom_site_fract_z
Si Si1 0.972829 0.807440 0.846321
Si Si2 0.064101 0.373263 0.094596
Si Si3 0.043984 0.372293 0.465941
Si Si4 0.128150 0.423689 0.947372
Si Si5 0.532489 0.505748 0.466942
Si Si6 0.608285 0.470432 0.120403
Si Si7 0.247295 0.695894 0.638737
O O1 0.018541 0.611303 0.867898
O O2 0.687913 0.852482 0.656311
O O3 0.134192 0.906353 0.920715
O O4 0.041288 0.873920 0.942225
O O5 0.847396 0.402810 0.982794
O O6 0.290528 0.467666 0.273292
O O7 0.000000 0.423045 0.000000
O O8 0.107894 0.172420 0.125162
O O9 0.142869 0.185075 0.529723
O O10 0.230751 0.520382 0.601680
O O11 0.885163 0.415684 0.314647
O O12 0.953948 0.272076 0.811100
O O13 0.500000 0.509928 0.500000
O O14 0.706175 0.349007 0.576621
O O15 0.500000 0.423492 0.000000
O O16 0.000000 0.684438 0.500000
#
# Coordination Sequence:
#
# PCOD9122678 Si02
#       7
#     4   4   4   4   4   4   4
#     4  10  22  36  59  91 132 166 210 267 331 380
#     4  11  20  35  58  90 126 164 211 269 318 379
#     4  10  20  35  59  91 118 159 210 261 320 370
#     4  12  22  38  58  93 131 165 212 269 327 379
#     4  11  18  34  55  87 119 151 209 261 308 367
#     4   9  19  36  59  91 122 163 210 262 322 382
#     4  11  20  34  57  86 122 154 211 263 303 375
#
# _framework density 21.323616000000001
#
# number of rings (size 3 to 8) (size 9 to 14) (size 15 to 20)
#    0.857    0.571    5.714    1.286    2.000    2.286 
#    0.000    0.000    0.000    0.000    7.429    6.000 
#    0.000    0.000    0.000    0.000    0.000    0.000 
#
# Total GULP energy -77943.747166 kJ/mol
# GULP energy per Si atom -5567.410512 kJ/mol
# Density = 2.127508 g / cm^3
# Si number density = 21.323616 Si / 1000 Ang^3
#
#
#
# Elastic Constant Matrix: (Units=GPa)
#
#
# Indices 1 2 3 4 5 6 
#
# 1 111.9957 38.6905 62.6472 -0.0286 -30.8179 -0.0421
# 2 38.6905 179.8766 44.4441 -0.5056 -22.6146 0.2220
# 3 62.6472 44.4441 93.5735 -0.4025 -30.2412 0.0644
# 4 -0.0286 -0.5056 -0.4025 28.6941 0.2800 -3.4939
# 5 -30.8179 -22.6146 -30.2412 0.2800 32.3055 -0.1116
# 6 -0.0421 0.2220 0.0644 -3.4939 -0.1116 21.3634
#
#
#
# Elastic Compliance Matrix: (Units=1/GPa)
#
#
# Indices 1 2 3 4 5 6 
#
# 1 0.015402 -0.000501 -0.007798 -0.000163 0.007044 0.000069
# 2 -0.000501 0.006437 -0.002036 0.000059 0.002122 -0.000041
# 3 -0.007798 -0.002036 0.020087 0.000144 0.009938 0.000021
# 4 -0.000163 0.000059 0.000144 0.035564 -0.000268 0.005814
# 5 0.007044 0.002122 0.009938 -0.000268 0.048465 0.000171
# 6 0.000069 -0.000041 0.000021 0.005814 0.000171 0.047761
#
#
# Mechanical properties :
#
#
# Convention : Reuss Voigt Hill
#
# Bulk Modulus (GPa) = 47.04504 75.22327 61.13416
# Shear Modulus (GPa) = 24.81727 32.45020 28.63374
#
# Velocity S-wave (km/s) = 3.41521 3.90525 3.66842
# Velocity P-wave (km/s) = 6.13693 7.46245 6.83191
#
# Compressibility (1/GPa) = 0.02125623
#
# Stress axis : x y z
#
# Youngs Moduli (GPa) = 64.92505 155.34815 49.78358
#
# Poissons Ratio (x) = 0.07785 0.38821
# Poissons Ratio (y) = 0.03254 0.10136
# Poissons Ratio (z) = 0.50629 0.31628
#
# Static dielectric constant tensor:
#      x y z
#    x 1.800360 0.000190 -0.019080 
#    y 0.000190 1.884220 -0.000090 
#    z -0.019080 -0.000090 1.862620 
# 
# From -- ./inp_files/72228.got.cif
#   From: 2010.05.17/outbox.cif.g08.bks.cpg/sg5_37_cif.got.tgz:72228.got - 2010.06.03 18:56:24.
