data_PCOD9122979
_publ_section_title
;
Structure prediction by ZEFSAII (Michael W. Deem and Ramdas Pophale) SiO2 
 PCOD9122979
Probable space group: C 2
;
_chemical_formula_sum "Si O2"
_cell_formula_units_Z 28
_cell_length_a 8.388053
_cell_length_b 29.647798
_cell_length_c 5.585560
_cell_angle_alpha 90.000000
_cell_angle_beta 71.765371
_cell_angle_gamma 90.000000
_cell_volume 1319.303670
_symmetry_space_group_name_H-M "C 2"
_symmetry_group_IT_number 5
_symmetry_cell_setting 'monoclinic'
loop_
_space_group_symop_operation_xyz
x,y,z
-x,y,-z
1/2+x,1/2+y,z
1/2-x,1/2+y,-z
loop_
_atom_site_type_symbol
_atom_site_label
_atom_site_fract_x
_atom_site_fract_y
_atom_site_fract_z
Si Si1 0.609303 0.291750 0.200493
Si Si2 0.500000 0.133614 0.000000
Si Si3 0.165815 0.029406 0.781464
Si Si4 0.500000 0.458215 0.500000
Si Si5 0.906847 0.458215 0.794756
Si Si6 0.302988 0.615549 0.518890
Si Si7 0.677672 0.196788 0.287154
Si Si8 0.669845 0.388800 0.067365
O O1 0.500000 0.297162 0.500000
O O2 0.723209 0.247002 0.181882
O O3 0.710702 0.338624 0.132952
O O4 0.500000 0.285643 0.000000
O O5 0.355671 0.109704 0.225797
O O6 0.622746 0.165557 0.095205
O O7 0.234753 0.075490 0.647748
O O8 0.108261 0.991887 0.614203
O O9 0.293689 0.002432 0.884165
O O10 0.000000 0.041691 0.000000
O O11 0.622758 0.425112 0.294581
O O12 0.000000 0.464859 0.500000
O O13 0.799031 0.412642 0.830411
O O14 0.000000 0.452281 0.000000
O O15 0.500000 0.608930 0.500000
O O16 0.289211 0.665395 0.406839
O O17 0.500000 0.203928 0.500000
O O18 0.500000 0.383505 0.000000
#
# Coordination Sequence:
#
# PCOD9122979 Si02
#       8
#     4   2   4   2   4   4   4   4
#     4  10  20  36  70 108 134 178 242 295 352 418
#     4  10  22  46  68  94 140 178 232 300 356 422
#     4  12  26  45  67  98 134 187 243 295 344 434
#     4  12  18  42  70  94 138 174 244 294 342 414
#     4  12  27  45  68 100 147 188 230 290 364 422
#     4  11  26  44  72 101 137 189 237 300 362 429
#     4   9  20  41  66 100 136 175 234 296 354 423
#     4  11  22  40  71 101 136 185 240 289 348 425
#
# _framework density 21.223320000000001
#
# number of rings (size 3 to 8) (size 9 to 14) (size 15 to 20)
#    0.000    1.143    5.000    0.857    2.000    1.714 
#    5.143    0.000    3.143    0.000    0.000    0.000 
#    0.000    0.000    0.000    0.000    0.000    0.000 
#
# Total GULP energy -78035.785994 kJ/mol
# GULP energy per Si atom -5573.984714 kJ/mol
# Density = 2.117501 g / cm^3
# Si number density = 21.223320 Si / 1000 Ang^3
#
#
#
# Elastic Constant Matrix: (Units=GPa)
#
#
# Indices 1 2 3 4 5 6 
#
# 1 50.3395 10.2458 2.5780 0.0000 -4.6681 0.0000
# 2 10.2458 141.2615 33.8966 0.0000 -13.4206 0.0000
# 3 2.5780 33.8966 101.8444 0.0000 -15.2551 0.0000
# 4 0.0000 0.0000 0.0000 63.8129 0.0000 -6.4231
# 5 -4.6681 -13.4206 -15.2551 0.0000 27.6361 0.0000
# 6 0.0000 0.0000 0.0000 -6.4231 0.0000 -20.3974
#
#
#
# Elastic Compliance Matrix: (Units=1/GPa)
#
#
# Indices 1 2 3 4 5 6 
#
# 1 0.020387 -0.001278 0.000362 0.000000 0.003023 0.000000
# 2 -0.001278 0.007940 -0.002251 0.000000 0.002397 0.000000
# 3 0.000362 -0.002251 0.011342 0.000000 0.005229 0.000000
# 4 0.000000 0.000000 0.000000 0.015189 0.000000 -0.004783
# 5 0.003023 0.002397 0.005229 0.000000 0.040745 0.000000
# 6 0.000000 0.000000 0.000000 -0.004783 0.000000 -0.047520
#
#
# Mechanical properties :
#
#
# Convention : Reuss Voigt Hill
#
# Bulk Modulus (GPa) = 29.99919 42.98738 36.49328
# Shear Modulus (GPa) = 76.30045 30.65864 53.47954
#
# Velocity S-wave (km/s) = 6.00244 3.80488 5.02525
# Velocity P-wave (km/s) = 7.88700 6.29298 7.13464
#
# Compressibility (1/GPa) = 0.03333424
#
# Stress axis : x y z
#
# Youngs Moduli (GPa) = 49.05070 125.94919 88.16639
#
# Poissons Ratio (x) = 0.16102 -0.03193
# Poissons Ratio (y) = 0.06271 0.19847
# Poissons Ratio (z) = -0.01777 0.28353
#
# Static dielectric constant tensor:
#      x y z
#    x 1.813260 0.000000 0.036900 
#    y 0.000000 1.778410 0.000000 
#    z 0.036900 0.000000 1.869680 
# 
# From -- ./inp_files/3900.got.cif
#   From: 2010.05.17/outbox.cif.g08.bks.cpg/sg5_2_cif.got.tgz:3900.got - 2010.06.03 18:56:24.
