data_PCOD9122751
_publ_section_title
;
Structure prediction by ZEFSAII (Michael W. Deem and Ramdas Pophale) SiO2 
 PCOD9122751
Probable space group: C 2
;
_chemical_formula_sum "Si O2"
_cell_formula_units_Z 26
_cell_length_a 18.410080
_cell_length_b 7.916497
_cell_length_c 11.845958
_cell_angle_alpha 90.000000
_cell_angle_beta 137.819663
_cell_angle_gamma 90.000000
_cell_volume 1159.266131
_symmetry_space_group_name_H-M "C 2"
_symmetry_group_IT_number 5
_symmetry_cell_setting 'monoclinic'
loop_
_space_group_symop_operation_xyz
x,y,z
-x,y,-z
1/2+x,1/2+y,z
1/2-x,1/2+y,-z
loop_
_atom_site_type_symbol
_atom_site_label
_atom_site_fract_x
_atom_site_fract_y
_atom_site_fract_z
Si Si1 0.339441 0.440730 0.498999
Si Si2 0.695885 0.034743 0.543173
Si Si3 0.444974 0.432167 0.160400
Si Si4 0.813878 0.369237 0.850826
Si Si5 0.462104 0.033607 0.208517
Si Si6 0.280937 0.038273 0.174395
Si Si7 0.000000 0.139841 0.000000
O O1 0.327069 0.236536 0.476299
O O2 0.287036 0.495442 0.556831
O O3 0.465768 0.489730 0.644235
O O4 0.260709 0.495668 0.306513
O O5 0.582258 0.964852 0.365318
O O6 0.721537 0.971645 0.699368
O O7 0.461126 0.231816 0.176807
O O8 0.317803 0.473592 0.017072
O O9 0.479611 0.524126 0.084728
O O10 0.738912 0.238353 0.832603
O O11 0.893750 0.256185 0.864611
O O12 0.896809 0.448619 0.033179
O O13 0.393801 0.008317 0.243952
#
# Coordination Sequence:
#
# PCOD9122751 Si02
#       7
#     4   4   4   4   4   4   2
#     4  10  20  36  55  86 111 143 187 231 287 326
#     4  10  22  37  60  81 112 147 186 236 278 333
#     4  10  21  36  59  82 113 149 187 233 277 334
#     4  10  21  36  59  83 117 148 184 236 278 334
#     4  11  22  37  58  87 112 148 194 230 269 333
#     4  10  21  40  57  80 116 157 185 221 283 339
#     4  10  20  38  56  82 116 152 182 228 300 328
#
# _framework density 22.427980999999999
#
# number of rings (size 3 to 8) (size 9 to 14) (size 15 to 20)
#    0.000    1.846    0.000    5.077    0.000    5.538 
#    0.000    2.308    0.000    0.000    0.000    2.154 
#    0.000    0.000    0.000    0.000    0.000    0.000 
#
# Total GULP energy -72580.652233 kJ/mol
# GULP energy per Si atom -5583.127095 kJ/mol
# Density = 2.237693 g / cm^3
# Si number density = 22.427981 Si / 1000 Ang^3
#
#
#
# Elastic Constant Matrix: (Units=GPa)
#
#
# Indices 1 2 3 4 5 6 
#
# 1 28.0978 1.9480 12.4125 0.0000 1.2972 0.0000
# 2 1.9480 18.2142 11.0767 0.0000 -6.5604 0.0000
# 3 12.4125 11.0767 166.0569 0.0000 9.6123 0.0000
# 4 0.0000 0.0000 0.0000 25.2821 0.0000 -0.4592
# 5 1.2972 -6.5604 9.6123 0.0000 27.0836 0.0000
# 6 0.0000 0.0000 0.0000 -0.4592 0.0000 21.2544
#
#
#
# Elastic Compliance Matrix: (Units=1/GPa)
#
#
# Indices 1 2 3 4 5 6 
#
# 1 0.036965 -0.003042 -0.002466 0.000000 -0.001632 0.000000
# 2 -0.003042 0.064682 -0.005108 0.000000 0.017626 0.000000
# 3 -0.002466 -0.005108 0.006751 0.000000 -0.003515 0.000000
# 4 0.000000 0.000000 0.000000 0.039569 0.000000 0.000855
# 5 -0.001632 0.017626 -0.003515 0.000000 0.042518 0.000000
# 6 0.000000 0.000000 0.000000 0.000855 0.000000 0.047068
#
#
# Mechanical properties :
#
#
# Convention : Reuss Voigt Hill
#
# Bulk Modulus (GPa) = 11.47209 29.24927 20.36068
# Shear Modulus (GPa) = 17.37084 27.18613 22.27849
#
# Velocity S-wave (km/s) = 2.78603 3.48537 3.15514
# Velocity P-wave (km/s) = 3.93389 5.40988 4.72982
#
# Compressibility (1/GPa) = 0.08716805
#
# Stress axis : x y z
#
# Youngs Moduli (GPa) = 27.05229 15.46025 148.13714
#
# Poissons Ratio (x) = 0.04703 0.36527
# Poissons Ratio (y) = 0.08228 0.75661
# Poissons Ratio (z) = 0.06670 0.07896
#
# Static dielectric constant tensor:
#      x y z
#    x 1.829340 0.000000 0.028280 
#    y 0.000000 1.850710 0.000000 
#    z 0.028280 0.000000 1.932610 
# 
# From -- ./inp_files/41628.got.cif
#   From: 2010.05.17/outbox.cif.g08.bks.cpg/sg5_21_cif.got.tgz:41628.got - 2010.06.03 18:56:24.
