data_PCOD9122428
_publ_section_title
;
Structure prediction by ZEFSAII (Michael W. Deem and Ramdas Pophale) SiO2 
 PCOD9122428
Probable space group: C 2
;
_chemical_formula_sum "Si O2"
_cell_formula_units_Z 28
_cell_length_a 23.428592
_cell_length_b 5.196243
_cell_length_c 10.405838
_cell_angle_alpha 90.000000
_cell_angle_beta 91.037075
_cell_angle_gamma 90.000000
_cell_volume 1266.606043
_symmetry_space_group_name_H-M "C 2"
_symmetry_group_IT_number 5
_symmetry_cell_setting 'monoclinic'
loop_
_space_group_symop_operation_xyz
x,y,z
-x,y,-z
1/2+x,1/2+y,z
1/2-x,1/2+y,-z
loop_
_atom_site_type_symbol
_atom_site_label
_atom_site_fract_x
_atom_site_fract_y
_atom_site_fract_z
Si Si1 0.979716 0.934220 0.245979
Si Si2 0.063339 0.547580 0.559771
Si Si3 0.359365 0.779765 0.816593
Si Si4 0.621837 0.487396 0.912112
Si Si5 0.447157 0.111901 0.933171
Si Si6 0.746269 0.495745 0.912145
Si Si7 0.087279 0.049067 0.419403
O O1 0.948934 0.680116 0.303603
O O2 0.021139 0.850059 0.132732
O O3 0.927898 0.092484 0.181795
O O4 0.023086 0.048292 0.352954
O O5 0.090292 0.272815 0.526930
O O6 0.000000 0.534353 0.500000
O O7 0.095566 0.771908 0.482604
O O8 0.401963 0.215118 0.034940
O O9 0.368894 0.602828 0.694270
O O10 0.412875 0.973418 0.819829
O O11 0.298999 0.922434 0.823606
O O12 0.632128 0.641785 0.045015
O O13 0.683373 0.477464 0.848917
O O14 0.500000 0.962642 0.000000
O O15 0.754584 0.776873 0.975438
#
# Coordination Sequence:
#
# PCOD9122428 Si02
#       7
#     4   4   4   4   4   4   4
#     4  10  21  38  58  85 123 154 194 244 296 353
#     4  10  21  38  53  81 112 154 193 229 279 347
#     4  11  21  34  58  83 118 153 195 237 291 352
#     4  10  21  38  53  87 117 153 190 241 299 349
#     4  10  20  32  51  84 119 150 183 231 296 351
#     4  10  21  38  57  80 116 156 195 232 284 356
#     4  11  22  35  58  82 112 151 192 234 285 339
#
# _framework density 22.106321999999999
#
# number of rings (size 3 to 8) (size 9 to 14) (size 15 to 20)
#    0.000    1.714    2.857    3.000    2.000    0.000 
#    2.571    0.000    0.000    1.714    0.000    0.000 
#    0.000    0.000    0.000    0.000    0.000    0.000 
#
# Total GULP energy -78153.272995 kJ/mol
# GULP energy per Si atom -5582.376642 kJ/mol
# Density = 2.205601 g / cm^3
# Si number density = 22.106322 Si / 1000 Ang^3
#
#
#
# Elastic Constant Matrix: (Units=GPa)
#
#
# Indices 1 2 3 4 5 6 
#
# 1 108.5293 5.3292 4.7045 0.0000 -11.0100 0.0000
# 2 5.3292 79.5309 12.1655 0.0000 -1.5990 0.0000
# 3 4.7045 12.1655 72.7362 0.0000 -9.2863 0.0000
# 4 0.0000 0.0000 0.0000 30.4775 0.0000 -7.4079
# 5 -11.0100 -1.5990 -9.2863 0.0000 15.7117 0.0000
# 6 0.0000 0.0000 0.0000 -7.4079 0.0000 16.9383
#
#
#
# Elastic Compliance Matrix: (Units=1/GPa)
#
#
# Indices 1 2 3 4 5 6 
#
# 1 0.009950 -0.000579 0.000363 0.000000 0.007128 0.000000
# 2 -0.000579 0.012938 -0.002174 0.000000 -0.000374 0.000000
# 3 0.000363 -0.002174 0.015243 0.000000 0.009043 0.000000
# 4 0.000000 0.000000 0.000000 0.036714 0.000000 0.016057
# 5 0.007128 -0.000374 0.009043 0.000000 0.073948 0.000000
# 6 0.000000 0.000000 0.000000 0.016057 0.000000 0.066060
#
#
# Mechanical properties :
#
#
# Convention : Reuss Voigt Hill
#
# Bulk Modulus (GPa) = 29.98430 33.91055 31.94743
# Shear Modulus (GPa) = 21.66852 28.53197 25.10024
#
# Velocity S-wave (km/s) = 3.13420 3.59649 3.37327
# Velocity P-wave (km/s) = 5.16631 5.71133 5.44565
#
# Compressibility (1/GPa) = 0.03335078
#
# Stress axis : x y z
#
# Youngs Moduli (GPa) = 100.50333 77.29423 65.60420
#
# Poissons Ratio (x) = 0.04475 -0.02384
# Poissons Ratio (y) = 0.05819 0.14264
# Poissons Ratio (z) = -0.03652 0.16805
#
# Static dielectric constant tensor:
#      x y z
#    x 1.834020 0.000000 0.008000 
#    y 0.000000 1.930500 0.000000 
#    z 0.008000 0.000000 1.882490 
# 
# From -- ./inp_files/46791.got.cif
#   From: 2010.05.17/outbox.cif.g08.bks.cpg/sg5_24_cif.got.tgz:46791.got - 2010.06.03 18:56:24.
