data_PCOD9122180
_publ_section_title
;
Structure prediction by ZEFSAII (Michael W. Deem and Ramdas Pophale) SiO2 
 PCOD9122180
Probable space group: C 2
;
_chemical_formula_sum "Si O2"
_cell_formula_units_Z 32
_cell_length_a 16.884054
_cell_length_b 11.305045
_cell_length_c 23.696902
_cell_angle_alpha 90.000000
_cell_angle_beta 21.230618
_cell_angle_gamma 90.000000
_cell_volume 1637.933992
_symmetry_space_group_name_H-M "C 2"
_symmetry_group_IT_number 5
_symmetry_cell_setting 'monoclinic'
loop_
_space_group_symop_operation_xyz
x,y,z
-x,y,-z
1/2+x,1/2+y,z
1/2-x,1/2+y,-z
loop_
_atom_site_type_symbol
_atom_site_label
_atom_site_fract_x
_atom_site_fract_y
_atom_site_fract_z
Si Si1 0.349028 0.924700 0.863284
Si Si2 0.988601 0.124762 0.075122
Si Si3 0.163493 0.096309 0.310611
Si Si4 0.171366 0.626223 0.677128
Si Si5 0.251213 0.806463 0.816502
Si Si6 0.396252 0.352924 0.870978
Si Si7 0.496237 0.898456 0.935267
Si Si8 0.208189 0.458749 0.322670
O O1 0.384703 0.858259 0.780453
O O2 0.552602 0.000161 0.749941
O O3 0.253142 0.834688 0.973507
O O4 0.169324 0.028944 0.973697
O O5 0.009782 0.260522 0.077688
O O6 0.768104 0.078627 0.250303
O O7 0.000000 0.120927 0.000000
O O8 0.267414 0.151705 0.298520
O O9 0.225701 0.168999 0.213467
O O10 0.902559 0.110320 0.491560
O O11 0.288485 0.970458 0.226201
O O12 0.006557 0.734528 0.770856
O O13 0.308448 0.869252 0.719364
O O14 0.000000 0.831071 0.000000
O O15 0.599561 0.423861 0.761841
O O16 0.239798 0.432691 0.934737
O O17 0.500000 0.905486 0.000000
O O18 0.000000 0.462551 0.500000
#
# Coordination Sequence:
#
# PCOD9122180 Si02
#       8
#     4   4   4   4   4   4   4   4
#     4  11  20  38  68  96 124 171 239 279 328 417
#     4  10  19  39  62  88 121 171 216 269 330 399
#     4  11  24  42  63  96 140 176 221 288 355 403
#     4  11  22  41  66  95 136 180 220 284 360 410
#     4  12  20  38  69  96 129 169 226 280 338 406
#     4  11  21  38  67  96 124 179 233 275 336 417
#     4  11  24  42  65  89 131 180 233 275 338 416
#     4  11  21  37  62 100 132 164 219 290 344 402
#
# _framework density 19.536808000000001
#
# number of rings (size 3 to 8) (size 9 to 14) (size 15 to 20)
#    0.000    1.000    7.500    1.125    0.000    0.000 
#    6.750    0.000    0.000    0.000    0.000    0.000 
#    0.000    0.000    0.000    0.000    0.000    0.000 
#
# Total GULP energy -89105.078659 kJ/mol
# GULP energy per Si atom -5569.067416 kJ/mol
# Density = 1.949234 g / cm^3
# Si number density = 19.536808 Si / 1000 Ang^3
#
#
#
# Elastic Constant Matrix: (Units=GPa)
#
#
# Indices 1 2 3 4 5 6 
#
# 1 99.1997 25.8647 49.1965 0.0202 3.6230 0.0015
# 2 25.8647 75.7777 39.3987 0.0126 1.0937 0.0047
# 3 49.1965 39.3987 122.4239 0.0042 6.2228 0.0089
# 4 0.0202 0.0126 0.0042 14.5882 -0.0074 -6.3337
# 5 3.6230 1.0937 6.2228 -0.0074 26.4654 0.0025
# 6 0.0015 0.0047 0.0089 -6.3337 0.0025 28.4487
#
#
#
# Elastic Compliance Matrix: (Units=1/GPa)
#
#
# Indices 1 2 3 4 5 6 
#
# 1 0.012858 -0.002053 -0.004475 -0.000016 -0.000623 -0.000002
# 2 -0.002053 0.016184 -0.004416 -0.000011 0.000651 -0.000004
# 3 -0.004475 -0.004416 0.011485 0.000005 -0.001905 -0.000001
# 4 -0.000016 -0.000011 0.000005 0.075883 0.000021 0.016894
# 5 -0.000623 0.000651 -0.001905 0.000021 0.038292 0.000002
# 6 -0.000002 -0.000004 -0.000001 0.016894 0.000002 0.038912
#
#
# Mechanical properties :
#
#
# Convention : Reuss Voigt Hill
#
# Bulk Modulus (GPa) = 53.65312 58.48013 56.06663
# Shear Modulus (GPa) = 22.55152 26.09657 24.32405
#
# Velocity S-wave (km/s) = 3.40120 3.65878 3.53234
# Velocity P-wave (km/s) = 6.55335 6.91716 6.73771
#
# Compressibility (1/GPa) = 0.01863824
#
# Stress axis : x y z
#
# Youngs Moduli (GPa) = 77.77343 61.78897 87.07330
#
# Poissons Ratio (x) = 0.12687 0.38961
# Poissons Ratio (y) = 0.15969 0.38455
# Poissons Ratio (z) = 0.34800 0.27288
#
# Static dielectric constant tensor:
#      x y z
#    x 1.718010 -0.000010 -0.026310 
#    y -0.000010 1.753930 0.000030 
#    z -0.026310 0.000030 1.706990 
# 
# From -- ./inp_files/69245.got.cif
#   From: 2010.05.17/outbox.cif.g08.bks.cpg/sg5_35_cif.got.tgz:69245.got - 2010.06.03 18:56:24.
