data_PCOD9122729
_publ_section_title
;
Structure prediction by ZEFSAII (Michael W. Deem and Ramdas Pophale) SiO2 
 PCOD9122729
Probable space group: C 2
;
_chemical_formula_sum "Si O2"
_cell_formula_units_Z 30
_cell_length_a 12.597845
_cell_length_b 16.741718
_cell_length_c 11.504918
_cell_angle_alpha 90.000000
_cell_angle_beta 144.094011
_cell_angle_gamma 90.000000
_cell_volume 1423.036383
_symmetry_space_group_name_H-M "C 2"
_symmetry_group_IT_number 5
_symmetry_cell_setting 'monoclinic'
loop_
_space_group_symop_operation_xyz
x,y,z
-x,y,-z
1/2+x,1/2+y,z
1/2-x,1/2+y,-z
loop_
_atom_site_type_symbol
_atom_site_label
_atom_site_fract_x
_atom_site_fract_y
_atom_site_fract_z
Si Si1 0.500000 0.486660 0.000000
Si Si2 0.572261 0.673798 0.682852
Si Si3 0.292359 0.250140 0.326716
Si Si4 0.343181 0.509373 0.508457
Si Si5 0.325472 0.070225 0.423676
Si Si6 0.803105 0.538901 0.863025
Si Si7 0.588551 0.781787 0.920889
Si Si8 0.344013 0.429520 0.090759
O O1 0.643648 0.539504 0.198591
O O2 0.390848 0.435112 0.997540
O O3 0.500000 0.711344 0.500000
O O4 0.452475 0.594407 0.604456
O O5 0.763771 0.632773 0.825552
O O6 0.576960 0.731201 0.794241
O O7 0.500000 0.282103 0.500000
O O8 0.313868 0.166699 0.415447
O O9 0.121435 0.299046 0.229386
O O10 0.201495 0.233508 0.119730
O O11 0.181248 0.529082 0.455053
O O12 0.303717 0.497078 0.338141
O O13 0.465291 0.439183 0.671274
O O14 0.500000 0.049696 0.500000
O O15 0.758653 0.507018 0.950663
O O16 0.000000 0.519656 0.000000
O O17 0.714563 0.857991 0.011356
#
# Coordination Sequence:
#
# PCOD9122729 Si02
#       8
#     2   4   4   4   4   4   4   4
#     4  10  22  42  60  88 128 166 212 276 314 386
#     4   9  19  40  63  89 127 168 215 276 332 384
#     4  10  23  38  63  99 128 166 216 278 334 396
#     4   9  19  40  63  95 130 164 214 280 327 387
#     4  10  20  35  65  95 124 161 211 269 334 387
#     4  10  22  36  66  99 124 166 222 281 335 389
#     4  11  22  42  64  89 132 180 215 265 336 401
#     4  10  23  40  62  88 127 173 218 263 328 391
#
# _framework density 21.081682000000001
#
# number of rings (size 3 to 8) (size 9 to 14) (size 15 to 20)
#    0.000    2.133    1.333    2.000    7.467    2.133 
#    1.200    0.667    0.000    0.000    0.000    0.000 
#    0.000    0.000    0.000    0.000    0.000    0.000 
#
# Total GULP energy -83570.375220 kJ/mol
# GULP energy per Si atom -5571.358348 kJ/mol
# Density = 2.103370 g / cm^3
# Si number density = 21.081682 Si / 1000 Ang^3
#
#
#
# Elastic Constant Matrix: (Units=GPa)
#
#
# Indices 1 2 3 4 5 6 
#
# 1 141.2443 22.6520 48.2165 0.0000 4.6474 0.0000
# 2 22.6520 42.1866 22.8326 0.0000 2.0947 0.0000
# 3 48.2165 22.8326 90.7843 0.0000 7.8309 0.0000
# 4 0.0000 0.0000 0.0000 15.0696 0.0000 8.1852
# 5 4.6474 2.0947 7.8309 0.0000 44.8633 0.0000
# 6 0.0000 0.0000 0.0000 8.1852 0.0000 22.0339
#
#
#
# Elastic Compliance Matrix: (Units=1/GPa)
#
#
# Indices 1 2 3 4 5 6 
#
# 1 0.008882 -0.002565 -0.004064 0.000000 -0.000091 0.000000
# 2 -0.002565 0.028180 -0.005721 0.000000 -0.000052 0.000000
# 3 -0.004064 -0.005721 0.014776 0.000000 -0.001891 0.000000
# 4 0.000000 0.000000 0.000000 0.083133 0.000000 -0.030882
# 5 -0.000091 -0.000052 -0.001891 0.000000 0.022632 0.000000
# 6 0.000000 0.000000 0.000000 -0.030882 0.000000 0.056857
#
#
# Mechanical properties :
#
#
# Convention : Reuss Voigt Hill
#
# Bulk Modulus (GPa) = 36.84902 51.29084 44.06993
# Shear Modulus (GPa) = 20.14468 28.42763 24.28616
#
# Velocity S-wave (km/s) = 3.09456 3.67611 3.39780
# Velocity P-wave (km/s) = 5.50323 6.51159 6.02853
#
# Compressibility (1/GPa) = 0.02713776
#
# Stress axis : x y z
#
# Youngs Moduli (GPa) = 112.59154 35.48595 67.67921
#
# Poissons Ratio (x) = 0.09101 0.27507
# Poissons Ratio (y) = 0.28877 0.38718
# Poissons Ratio (z) = 0.45760 0.20301
#
# Static dielectric constant tensor:
#      x y z
#    x 1.821260 0.000000 0.056590 
#    y 0.000000 1.767860 0.000000 
#    z 0.056590 0.000000 1.819560 
# 
# From -- ./inp_files/40480.got.cif
#   From: 2010.05.17/outbox.cif.g08.bks.cpg/sg5_21_cif.got.tgz:40480.got - 2010.06.03 18:56:24.
