data_PCOD9122351
_publ_section_title
;
Structure prediction by ZEFSAII (Michael W. Deem and Ramdas Pophale) SiO2 
 PCOD9122351
Probable space group: C 2
;
_chemical_formula_sum "Si O2"
_cell_formula_units_Z 20
_cell_length_a 9.700896
_cell_length_b 10.838721
_cell_length_c 10.982454
_cell_angle_alpha 90.000000
_cell_angle_beta 43.164652
_cell_angle_gamma 90.000000
_cell_volume 789.963674
_symmetry_space_group_name_H-M "C 2"
_symmetry_group_IT_number 5
_symmetry_cell_setting 'monoclinic'
loop_
_space_group_symop_operation_xyz
x,y,z
-x,y,-z
1/2+x,1/2+y,z
1/2-x,1/2+y,-z
loop_
_atom_site_type_symbol
_atom_site_label
_atom_site_fract_x
_atom_site_fract_y
_atom_site_fract_z
Si Si1 0.536188 0.674380 0.791171
Si Si2 0.808614 0.797726 0.425694
Si Si3 0.567152 0.183744 0.078599
Si Si4 0.897501 0.438031 0.259788
Si Si5 0.325105 0.977177 0.690376
O O1 0.664769 0.696789 0.582595
O O2 0.567846 0.809468 0.829781
O O3 0.635279 0.565165 0.802651
O O4 0.301439 0.653375 0.921138
O O5 0.017763 0.747507 0.240118
O O6 0.799091 0.908507 0.530542
O O7 0.715083 0.855960 0.364059
O O8 0.419316 0.064209 0.175318
O O9 0.500000 0.256192 0.000000
O O10 0.081651 0.447295 0.239706
O O11 0.500000 0.046170 0.500000
#
# Coordination Sequence:
#
# PCOD9122351 Si02
#       5
#     4   4   4   4   4
#     4  10  24  42  72 103 142 183 244 297 356 432
#     4   9  21  42  70  99 136 186 238 289 353 438
#     4  12  25  43  69 104 145 185 241 306 360 430
#     4   9  23  43  65 102 140 184 241 286 368 428
#     4  10  19  41  74  97 138 190 241 286 360 434
#
# _framework density 25.317618
#
# number of rings (size 3 to 8) (size 9 to 14) (size 15 to 20)
#    1.200    0.800    0.000    3.600    5.600    0.800 
#    3.600    2.000    0.000    0.000    0.000    0.000 
#    0.000    0.000    0.000    0.000    0.000    0.000 
#
# Total GULP energy -55787.197995 kJ/mol
# GULP energy per Si atom -5578.719799 kJ/mol
# Density = 2.525999 g / cm^3
# Si number density = 25.317618 Si / 1000 Ang^3
#
#
#
# Elastic Constant Matrix: (Units=GPa)
#
#
# Indices 1 2 3 4 5 6 
#
# 1 76.7315 11.3690 53.7453 0.0000 5.7114 0.0000
# 2 11.3690 79.6958 22.8366 0.0000 6.6623 0.0000
# 3 53.7453 22.8366 162.7452 0.0000 8.6981 0.0000
# 4 0.0000 0.0000 0.0000 26.3061 0.0000 -2.6660
# 5 5.7114 6.6623 8.6981 0.0000 44.2307 0.0000
# 6 0.0000 0.0000 0.0000 -2.6660 0.0000 13.5805
#
#
#
# Elastic Compliance Matrix: (Units=1/GPa)
#
#
# Indices 1 2 3 4 5 6 
#
# 1 0.017053 -0.000782 -0.005468 0.000000 -0.001009 0.000000
# 2 -0.000782 0.013226 -0.001513 0.000000 -0.001594 0.000000
# 3 -0.005468 -0.001513 0.008199 0.000000 -0.000678 0.000000
# 4 0.000000 0.000000 0.000000 0.038786 0.000000 0.007614
# 5 -0.001009 -0.001594 -0.000678 0.000000 0.023112 0.000000
# 6 0.000000 0.000000 0.000000 0.007614 0.000000 0.075130
#
#
# Mechanical properties :
#
#
# Convention : Reuss Voigt Hill
#
# Bulk Modulus (GPa) = 43.56606 55.00825 49.28716
# Shear Modulus (GPa) = 25.16585 32.23824 28.70205
#
# Velocity S-wave (km/s) = 3.15621 3.57228 3.37067
# Velocity P-wave (km/s) = 5.52515 6.22811 5.88713
#
# Compressibility (1/GPa) = 0.02295365
#
# Stress axis : x y z
#
# Youngs Moduli (GPa) = 58.63912 75.60947 121.96748
#
# Poissons Ratio (x) = 0.05909 0.66694
# Poissons Ratio (y) = 0.04583 0.18449
# Poissons Ratio (z) = 0.32065 0.11437
#
# Static dielectric constant tensor:
#      x y z
#    x 1.939640 0.000000 0.036000 
#    y 0.000000 2.060300 0.000000 
#    z 0.036000 0.000000 2.081660 
# 
# From -- ./inp_files/52677.got.cif
#   From: 2010.05.17/outbox.cif.g08.bks.cpg/sg5_27_cif.got.tgz:52677.got - 2010.06.03 18:56:24.
