data_PCOD9122126
_publ_section_title
;
Structure prediction by ZEFSAII (Michael W. Deem and Ramdas Pophale) SiO2 
 PCOD9122126
Probable space group: C 2
;
_chemical_formula_sum "Si O2"
_cell_formula_units_Z 22
_cell_length_a 26.245335
_cell_length_b 5.727881
_cell_length_c 6.976210
_cell_angle_alpha 90.000000
_cell_angle_beta 111.227927
_cell_angle_gamma 90.000000
_cell_volume 977.575386
_symmetry_space_group_name_H-M "C 2"
_symmetry_group_IT_number 5
_symmetry_cell_setting 'monoclinic'
loop_
_space_group_symop_operation_xyz
x,y,z
-x,y,-z
1/2+x,1/2+y,z
1/2-x,1/2+y,-z
loop_
_atom_site_type_symbol
_atom_site_label
_atom_site_fract_x
_atom_site_fract_y
_atom_site_fract_z
Si Si1 0.877169 0.394510 0.676866
Si Si2 0.583382 0.953690 0.868024
Si Si3 0.826896 0.695362 0.277543
Si Si4 0.732668 0.658752 0.379629
Si Si5 0.000000 0.709059 0.500000
Si Si6 0.407769 0.568824 0.394628
O O1 0.847230 0.589635 0.509102
O O2 0.831360 0.219580 0.701628
O O3 0.911457 0.259330 0.564399
O O4 0.910801 0.487302 0.900168
O O5 0.580897 0.686897 0.793559
O O6 0.637654 0.064604 0.837514
O O7 0.529170 0.065011 0.705567
O O8 0.762214 0.662230 0.211256
O O9 0.847371 0.960323 0.302241
O O10 0.743077 0.398083 0.482740
O O11 0.049305 0.870572 0.497378
#
# Coordination Sequence:
#
# PCOD9122126 Si02
#       6
#     4   4   4   4   2   4
#     4  10  21  39  64  92 128 166 218 262 319 393
#     4  10  22  41  61  93 124 163 220 269 321 391
#     4   9  20  39  59  88 131 169 203 263 321 381
#     4  10  19  38  65  95 137 182 215 262 331 393
#     4  10  22  42  62  84 128 168 206 276 340 374
#     4  10  20  41  63  85 125 166 206 271 322 382
#
# _framework density 22.504659
#
# number of rings (size 3 to 8) (size 9 to 14) (size 15 to 20)
#    0.000    2.182    1.818    0.545    0.000    2.909 
#    3.273   21.818    0.000    0.000    0.000    0.000 
#    0.000    0.000    0.000    0.000    0.000    0.000 
#
# Total GULP energy -61344.592220 kJ/mol
# GULP energy per Si atom -5576.781111 kJ/mol
# Density = 2.245344 g / cm^3
# Si number density = 22.504659 Si / 1000 Ang^3
#
#
#
# Elastic Constant Matrix: (Units=GPa)
#
#
# Indices 1 2 3 4 5 6 
#
# 1 36.6083 -6.3874 -20.1082 0.0000 -1.7848 0.0000
# 2 -6.3874 73.7797 7.8947 0.0000 -0.1427 0.0000
# 3 -20.1082 7.8947 74.7606 0.0000 5.1895 0.0000
# 4 0.0000 0.0000 0.0000 1.2839 0.0000 -3.4299
# 5 -1.7848 -0.1427 5.1895 0.0000 16.7705 0.0000
# 6 0.0000 0.0000 0.0000 -3.4299 0.0000 42.5161
#
#
#
# Elastic Compliance Matrix: (Units=1/GPa)
#
#
# Indices 1 2 3 4 5 6 
#
# 1 0.032321 0.001897 0.008434 0.000000 0.000846 0.000000
# 2 0.001897 0.013826 -0.000993 0.000000 0.000627 0.000000
# 3 0.008434 -0.000993 0.016032 0.000000 -0.004072 0.000000
# 4 0.000000 0.000000 0.000000 0.992860 0.000000 0.080097
# 5 0.000846 0.000627 -0.004072 0.000000 0.060984 0.000000
# 6 0.000000 0.000000 0.000000 0.080097 0.000000 0.029982
#
#
# Mechanical properties :
#
#
# Convention : Reuss Voigt Hill
#
# Bulk Modulus (GPa) = 12.36768 16.43854 14.40311
# Shear Modulus (GPa) = 4.33170 25.69740 15.01455
#
# Velocity S-wave (km/s) = 1.38888 3.38282 2.58578
# Velocity P-wave (km/s) = 2.84245 4.75167 3.91522
#
# Compressibility (1/GPa) = 0.08085590
#
# Stress axis : x y z
#
# Youngs Moduli (GPa) = 30.93935 72.32961 62.37480
#
# Poissons Ratio (x) = -0.13723 -0.52609
# Poissons Ratio (y) = -0.05870 0.06195
# Poissons Ratio (z) = -0.26095 0.07184
#
# Static dielectric constant tensor:
#      x y z
#    x 1.932990 0.000000 -0.008940 
#    y 0.000000 1.883190 0.000000 
#    z -0.008940 0.000000 1.801830 
# 
# From -- ./inp_files/10995.got.cif
#   From: 2010.05.17/outbox.cif.g08.bks.cpg/sg5_6_cif.got.tgz:10995.got - 2010.06.03 18:56:24.
