data_PCOD9122610
_publ_section_title
;
Structure prediction by ZEFSAII (Michael W. Deem and Ramdas Pophale) SiO2 
 PCOD9122610
Probable space group: C 2
;
_chemical_formula_sum "Si O2"
_cell_formula_units_Z 26
_cell_length_a 20.085357
_cell_length_b 8.243512
_cell_length_c 15.253102
_cell_angle_alpha 90.000000
_cell_angle_beta 24.837941
_cell_angle_gamma 90.000000
_cell_volume 1060.850573
_symmetry_space_group_name_H-M "C 2"
_symmetry_group_IT_number 5
_symmetry_cell_setting 'monoclinic'
loop_
_space_group_symop_operation_xyz
x,y,z
-x,y,-z
1/2+x,1/2+y,z
1/2-x,1/2+y,-z
loop_
_atom_site_type_symbol
_atom_site_label
_atom_site_fract_x
_atom_site_fract_y
_atom_site_fract_z
Si Si1 0.609293 0.519090 0.934145
Si Si2 0.646495 0.236992 0.274205
Si Si3 0.247268 0.059021 0.105885
Si Si4 0.452373 0.171259 0.336501
Si Si5 0.820257 0.348809 0.554092
Si Si6 0.000000 0.250153 0.500000
Si Si7 0.039214 0.031822 0.694976
O O1 0.773432 0.606022 0.760663
O O2 0.665015 0.374516 0.800780
O O3 0.500000 0.623583 0.000000
O O4 0.523937 0.511988 0.130175
O O5 0.500000 0.318007 0.500000
O O6 0.773784 0.370501 0.094592
O O7 0.567146 0.164814 0.283775
O O8 0.152742 0.143027 0.296976
O O9 0.119396 0.054256 0.177515
O O10 0.413527 0.147802 0.897226
O O11 0.386719 0.354320 0.414940
O O12 0.340542 0.014789 0.474644
O O13 0.962518 0.341714 0.455456
O O14 0.847907 0.185100 0.464065
#
# Coordination Sequence:
#
# PCOD9122610 Si02
#       7
#     4   4   4   4   4   2   4
#     4  12  25  45  68  99 148 195 235 289 364 443
#     4  11  20  38  64 100 140 174 235 297 352 419
#     4  10  20  34  65 104 138 176 229 302 363 418
#     4  11  21  37  68 100 130 173 229 300 354 406
#     4  11  23  41  67  99 134 182 232 290 361 418
#     4  10  20  34  64 100 134 172 228 300 356 420
#     4  10  24  42  63  99 138 181 233 290 349 423
#
# _framework density 24.508635000000002
#
# number of rings (size 3 to 8) (size 9 to 14) (size 15 to 20)
#    0.000    1.231    3.846    2.769    6.462    0.000 
#    2.769    0.000    0.000    7.385    0.000    0.000 
#    0.000    0.000    0.000    0.000    0.000    0.000 
#
# Total GULP energy -72539.927126 kJ/mol
# GULP energy per Si atom -5579.994394 kJ/mol
# Density = 2.445285 g / cm^3
# Si number density = 24.508635 Si / 1000 Ang^3
#
#
#
# Elastic Constant Matrix: (Units=GPa)
#
#
# Indices 1 2 3 4 5 6 
#
# 1 60.7347 33.1029 10.7078 0.0000 17.4501 0.0000
# 2 33.1029 184.5461 77.2921 -0.0001 17.4825 0.0000
# 3 10.7078 77.2921 124.3931 -0.0001 18.0355 0.0000
# 4 0.0000 -0.0001 -0.0001 34.3272 0.0000 12.3993
# 5 17.4501 17.4825 18.0355 0.0000 29.6958 0.0000
# 6 0.0000 0.0000 0.0000 12.3993 0.0000 14.8188
#
#
#
# Elastic Compliance Matrix: (Units=1/GPa)
#
#
# Indices 1 2 3 4 5 6 
#
# 1 0.021439 -0.003614 0.002103 0.000000 -0.011748 0.000000
# 2 -0.003614 0.008013 -0.004706 0.000000 0.000264 0.000000
# 3 0.002103 -0.004706 0.011579 0.000000 -0.005498 0.000000
# 4 0.000000 0.000000 0.000000 0.041749 0.000000 -0.034933
# 5 -0.011748 0.000264 -0.005498 0.000000 0.043762 0.000000
# 6 0.000000 0.000000 0.000000 -0.034933 0.000000 0.096711
#
#
# Mechanical properties :
#
#
# Convention : Reuss Voigt Hill
#
# Bulk Modulus (GPa) = 34.96696 67.98661 51.47678
# Shear Modulus (GPa) = 20.38988 32.33977 26.36483
#
# Velocity S-wave (km/s) = 2.88748 3.63647 3.28340
# Velocity P-wave (km/s) = 5.04132 6.74032 5.95176
#
# Compressibility (1/GPa) = 0.02859843
#
# Stress axis : x y z
#
# Youngs Moduli (GPa) = 46.64336 124.79927 86.36119
#
# Poissons Ratio (x) = 0.45097 -0.18163
# Poissons Ratio (y) = 0.16855 0.40642
# Poissons Ratio (z) = -0.09810 0.58732
#
# Static dielectric constant tensor:
#      x y z
#    x 1.981570 0.000000 0.033780 
#    y 0.000000 1.988960 0.000000 
#    z 0.033780 0.000000 2.058660 
# 
# From -- ./inp_files/56798.got.cif
#   From: 2010.05.17/outbox.cif.g08.bks.cpg/sg5_29_cif.got.tgz:56798.got - 2010.06.03 18:56:24.
