data_PCOD9122468
_publ_section_title
;
Structure prediction by ZEFSAII (Michael W. Deem and Ramdas Pophale) SiO2 
 PCOD9122468
Probable space group: C 2
;
_chemical_formula_sum "Si O2"
_cell_formula_units_Z 32
_cell_length_a 26.924611
_cell_length_b 8.841994
_cell_length_c 14.215604
_cell_angle_alpha 90.000000
_cell_angle_beta 23.345690
_cell_angle_gamma 90.000000
_cell_volume 1341.110910
_symmetry_space_group_name_H-M "C 2"
_symmetry_group_IT_number 5
_symmetry_cell_setting 'monoclinic'
loop_
_space_group_symop_operation_xyz
x,y,z
-x,y,-z
1/2+x,1/2+y,z
1/2-x,1/2+y,-z
loop_
_atom_site_type_symbol
_atom_site_label
_atom_site_fract_x
_atom_site_fract_y
_atom_site_fract_z
Si Si1 0.639440 0.583700 0.998517
Si Si2 0.384999 0.082320 0.271546
Si Si3 0.020690 0.472586 0.314012
Si Si4 0.271468 0.519818 0.614667
Si Si5 0.384729 0.235286 0.475979
Si Si6 0.040608 0.338755 0.080028
Si Si7 0.372669 0.713147 0.771649
Si Si8 0.739862 0.779807 0.214192
O O1 0.759405 0.667888 0.742885
O O2 0.654633 0.406293 0.961005
O O3 0.530725 0.664792 0.126828
O O4 0.639639 0.629208 0.107885
O O5 0.252257 0.082936 0.448949
O O6 0.390239 0.178208 0.358330
O O7 0.417762 0.914350 0.252343
O O8 0.500000 0.127578 0.000000
O O9 0.988229 0.648431 0.359330
O O10 0.890486 0.375684 0.550094
O O11 0.070541 0.421364 0.126469
O O12 0.109529 0.393310 0.235611
O O13 0.377896 0.415491 0.477350
O O14 0.251244 0.658704 0.719711
O O15 0.154760 0.398675 0.818731
O O16 0.500000 0.659004 0.500000
O O17 0.267615 0.701477 0.874963
#
# Coordination Sequence:
#
# PCOD9122468 Si02
#       8
#     4   4   4   4   4   4   4   4
#     4   9  18  33  56  83 108 147 196 233 278 340
#     4   9  18  34  55  78 111 155 193 235 287 340
#     4   8  16  34  55  73 104 148 187 221 269 334
#     4  10  20  33  55  84 114 144 181 239 291 336
#     4   9  18  33  56  83 108 147 196 233 278 340
#     4   8  16  34  55  73 104 148 187 221 269 334
#     4   9  18  34  55  78 111 155 193 235 287 340
#     4  10  20  33  55  84 114 144 181 239 291 336
#
# _framework density 23.860817000000001
#
# number of rings (size 3 to 8) (size 9 to 14) (size 15 to 20)
#    0.000    3.000    0.000    0.000    0.000    6.000 
#    0.000   11.250    0.000   31.500    0.000    0.000 
#    0.000    0.000    0.000    0.000    0.000    0.000 
#
# Total GULP energy -89205.145808 kJ/mol
# GULP energy per Si atom -5575.321613 kJ/mol
# Density = 2.380651 g / cm^3
# Si number density = 23.860817 Si / 1000 Ang^3
#
#
#
# Elastic Constant Matrix: (Units=GPa)
#
#
# Indices 1 2 3 4 5 6 
#
# 1 122.9949 40.4760 17.3409 0.0000 10.3351 0.0000
# 2 40.4760 143.6675 10.8545 0.0000 0.6755 0.0000
# 3 17.3409 10.8545 68.4139 0.0000 18.5930 0.0000
# 4 0.0000 0.0000 0.0000 31.2069 0.0000 0.1625
# 5 10.3351 0.6755 18.5930 0.0000 42.5613 0.0000
# 6 0.0000 0.0000 0.0000 0.1625 0.0000 29.8634
#
#
#
# Elastic Compliance Matrix: (Units=1/GPa)
#
#
# Indices 1 2 3 4 5 6 
#
# 1 0.009299 -0.002496 -0.001541 0.000000 -0.001545 0.000000
# 2 -0.002496 0.007722 -0.000821 0.000000 0.000842 0.000000
# 3 -0.001541 -0.000821 0.017058 0.000000 -0.007064 0.000000
# 4 0.000000 0.000000 0.000000 0.032045 0.000000 -0.000174
# 5 -0.001545 0.000842 -0.007064 0.000000 0.026944 0.000000
# 6 0.000000 0.000000 0.000000 -0.000174 0.000000 0.033487
#
#
# Mechanical properties :
#
#
# Convention : Reuss Voigt Hill
#
# Bulk Modulus (GPa) = 41.04841 52.49102 46.76971
# Shear Modulus (GPa) = 34.62805 38.48664 36.55735
#
# Velocity S-wave (km/s) = 3.81366 4.02053 3.91846
# Velocity P-wave (km/s) = 6.05249 6.60299 6.33372
#
# Compressibility (1/GPa) = 0.02436148
#
# Stress axis : x y z
#
# Youngs Moduli (GPa) = 107.53865 129.50239 58.62433
#
# Poissons Ratio (x) = 0.32326 0.09034
# Poissons Ratio (y) = 0.26843 0.04815
# Poissons Ratio (z) = 0.16572 0.10637
#
# Static dielectric constant tensor:
#      x y z
#    x 1.935140 0.000000 -0.077290 
#    y 0.000000 1.961530 0.000000 
#    z -0.077290 0.000000 2.081930 
# 
# From -- ./inp_files/58070.got.cif
#   From: 2010.05.17/outbox.cif.g08.bks.cpg/sg5_30_cif.got.tgz:58070.got - 2010.06.03 18:56:24.
