data_PCOD9122244
_publ_section_title
;
Structure prediction by ZEFSAII (Michael W. Deem and Ramdas Pophale) SiO2 
 PCOD9122244
Probable space group: C 2
;
_chemical_formula_sum "Si O2"
_cell_formula_units_Z 22
_cell_length_a 21.362298
_cell_length_b 10.277379
_cell_length_c 8.343874
_cell_angle_alpha 90.000000
_cell_angle_beta 142.680110
_cell_angle_gamma 90.000000
_cell_volume 1110.606533
_symmetry_space_group_name_H-M "C 2"
_symmetry_group_IT_number 5
_symmetry_cell_setting 'monoclinic'
loop_
_space_group_symop_operation_xyz
x,y,z
-x,y,-z
1/2+x,1/2+y,z
1/2-x,1/2+y,-z
loop_
_atom_site_type_symbol
_atom_site_label
_atom_site_fract_x
_atom_site_fract_y
_atom_site_fract_z
Si Si1 0.816646 0.254000 0.078698
Si Si2 0.892640 0.752772 0.195407
Si Si3 0.629883 0.870571 0.459835
Si Si4 0.059660 0.484094 0.791975
Si Si5 0.847772 0.007448 0.924984
Si Si6 0.500000 0.663384 0.000000
O O1 0.854430 0.296581 0.334815
O O2 0.868916 0.357050 0.065441
O O3 0.694977 0.270239 0.850039
O O4 0.836113 0.110363 0.048905
O O5 0.875796 0.616091 0.069981
O O6 0.000000 0.744129 0.500000
O O7 0.894771 0.874189 0.084406
O O8 0.533845 0.969887 0.276465
O O9 0.733429 0.955107 0.636179
O O10 0.585532 0.757348 0.257003
O O11 0.000000 0.482573 0.500000
O O12 0.928380 0.074555 0.968873
#
# Coordination Sequence:
#
# PCOD9122244 Si02
#       6
#     4   4   4   4   4   2
#     4  10  19  39  71  94 129 165 231 286 329 391
#     4  10  20  34  61 104 128 159 220 294 333 379
#     4  10  23  45  67  96 131 181 226 271 341 395
#     4   9  17  36  62  92 127 164 212 278 340 379
#     4  11  24  43  66 101 127 175 230 272 336 396
#     4  12  26  48  64  94 150 188 212 270 334 426
#
# _framework density 19.808997000000002
#
# number of rings (size 3 to 8) (size 9 to 14) (size 15 to 20)
#    0.000    1.818    1.818    4.364    2.545    0.000 
#   13.091    0.000    0.000    0.000    0.000    0.000 
#    0.000    0.000    0.000    0.000    0.000    0.000 
#
# Total GULP energy -61241.650794 kJ/mol
# GULP energy per Si atom -5567.422799 kJ/mol
# Density = 1.976391 g / cm^3
# Si number density = 19.808997 Si / 1000 Ang^3
#
#
#
# Elastic Constant Matrix: (Units=GPa)
#
#
# Indices 1 2 3 4 5 6 
#
# 1 83.7337 32.0328 30.4012 0.0000 20.8140 0.0000
# 2 32.0328 139.0775 34.3303 0.0000 14.0122 0.0000
# 3 30.4012 34.3303 58.5834 0.0000 24.2955 0.0000
# 4 0.0000 0.0000 0.0000 27.7447 0.0000 -12.1849
# 5 20.8140 14.0122 24.2955 0.0000 22.8540 0.0000
# 6 0.0000 0.0000 0.0000 -12.1849 0.0000 181.5110
#
#
#
# Elastic Compliance Matrix: (Units=1/GPa)
#
#
# Indices 1 2 3 4 5 6 
#
# 1 0.016406 -0.001981 -0.002969 0.000000 -0.010571 0.000000
# 2 -0.001981 0.008646 -0.004629 0.000000 0.001424 0.000000
# 3 -0.002969 -0.004629 0.034026 0.000000 -0.030630 0.000000
# 4 0.000000 0.000000 0.000000 0.037138 0.000000 0.002493
# 5 -0.010571 0.001424 -0.030630 0.000000 0.085071 0.000000
# 6 0.000000 0.000000 0.000000 0.002493 0.000000 0.005677
#
#
# Mechanical properties :
#
#
# Convention : Reuss Voigt Hill
#
# Bulk Modulus (GPa) = 25.05064 52.76926 38.90995
# Shear Modulus (GPa) = 22.78656 58.73062 40.75859
#
# Velocity S-wave (km/s) = 3.39531 5.45095 4.54098
# Velocity P-wave (km/s) = 5.29569 8.14334 6.86871
#
# Compressibility (1/GPa) = 0.03991913
#
# Stress axis : x y z
#
# Youngs Moduli (GPa) = 60.95351 115.66527 29.38949
#
# Poissons Ratio (x) = 0.22911 0.08726
# Poissons Ratio (y) = 0.12073 0.13605
# Poissons Ratio (z) = 0.18098 0.53544
#
# Static dielectric constant tensor:
#      x y z
#    x 1.703950 0.000000 0.049370 
#    y 0.000000 1.726810 0.000000 
#    z 0.049370 0.000000 1.629460 
# 
# From -- ./inp_files/22757.got.cif
#   From: 2010.05.17/outbox.cif.g08.bks.cpg/sg5_12_cif.got.tgz:22757.got - 2010.06.03 18:56:24.
