data_PCOD9122665
_publ_section_title
;
Structure prediction by ZEFSAII (Michael W. Deem and Ramdas Pophale) SiO2 
 PCOD9122665
Probable space group: C 2
;
_chemical_formula_sum "Si O2"
_cell_formula_units_Z 30
_cell_length_a 16.528967
_cell_length_b 7.854743
_cell_length_c 10.360170
_cell_angle_alpha 90.000000
_cell_angle_beta 100.553311
_cell_angle_gamma 90.000000
_cell_volume 1322.317084
_symmetry_space_group_name_H-M "C 2"
_symmetry_group_IT_number 5
_symmetry_cell_setting 'monoclinic'
loop_
_space_group_symop_operation_xyz
x,y,z
-x,y,-z
1/2+x,1/2+y,z
1/2-x,1/2+y,-z
loop_
_atom_site_type_symbol
_atom_site_label
_atom_site_fract_x
_atom_site_fract_y
_atom_site_fract_z
Si Si1 0.442789 0.389050 0.757529
Si Si2 0.245904 0.301804 0.952082
Si Si3 0.787360 0.733355 0.608828
Si Si4 0.333886 0.631533 0.857782
Si Si5 0.656935 0.584830 0.704794
Si Si6 0.500000 0.542717 0.500000
Si Si7 0.109856 0.732557 0.833222
Si Si8 0.306036 0.071608 0.364548
O O1 0.358258 0.285054 0.727874
O O2 0.421349 0.555576 0.838593
O O3 0.463106 0.442706 0.614641
O O4 0.515527 0.272747 0.832841
O O5 0.284632 0.480523 0.918985
O O6 0.193705 0.212682 0.823497
O O7 0.182241 0.291867 0.054743
O O8 0.329512 0.211280 0.028938
O O9 0.733722 0.570506 0.631367
O O10 0.831589 0.689469 0.489356
O O11 0.720664 0.885596 0.595667
O O12 0.279450 0.650912 0.713930
O O13 0.576882 0.633640 0.595435
O O14 0.637822 0.409255 0.771529
O O15 0.128556 0.588195 0.732041
#
# Coordination Sequence:
#
# PCOD9122665 Si02
#       8
#     4   4   4   4   4   2   4   4
#     4  10  20  39  61  97 117 161 207 259 298 372
#     4  11  20  38  60  91 117 165 203 263 300 372
#     4  11  20  36  64  86 125 160 212 247 313 368
#     4  10  21  38  63  93 119 163 214 253 306 364
#     4  11  20  38  59  90 117 167 200 262 303 362
#     4  10  22  38  62  88 128 152 208 258 308 368
#     4  10  22  37  63  87 123 155 211 258 307 355
#     4  10  20  35  58  93 119 163 203 256 303 370
#
# _framework density 22.687449000000001
#
# number of rings (size 3 to 8) (size 9 to 14) (size 15 to 20)
#    0.000    1.600    4.000    4.000    0.000    0.533 
#    0.000    1.333    0.000    8.000   27.733    0.000 
#    0.000    0.000    0.000    0.000    0.000    0.000 
#
# Total GULP energy -83542.966566 kJ/mol
# GULP energy per Si atom -5569.531104 kJ/mol
# Density = 2.263581 g / cm^3
# Si number density = 22.687449 Si / 1000 Ang^3
#
#
#
# Elastic Constant Matrix: (Units=GPa)
#
#
# Indices 1 2 3 4 5 6 
#
# 1 127.0783 24.2167 28.8015 0.0000 16.8019 0.0000
# 2 24.2167 58.7795 17.6353 0.0000 -0.5827 0.0000
# 3 28.8015 17.6353 104.6447 0.0000 12.5537 0.0000
# 4 0.0000 0.0000 0.0000 32.3539 0.0000 -7.5101
# 5 16.8019 -0.5827 12.5537 0.0000 37.2112 0.0000
# 6 0.0000 0.0000 0.0000 -7.5101 0.0000 42.3568
#
#
#
# Elastic Compliance Matrix: (Units=1/GPa)
#
#
# Indices 1 2 3 4 5 6 
#
# 1 0.009372 -0.003434 -0.001549 0.000000 -0.003763 0.000000
# 2 -0.003434 0.019242 -0.002626 0.000000 0.002738 0.000000
# 3 -0.001549 -0.002626 0.010783 0.000000 -0.002979 0.000000
# 4 0.000000 0.000000 0.000000 0.032235 0.000000 0.005715
# 5 -0.003763 0.002738 -0.002979 0.000000 0.029621 0.000000
# 6 0.000000 0.000000 0.000000 0.005715 0.000000 0.024622
#
#
# Mechanical properties :
#
#
# Convention : Reuss Voigt Hill
#
# Bulk Modulus (GPa) = 41.35902 47.97881 44.66892
# Shear Modulus (GPa) = 33.52255 37.04098 35.28176
#
# Velocity S-wave (km/s) = 3.84810 4.04501 3.94778
# Velocity P-wave (km/s) = 6.16550 6.55818 6.36487
#
# Compressibility (1/GPa) = 0.02417852
#
# Stress axis : x y z
#
# Youngs Moduli (GPa) = 106.69860 51.96840 92.74216
#
# Poissons Ratio (x) = 0.17844 0.14370
# Poissons Ratio (y) = 0.36637 0.24356
# Poissons Ratio (z) = 0.16532 0.13648
#
# Static dielectric constant tensor:
#      x y z
#    x 1.866760 0.000000 -0.066750 
#    y 0.000000 1.957360 0.000000 
#    z -0.066750 0.000000 1.968940 
# 
# From -- ./inp_files/44179.got.cif
#   From: 2010.05.17/outbox.cif.g08.bks.cpg/sg5_23_cif.got.tgz:44179.got - 2010.06.03 18:56:24.
