data_PCOD9122491
_publ_section_title
;
Structure prediction by ZEFSAII (Michael W. Deem and Ramdas Pophale) SiO2 
 PCOD9122491
Probable space group: C 2
;
_chemical_formula_sum "Si O2"
_cell_formula_units_Z 24
_cell_length_a 15.837077
_cell_length_b 14.436486
_cell_length_c 20.806549
_cell_angle_alpha 90.000000
_cell_angle_beta 163.083420
_cell_angle_gamma 90.000000
_cell_volume 1384.198302
_symmetry_space_group_name_H-M "C 2"
_symmetry_group_IT_number 5
_symmetry_cell_setting 'monoclinic'
loop_
_space_group_symop_operation_xyz
x,y,z
-x,y,-z
1/2+x,1/2+y,z
1/2-x,1/2+y,-z
loop_
_atom_site_type_symbol
_atom_site_label
_atom_site_fract_x
_atom_site_fract_y
_atom_site_fract_z
Si Si1 0.290302 0.651070 0.679320
Si Si2 0.185444 0.327105 0.533448
Si Si3 0.840127 0.038816 0.952262
Si Si4 0.773955 0.024444 0.552999
Si Si5 0.560749 0.336446 0.143832
Si Si6 0.437332 0.701368 0.248373
O O1 0.194670 0.561326 0.567127
O O2 0.427511 0.715982 0.724555
O O3 0.000000 0.689143 0.500000
O O4 0.522598 0.613880 0.899626
O O5 0.308462 0.415548 0.584973
O O6 0.368481 0.311051 0.731004
O O7 0.860826 0.348582 0.323576
O O8 0.141392 0.244305 0.451615
O O9 0.498432 0.047273 0.690435
O O10 0.000000 0.046948 0.000000
O O11 0.901259 0.935189 0.022888
O O12 0.045717 0.089801 0.732769
O O13 0.364596 0.255074 0.971460
#
# Coordination Sequence:
#
# PCOD9122491 Si02
#       6
#     4   4   4   4   4   4
#     4  10  20  34  49  82 113 145 183 233 273 334
#     4  11  20  36  56  85 114 147 185 235 280 331
#     4  12  17  30  57  80 111 146 180 225 292 323
#     4  10  21  32  53  83 115 144 181 234 283 330
#     4  11  20  33  57  85 116 140 188 232 281 331
#     4  10  22  33  52  85 116 145 187 230 283 331
#
# _framework density 17.338554999999999
#
# number of rings (size 3 to 8) (size 9 to 14) (size 15 to 20)
#    1.000    0.333    6.667    0.500    2.333    0.000 
#    0.000    0.000    0.000    0.000   21.667    0.000 
#    0.000    0.000    0.000    0.000    0.000    0.000 
#
# Total GULP energy -66813.498238 kJ/mol
# GULP energy per Si atom -5567.791520 kJ/mol
# Density = 1.729909 g / cm^3
# Si number density = 17.338555 Si / 1000 Ang^3
#
#
#
# Elastic Constant Matrix: (Units=GPa)
#
#
# Indices 1 2 3 4 5 6 
#
# 1 70.2631 22.6915 20.8479 -0.0227 -27.8924 0.0553
# 2 22.6915 65.5348 15.6925 -0.0737 -5.2498 0.0601
# 3 20.8479 15.6925 63.2879 -0.1049 -23.7510 0.0825
# 4 -0.0227 -0.0737 -0.1049 23.1571 0.0156 -1.6666
# 5 -27.8924 -5.2498 -23.7510 0.0156 30.3570 0.0363
# 6 0.0553 0.0601 0.0825 -1.6666 0.0363 32.0782
#
#
#
# Elastic Compliance Matrix: (Units=1/GPa)
#
#
# Indices 1 2 3 4 5 6 
#
# 1 0.025455 -0.007485 0.002495 -0.000008 0.024046 -0.000064
# 2 -0.007485 0.018428 -0.004939 0.000034 -0.007554 0.000001
# 3 0.002495 -0.004939 0.023703 0.000075 0.019983 -0.000075
# 4 -0.000008 0.000034 0.000075 0.043346 0.000032 0.002252
# 5 0.024046 -0.007554 0.019983 0.000032 0.069363 -0.000155
# 6 -0.000064 0.000001 -0.000075 0.002252 -0.000155 0.031291
#
#
# Mechanical properties :
#
#
# Convention : Reuss Voigt Hill
#
# Bulk Modulus (GPa) = 20.95180 35.28329 28.11754
# Shear Modulus (GPa) = 20.21401 26.44205 23.32803
#
# Velocity S-wave (km/s) = 3.41815 3.90942 3.67201
# Velocity P-wave (km/s) = 5.26198 6.38528 5.85065
#
# Compressibility (1/GPa) = 0.04772860
#
# Stress axis : x y z
#
# Youngs Moduli (GPa) = 39.28553 54.26475 42.18841
#
# Poissons Ratio (x) = 0.40616 -0.10525
# Poissons Ratio (y) = 0.29404 0.20835
# Poissons Ratio (z) = -0.09801 0.26800
#
# Static dielectric constant tensor:
#      x y z
#    x 1.604090 -0.000020 -0.013950 
#    y -0.000020 1.587310 -0.000120 
#    z -0.013950 -0.000120 1.605520 
# 
# From -- ./inp_files/54683.got.cif
#   From: 2010.05.17/outbox.cif.g08.bks.cpg/sg5_28_cif.got.tgz:54683.got - 2010.06.03 18:56:24.
