data_PCOD9122277
_publ_section_title
;
Structure prediction by ZEFSAII (Michael W. Deem and Ramdas Pophale) SiO2 
 PCOD9122277
Probable space group: C 2
;
_chemical_formula_sum "Si O2"
_cell_formula_units_Z 26
_cell_length_a 9.386317
_cell_length_b 14.083995
_cell_length_c 15.920933
_cell_angle_alpha 90.000000
_cell_angle_beta 142.195650
_cell_angle_gamma 90.000000
_cell_volume 1290.109931
_symmetry_space_group_name_H-M "C 2"
_symmetry_group_IT_number 5
_symmetry_cell_setting 'monoclinic'
loop_
_space_group_symop_operation_xyz
x,y,z
-x,y,-z
1/2+x,1/2+y,z
1/2-x,1/2+y,-z
loop_
_atom_site_type_symbol
_atom_site_label
_atom_site_fract_x
_atom_site_fract_y
_atom_site_fract_z
Si Si1 0.500000 0.234771 0.000000
Si Si2 0.560438 0.393882 0.891876
Si Si3 0.996746 0.639742 0.260387
Si Si4 0.268052 0.592443 0.216779
Si Si5 0.000000 0.428570 0.000000
Si Si6 0.000000 0.058805 0.000000
Si Si7 0.765476 0.835853 0.601641
Si Si8 0.832461 0.999707 0.502933
O O1 0.513381 0.304651 0.928426
O O2 0.279709 0.166378 0.880464
O O3 0.812267 0.376615 0.968592
O O4 0.553944 0.488350 0.946174
O O5 0.373165 0.394261 0.730140
O O6 0.121048 0.629122 0.227696
O O7 0.079403 0.741095 0.334171
O O8 0.105272 0.554563 0.365950
O O9 0.724728 0.622045 0.123795
O O10 0.524037 0.569481 0.368046
O O11 0.153270 0.495100 0.132029
O O12 0.500000 0.809292 0.500000
O O13 0.777904 0.903073 0.526303
O O14 0.000000 0.984195 0.500000
#
# Coordination Sequence:
#
# PCOD9122277 Si02
#       8
#     2   4   4   4   2   2   4   4
#     4  10  22  38  63 101 130 176 224 270 331 397
#     4  11  23  40  68  99 135 176 220 281 329 402
#     4  11  23  43  68  97 132 179 221 284 328 401
#     4  10  19  40  65  92 130 174 221 266 335 397
#     4  11  20  38  66  95 132 176 213 269 343 379
#     4  11  24  44  63 102 140 172 223 279 340 388
#     4  12  24  44  69  97 131 178 228 276 336 399
#     4  10  23  44  69  95 131 178 224 276 335 395
#
# _framework density 20.153320999999998
#
# number of rings (size 3 to 8) (size 9 to 14) (size 15 to 20)
#    0.000    1.231    4.615    2.308    0.000    0.615 
#    0.000    2.308    0.000    0.000    0.000    0.000 
#    0.000    0.000    0.000    0.000    0.000    0.000 
#
# Total GULP energy -72626.498634 kJ/mol
# GULP energy per Si atom -5586.653741 kJ/mol
# Density = 2.010745 g / cm^3
# Si number density = 20.153321 Si / 1000 Ang^3
#
#
#
# Elastic Constant Matrix: (Units=GPa)
#
#
# Indices 1 2 3 4 5 6 
#
# 1 51.6846 35.9417 32.1894 0.0000 12.6110 0.0000
# 2 35.9417 107.0674 47.2094 0.0000 4.7237 0.0000
# 3 32.1894 47.2094 126.8308 -0.0001 17.1733 0.0000
# 4 0.0000 0.0000 -0.0001 32.5759 0.0000 -4.7485
# 5 12.6110 4.7237 17.1733 0.0000 41.8462 0.0000
# 6 0.0000 0.0000 0.0000 -4.7485 0.0000 4.1267
#
#
#
# Elastic Compliance Matrix: (Units=1/GPa)
#
#
# Indices 1 2 3 4 5 6 
#
# 1 0.028422 -0.007726 -0.003490 0.000000 -0.006261 0.000000
# 2 -0.007726 0.013283 -0.003278 0.000000 0.002174 0.000000
# 3 -0.003490 -0.003278 0.010374 0.000000 -0.002836 0.000000
# 4 0.000000 0.000000 0.000000 0.036884 0.000000 0.042442
# 5 -0.006261 0.002174 -0.002836 0.000000 0.026702 0.000000
# 6 0.000000 0.000000 0.000000 0.042442 0.000000 0.291162
#
#
# Mechanical properties :
#
#
# Convention : Reuss Voigt Hill
#
# Bulk Modulus (GPa) = 43.30528 57.36265 50.33396
# Shear Modulus (GPa) = 11.27365 27.05923 19.16644
#
# Velocity S-wave (km/s) = 2.36772 3.66822 3.08723
# Velocity P-wave (km/s) = 5.38603 6.81660 6.14310
#
# Compressibility (1/GPa) = 0.02309187
#
# Stress axis : x y z
#
# Youngs Moduli (GPa) = 35.18395 75.28525 96.39247
#
# Poissons Ratio (x) = 0.58166 0.33640
# Poissons Ratio (y) = 0.27183 0.31595
# Poissons Ratio (z) = 0.12279 0.24676
#
# Static dielectric constant tensor:
#      x y z
#    x 1.725260 0.000000 -0.019920 
#    y 0.000000 1.708090 0.000000 
#    z -0.019920 0.000000 1.732760 
# 
# From -- ./inp_files/50862.got.cif
#   From: 2010.05.17/outbox.cif.g08.bks.cpg/sg5_26_cif.got.tgz:50862.got - 2010.06.03 18:56:24.
