data_PCOD9122900
_publ_section_title
;
Structure prediction by ZEFSAII (Michael W. Deem and Ramdas Pophale) SiO2 
 PCOD9122900
Probable space group: C 2
;
_chemical_formula_sum "Si O2"
_cell_formula_units_Z 30
_cell_length_a 15.213893
_cell_length_b 8.774297
_cell_length_c 9.872181
_cell_angle_alpha 90.000000
_cell_angle_beta 104.099592
_cell_angle_gamma 90.000000
_cell_volume 1278.147582
_symmetry_space_group_name_H-M "C 2"
_symmetry_group_IT_number 5
_symmetry_cell_setting 'monoclinic'
loop_
_space_group_symop_operation_xyz
x,y,z
-x,y,-z
1/2+x,1/2+y,z
1/2-x,1/2+y,-z
loop_
_atom_site_type_symbol
_atom_site_label
_atom_site_fract_x
_atom_site_fract_y
_atom_site_fract_z
Si Si1 0.892671 0.587980 0.021978
Si Si2 0.216590 0.575143 0.380016
Si Si3 0.126697 0.062030 0.732636
Si Si4 0.023888 0.255727 0.353709
Si Si5 0.720396 0.716717 0.335984
Si Si6 0.256294 0.326939 0.060355
Si Si7 0.027505 0.608303 0.293269
Si Si8 0.000000 0.853283 0.500000
O O1 0.815690 0.723455 0.978852
O O2 0.932306 0.629245 0.186217
O O3 0.836135 0.427684 0.000711
O O4 0.000000 0.576997 0.000000
O O5 0.300342 0.648601 0.333337
O O6 0.218062 0.621004 0.537886
O O7 0.232637 0.394732 0.377927
O O8 0.126163 0.608263 0.258252
O O9 0.176033 0.958917 0.860618
O O10 0.071099 0.951020 0.611639
O O11 0.056306 0.182915 0.763713
O O12 0.000000 0.222892 0.500000
O O13 0.116939 0.182190 0.338310
O O14 0.027971 0.436624 0.346948
O O15 0.734462 0.715649 0.180580
O O16 0.041763 0.740469 0.406044
#
# Coordination Sequence:
#
# PCOD9122900 Si02
#       8
#     4   4   4   4   4   4   4   2
#     4  12  27  54  74 103 146 198 259 313 358 430
#     4  10  20  36  62  97 137 177 217 280 368 436
#     4  11  21  40  64  99 140 176 224 297 362 439
#     4  11  20  35  62 103 139 176 220 281 370 445
#     4  10  21  40  62 103 144 178 231 292 362 451
#     4  11  27  50  71 101 142 198 255 301 367 438
#     4  11  24  39  65  97 135 179 230 294 362 438
#     4  12  20  38  64 100 138 170 218 294 374 438
#
# _framework density 23.471468000000002
#
# number of rings (size 3 to 8) (size 9 to 14) (size 15 to 20)
#    0.000    1.067    4.000    4.000    1.867    0.000 
#    2.400    0.000    0.000    0.000    0.000    0.000 
#    0.000    0.000    0.000    0.000    0.000    0.000 
#
# Total GULP energy -83532.496764 kJ/mol
# GULP energy per Si atom -5568.833118 kJ/mol
# Density = 2.341805 g / cm^3
# Si number density = 23.471468 Si / 1000 Ang^3
#
#
#
# Elastic Constant Matrix: (Units=GPa)
#
#
# Indices 1 2 3 4 5 6 
#
# 1 152.9929 49.4030 35.2038 0.0000 11.5987 0.0000
# 2 49.4030 69.2090 31.5667 0.0000 5.7845 0.0000
# 3 35.2038 31.5667 47.9254 0.0000 8.6610 0.0000
# 4 0.0000 0.0000 0.0000 51.2223 0.0000 15.1670
# 5 11.5987 5.7845 8.6610 0.0000 38.0347 0.0000
# 6 0.0000 0.0000 0.0000 15.1670 0.0000 45.5638
#
#
#
# Elastic Compliance Matrix: (Units=1/GPa)
#
#
# Indices 1 2 3 4 5 6 
#
# 1 0.008913 -0.004824 -0.003140 0.000000 -0.001269 0.000000
# 2 -0.004824 0.023265 -0.011896 0.000000 0.000642 0.000000
# 3 -0.003140 -0.011896 0.031817 0.000000 -0.004478 0.000000
# 4 0.000000 0.000000 0.000000 0.021657 0.000000 -0.007209
# 5 -0.001269 0.000642 -0.004478 0.000000 0.027601 0.000000
# 6 0.000000 0.000000 0.000000 -0.007209 0.000000 0.024347
#
#
# Mechanical properties :
#
#
# Convention : Reuss Voigt Hill
#
# Bulk Modulus (GPa) = 41.19591 55.83049 48.51320
# Shear Modulus (GPa) = 26.96700 37.22774 32.09737
#
# Velocity S-wave (km/s) = 3.39326 3.98689 3.70199
# Velocity P-wave (km/s) = 5.73950 6.71058 6.24395
#
# Compressibility (1/GPa) = 0.02427425
#
# Stress axis : x y z
#
# Youngs Moduli (GPa) = 112.19978 42.98384 31.42936
#
# Poissons Ratio (x) = 0.20734 0.09870
# Poissons Ratio (y) = 0.54122 0.37389
# Poissons Ratio (z) = 0.35234 0.51134
#
# Static dielectric constant tensor:
#      x y z
#    x 2.019280 0.000000 -0.038690 
#    y 0.000000 1.860740 0.000000 
#    z -0.038690 0.000000 2.041520 
# 
# From -- ./inp_files/41996.got.cif
#   From: 2010.05.17/outbox.cif.g08.bks.cpg/sg5_21_cif.got.tgz:41996.got - 2010.06.03 18:56:24.
