data_PCOD9122645
_publ_section_title
;
Structure prediction by ZEFSAII (Michael W. Deem and Ramdas Pophale) SiO2 
 PCOD9122645
Probable space group: C 2
;
_chemical_formula_sum "Si O2"
_cell_formula_units_Z 20
_cell_length_a 11.791105
_cell_length_b 9.957314
_cell_length_c 10.995577
_cell_angle_alpha 90.000000
_cell_angle_beta 36.842878
_cell_angle_gamma 90.000000
_cell_volume 774.092351
_symmetry_space_group_name_H-M "C 2"
_symmetry_group_IT_number 5
_symmetry_cell_setting 'monoclinic'
loop_
_space_group_symop_operation_xyz
x,y,z
-x,y,-z
1/2+x,1/2+y,z
1/2-x,1/2+y,-z
loop_
_atom_site_type_symbol
_atom_site_label
_atom_site_fract_x
_atom_site_fract_y
_atom_site_fract_z
Si Si1 0.129389 0.420170 0.509709
Si Si2 0.296176 0.800995 0.930582
Si Si3 0.768466 0.176597 0.704583
Si Si4 0.926360 0.120275 0.184348
Si Si5 0.207742 0.879216 0.268214
O O1 0.253570 0.284059 0.384763
O O2 0.276926 0.538922 0.390963
O O3 0.000000 0.444813 0.500000
O O4 0.971786 0.397707 0.745601
O O5 0.206026 0.754706 0.881006
O O6 0.394125 0.664081 0.893170
O O7 0.194298 0.862950 0.133811
O O8 0.000000 0.165244 0.500000
O O9 0.706606 0.022975 0.765156
O O10 0.827416 0.254810 0.217433
O O11 0.000000 0.044667 0.000000
O O12 0.000000 0.867878 0.500000
#
# Coordination Sequence:
#
# PCOD9122645 Si02
#       5
#     4   4   4   4   4
#     4   9  19  38  57  76 107 145 180 219 265 320
#     4   9  20  35  56  82 110 138 178 226 266 311
#     4   8  18  36  55  75 104 141 180 218 260 317
#     4  10  21  36  53  80 113 141 176 224 267 312
#     4  10  20  35  57  81 108 143 180 219 266 320
#
# _framework density 25.836713
#
# number of rings (size 3 to 8) (size 9 to 14) (size 15 to 20)
#    0.000    3.200    0.000    0.600    0.000   12.800 
#    0.000    5.000    0.000    0.000    0.000    0.000 
#    0.000    0.000    0.000    0.000    0.000    0.000 
#
# Total GULP energy -55919.890470 kJ/mol
# GULP energy per Si atom -5591.989047 kJ/mol
# Density = 2.577791 g / cm^3
# Si number density = 25.836713 Si / 1000 Ang^3
#
#
#
# Elastic Constant Matrix: (Units=GPa)
#
#
# Indices 1 2 3 4 5 6 
#
# 1 56.2482 14.6889 32.1868 -0.0001 9.7130 0.0000
# 2 14.6889 153.2814 45.0793 0.0000 -2.7852 0.0000
# 3 32.1868 45.0793 186.5925 -0.0001 31.8784 0.0001
# 4 -0.0001 0.0000 -0.0001 29.1574 0.0001 -15.0232
# 5 9.7130 -2.7852 31.8784 0.0001 28.6697 -0.0001
# 6 0.0000 0.0000 0.0001 -15.0232 -0.0001 12.3843
#
#
#
# Elastic Compliance Matrix: (Units=1/GPa)
#
#
# Indices 1 2 3 4 5 6 
#
# 1 0.020257 -0.001297 -0.002453 0.000000 -0.004261 0.000000
# 2 -0.001297 0.007348 -0.002158 0.000000 0.003553 0.000000
# 3 -0.002453 -0.002158 0.007651 0.000000 -0.007886 0.000000
# 4 0.000000 0.000000 0.000000 0.091466 0.000000 0.110956
# 5 -0.004261 0.003553 -0.007886 0.000000 0.045438 0.000000
# 6 0.000000 0.000000 0.000000 0.110956 0.000000 0.215345
#
#
# Mechanical properties :
#
#
# Convention : Reuss Voigt Hill
#
# Bulk Modulus (GPa) = 42.66505 64.44803 53.55654
# Shear Modulus (GPa) = 12.28098 34.32009 23.30054
#
# Velocity S-wave (km/s) = 2.18257 3.64860 3.00632
# Velocity P-wave (km/s) = 4.78547 6.53821 5.72926
#
# Compressibility (1/GPa) = 0.02343839
#
# Stress axis : x y z
#
# Youngs Moduli (GPa) = 49.36685 136.09870 130.69971
#
# Poissons Ratio (x) = 0.17656 0.32057
# Poissons Ratio (y) = 0.06404 0.28210
# Poissons Ratio (z) = 0.12108 0.29376
#
# Static dielectric constant tensor:
#      x y z
#    x 2.100120 0.000000 0.030640 
#    y 0.000000 2.086910 0.000000 
#    z 0.030640 0.000000 2.048790 
# 
# From -- ./inp_files/23036.got.cif
#   From: 2010.05.17/outbox.cif.g08.bks.cpg/sg5_12_cif.got.tgz:23036.got - 2010.06.03 18:56:24.
