data_PCOD9122594
_publ_section_title
;
Structure prediction by ZEFSAII (Michael W. Deem and Ramdas Pophale) SiO2 
 PCOD9122594
Probable space group: C 2
;
_chemical_formula_sum "Si O2"
_cell_formula_units_Z 32
_cell_length_a 19.159584
_cell_length_b 16.408638
_cell_length_c 8.081916
_cell_angle_alpha 90.000000
_cell_angle_beta 28.691106
_cell_angle_gamma 90.000000
_cell_volume 1219.812806
_symmetry_space_group_name_H-M "C 2"
_symmetry_group_IT_number 5
_symmetry_cell_setting 'monoclinic'
loop_
_space_group_symop_operation_xyz
x,y,z
-x,y,-z
1/2+x,1/2+y,z
1/2-x,1/2+y,-z
loop_
_atom_site_type_symbol
_atom_site_label
_atom_site_fract_x
_atom_site_fract_y
_atom_site_fract_z
Si Si1 0.697109 0.627860 0.773783
Si Si2 0.492533 0.485903 0.312398
Si Si3 0.862099 0.821971 0.104638
Si Si4 0.659368 0.852803 0.234212
Si Si5 0.822476 0.183143 0.858594
Si Si6 0.634457 0.813937 0.842518
Si Si7 0.648552 0.142001 0.898128
Si Si8 0.662691 0.978208 0.984535
O O1 0.625743 0.719045 0.917683
O O2 0.794809 0.625045 0.406379
O O3 0.588400 0.551905 0.014749
O O4 0.756172 0.629676 0.839121
O O5 0.500000 0.492111 0.500000
O O6 0.328168 0.496315 0.595631
O O7 0.539434 0.395354 0.160820
O O8 0.715580 0.838709 0.300047
O O9 0.793777 0.823205 0.428764
O O10 0.925799 0.731109 0.948344
O O11 0.500000 0.832143 0.500000
O O12 0.738889 0.775473 0.985037
O O13 0.675073 0.945685 0.146985
O O14 0.774463 0.159173 0.773892
O O15 0.000000 0.172249 0.500000
O O16 0.617402 0.894944 0.988774
O O17 0.500000 0.819615 0.000000
O O18 0.576490 0.058639 0.113495
#
# Coordination Sequence:
#
# PCOD9122594 Si02
#       8
#     4   4   4   4   4   4   4   4
#     4  11  23  39  66 102 135 176 227 302 347 393
#     4  12  25  42  71 110 146 183 236 292 361 434
#     4  10  23  43  63  97 143 182 223 294 352 417
#     4  10  20  38  64  91 129 178 231 280 335 409
#     4  10  20  34  61  97 126 168 223 282 341 403
#     4  11  25  42  70 101 138 182 240 295 355 414
#     4  10  24  40  65  95 138 181 234 279 348 420
#     4  12  23  42  68 102 134 180 233 290 353 421
#
# _framework density 26.233532
#
# number of rings (size 3 to 8) (size 9 to 14) (size 15 to 20)
#    0.000    1.250    2.500    3.375    8.750    1.500 
#    0.000    0.625   11.000    0.000    0.000    0.000 
#    0.000    0.000    0.000    0.000    0.000    0.000 
#
# Total GULP energy -89214.243857 kJ/mol
# GULP energy per Si atom -5575.890241 kJ/mol
# Density = 2.617382 g / cm^3
# Si number density = 26.233532 Si / 1000 Ang^3
#
#
#
# Elastic Constant Matrix: (Units=GPa)
#
#
# Indices 1 2 3 4 5 6 
#
# 1 63.8625 23.0739 18.8055 0.0000 12.4502 0.0000
# 2 23.0739 256.5687 62.9125 0.0000 21.0962 0.0000
# 3 18.8055 62.9125 66.5018 0.0001 20.9738 0.0000
# 4 0.0000 0.0000 0.0001 42.5831 -0.0001 11.4182
# 5 12.4502 21.0962 20.9738 -0.0001 33.8730 0.0000
# 6 0.0000 0.0000 0.0000 11.4182 0.0000 27.1267
#
#
#
# Elastic Compliance Matrix: (Units=1/GPa)
#
#
# Indices 1 2 3 4 5 6 
#
# 1 0.017587 -0.000445 -0.003232 0.000000 -0.004186 0.000000
# 2 -0.000445 0.005088 -0.004647 0.000000 -0.000128 0.000000
# 3 -0.003232 -0.004647 0.023685 0.000000 -0.010583 0.000000
# 4 0.000000 0.000000 0.000000 0.026471 0.000000 -0.011142
# 5 -0.004186 -0.000128 -0.010583 0.000000 0.037693 0.000000
# 6 0.000000 0.000000 0.000000 -0.011142 0.000000 0.041554
#
#
# Mechanical properties :
#
#
# Convention : Reuss Voigt Hill
#
# Bulk Modulus (GPa) = 33.65672 66.27965 49.96819
# Shear Modulus (GPa) = 27.99073 39.52596 33.75834
#
# Velocity S-wave (km/s) = 3.27001 3.88583 3.59115
# Velocity P-wave (km/s) = 5.20719 6.74188 6.02361
#
# Compressibility (1/GPa) = 0.02971175
#
# Stress axis : x y z
#
# Youngs Moduli (GPa) = 56.85939 196.55820 42.22055
#
# Poissons Ratio (x) = 0.08745 0.13647
# Poissons Ratio (y) = 0.02530 0.19619
# Poissons Ratio (z) = 0.18379 0.91338
#
# Static dielectric constant tensor:
#      x y z
#    x 2.144760 0.000000 0.062430 
#    y 0.000000 2.159960 0.000000 
#    z 0.062430 0.000000 2.152710 
# 
# From -- ./inp_files/31069.got.cif
#   From: 2010.05.17/outbox.cif.g08.bks.cpg/sg5_16_cif.got.tgz:31069.got - 2010.06.03 18:56:24.
