data_PCOD9122088
_publ_section_title
;
Structure prediction by ZEFSAII (Michael W. Deem and Ramdas Pophale) SiO2 
 PCOD9122088
Probable space group: C 2
;
_chemical_formula_sum "Si O2"
_cell_formula_units_Z 26
_cell_length_a 16.666321
_cell_length_b 4.680079
_cell_length_c 12.097990
_cell_angle_alpha 90.000000
_cell_angle_beta 92.239258
_cell_angle_gamma 90.000000
_cell_volume 942.918995
_symmetry_space_group_name_H-M "C 2"
_symmetry_group_IT_number 5
_symmetry_cell_setting 'monoclinic'
loop_
_space_group_symop_operation_xyz
x,y,z
-x,y,-z
1/2+x,1/2+y,z
1/2-x,1/2+y,-z
loop_
_atom_site_type_symbol
_atom_site_label
_atom_site_fract_x
_atom_site_fract_y
_atom_site_fract_z
Si Si1 0.868762 0.923380 0.641983
Si Si2 0.000000 0.636358 0.500000
Si Si3 0.551621 0.201376 0.129871
Si Si4 0.788058 0.463212 0.940072
Si Si5 0.386444 0.120358 0.316780
Si Si6 0.729486 0.926245 0.324962
Si Si7 0.946209 0.160760 0.189277
O O1 0.786574 0.740378 0.631898
O O2 0.933930 0.825933 0.558689
O O3 0.847748 0.252888 0.637217
O O4 0.900845 0.851945 0.766810
O O5 0.051908 0.473905 0.594821
O O6 0.621794 0.091288 0.051590
O O7 0.374006 0.885759 0.218736
O O8 0.479846 0.427942 0.101984
O O9 0.512030 0.910523 0.174530
O O10 0.769294 0.419518 0.809232
O O11 0.776328 0.170385 0.005263
O O12 0.307114 0.253078 0.364391
O O13 0.429270 0.411094 0.277645
#
# Coordination Sequence:
#
# PCOD9122088 Si02
#       7
#     4   2   4   4   4   4   4
#     4  11  23  40  66  96 132 181 219 281 323 398
#     4  12  26  40  70 102 126 186 246 262 312 402
#     4  10  19  38  63  99 124 170 221 266 339 378
#     4  11  22  38  70 103 129 169 227 277 327 419
#     4  11  25  40  65  97 134 184 221 276 321 398
#     4  11  25  45  64  97 142 173 211 280 363 368
#     4  10  19  38  63  90 125 180 215 262 324 399
#
# _framework density 27.573948999999999
#
# number of rings (size 3 to 8) (size 9 to 14) (size 15 to 20)
#    0.000    1.231    3.077    5.538    0.000    3.692 
#    0.000    0.000    0.000   13.846    0.000    0.000 
#    0.000    0.000    0.000    0.000    0.000    0.000 
#
# Total GULP energy -72561.321446 kJ/mol
# GULP energy per Si atom -5581.640111 kJ/mol
# Density = 2.751119 g / cm^3
# Si number density = 27.573949 Si / 1000 Ang^3
#
#
#
# Elastic Constant Matrix: (Units=GPa)
#
#
# Indices 1 2 3 4 5 6 
#
# 1 86.5827 13.7294 23.7955 0.0000 -13.6627 0.0000
# 2 13.7294 156.0101 11.8334 0.0000 -5.6857 0.0000
# 3 23.7955 11.8334 98.5306 0.0000 -18.8244 0.0000
# 4 0.0000 0.0000 0.0000 20.4786 0.0000 -17.7792
# 5 -13.6627 -5.6857 -18.8244 0.0000 47.1182 0.0000
# 6 0.0000 0.0000 0.0000 -17.7792 0.0000 33.4277
#
#
#
# Elastic Compliance Matrix: (Units=1/GPa)
#
#
# Indices 1 2 3 4 5 6 
#
# 1 0.012778 -0.000841 -0.002486 0.000000 0.002611 0.000000
# 2 -0.000841 0.006535 -0.000517 0.000000 0.000338 0.000000
# 3 -0.002486 -0.000517 0.011543 0.000000 0.003828 0.000000
# 4 0.000000 0.000000 0.000000 0.090724 0.000000 0.048253
# 5 0.002611 0.000338 0.003828 0.000000 0.023550 0.000000
# 6 0.000000 0.000000 0.000000 0.048253 0.000000 0.055580
#
#
# Mechanical properties :
#
#
# Convention : Reuss Voigt Hill
#
# Bulk Modulus (GPa) = 43.16281 48.87113 46.01697
# Shear Modulus (GPa) = 23.13502 39.65591 31.39546
#
# Velocity S-wave (km/s) = 2.89972 3.79643 3.37796
# Velocity P-wave (km/s) = 5.18639 6.08106 5.65146
#
# Compressibility (1/GPa) = 0.02316809
#
# Stress axis : x y z
#
# Youngs Moduli (GPa) = 78.25815 153.01305 86.63197
#
# Poissons Ratio (x) = 0.12865 0.21539
# Poissons Ratio (y) = 0.06580 0.04481
# Poissons Ratio (z) = 0.19457 0.07914
#
# Static dielectric constant tensor:
#      x y z
#    x 2.278990 0.000000 0.073160 
#    y 0.000000 2.014840 0.000000 
#    z 0.073160 0.000000 2.205680 
# 
# From -- ./inp_files/53802.got.cif
#   From: 2010.05.17/outbox.cif.g08.bks.cpg/sg5_27_cif.got.tgz:53802.got - 2010.06.03 18:56:24.
