data_PCOD9122652
_publ_section_title
;
Structure prediction by ZEFSAII (Michael W. Deem and Ramdas Pophale) SiO2 
 PCOD9122652
Probable space group: C 2
;
_chemical_formula_sum "Si O2"
_cell_formula_units_Z 28
_cell_length_a 30.719828
_cell_length_b 8.079808
_cell_length_c 9.503563
_cell_angle_alpha 90.000000
_cell_angle_beta 145.096464
_cell_angle_gamma 90.000000
_cell_volume 1349.744189
_symmetry_space_group_name_H-M "C 2"
_symmetry_group_IT_number 5
_symmetry_cell_setting 'monoclinic'
loop_
_space_group_symop_operation_xyz
x,y,z
-x,y,-z
1/2+x,1/2+y,z
1/2-x,1/2+y,-z
loop_
_atom_site_type_symbol
_atom_site_label
_atom_site_fract_x
_atom_site_fract_y
_atom_site_fract_z
Si Si1 0.268244 0.660780 0.467662
Si Si2 0.719140 0.483021 0.210127
Si Si3 0.626705 0.098503 0.468005
Si Si4 0.155136 0.171611 0.807425
Si Si5 0.426850 0.849078 0.891859
Si Si6 0.782937 0.920918 0.260168
Si Si7 0.521669 0.916795 0.402283
O O1 0.261366 0.606857 0.610377
O O2 0.212933 0.804098 0.263638
O O3 0.353255 0.735593 0.678552
O O4 0.258593 0.503839 0.341712
O O5 0.794272 0.494581 0.311103
O O6 0.652273 0.549277 0.934958
O O7 0.650150 0.288482 0.534971
O O8 0.590999 0.024867 0.230465
O O9 0.570948 0.049017 0.445616
O O10 0.075859 0.256632 0.560780
O O11 0.188383 0.066393 0.766041
O O12 0.214232 0.315617 0.010557
O O13 0.500000 0.782033 0.000000
O O14 0.450036 0.873052 0.114402
O O15 0.500000 0.972784 0.500000
#
# Coordination Sequence:
#
# PCOD9122652 Si02
#       7
#     4   4   4   4   4   4   4
#     4  11  21  37  62  90 119 155 200 243 291 344
#     4  10  20  35  57  89 120 150 193 246 291 340
#     4   9  20  38  57  82 113 153 200 240 289 338
#     4  11  21  36  59  90 122 154 194 238 301 350
#     4   9  19  39  61  85 120 161 197 232 284 356
#     4  11  21  38  63  88 118 152 194 252 297 344
#     4  11  22  39  61  84 119 161 195 235 293 364
#
# _framework density 20.744669999999999
#
# number of rings (size 3 to 8) (size 9 to 14) (size 15 to 20)
#    0.000    1.714    0.000    7.714    0.000    1.143 
#    0.000    8.571    0.000    1.714    0.000    0.000 
#    0.000    0.000    0.000    0.000    0.000    0.000 
#
# Total GULP energy -78213.993824 kJ/mol
# GULP energy per Si atom -5586.713845 kJ/mol
# Density = 2.069745 g / cm^3
# Si number density = 20.744670 Si / 1000 Ang^3
#
#
#
# Elastic Constant Matrix: (Units=GPa)
#
#
# Indices 1 2 3 4 5 6 
#
# 1 67.9377 12.8212 22.8064 0.0000 -20.1921 0.0000
# 2 12.8212 80.6348 36.5677 0.0000 -4.4663 0.0000
# 3 22.8064 36.5677 102.1429 0.0000 -20.4048 0.0000
# 4 0.0000 0.0000 0.0000 36.2919 0.0000 -2.2678
# 5 -20.1921 -4.4663 -20.4048 0.0000 32.1295 0.0000
# 6 0.0000 0.0000 0.0000 -2.2678 0.0000 18.7969
#
#
#
# Elastic Compliance Matrix: (Units=1/GPa)
#
#
# Indices 1 2 3 4 5 6 
#
# 1 0.018674 -0.001732 -0.001435 0.000000 0.010583 0.000000
# 2 -0.001732 0.015029 -0.005490 0.000000 -0.002486 0.000000
# 3 -0.001435 -0.005490 0.013450 0.000000 0.006877 0.000000
# 4 0.000000 0.000000 0.000000 0.027764 0.000000 0.003350
# 5 0.010583 -0.002486 0.006877 0.000000 0.041797 0.000000
# 6 0.000000 0.000000 0.000000 0.003350 0.000000 0.053605
#
#
# Mechanical properties :
#
#
# Convention : Reuss Voigt Hill
#
# Bulk Modulus (GPa) = 33.51505 43.90068 38.70786
# Shear Modulus (GPa) = 25.30633 29.34499 27.32566
#
# Velocity S-wave (km/s) = 3.49649 3.76517 3.63331
# Velocity P-wave (km/s) = 5.70014 6.33327 6.02503
#
# Compressibility (1/GPa) = 0.02983735
#
# Stress axis : x y z
#
# Youngs Moduli (GPa) = 53.55173 66.53710 74.34951
#
# Poissons Ratio (x) = 0.11525 0.10670
# Poissons Ratio (y) = 0.09276 0.40821
# Poissons Ratio (z) = 0.07685 0.36532
#
# Static dielectric constant tensor:
#      x y z
#    x 1.765100 0.000000 -0.002440 
#    y 0.000000 1.748040 0.000000 
#    z -0.002440 0.000000 1.762540 
# 
# From -- ./inp_files/31785.got.cif
#   From: 2010.05.17/outbox.cif.g08.bks.cpg/sg5_16_cif.got.tgz:31785.got - 2010.06.03 18:56:24.
