data_PCOD9122221
_publ_section_title
;
Structure prediction by ZEFSAII (Michael W. Deem and Ramdas Pophale) SiO2 
 PCOD9122221
Probable space group: C 2
;
_chemical_formula_sum "Si O2"
_cell_formula_units_Z 20
_cell_length_a 13.442005
_cell_length_b 5.869566
_cell_length_c 20.857799
_cell_angle_alpha 90.000000
_cell_angle_beta 153.444261
_cell_angle_gamma 90.000000
_cell_volume 735.719590
_symmetry_space_group_name_H-M "C 2"
_symmetry_group_IT_number 5
_symmetry_cell_setting 'monoclinic'
loop_
_space_group_symop_operation_xyz
x,y,z
-x,y,-z
1/2+x,1/2+y,z
1/2-x,1/2+y,-z
loop_
_atom_site_type_symbol
_atom_site_label
_atom_site_fract_x
_atom_site_fract_y
_atom_site_fract_z
Si Si1 0.822723 0.021580 0.977172
Si Si2 0.500404 0.105333 0.102892
Si Si3 0.171349 0.704251 0.539345
Si Si4 0.790871 0.738385 0.219245
Si Si5 0.759263 0.712274 0.629099
O O1 0.690059 0.972818 0.966500
O O2 0.713530 0.169359 0.857720
O O3 0.077392 0.108821 0.128076
O O4 0.859690 0.765080 0.975896
O O5 0.615235 0.218229 0.231000
O O6 0.699996 0.988600 0.180780
O O7 0.297404 0.459111 0.616254
O O8 0.000000 0.702071 0.500000
O O9 0.015794 0.697936 0.386984
O O10 0.288391 0.954341 0.614724
O O11 0.500000 0.712482 0.500000
#
# Coordination Sequence:
#
# PCOD9122221 Si02
#       5
#     4   4   4   4   4
#     4  11  26  43  72 103 145 196 238 305 374 428
#     4  12  23  46  72 106 148 190 249 306 364 455
#     4  10  19  39  67 105 132 192 238 297 371 429
#     4  11  24  45  69 106 143 187 252 293 369 443
#     4  10  20  36  72  99 135 191 237 293 376 424
#
# _framework density 27.184270999999999
#
# number of rings (size 3 to 8) (size 9 to 14) (size 15 to 20)
#    0.000    1.200    6.000    2.400    0.000    3.200 
#    0.000    2.000    0.000    0.000    0.000    0.000 
#    0.000    0.000    0.000    0.000    0.000    0.000 
#
# Total GULP energy -55790.437956 kJ/mol
# GULP energy per Si atom -5579.043796 kJ/mol
# Density = 2.712240 g / cm^3
# Si number density = 27.184271 Si / 1000 Ang^3
#
#
#
# Elastic Constant Matrix: (Units=GPa)
#
#
# Indices 1 2 3 4 5 6 
#
# 1 123.6346 45.8479 19.9137 0.0001 -21.4810 -0.0001
# 2 45.8479 199.3383 93.7420 0.0002 -31.2576 0.0014
# 3 19.9137 93.7420 117.4618 0.0047 -24.2961 0.0013
# 4 0.0001 0.0002 0.0047 49.0424 0.0012 -8.6157
# 5 -21.4810 -31.2576 -24.2961 0.0012 36.1001 0.0000
# 6 -0.0001 0.0014 0.0013 -8.6157 0.0000 38.0511
#
#
#
# Elastic Compliance Matrix: (Units=1/GPa)
#
#
# Indices 1 2 3 4 5 6 
#
# 1 0.009432 -0.001833 0.000809 0.000000 0.004570 0.000000
# 2 -0.001833 0.008690 -0.006150 0.000001 0.002295 0.000000
# 3 0.000809 -0.006150 0.014269 -0.000002 0.004760 -0.000001
# 4 0.000000 0.000001 -0.000002 0.021235 -0.000001 0.004808
# 5 0.004570 0.002295 0.004760 -0.000001 0.035610 -0.000001
# 6 0.000000 0.000000 -0.000001 0.004808 -0.000001 0.027369
#
#
# Mechanical properties :
#
#
# Convention : Reuss Voigt Hill
#
# Bulk Modulus (GPa) = 55.42369 84.38242 69.90305
# Shear Modulus (GPa) = 36.50513 43.36747 39.93630
#
# Velocity S-wave (km/s) = 3.66850 3.99847 3.83704
# Velocity P-wave (km/s) = 6.19486 7.24053 6.73801
#
# Compressibility (1/GPa) = 0.01804283
#
# Stress axis : x y z
#
# Youngs Moduli (GPa) = 106.02411 115.07292 70.08341
#
# Poissons Ratio (x) = 0.21097 -0.05672
# Poissons Ratio (y) = 0.19438 0.43100
# Poissons Ratio (z) = -0.08581 0.70768
#
# Static dielectric constant tensor:
#      x y z
#    x 2.239840 0.000000 0.177730 
#    y 0.000000 2.565310 0.000000 
#    z 0.177730 0.000000 2.178620 
# 
# From -- ./inp_files/65755.got.cif
#   From: 2010.05.17/outbox.cif.g08.bks.cpg/sg5_33_cif.got.tgz:65755.got - 2010.06.03 18:56:24.
