data_PCOD9122232
_publ_section_title
;
Structure prediction by ZEFSAII (Michael W. Deem and Ramdas Pophale) SiO2 
 PCOD9122232
Probable space group: C 2
;
_chemical_formula_sum "Si O2"
_cell_formula_units_Z 28
_cell_length_a 29.062762
_cell_length_b 8.491707
_cell_length_c 5.526063
_cell_angle_alpha 90.000000
_cell_angle_beta 60.713081
_cell_angle_gamma 90.000000
_cell_volume 1189.472290
_symmetry_space_group_name_H-M "C 2"
_symmetry_group_IT_number 5
_symmetry_cell_setting 'monoclinic'
loop_
_space_group_symop_operation_xyz
x,y,z
-x,y,-z
1/2+x,1/2+y,z
1/2-x,1/2+y,-z
loop_
_atom_site_type_symbol
_atom_site_label
_atom_site_fract_x
_atom_site_fract_y
_atom_site_fract_z
Si Si1 0.687210 0.833220 0.755464
Si Si2 0.359036 0.157730 0.163373
Si Si3 0.195136 0.901568 0.000578
Si Si4 0.484276 0.661052 0.290619
Si Si5 0.525945 0.018473 0.183576
Si Si6 0.721268 0.164037 0.293866
Si Si7 0.858353 0.186063 0.625985
O O1 0.747629 0.778883 0.605508
O O2 0.661397 0.769081 0.572121
O O3 0.681592 0.019069 0.806669
O O4 0.659824 0.763133 0.070089
O O5 0.340756 0.160729 0.489964
O O6 0.347483 0.325343 0.071701
O O7 0.414898 0.080826 0.973640
O O8 0.224552 0.752033 0.034582
O O9 0.164737 0.009362 0.278503
O O10 0.243086 0.011202 0.792779
O O11 0.500000 0.578225 0.500000
O O12 0.421811 0.691276 0.453039
O O13 0.517186 0.827612 0.205858
O O14 0.500000 0.578529 0.000000
O O15 0.500000 0.073714 0.500000
O O16 0.500000 0.073757 0.000000
#
# Coordination Sequence:
#
# PCOD9122232 Si02
#       7
#     4   4   4   4   4   4   4
#     4  11  25  42  73 105 146 193 245 309 373 456
#     4  12  26  43  76 107 150 198 256 314 382 450
#     4  11  28  46  72 108 153 201 251 313 382 466
#     4  10  19  39  69 101 136 177 244 305 364 433
#     4  10  22  41  69 104 139 181 249 311 365 434
#     4  11  27  45  71 105 151 199 251 307 384 455
#     4  11  25  46  73 107 147 193 249 311 380 442
#
# _framework density 23.539850999999999
#
# number of rings (size 3 to 8) (size 9 to 14) (size 15 to 20)
#    0.000    1.143    0.000    6.000   18.000    0.000 
#    0.000    0.714    0.000    0.000    0.000    0.000 
#    0.000    0.000    0.000    0.000    0.000    0.000 
#
# Total GULP energy -78143.350877 kJ/mol
# GULP energy per Si atom -5581.667920 kJ/mol
# Density = 2.348627 g / cm^3
# Si number density = 23.539851 Si / 1000 Ang^3
#
#
#
# Elastic Constant Matrix: (Units=GPa)
#
#
# Indices 1 2 3 4 5 6 
#
# 1 80.5352 17.2314 43.8402 0.0000 4.7380 0.0000
# 2 17.2314 93.2208 35.0155 0.0000 1.1411 0.0000
# 3 43.8402 35.0155 154.4600 0.0000 5.6466 0.0000
# 4 0.0000 0.0000 0.0000 27.3284 0.0000 -1.4997
# 5 4.7380 1.1411 5.6466 0.0000 53.7921 0.0000
# 6 0.0000 0.0000 0.0000 -1.4997 0.0000 30.7743
#
#
#
# Elastic Compliance Matrix: (Units=1/GPa)
#
#
# Indices 1 2 3 4 5 6 
#
# 1 0.014862 -0.001272 -0.003898 0.000000 -0.000873 0.000000
# 2 -0.001272 0.011835 -0.002326 0.000000 0.000105 0.000000
# 3 -0.003898 -0.002326 0.008125 0.000000 -0.000460 0.000000
# 4 0.000000 0.000000 0.000000 0.036690 0.000000 0.001788
# 5 -0.000873 0.000105 -0.000460 0.000000 0.018713 0.000000
# 6 0.000000 0.000000 0.000000 0.001788 0.000000 0.032582
#
#
# Mechanical properties :
#
#
# Convention : Reuss Voigt Hill
#
# Bulk Modulus (GPa) = 50.42944 57.82112 54.12528
# Shear Modulus (GPa) = 34.62400 37.85423 36.23911
#
# Velocity S-wave (km/s) = 3.83935 4.01445 3.92788
# Velocity P-wave (km/s) = 6.41277 6.79000 6.60408
#
# Compressibility (1/GPa) = 0.01982969
#
# Stress axis : x y z
#
# Youngs Moduli (GPa) = 67.28358 84.49763 123.08349
#
# Poissons Ratio (x) = 0.10751 0.47978
# Poissons Ratio (y) = 0.08561 0.28624
# Poissons Ratio (z) = 0.26227 0.19651
#
# Static dielectric constant tensor:
#      x y z
#    x 1.904340 0.000000 0.052850 
#    y 0.000000 1.966810 0.000000 
#    z 0.052850 0.000000 2.074840 
# 
# From -- ./inp_files/11202.got.cif
#   From: 2010.05.17/outbox.cif.g08.bks.cpg/sg5_6_cif.got.tgz:11202.got - 2010.06.03 18:56:24.
