data_PCOD9122877
_publ_section_title
;
Structure prediction by ZEFSAII (Michael W. Deem and Ramdas Pophale) SiO2 
 PCOD9122877
Probable space group: C 2
;
_chemical_formula_sum "Si O2"
_cell_formula_units_Z 28
_cell_length_a 12.884134
_cell_length_b 21.497801
_cell_length_c 10.116011
_cell_angle_alpha 90.000000
_cell_angle_beta 30.142013
_cell_angle_gamma 90.000000
_cell_volume 1406.979262
_symmetry_space_group_name_H-M "C 2"
_symmetry_group_IT_number 5
_symmetry_cell_setting 'monoclinic'
loop_
_space_group_symop_operation_xyz
x,y,z
-x,y,-z
1/2+x,1/2+y,z
1/2-x,1/2+y,-z
loop_
_atom_site_type_symbol
_atom_site_label
_atom_site_fract_x
_atom_site_fract_y
_atom_site_fract_z
Si Si1 0.441686 0.493210 0.418640
Si Si2 0.845278 0.594666 0.364906
Si Si3 0.370928 0.774682 0.513277
Si Si4 0.717585 0.066142 0.110939
Si Si5 0.520785 0.682877 0.128923
Si Si6 0.500000 0.973424 0.500000
Si Si7 0.820950 0.902829 0.311458
Si Si8 0.000000 0.686669 0.000000
O O1 0.500000 0.469511 0.500000
O O2 0.251976 0.542540 0.622862
O O3 0.396424 0.440924 0.357485
O O4 0.630448 0.536888 0.163463
O O5 0.667522 0.636369 0.625826
O O6 0.983034 0.563426 0.322490
O O7 0.004370 0.640690 0.118488
O O8 0.500000 0.795352 0.500000
O O9 0.504869 0.737894 0.254787
O O10 0.239375 0.830929 0.596111
O O11 0.204060 0.726509 0.756398
O O12 0.701690 0.015025 0.242142
O O13 0.786056 0.135373 0.073639
O O14 0.500000 0.704366 0.000000
O O15 0.602019 0.930694 0.500837
O O16 0.000000 0.903876 0.000000
#
# Coordination Sequence:
#
# PCOD9122877 Si02
#       8
#     4   4   4   4   4   2   4   2
#     4  11  24  39  61  97 133 164 205 268 329 376
#     4  10  20  36  61  93 130 165 202 254 328 384
#     4  11  23  42  67  89 121 173 225 260 308 374
#     4  11  21  36  65  94 131 164 201 260 320 386
#     4  10  23  39  61  96 133 163 207 268 319 373
#     4  12  22  38  68  98 120 168 216 256 316 384
#     4  12  24  44  66  91 126 171 225 263 305 382
#     4  10  20  36  62  88 122 162 214 264 300 370
#
# _framework density 19.900791999999999
#
# number of rings (size 3 to 8) (size 9 to 14) (size 15 to 20)
#    0.000    1.143    4.286    2.571    2.000    4.000 
#    0.000    2.857    0.000    0.000    0.000    0.000 
#    0.000    0.000    0.000    0.000    0.000    0.000 
#
# Total GULP energy -78016.787437 kJ/mol
# GULP energy per Si atom -5572.627674 kJ/mol
# Density = 1.985550 g / cm^3
# Si number density = 19.900792 Si / 1000 Ang^3
#
#
#
# Elastic Constant Matrix: (Units=GPa)
#
#
# Indices 1 2 3 4 5 6 
#
# 1 105.4407 34.6355 22.2360 -0.0031 18.2125 -0.0001
# 2 34.6355 99.9719 29.2554 -0.0017 11.6961 0.0000
# 3 22.2360 29.2554 55.1519 -0.0056 12.3816 0.0020
# 4 -0.0031 -0.0017 -0.0056 28.4012 0.0048 -5.1803
# 5 18.2125 11.6961 12.3816 0.0048 28.3806 -0.0013
# 6 -0.0001 0.0000 0.0020 -5.1803 -0.0013 28.0075
#
#
#
# Elastic Compliance Matrix: (Units=1/GPa)
#
#
# Indices 1 2 3 4 5 6 
#
# 1 0.011798 -0.002856 -0.002003 0.000002 -0.005521 0.000000
# 2 -0.002856 0.012678 -0.005335 0.000000 -0.001065 0.000000
# 3 -0.002003 -0.005335 0.023266 0.000005 -0.006667 -0.000001
# 4 0.000002 0.000000 0.000005 0.036439 -0.000009 0.006740
# 5 -0.005521 -0.001065 -0.006667 -0.000009 0.042125 0.000001
# 6 0.000000 0.000000 -0.000001 0.006740 0.000001 0.036951
#
#
# Mechanical properties :
#
#
# Convention : Reuss Voigt Hill
#
# Bulk Modulus (GPa) = 36.55529 48.09095 42.32312
# Shear Modulus (GPa) = 25.93888 28.58703 27.26295
#
# Velocity S-wave (km/s) = 3.61419 3.79420 3.70529
# Velocity P-wave (km/s) = 5.98541 6.58881 6.29435
#
# Compressibility (1/GPa) = 0.02735582
#
# Stress axis : x y z
#
# Youngs Moduli (GPa) = 84.76127 78.87807 42.98209
#
# Poissons Ratio (x) = 0.22524 0.08607
# Poissons Ratio (y) = 0.24204 0.22929
# Poissons Ratio (z) = 0.16974 0.42078
#
# Static dielectric constant tensor:
#      x y z
#    x 1.779000 0.000000 0.033620 
#    y 0.000000 1.689280 0.000000 
#    z 0.033620 0.000000 1.731550 
# 
# From -- ./inp_files/21909.got.cif
#   From: 2010.05.17/outbox.cif.g08.bks.cpg/sg5_11_cif.got.tgz:21909.got - 2010.06.03 18:56:24.
