data_PCOD9122764
_publ_section_title
;
Structure prediction by ZEFSAII (Michael W. Deem and Ramdas Pophale) SiO2 
 PCOD9122764
Probable space group: C 2
;
_chemical_formula_sum "Si O2"
_cell_formula_units_Z 32
_cell_length_a 10.814823
_cell_length_b 26.343321
_cell_length_c 5.452956
_cell_angle_alpha 90.000000
_cell_angle_beta 80.921585
_cell_angle_gamma 90.000000
_cell_volume 1534.077511
_symmetry_space_group_name_H-M "C 2"
_symmetry_group_IT_number 5
_symmetry_cell_setting 'monoclinic'
loop_
_space_group_symop_operation_xyz
x,y,z
-x,y,-z
1/2+x,1/2+y,z
1/2-x,1/2+y,-z
loop_
_atom_site_type_symbol
_atom_site_label
_atom_site_fract_x
_atom_site_fract_y
_atom_site_fract_z
Si Si1 0.638860 0.280330 0.186680
Si Si2 0.773357 0.624684 0.350873
Si Si3 0.605450 0.028627 0.775396
Si Si4 0.360727 0.596303 0.124428
Si Si5 0.870254 0.427323 0.499415
Si Si6 0.121457 0.896014 0.287524
Si Si7 0.304469 0.484742 0.060434
Si Si8 0.354520 0.238778 0.311763
O O1 0.623003 0.340538 0.168221
O O2 0.499927 0.255725 0.248582
O O3 0.698950 0.265466 0.428040
O O4 0.703359 0.258223 0.925230
O O5 0.865544 0.577839 0.391494
O O6 0.675855 0.622338 0.606837
O O7 0.840497 0.678690 0.332921
O O8 0.723261 0.614127 0.086794
O O9 0.574499 0.975045 0.668480
O O10 0.500000 0.042970 0.000000
O O11 0.733972 0.013318 0.864162
O O12 0.358980 0.534500 0.177379
O O13 0.500000 0.609000 0.000000
O O14 0.755063 0.401855 0.387568
O O15 0.796547 0.453629 0.748309
O O16 0.000000 0.396279 0.500000
O O17 0.000000 0.898978 0.500000
O O18 0.114605 0.941905 0.097164
#
# Coordination Sequence:
#
# PCOD9122764 Si02
#       8
#     4   4   4   4   4   4   4   4
#     4  10  22  42  63  99 134 162 218 302 341 409
#     4  11  23  40  65 100 127 183 219 280 357 410
#     4  10  20  36  56  89 135 171 220 271 330 413
#     4  11  24  42  63  96 139 177 234 281 332 423
#     4  11  22  40  62  92 133 186 228 280 338 422
#     4  11  25  40  65  99 134 184 231 291 359 404
#     4  10  23  37  61  93 135 181 226 273 338 416
#     4  10  21  40  65  93 132 159 220 275 360 401
#
# _framework density 20.859438999999998
#
# number of rings (size 3 to 8) (size 9 to 14) (size 15 to 20)
#    0.000    1.500    3.750    1.125    5.250    0.000 
#    4.500    0.000    0.000    3.000    0.000    0.000 
#    0.000    0.000    0.000    0.000    0.000    0.000 
#
# Total GULP energy -89129.992915 kJ/mol
# GULP energy per Si atom -5570.624557 kJ/mol
# Density = 2.081196 g / cm^3
# Si number density = 20.859439 Si / 1000 Ang^3
#
#
#
# Elastic Constant Matrix: (Units=GPa)
#
#
# Indices 1 2 3 4 5 6 
#
# 1 78.5813 25.5544 6.7793 0.0000 -2.2826 0.0000
# 2 25.5544 134.9938 27.0144 0.0000 -2.7650 0.0000
# 3 6.7793 27.0144 109.1960 0.0000 0.5337 0.0000
# 4 0.0000 0.0000 0.0000 27.4244 0.0000 -8.3868
# 5 -2.2826 -2.7650 0.5337 0.0000 26.5589 0.0000
# 6 0.0000 0.0000 0.0000 -8.3868 0.0000 18.1187
#
#
#
# Elastic Compliance Matrix: (Units=1/GPa)
#
#
# Indices 1 2 3 4 5 6 
#
# 1 0.013587 -0.002508 -0.000228 0.000000 0.000911 0.000000
# 2 -0.002508 0.008276 -0.001895 0.000000 0.000684 0.000000
# 3 -0.000228 -0.001895 0.009643 0.000000 -0.000411 0.000000
# 4 0.000000 0.000000 0.000000 0.042477 0.000000 0.019662
# 5 0.000911 0.000684 -0.000411 0.000000 0.037810 0.000000
# 6 0.000000 0.000000 0.000000 0.019662 0.000000 0.064293
#
#
# Mechanical properties :
#
#
# Convention : Reuss Voigt Hill
#
# Bulk Modulus (GPa) = 44.95408 49.05193 47.00300
# Shear Modulus (GPa) = 25.93883 31.98192 28.96038
#
# Velocity S-wave (km/s) = 3.53016 3.91987 3.73011
# Velocity P-wave (km/s) = 6.18173 6.63730 6.41356
#
# Compressibility (1/GPa) = 0.02224492
#
# Stress axis : x y z
#
# Youngs Moduli (GPa) = 73.59794 120.83536 103.70435
#
# Poissons Ratio (x) = 0.30304 0.02360
# Poissons Ratio (y) = 0.18457 0.19652
# Poissons Ratio (z) = 0.01675 0.22898
#
# Static dielectric constant tensor:
#      x y z
#    x 1.793370 0.000000 0.091080 
#    y 0.000000 1.735870 0.000000 
#    z 0.091080 0.000000 1.888560 
# 
# From -- ./inp_files/6017.got.cif
#   From: 2010.05.17/outbox.cif.g08.bks.cpg/sg5_4_cif.got.tgz:6017.got - 2010.06.03 18:56:24.
