data_PCOD9122995
_publ_section_title
;
Structure prediction by ZEFSAII (Michael W. Deem and Ramdas Pophale) SiO2 
 PCOD9122995
Probable space group: C 2
;
_chemical_formula_sum "Si O2"
_cell_formula_units_Z 26
_cell_length_a 12.814266
_cell_length_b 13.113442
_cell_length_c 7.876892
_cell_angle_alpha 90.000000
_cell_angle_beta 89.451466
_cell_angle_gamma 90.000000
_cell_volume 1323.565451
_symmetry_space_group_name_H-M "C 2"
_symmetry_group_IT_number 5
_symmetry_cell_setting 'monoclinic'
loop_
_space_group_symop_operation_xyz
x,y,z
-x,y,-z
1/2+x,1/2+y,z
1/2-x,1/2+y,-z
loop_
_atom_site_type_symbol
_atom_site_label
_atom_site_fract_x
_atom_site_fract_y
_atom_site_fract_z
Si Si1 0.325415 0.876130 0.359469
Si Si2 0.156191 0.638862 0.912893
Si Si3 0.066556 0.687330 0.258954
Si Si4 0.232417 0.295620 0.298492
Si Si5 0.500000 0.019092 0.500000
Si Si6 0.875406 0.404802 0.007684
Si Si7 0.609720 0.389812 0.477555
O O1 0.320807 0.794879 0.514493
O O2 0.338120 0.837781 0.168679
O O3 0.213680 0.933468 0.386371
O O4 0.423340 0.949018 0.392543
O O5 0.243634 0.690113 0.794901
O O6 0.162714 0.518664 0.946002
O O7 0.047442 0.666945 0.820239
O O8 0.145505 0.685970 0.100929
O O9 0.080751 0.789882 0.365684
O O10 0.074000 0.592081 0.386888
O O11 0.342294 0.351020 0.344361
O O12 0.168785 0.364956 0.168770
O O13 0.000000 0.407213 0.000000
O O14 0.500000 0.447150 0.500000
#
# Coordination Sequence:
#
# PCOD9122995 Si02
#       7
#     4   4   4   4   2   4   4
#     4  10  22  33  58  89 130 169 198 266 315 377
#     4  11  20  34  61  94 127 162 211 275 322 370
#     4  11  18  32  61  93 122 156 210 274 320 362
#     4  10  23  38  55  95 132 166 208 258 329 380
#     4  12  18  36  58  96 124 158 216 266 324 380
#     4  12  22  41  63 101 129 161 218 267 328 381
#     4  10  20  37  56  90 125 167 203 254 315 381
#
# _framework density 19.643909000000001
#
# number of rings (size 3 to 8) (size 9 to 14) (size 15 to 20)
#    0.923    0.308    5.385    2.769    0.000    0.000 
#    0.000    0.000    0.000    1.846    8.000    0.000 
#    0.000    0.000    0.000    0.000    0.000    0.000 
#
# Total GULP energy -72396.403290 kJ/mol
# GULP energy per Si atom -5568.954099 kJ/mol
# Density = 1.959920 g / cm^3
# Si number density = 19.643909 Si / 1000 Ang^3
#
#
#
# Elastic Constant Matrix: (Units=GPa)
#
#
# Indices 1 2 3 4 5 6 
#
# 1 71.4878 22.0404 17.7905 0.0000 2.8238 0.0000
# 2 22.0404 43.7925 22.0520 0.0000 -0.4160 0.0000
# 3 17.7905 22.0520 117.9111 0.0000 -11.4930 0.0000
# 4 0.0000 0.0000 0.0000 12.4898 0.0000 -1.4190
# 5 2.8238 -0.4160 -11.4930 0.0000 38.5681 0.0000
# 6 0.0000 0.0000 0.0000 -1.4190 0.0000 18.9514
#
#
#
# Elastic Compliance Matrix: (Units=1/GPa)
#
#
# Indices 1 2 3 4 5 6 
#
# 1 0.016778 -0.007842 -0.001229 0.000000 -0.001679 0.000000
# 2 -0.007842 0.028925 -0.004264 0.000000 -0.000384 0.000000
# 3 -0.001229 -0.004264 0.009751 0.000000 0.002950 0.000000
# 4 0.000000 0.000000 0.000000 0.080752 0.000000 0.006046
# 5 -0.001679 -0.000384 0.002950 0.000000 0.026926 0.000000
# 6 0.000000 0.000000 0.000000 0.006046 0.000000 0.053219
#
#
# Mechanical properties :
#
#
# Convention : Reuss Voigt Hill
#
# Bulk Modulus (GPa) = 34.73887 39.66191 37.20039
# Shear Modulus (GPa) = 19.79294 25.42244 22.60769
#
# Velocity S-wave (km/s) = 3.17769 3.60135 3.39614
# Velocity P-wave (km/s) = 5.58447 6.12595 5.86147
#
# Compressibility (1/GPa) = 0.02878620
#
# Stress axis : x y z
#
# Youngs Moduli (GPa) = 59.60149 34.57208 102.55021
#
# Poissons Ratio (x) = 0.27110 0.12599
# Poissons Ratio (y) = 0.46737 0.43727
# Poissons Ratio (z) = 0.07323 0.14741
#
# Static dielectric constant tensor:
#      x y z
#    x 1.729190 0.000000 -0.027050 
#    y 0.000000 1.690390 0.000000 
#    z -0.027050 0.000000 1.766600 
# 
# From -- ./inp_files/23397.got.cif
#   From: 2010.05.17/outbox.cif.g08.bks.cpg/sg5_12_cif.got.tgz:23397.got - 2010.06.03 18:56:24.
