data_PCOD9122517
_publ_section_title
;
Structure prediction by ZEFSAII (Michael W. Deem and Ramdas Pophale) SiO2 
 PCOD9122517
Probable space group: C 2
;
_chemical_formula_sum "Si O2"
_cell_formula_units_Z 30
_cell_length_a 15.805056
_cell_length_b 14.636717
_cell_length_c 9.311989
_cell_angle_alpha 90.000000
_cell_angle_beta 36.753955
_cell_angle_gamma 90.000000
_cell_volume 1289.018563
_symmetry_space_group_name_H-M "C 2"
_symmetry_group_IT_number 5
_symmetry_cell_setting 'monoclinic'
loop_
_space_group_symop_operation_xyz
x,y,z
-x,y,-z
1/2+x,1/2+y,z
1/2-x,1/2+y,-z
loop_
_atom_site_type_symbol
_atom_site_label
_atom_site_fract_x
_atom_site_fract_y
_atom_site_fract_z
Si Si1 0.726205 0.623530 0.964892
Si Si2 0.532830 0.385403 0.795808
Si Si3 0.803770 0.282002 0.455287
Si Si4 0.246444 0.791068 0.876201
Si Si5 0.082055 0.094818 0.676077
Si Si6 0.564019 0.898861 0.167632
Si Si7 0.342655 0.483725 0.704767
Si Si8 0.500000 0.042389 0.500000
O O1 0.777413 0.695446 0.013193
O O2 0.572546 0.643162 0.108566
O O3 0.686364 0.532630 0.105824
O O4 0.856997 0.600925 0.686741
O O5 0.670298 0.329735 0.561651
O O6 0.568430 0.492980 0.758887
O O7 0.500000 0.352717 0.000000
O O8 0.389220 0.355567 0.914711
O O9 0.781289 0.283328 0.660675
O O10 0.820739 0.175188 0.394317
O O11 0.940787 0.346263 0.252111
O O12 0.373895 0.833750 0.792699
O O13 0.135083 0.063867 0.444619
O O14 0.506864 0.982993 0.343318
O O15 0.698308 0.926736 0.885693
O O16 0.500000 0.439426 0.500000
#
# Coordination Sequence:
#
# PCOD9122517 Si02
#       8
#     4   4   4   4   4   4   4   2
#     4  10  20  34  64  99 120 160 203 266 310 366
#     4  10  25  43  63  89 127 173 208 256 317 378
#     4  11  22  40  64  93 120 170 216 254 305 384
#     4  11  19  40  62  92 127 160 215 256 304 375
#     4  11  21  43  65  88 126 167 214 255 318 378
#     4  11  20  36  64  94 125 161 210 263 305 369
#     4   9  19  34  60  93 124 159 203 258 322 361
#     4  10  20  34  54  96 130 152 200 262 316 346
#
# _framework density 23.273520000000001
#
# number of rings (size 3 to 8) (size 9 to 14) (size 15 to 20)
#    0.000    1.600    4.000    2.400    1.867    0.000 
#    8.400    2.000    0.000    0.000    0.000    0.000 
#    0.000    0.000    0.000    0.000    0.000    0.000 
#
# Total GULP energy -83669.864622 kJ/mol
# GULP energy per Si atom -5577.990975 kJ/mol
# Density = 2.322055 g / cm^3
# Si number density = 23.273520 Si / 1000 Ang^3
#
#
#
# Elastic Constant Matrix: (Units=GPa)
#
#
# Indices 1 2 3 4 5 6 
#
# 1 20.8535 8.1397 22.0512 0.0000 -3.9468 0.0000
# 2 8.1397 98.9169 55.9090 0.0000 -13.8393 0.0000
# 3 22.0512 55.9090 160.1752 0.0000 -8.1502 0.0000
# 4 0.0000 0.0000 0.0000 26.4690 0.0000 -6.2913
# 5 -3.9468 -13.8393 -8.1502 0.0000 30.1853 0.0000
# 6 0.0000 0.0000 0.0000 -6.2913 0.0000 22.1135
#
#
#
# Elastic Compliance Matrix: (Units=1/GPa)
#
#
# Indices 1 2 3 4 5 6 
#
# 1 0.056997 0.000454 -0.007722 0.000000 0.005576 0.000000
# 2 0.000454 0.013277 -0.004445 0.000000 0.004946 0.000000
# 3 -0.007722 -0.004445 0.008824 0.000000 -0.000665 0.000000
# 4 0.000000 0.000000 0.000000 0.040520 0.000000 0.011528
# 5 0.005576 0.004946 -0.000665 0.000000 0.035946 0.000000
# 6 0.000000 0.000000 0.000000 0.011528 0.000000 0.048501
#
#
# Mechanical properties :
#
#
# Convention : Reuss Voigt Hill
#
# Bulk Modulus (GPa) = 17.96222 50.23837 34.10029
# Shear Modulus (GPa) = 20.32141 28.67660 24.49901
#
# Velocity S-wave (km/s) = 2.95813 3.51402 3.24799
# Velocity P-wave (km/s) = 4.40477 6.17230 5.36187
#
# Compressibility (1/GPa) = 0.05567241
#
# Stress axis : x y z
#
# Youngs Moduli (GPa) = 17.54492 75.32097 113.32908
#
# Poissons Ratio (x) = -0.03422 0.87507
# Poissons Ratio (y) = -0.00797 0.50375
# Poissons Ratio (z) = 0.13547 0.33480
#
# Static dielectric constant tensor:
#      x y z
#    x 1.957590 0.000000 -0.007870 
#    y 0.000000 1.894040 0.000000 
#    z -0.007870 0.000000 1.936970 
# 
# From -- ./inp_files/44887.got.cif
#   From: 2010.05.17/outbox.cif.g08.bks.cpg/sg5_23_cif.got.tgz:44887.got - 2010.06.03 18:56:24.
