data_PCOD9122186
_publ_section_title
;
Structure prediction by ZEFSAII (Michael W. Deem and Ramdas Pophale) SiO2 
 PCOD9122186
Probable space group: C 2
;
_chemical_formula_sum "Si O2"
_cell_formula_units_Z 30
_cell_length_a 27.071479
_cell_length_b 7.625865
_cell_length_c 9.210258
_cell_angle_alpha 90.000000
_cell_angle_beta 128.209080
_cell_angle_gamma 90.000000
_cell_volume 1494.039879
_symmetry_space_group_name_H-M "C 2"
_symmetry_group_IT_number 5
_symmetry_cell_setting 'monoclinic'
loop_
_space_group_symop_operation_xyz
x,y,z
-x,y,-z
1/2+x,1/2+y,z
1/2-x,1/2+y,-z
loop_
_atom_site_type_symbol
_atom_site_label
_atom_site_fract_x
_atom_site_fract_y
_atom_site_fract_z
Si Si1 0.302084 0.322510 0.214490
Si Si2 0.131309 0.012136 0.180231
Si Si3 0.000000 0.202643 0.000000
Si Si4 0.265817 0.464082 0.841523
Si Si5 0.432290 0.202567 0.801703
Si Si6 0.556763 0.229589 0.500646
Si Si7 0.810570 0.157830 0.430760
Si Si8 0.571828 0.882602 0.373890
O O1 0.275501 0.139718 0.227041
O O2 0.375916 0.289196 0.319838
O O3 0.294597 0.483176 0.312366
O O4 0.268549 0.377121 0.004816
O O5 0.165225 0.018571 0.088461
O O6 0.176858 0.102888 0.380824
O O7 0.116399 0.812370 0.195158
O O8 0.062982 0.097113 0.077866
O O9 0.985163 0.305075 0.823244
O O10 0.237944 0.315274 0.684540
O O11 0.446686 0.296617 0.672809
O O12 0.401012 0.019634 0.697097
O O13 0.500000 0.178074 0.000000
O O14 0.500000 0.283467 0.500000
O O15 0.555205 0.017426 0.471924
O O16 0.877329 0.237557 0.495694
#
# Coordination Sequence:
#
# PCOD9122186 Si02
#       8
#     4   4   2   4   4   4   4   4
#     4  12  25  49  64  96 143 176 227 279 331 408
#     4  11  25  40  72 100 130 180 224 283 344 394
#     4  10  20  42  60 102 136 160 222 284 338 394
#     4  12  27  46  70  99 133 186 226 277 341 401
#     4  10  19  39  62  93 139 163 218 278 324 398
#     4  10  22  40  68  97 132 176 218 266 343 400
#     4  11  23  45  69  90 138 177 220 288 325 392
#     4   9  19  39  65  91 134 174 209 277 333 386
#
# _framework density 20.079784
#
# number of rings (size 3 to 8) (size 9 to 14) (size 15 to 20)
#    0.800    0.533    5.333    0.000    3.733    0.000 
#    7.200    0.000    0.000    0.000    0.000    0.000 
#    0.000    0.000    0.000    0.000    0.000    0.000 
#
# Total GULP energy -83604.160124 kJ/mol
# GULP energy per Si atom -5573.610675 kJ/mol
# Density = 2.003408 g / cm^3
# Si number density = 20.079784 Si / 1000 Ang^3
#
#
#
# Elastic Constant Matrix: (Units=GPa)
#
#
# Indices 1 2 3 4 5 6 
#
# 1 68.5534 15.3723 -6.8873 0.0000 11.0483 0.0000
# 2 15.3723 102.5904 23.0769 0.0000 10.6670 0.0000
# 3 -6.8873 23.0769 57.3523 0.0000 12.7673 0.0000
# 4 0.0000 0.0000 0.0000 31.2363 0.0000 0.6768
# 5 11.0483 10.6670 12.7673 0.0000 17.4515 0.0000
# 6 0.0000 0.0000 0.0000 0.6768 0.0000 11.0215
#
#
#
# Elastic Compliance Matrix: (Units=1/GPa)
#
#
# Indices 1 2 3 4 5 6 
#
# 1 0.018206 -0.002671 0.006526 0.000000 -0.014668 0.000000
# 2 -0.002671 0.011355 -0.004445 0.000000 -0.001998 0.000000
# 3 0.006526 -0.004445 0.024277 0.000000 -0.019175 0.000000
# 4 0.000000 0.000000 0.000000 0.032057 0.000000 -0.001969
# 5 -0.014668 -0.001998 -0.019175 0.000000 0.081837 0.000000
# 6 0.000000 0.000000 0.000000 -0.001969 0.000000 0.090853
#
#
# Mechanical properties :
#
#
# Convention : Reuss Voigt Hill
#
# Bulk Modulus (GPa) = 18.99031 32.40221 25.69626
# Shear Modulus (GPa) = 18.02992 25.07079 21.55036
#
# Velocity S-wave (km/s) = 2.99977 3.53733 3.27958
# Velocity P-wave (km/s) = 4.63424 5.73196 5.21208
#
# Compressibility (1/GPa) = 0.05265843
#
# Stress axis : x y z
#
# Youngs Moduli (GPa) = 54.92808 88.06436 41.19127
#
# Poissons Ratio (x) = 0.23521 -0.26882
# Poissons Ratio (y) = 0.14671 0.18310
# Poissons Ratio (z) = -0.35847 0.39145
#
# Static dielectric constant tensor:
#      x y z
#    x 1.657280 0.000000 0.006190 
#    y 0.000000 1.766350 0.000000 
#    z 0.006190 0.000000 1.741420 
# 
# From -- ./inp_files/31658.got.cif
#   From: 2010.05.17/outbox.cif.g08.bks.cpg/sg5_16_cif.got.tgz:31658.got - 2010.06.03 18:56:24.
