data_PCOD9122191
_publ_section_title
;
Structure prediction by ZEFSAII (Michael W. Deem and Ramdas Pophale) SiO2 
 PCOD9122191
Probable space group: C 2
;
_chemical_formula_sum "Si O2"
_cell_formula_units_Z 32
_cell_length_a 19.104191
_cell_length_b 7.164835
_cell_length_c 12.348224
_cell_angle_alpha 90.000000
_cell_angle_beta 44.359575
_cell_angle_gamma 90.000000
_cell_volume 1181.722053
_symmetry_space_group_name_H-M "C 2"
_symmetry_group_IT_number 5
_symmetry_cell_setting 'monoclinic'
loop_
_space_group_symop_operation_xyz
x,y,z
-x,y,-z
1/2+x,1/2+y,z
1/2-x,1/2+y,-z
loop_
_atom_site_type_symbol
_atom_site_label
_atom_site_fract_x
_atom_site_fract_y
_atom_site_fract_z
Si Si1 0.243917 0.686220 0.090760
Si Si2 0.819005 0.812931 0.070185
Si Si3 0.426773 0.841996 0.266104
Si Si4 0.759061 0.905971 0.364043
Si Si5 0.773417 0.348372 0.276018
Si Si6 0.472207 0.999711 0.642997
Si Si7 0.981304 0.935871 0.182437
Si Si8 0.443741 0.398762 0.456640
O O1 0.323668 0.530760 0.030874
O O2 0.267904 0.846559 0.151409
O O3 0.137343 0.591493 0.239010
O O4 0.234404 0.727798 0.975098
O O5 0.759199 0.804946 0.247307
O O6 0.938260 0.790292 0.953628
O O7 0.330987 0.845403 0.457382
O O8 0.371207 0.932780 0.223959
O O9 0.469006 0.652110 0.164970
O O10 0.510828 0.911891 0.257522
O O11 0.763397 0.130354 0.329708
O O12 0.867527 0.862098 0.295659
O O13 0.671525 0.447932 0.423915
O O14 0.500000 0.893274 0.500000
O O15 0.547803 0.174412 0.553445
O O16 0.002503 0.953978 0.286213
O O17 0.500000 0.465720 0.500000
#
# Coordination Sequence:
#
# PCOD9122191 Si02
#       8
#     4   4   4   4   4   4   4   4
#     4  11  23  42  66  86 126 173 219 261 323 399
#     4  11  24  43  62  90 127 176 215 258 325 406
#     4  11  23  37  67 102 123 162 220 281 321 383
#     4  10  21  40  63  90 127 168 204 262 332 392
#     4  10  19  39  63  92 123 165 207 265 329 390
#     4  11  20  39  66  91 124 169 212 266 332 395
#     4  11  23  39  62  94 129 161 214 270 325 387
#     4  11  18  35  61  87 121 165 209 255 325 389
#
# _framework density 27.079125999999999
#
# number of rings (size 3 to 8) (size 9 to 14) (size 15 to 20)
#    0.000    1.250    6.250    1.125    1.750    0.500 
#    4.500    0.000    0.000    0.000    0.000    0.000 
#    0.000    0.000    0.000    0.000    0.000    0.000 
#
# Total GULP energy -89361.861705 kJ/mol
# GULP energy per Si atom -5585.116357 kJ/mol
# Density = 2.701749 g / cm^3
# Si number density = 27.079126 Si / 1000 Ang^3
#
#
#
# Elastic Constant Matrix: (Units=GPa)
#
#
# Indices 1 2 3 4 5 6 
#
# 1 151.9635 1.4069 34.8968 -0.0007 25.8916 -0.0001
# 2 1.4069 65.7630 9.9762 -0.0008 10.3488 -0.0001
# 3 34.8968 9.9762 97.0203 -0.0002 33.9867 0.0005
# 4 -0.0007 -0.0008 -0.0002 6.4398 0.0007 22.8543
# 5 25.8916 10.3488 33.9867 0.0007 44.4491 -0.0003
# 6 -0.0001 -0.0001 0.0005 22.8543 -0.0003 13.5555
#
#
#
# Elastic Compliance Matrix: (Units=1/GPa)
#
#
# Indices 1 2 3 4 5 6 
#
# 1 0.007504 0.000600 -0.001612 0.000000 -0.003278 0.000000
# 2 0.000600 0.015847 -0.000588 0.000000 -0.003590 0.000001
# 3 -0.001612 -0.000588 0.014438 -0.000001 -0.009963 0.000001
# 4 0.000000 0.000000 -0.000001 -0.031160 0.000002 0.052536
# 5 -0.003278 -0.003590 -0.009963 0.000002 0.032861 -0.000002
# 6 0.000000 0.000001 0.000001 0.052536 -0.000002 -0.014803
#
#
# Mechanical properties :
#
#
# Convention : Reuss Voigt Hill
#
# Bulk Modulus (GPa) = 28.91181 45.25628 37.08404
# Shear Modulus (GPa) = 126.85218 30.78668 78.81943
#
# Velocity S-wave (km/s) = 6.85177 3.37548 5.40095
# Velocity P-wave (km/s) = 8.56128 5.65161 7.25383
#
# Compressibility (1/GPa) = 0.03458794
#
# Stress axis : x y z
#
# Youngs Moduli (GPa) = 133.26746 63.10203 69.26295
#
# Poissons Ratio (x) = -0.03785 0.11168
# Poissons Ratio (y) = -0.07994 0.04071
# Poissons Ratio (z) = 0.21489 0.03709
#
# Static dielectric constant tensor:
#      x y z
#    x 2.193400 0.000000 -0.022550 
#    y 0.000000 2.266490 0.000000 
#    z -0.022550 0.000000 2.151510 
# 
# From -- ./inp_files/46140.got.cif
#   From: 2010.05.17/outbox.cif.g08.bks.cpg/sg5_24_cif.got.tgz:46140.got - 2010.06.03 18:56:24.
