data_PCOD9122840
_publ_section_title
;
Structure prediction by ZEFSAII (Michael W. Deem and Ramdas Pophale) SiO2 
 PCOD9122840
Probable space group: C 2
;
_chemical_formula_sum "Si O2"
_cell_formula_units_Z 24
_cell_length_a 10.456936
_cell_length_b 10.694505
_cell_length_c 10.749806
_cell_angle_alpha 90.000000
_cell_angle_beta 45.406144
_cell_angle_gamma 90.000000
_cell_volume 856.066624
_symmetry_space_group_name_H-M "C 2"
_symmetry_group_IT_number 5
_symmetry_cell_setting 'monoclinic'
loop_
_space_group_symop_operation_xyz
x,y,z
-x,y,-z
1/2+x,1/2+y,z
1/2-x,1/2+y,-z
loop_
_atom_site_type_symbol
_atom_site_label
_atom_site_fract_x
_atom_site_fract_y
_atom_site_fract_z
Si Si1 0.500000 0.102551 0.500000
Si Si2 0.349116 0.355073 0.350383
Si Si3 0.284944 0.820566 0.310239
Si Si4 0.000000 0.872258 0.000000
Si Si5 0.500000 0.952962 0.000000
Si Si6 0.000000 0.204121 0.500000
Si Si7 0.652765 0.707148 0.148430
Si Si8 0.425278 0.102364 0.807155
O O1 0.673274 0.192770 0.384337
O O2 0.471113 0.031629 0.648680
O O3 0.312929 0.402526 0.515610
O O4 0.424818 0.431618 0.180620
O O5 0.162952 0.290544 0.435961
O O6 0.480658 0.236016 0.274588
O O7 0.488019 0.789068 0.212612
O O8 0.318174 0.875638 0.150562
O O9 0.826765 0.788366 0.074135
O O10 0.500134 0.037601 0.878300
O O11 0.079392 0.138354 0.322580
O O12 0.721384 0.623287 0.987378
#
# Coordination Sequence:
#
# PCOD9122840 Si02
#       8
#     2   4   4   2   2   2   4   4
#     4  10  22  44  64  84 120 178 218 240 296 402
#     4   8  15  29  51  82 113 158 199 235 288 373
#     4  10  21  36  60  89 124 163 211 257 311 370
#     4   8  13  26  54  84 113 144 204 254 281 340
#     4  12  23  38  60  98 129 154 200 280 325 344
#     4   8  12  22  46  80 110 136 194 244 272 328
#     4   9  16  31  57  89 118 165 208 244 298 386
#     4  10  20  36  60  84 120 160 206 254 309 366
#
# _framework density 28.035201000000001
#
# number of rings (size 3 to 8) (size 9 to 14) (size 15 to 20)
#    0.000    2.667    0.000    4.000    0.000    0.000 
#    0.000   11.667    0.000    4.000    0.000    1.167 
#    0.000    0.000    0.000    0.000    0.000    0.000 
#
# Total GULP energy -67065.062173 kJ/mol
# GULP energy per Si atom -5588.755181 kJ/mol
# Density = 2.797139 g / cm^3
# Si number density = 28.035201 Si / 1000 Ang^3
#
#
#
# Elastic Constant Matrix: (Units=GPa)
#
#
# Indices 1 2 3 4 5 6 
#
# 1 106.5286 28.6934 55.4770 0.0000 -8.0458 0.0000
# 2 28.6934 49.6082 48.5428 0.0000 -6.4879 0.0000
# 3 55.4770 48.5428 294.5611 0.0000 62.2063 0.0000
# 4 0.0000 0.0000 0.0000 27.4149 0.0000 -15.0564
# 5 -8.0458 -6.4879 62.2063 0.0000 84.5876 0.0000
# 6 0.0000 0.0000 0.0000 -15.0564 0.0000 31.3048
#
#
#
# Elastic Compliance Matrix: (Units=1/GPa)
#
#
# Indices 1 2 3 4 5 6 
#
# 1 0.011805 -0.004674 -0.001911 0.000000 0.002170 0.000000
# 2 -0.004674 0.028385 -0.004929 0.000000 0.005357 0.000000
# 3 -0.001911 -0.004929 0.005547 0.000000 -0.004639 0.000000
# 4 0.000000 0.000000 0.000000 0.049570 0.000000 0.023841
# 5 0.002170 0.005357 -0.004639 0.000000 0.015851 0.000000
# 6 0.000000 0.000000 0.000000 0.023841 0.000000 0.043411
#
#
# Mechanical properties :
#
#
# Convention : Reuss Voigt Hill
#
# Bulk Modulus (GPa) = 44.03615 79.56937 61.80276
# Shear Modulus (GPa) = 27.00261 49.86046 38.43154
#
# Velocity S-wave (km/s) = 3.10686 4.22180 3.70649
# Velocity P-wave (km/s) = 5.34899 7.22553 6.35689
#
# Compressibility (1/GPa) = 0.02270861
#
# Stress axis : x y z
#
# Youngs Moduli (GPa) = 84.70680 35.22986 180.28406
#
# Poissons Ratio (x) = 0.16467 0.34460
# Poissons Ratio (y) = 0.39593 0.88859
# Poissons Ratio (z) = 0.16191 0.17364
#
# Static dielectric constant tensor:
#      x y z
#    x 2.297950 0.000000 0.096260 
#    y 0.000000 2.264470 0.000000 
#    z 0.096260 0.000000 2.223740 
# 
# From -- ./inp_files/39802.got.cif
#   From: 2010.05.17/outbox.cif.g08.bks.cpg/sg5_20_cif.got.tgz:39802.got - 2010.06.03 18:56:24.
