data_PCOD9122634
_publ_section_title
;
Structure prediction by ZEFSAII (Michael W. Deem and Ramdas Pophale) SiO2 
 PCOD9122634
Probable space group: C 2
;
_chemical_formula_sum "Si O2"
_cell_formula_units_Z 26
_cell_length_a 9.163871
_cell_length_b 10.109129
_cell_length_c 21.269263
_cell_angle_alpha 90.000000
_cell_angle_beta 38.800776
_cell_angle_gamma 90.000000
_cell_volume 1234.654645
_symmetry_space_group_name_H-M "C 2"
_symmetry_group_IT_number 5
_symmetry_cell_setting 'monoclinic'
loop_
_space_group_symop_operation_xyz
x,y,z
-x,y,-z
1/2+x,1/2+y,z
1/2-x,1/2+y,-z
loop_
_atom_site_type_symbol
_atom_site_label
_atom_site_fract_x
_atom_site_fract_y
_atom_site_fract_z
Si Si1 0.482674 0.810980 0.675540
Si Si2 0.184939 0.940486 0.995212
Si Si3 0.671142 0.116088 0.706435
Si Si4 0.765230 0.721221 0.931305
Si Si5 0.071267 0.325690 0.781094
Si Si6 0.500000 0.217448 0.500000
Si Si7 0.952596 0.606102 0.652500
O O1 0.375059 0.699600 0.668257
O O2 0.424585 0.786644 0.768285
O O3 0.763487 0.802100 0.578602
O O4 0.393154 0.953486 0.684168
O O5 0.410295 0.865712 0.892405
O O6 0.246120 0.094419 0.984739
O O7 0.121430 0.851467 0.076093
O O8 0.000000 0.939973 0.000000
O O9 0.429443 0.167571 0.819835
O O10 0.649464 0.132391 0.638926
O O11 0.694191 0.962603 0.718145
O O12 0.500000 0.750642 0.000000
O O13 0.245667 0.207993 0.736924
O O14 0.507550 0.132120 0.561288
#
# Coordination Sequence:
#
# PCOD9122634 Si02
#       7
#     4   4   4   4   4   2   4
#     4  10  22  40  62  84 111 147 188 230 283 343
#     4  10  20  35  56  81 115 154 192 234 278 325
#     4  10  21  37  59  84 114 153 190 230 281 333
#     4  10  21  36  55  84 118 152 193 235 275 324
#     4   9  20  38  56  82 117 150 187 234 281 329
#     4  10  24  40  58  88 116 138 182 240 288 338
#     4  10  22  39  61  84 112 148 184 232 284 340
#
# _framework density 21.058522
#
# number of rings (size 3 to 8) (size 9 to 14) (size 15 to 20)
#    0.000    2.154    0.000    1.846    0.000   12.308 
#    0.000    0.000    0.000    0.923    0.000    0.000 
#    0.000    0.000    0.000    0.000    0.000    0.000 
#
# Total GULP energy -72568.375195 kJ/mol
# GULP energy per Si atom -5582.182707 kJ/mol
# Density = 2.101059 g / cm^3
# Si number density = 21.058522 Si / 1000 Ang^3
#
#
#
# Elastic Constant Matrix: (Units=GPa)
#
#
# Indices 1 2 3 4 5 6 
#
# 1 86.8574 65.1242 24.5227 0.0000 0.5663 0.0000
# 2 65.1242 85.6233 17.0842 0.0000 11.9377 0.0000
# 3 24.5227 17.0842 39.8670 0.0002 -2.7072 -0.0001
# 4 0.0000 0.0000 0.0002 18.8046 -0.0001 8.0112
# 5 0.5663 11.9377 -2.7072 -0.0001 34.5693 0.0000
# 6 0.0000 0.0000 -0.0001 8.0112 0.0000 39.0282
#
#
#
# Elastic Compliance Matrix: (Units=1/GPa)
#
#
# Indices 1 2 3 4 5 6 
#
# 1 0.031057 -0.022776 -0.008891 0.000000 0.006660 0.000000
# 2 -0.022776 0.030344 0.000322 0.000000 -0.010080 0.000000
# 3 -0.008891 0.000322 0.030579 0.000000 0.002429 0.000000
# 4 0.000000 0.000000 0.000000 0.058275 0.000000 -0.011962
# 5 0.006660 -0.010080 0.002429 0.000000 0.032489 0.000000
# 6 0.000000 0.000000 0.000000 -0.011962 0.000000 0.028078
#
#
# Mechanical properties :
#
#
# Convention : Reuss Voigt Hill
#
# Bulk Modulus (GPa) = 34.14143 47.31222 40.72683
# Shear Modulus (GPa) = 17.65066 25.52152 21.58609
#
# Velocity S-wave (km/s) = 2.89826 3.48506 3.20512
# Velocity P-wave (km/s) = 5.23906 6.22173 5.75142
#
# Compressibility (1/GPa) = 0.02928993
#
# Stress axis : x y z
#
# Youngs Moduli (GPa) = 32.19852 32.95584 32.70199
#
# Poissons Ratio (x) = 0.75062 0.29076
# Poissons Ratio (y) = 0.73337 -0.01054
# Poissons Ratio (z) = 0.28628 -0.01063
#
# Static dielectric constant tensor:
#      x y z
#    x 1.770480 0.000000 0.016440 
#    y 0.000000 1.729110 0.000000 
#    z 0.016440 0.000000 1.816030 
# 
# From -- ./inp_files/59317.got.cif
#   From: 2010.05.17/outbox.cif.g08.bks.cpg/sg5_30_cif.got.tgz:59317.got - 2010.06.03 18:56:24.
