data_PCOD9122095
_publ_section_title
;
Structure prediction by ZEFSAII (Michael W. Deem and Ramdas Pophale) SiO2 
 PCOD9122095
Probable space group: C 2
;
_chemical_formula_sum "Si O2"
_cell_formula_units_Z 28
_cell_length_a 14.782264
_cell_length_b 10.134170
_cell_length_c 10.578249
_cell_angle_alpha 90.000000
_cell_angle_beta 128.729678
_cell_angle_gamma 90.000000
_cell_volume 1236.222912
_symmetry_space_group_name_H-M "C 2"
_symmetry_group_IT_number 5
_symmetry_cell_setting 'monoclinic'
loop_
_space_group_symop_operation_xyz
x,y,z
-x,y,-z
1/2+x,1/2+y,z
1/2-x,1/2+y,-z
loop_
_atom_site_type_symbol
_atom_site_label
_atom_site_fract_x
_atom_site_fract_y
_atom_site_fract_z
Si Si1 0.879174 0.428070 0.467641
Si Si2 0.433887 0.207398 0.558339
Si Si3 0.350221 0.289601 0.809845
Si Si4 0.847395 0.679339 0.083268
Si Si5 0.568244 0.466425 0.316640
Si Si6 0.280512 0.019058 0.632082
Si Si7 0.301053 0.448064 0.158681
O O1 0.782154 0.341234 0.315509
O O2 0.856996 0.428113 0.602116
O O3 0.000000 0.400017 0.500000
O O4 0.862118 0.587080 0.439462
O O5 0.500000 0.273066 0.500000
O O6 0.538279 0.150981 0.735610
O O7 0.378110 0.331794 0.574820
O O8 0.419020 0.416960 0.815404
O O9 0.350576 0.151230 0.732429
O O10 0.380682 0.245175 0.977825
O O11 0.782774 0.797666 0.099516
O O12 0.773463 0.550667 0.988927
O O13 0.664222 0.565475 0.453024
O O14 0.437240 0.481575 0.249135
O O15 0.238188 0.964512 0.730589
#
# Coordination Sequence:
#
# PCOD9122095 Si02
#       7
#     4   4   4   4   4   4   4
#     4  10  22  38  63  93 124 164 212 268 321 381
#     4  10  20  36  62  89 116 165 214 258 315 386
#     4  10  22  39  63  95 133 165 220 270 328 385
#     4  10  23  40  63  96 131 173 222 271 330 389
#     4  10  19  38  63  94 122 173 214 262 326 392
#     4  10  20  41  62  96 122 169 217 269 321 398
#     4  10  22  39  64  94 133 173 215 276 332 392
#
# _framework density 22.649636000000001
#
# number of rings (size 3 to 8) (size 9 to 14) (size 15 to 20)
#    0.000    2.000    1.429    2.143    4.000    4.571 
#    0.000    0.000    0.000    3.429    0.000    0.000 
#    0.000    0.000    0.000    0.000    0.000    0.000 
#
# Total GULP energy -77949.069770 kJ/mol
# GULP energy per Si atom -5567.790698 kJ/mol
# Density = 2.259808 g / cm^3
# Si number density = 22.649636 Si / 1000 Ang^3
#
#
#
# Elastic Constant Matrix: (Units=GPa)
#
#
# Indices 1 2 3 4 5 6 
#
# 1 150.3524 16.6897 35.3347 0.0000 -13.7123 0.0000
# 2 16.6897 47.8800 21.0386 0.0000 4.8357 0.0000
# 3 35.3347 21.0386 92.7027 0.0000 -1.3121 0.0000
# 4 0.0000 0.0000 0.0000 38.8320 0.0000 -1.8647
# 5 -13.7123 4.8357 -1.3121 0.0000 28.2239 0.0000
# 6 0.0000 0.0000 0.0000 -1.8647 0.0000 38.4430
#
#
#
# Elastic Compliance Matrix: (Units=1/GPa)
#
#
# Indices 1 2 3 4 5 6 
#
# 1 0.007826 -0.002055 -0.002459 0.000000 0.004040 0.000000
# 2 -0.002055 0.024253 -0.004797 0.000000 -0.005377 0.000000
# 3 -0.002459 -0.004797 0.012816 0.000000 0.000223 0.000000
# 4 0.000000 0.000000 0.000000 0.025812 0.000000 0.001252
# 5 0.004040 -0.005377 0.000223 0.000000 0.038325 0.000000
# 6 0.000000 0.000000 0.000000 0.001252 0.000000 0.026073
#
#
# Mechanical properties :
#
#
# Convention : Reuss Voigt Hill
#
# Bulk Modulus (GPa) = 38.06315 48.56235 43.31275
# Shear Modulus (GPa) = 30.77207 35.62458 33.19833
#
# Velocity S-wave (km/s) = 3.68993 3.97023 3.83264
# Velocity P-wave (km/s) = 5.91573 6.51952 6.22495
#
# Compressibility (1/GPa) = 0.02627213
#
# Stress axis : x y z
#
# Youngs Moduli (GPa) = 127.78650 41.23248 78.02565
#
# Poissons Ratio (x) = 0.08474 0.19188
# Poissons Ratio (y) = 0.26263 0.37428
# Poissons Ratio (z) = 0.31425 0.19779
#
# Static dielectric constant tensor:
#      x y z
#    x 1.935330 0.000000 -0.060860 
#    y 0.000000 1.884570 0.000000 
#    z -0.060860 0.000000 1.944800 
# 
# From -- ./inp_files/23947.got.cif
#   From: 2010.05.17/outbox.cif.g08.bks.cpg/sg5_12_cif.got.tgz:23947.got - 2010.06.03 18:56:24.
