data_PCOD9122317
_publ_section_title
;
Structure prediction by ZEFSAII (Michael W. Deem and Ramdas Pophale) SiO2 
 PCOD9122317
Probable space group: C 2
;
_chemical_formula_sum "Si O2"
_cell_formula_units_Z 28
_cell_length_a 18.835445
_cell_length_b 12.585450
_cell_length_c 9.978710
_cell_angle_alpha 90.000000
_cell_angle_beta 34.672104
_cell_angle_gamma 90.000000
_cell_volume 1345.671546
_symmetry_space_group_name_H-M "C 2"
_symmetry_group_IT_number 5
_symmetry_cell_setting 'monoclinic'
loop_
_space_group_symop_operation_xyz
x,y,z
-x,y,-z
1/2+x,1/2+y,z
1/2-x,1/2+y,-z
loop_
_atom_site_type_symbol
_atom_site_label
_atom_site_fract_x
_atom_site_fract_y
_atom_site_fract_z
Si Si1 0.923351 0.142880 0.002621
Si Si2 0.738085 0.967905 0.361377
Si Si3 0.536292 0.991697 0.301087
Si Si4 0.342586 0.761514 0.862465
Si Si5 0.798388 0.056944 0.795181
Si Si6 0.872704 0.880342 0.890098
Si Si7 0.389371 0.454941 0.383597
O O1 0.888774 0.210422 0.927991
O O2 0.016473 0.045911 0.818725
O O3 0.000000 0.202444 0.000000
O O4 0.798788 0.084852 0.248080
O O5 0.589744 0.976341 0.586913
O O6 0.796829 0.924306 0.407857
O O7 0.790103 0.901888 0.152469
O O8 0.500000 0.042219 0.500000
O O9 0.590705 0.874628 0.251418
O O10 0.650832 0.052302 0.054755
O O11 0.354402 0.674398 0.726836
O O12 0.195703 0.790053 0.087816
O O13 0.821785 0.005246 0.615750
O O14 0.862701 0.984478 0.810722
O O15 0.014696 0.865253 0.714258
#
# Coordination Sequence:
#
# PCOD9122317 Si02
#       7
#     4   4   4   4   4   4   4
#     4   9  19  37  62  91 118 158 202 249 306 361
#     4  10  19  41  62  84 121 165 195 241 313 365
#     4  11  22  39  62  89 119 161 203 242 310 361
#     4  11  21  36  66  92 114 159 210 250 293 358
#     4  11  22  38  62  90 119 152 204 258 291 356
#     4  10  20  37  63  90 116 160 202 241 305 355
#     4  10  21  36  65  87 121 157 199 250 306 353
#
# _framework density 20.807455999999998
#
# number of rings (size 3 to 8) (size 9 to 14) (size 15 to 20)
#    0.000    1.714    5.714    1.714    2.000    0.571 
#    5.143    8.571    9.429    0.000    0.000    0.000 
#    0.000    0.000    0.000    0.000    0.000    0.000 
#
# Total GULP energy -78124.749427 kJ/mol
# GULP energy per Si atom -5580.339245 kJ/mol
# Density = 2.076010 g / cm^3
# Si number density = 20.807456 Si / 1000 Ang^3
#
#
#
# Elastic Constant Matrix: (Units=GPa)
#
#
# Indices 1 2 3 4 5 6 
#
# 1 172.4314 8.1703 45.5143 0.0000 -15.0913 0.0000
# 2 8.1703 32.5446 4.8772 0.0000 -4.2114 0.0000
# 3 45.5143 4.8772 93.0452 0.0000 -15.2473 0.0000
# 4 0.0000 0.0000 0.0000 5.6087 0.0000 0.0036
# 5 -15.0913 -4.2114 -15.2473 0.0000 39.1917 0.0000
# 6 0.0000 0.0000 0.0000 0.0036 0.0000 22.1732
#
#
#
# Elastic Compliance Matrix: (Units=1/GPa)
#
#
# Indices 1 2 3 4 5 6 
#
# 1 0.006767 -0.001074 -0.003040 0.000000 0.001308 0.000000
# 2 -0.001074 0.031448 -0.000680 0.000000 0.002701 0.000000
# 3 -0.003040 -0.000680 0.012888 0.000000 0.003770 0.000000
# 4 0.000000 0.000000 0.000000 0.178295 0.000000 -0.000029
# 5 0.001308 0.002701 0.003770 0.000000 0.027776 0.000000
# 6 0.000000 0.000000 0.000000 -0.000029 0.000000 0.045100
#
#
# Mechanical properties :
#
#
# Convention : Reuss Voigt Hill
#
# Bulk Modulus (GPa) = 24.08774 46.12720 35.10747
# Shear Modulus (GPa) = 15.35152 29.35867 22.35510
#
# Velocity S-wave (km/s) = 2.71918 3.76036 3.28133
# Velocity P-wave (km/s) = 4.63251 6.40863 5.59154
#
# Compressibility (1/GPa) = 0.04151490
#
# Stress axis : x y z
#
# Youngs Moduli (GPa) = 147.77417 31.79828 77.59248
#
# Poissons Ratio (x) = 0.03416 0.23585
# Poissons Ratio (y) = 0.15873 0.05279
# Poissons Ratio (z) = 0.44917 0.02164
#
# Static dielectric constant tensor:
#      x y z
#    x 1.780980 0.000000 -0.012120 
#    y 0.000000 1.771890 0.000000 
#    z -0.012120 0.000000 1.773750 
# 
# From -- ./inp_files/27686.got.cif
#   From: 2010.05.17/outbox.cif.g08.bks.cpg/sg5_14_cif.got.tgz:27686.got - 2010.06.03 18:56:24.
