data_PCOD9122297
_publ_section_title
;
Structure prediction by ZEFSAII (Michael W. Deem and Ramdas Pophale) SiO2 
 PCOD9122297
Probable space group: C 2
;
_chemical_formula_sum "Si O2"
_cell_formula_units_Z 30
_cell_length_a 26.260293
_cell_length_b 8.052503
_cell_length_c 16.178585
_cell_angle_alpha 90.000000
_cell_angle_beta 20.321449
_cell_angle_gamma 90.000000
_cell_volume 1188.116941
_symmetry_space_group_name_H-M "C 2"
_symmetry_group_IT_number 5
_symmetry_cell_setting 'monoclinic'
loop_
_space_group_symop_operation_xyz
x,y,z
-x,y,-z
1/2+x,1/2+y,z
1/2-x,1/2+y,-z
loop_
_atom_site_type_symbol
_atom_site_label
_atom_site_fract_x
_atom_site_fract_y
_atom_site_fract_z
Si Si1 0.949198 0.442250 0.664592
Si Si2 0.666632 0.695978 0.889276
Si Si3 0.923816 0.243647 0.388924
Si Si4 0.472155 0.423178 0.136752
Si Si5 0.696481 0.587427 0.152768
Si Si6 0.290193 0.146692 0.415674
Si Si7 0.096062 0.942068 0.468217
Si Si8 0.500000 0.895875 0.000000
O O1 0.862024 0.273113 0.771255
O O2 0.000000 0.515021 0.500000
O O3 0.068887 0.368587 0.545935
O O4 0.841835 0.557536 0.880136
O O5 0.832681 0.760711 0.635919
O O6 0.591736 0.789776 0.925984
O O7 0.579666 0.751624 0.104446
O O8 0.616799 0.505895 0.954381
O O9 0.794863 0.266146 0.519960
O O10 0.900542 0.054561 0.455301
O O11 0.405163 0.265616 0.286570
O O12 0.345022 0.563170 0.332169
O O13 0.500000 0.373487 0.000000
O O14 0.697888 0.541204 0.246923
O O15 0.569843 0.463635 0.310279
O O16 0.386458 0.009492 0.223259
#
# Coordination Sequence:
#
# PCOD9122297 Si02
#       8
#     4   4   4   4   4   4   4   2
#     4  11  21  42  68  98 134 176 212 275 336 395
#     4  11  22  38  70  97 131 181 225 274 341 397
#     4  10  20  38  68  96 130 177 225 264 337 406
#     4  11  24  42  64  94 131 176 222 281 330 393
#     4  10  21  40  71  98 136 170 218 273 335 392
#     4  11  23  41  65  95 132 177 226 278 338 398
#     4  10  19  40  68  99 130 179 218 271 335 402
#     4  12  22  40  72  94 134 182 222 284 346 388
#
# _framework density 25.250039000000001
#
# number of rings (size 3 to 8) (size 9 to 14) (size 15 to 20)
#    0.000    1.333    6.667    1.600    0.000    0.000 
#    2.400    6.667   14.667    0.000    0.000    0.000 
#    0.000    0.000    0.000    0.000    0.000    0.000 
#
# Total GULP energy -83941.581489 kJ/mol
# GULP energy per Si atom -5596.105433 kJ/mol
# Density = 2.519257 g / cm^3
# Si number density = 25.250039 Si / 1000 Ang^3
#
#
#
# Elastic Constant Matrix: (Units=GPa)
#
#
# Indices 1 2 3 4 5 6 
#
# 1 54.5992 7.4406 8.3371 0.0000 14.7271 0.0000
# 2 7.4406 62.3560 30.2352 0.0000 1.1425 0.0000
# 3 8.3371 30.2352 136.1473 0.0000 14.1929 0.0000
# 4 0.0000 0.0000 0.0000 55.9303 0.0000 2.6901
# 5 14.7271 1.1425 14.1929 0.0000 27.0887 0.0000
# 6 0.0000 0.0000 0.0000 2.6901 0.0000 20.4571
#
#
#
# Elastic Compliance Matrix: (Units=1/GPa)
#
#
# Indices 1 2 3 4 5 6 
#
# 1 0.021841 -0.002628 0.000500 0.000000 -0.012025 0.000000
# 2 -0.002628 0.018340 -0.004210 0.000000 0.002861 0.000000
# 3 0.000500 -0.004210 0.008736 0.000000 -0.004671 0.000000
# 4 0.000000 0.000000 0.000000 0.017993 0.000000 -0.002366
# 5 -0.012025 0.002861 -0.004671 0.000000 0.045780 0.000000
# 6 0.000000 0.000000 0.000000 -0.002366 0.000000 0.049194
#
#
# Mechanical properties :
#
#
# Convention : Reuss Voigt Hill
#
# Bulk Modulus (GPa) = 27.59416 38.34757 32.97086
# Shear Modulus (GPa) = 26.78945 34.50119 30.64532
#
# Velocity S-wave (km/s) = 3.26078 3.70047 3.48756
# Velocity P-wave (km/s) = 5.01289 5.78602 5.41328
#
# Compressibility (1/GPa) = 0.03623956
#
# Stress axis : x y z
#
# Youngs Moduli (GPa) = 45.78621 54.52700 114.46442
#
# Poissons Ratio (x) = 0.14330 -0.05721
# Poissons Ratio (y) = 0.12033 0.48191
# Poissons Ratio (z) = -0.02288 0.22957
#
# Static dielectric constant tensor:
#      x y z
#    x 1.998450 0.000000 -0.017740 
#    y 0.000000 2.011600 0.000000 
#    z -0.017740 0.000000 1.983170 
# 
# From -- ./inp_files/63791.got.cif
#   From: 2010.05.17/outbox.cif.g08.bks.cpg/sg5_32_cif.got.tgz:63791.got - 2010.06.03 18:56:24.
