data_PCOD9122302
_publ_section_title
;
Structure prediction by ZEFSAII (Michael W. Deem and Ramdas Pophale) SiO2 
 PCOD9122302
Probable space group: C 2
;
_chemical_formula_sum "Si O2"
_cell_formula_units_Z 30
_cell_length_a 12.074136
_cell_length_b 10.538444
_cell_length_c 17.300194
_cell_angle_alpha 90.000000
_cell_angle_beta 139.446702
_cell_angle_gamma 90.000000
_cell_volume 1431.200612
_symmetry_space_group_name_H-M "C 2"
_symmetry_group_IT_number 5
_symmetry_cell_setting 'monoclinic'
loop_
_space_group_symop_operation_xyz
x,y,z
-x,y,-z
1/2+x,1/2+y,z
1/2-x,1/2+y,-z
loop_
_atom_site_type_symbol
_atom_site_label
_atom_site_fract_x
_atom_site_fract_y
_atom_site_fract_z
Si Si1 0.670910 0.851820 0.872334
Si Si2 0.206276 0.601790 0.795324
Si Si3 0.842810 0.718485 0.631540
Si Si4 0.839704 0.426175 0.372980
Si Si5 0.500000 0.196105 0.000000
Si Si6 0.979083 0.216543 0.637908
Si Si7 0.550402 0.827545 0.105808
Si Si8 0.276329 0.059889 0.750095
O O1 0.846826 0.782914 0.948747
O O2 0.524577 0.784174 0.742286
O O3 0.616368 0.825346 0.930384
O O4 0.691461 0.997968 0.856519
O O5 0.225622 0.518009 0.727926
O O6 0.361893 0.698202 0.873713
O O7 0.033951 0.685228 0.708666
O O8 0.798865 0.857354 0.645603
O O9 0.713780 0.701289 0.491181
O O10 0.795056 0.618748 0.674716
O O11 0.933224 0.310603 0.377980
O O12 0.000000 0.491385 0.500000
O O13 0.414748 0.126419 0.880590
O O14 0.091232 0.090517 0.687185
O O15 0.681981 0.912447 0.223966
O O16 0.500000 0.895483 0.000000
#
# Coordination Sequence:
#
# PCOD9122302 Si02
#       8
#     4   4   4   4   2   4   4   4
#     4  10  23  46  68  94 136 170 230 284 330 402
#     4  11  24  42  63  99 129 175 223 267 338 394
#     4  10  19  40  70  93 133 173 215 276 334 396
#     4   8  17  38  63  92 130 166 213 270 322 391
#     4  10  22  42  74  94 118 186 226 272 346 386
#     4   8  18  39  69  98 122 176 222 268 339 398
#     4  12  27  44  61  99 141 174 225 286 330 396
#     4  10  19  41  64  93 131 170 221 277 332 390
#
# _framework density 20.961421999999999
#
# number of rings (size 3 to 8) (size 9 to 14) (size 15 to 20)
#    0.000    2.133    2.000    2.000    2.800    1.067 
#   12.000    1.333    0.000    0.000    0.000    0.000 
#    0.000    0.000    0.000    0.000    0.000    0.000 
#
# Total GULP energy -83648.339745 kJ/mol
# GULP energy per Si atom -5576.555983 kJ/mol
# Density = 2.091371 g / cm^3
# Si number density = 20.961422 Si / 1000 Ang^3
#
#
#
# Elastic Constant Matrix: (Units=GPa)
#
#
# Indices 1 2 3 4 5 6 
#
# 1 106.7468 43.4022 46.3121 0.0000 1.9614 0.0000
# 2 43.4022 60.8067 27.5066 0.0000 22.0507 0.0000
# 3 46.3121 27.5066 85.0668 0.0000 5.2897 0.0000
# 4 0.0000 0.0000 0.0000 12.1601 0.0000 6.0321
# 5 1.9614 22.0507 5.2897 0.0000 24.9766 0.0000
# 6 0.0000 0.0000 0.0000 6.0321 0.0000 14.7498
#
#
#
# Elastic Compliance Matrix: (Units=1/GPa)
#
#
# Indices 1 2 3 4 5 6 
#
# 1 0.017467 -0.014512 -0.005602 0.000000 0.012627 0.000000
# 2 -0.014512 0.040526 -0.003090 0.000000 -0.033984 0.000000
# 3 -0.005602 -0.003090 0.015816 0.000000 -0.000182 0.000000
# 4 0.000000 0.000000 0.000000 0.103164 0.000000 -0.042190
# 5 0.012627 -0.033984 -0.000182 0.000000 0.069087 0.000000
# 6 0.000000 0.000000 0.000000 -0.042190 0.000000 0.085051
#
#
# Mechanical properties :
#
#
# Convention : Reuss Voigt Hill
#
# Bulk Modulus (GPa) = 36.49661 54.11799 45.30730
# Shear Modulus (GPa) = 12.93147 19.40394 16.16770
#
# Velocity S-wave (km/s) = 2.48648 3.04583 2.78026
# Velocity P-wave (km/s) = 5.06878 6.18412 5.65402
#
# Compressibility (1/GPa) = 0.02739980
#
# Stress axis : x y z
#
# Youngs Moduli (GPa) = 57.25104 24.67563 63.22806
#
# Poissons Ratio (x) = 0.35810 0.35420
# Poissons Ratio (y) = 0.83085 0.19538
# Poissons Ratio (z) = 0.32072 0.07625
#
# Static dielectric constant tensor:
#      x y z
#    x 1.752620 0.000000 -0.046050 
#    y 0.000000 1.781490 0.000000 
#    z -0.046050 0.000000 1.811900 
# 
# From -- ./inp_files/60494.got.cif
#   From: 2010.05.17/outbox.cif.g08.bks.cpg/sg5_31_cif.got.tgz:60494.got - 2010.06.03 18:56:24.
