data_PCOD9122440
_publ_section_title
;
Structure prediction by ZEFSAII (Michael W. Deem and Ramdas Pophale) SiO2 
 PCOD9122440
Probable space group: C 2
;
_chemical_formula_sum "Si O2"
_cell_formula_units_Z 28
_cell_length_a 26.592835
_cell_length_b 13.506668
_cell_length_c 7.599788
_cell_angle_alpha 90.000000
_cell_angle_beta 151.855509
_cell_angle_gamma 90.000000
_cell_volume 1287.588831
_symmetry_space_group_name_H-M "C 2"
_symmetry_group_IT_number 5
_symmetry_cell_setting 'monoclinic'
loop_
_space_group_symop_operation_xyz
x,y,z
-x,y,-z
1/2+x,1/2+y,z
1/2-x,1/2+y,-z
loop_
_atom_site_type_symbol
_atom_site_label
_atom_site_fract_x
_atom_site_fract_y
_atom_site_fract_z
Si Si1 0.627771 0.871460 0.196534
Si Si2 0.785258 0.963790 0.977222
Si Si3 0.295936 0.986317 0.884943
Si Si4 0.500000 0.012667 0.000000
Si Si5 0.500000 0.128080 0.500000
Si Si6 0.285256 0.676958 0.477218
Si Si7 0.627769 0.269288 0.696530
Si Si8 0.204064 0.654430 0.615058
O O1 0.711726 0.916558 0.597074
O O2 0.678716 0.895898 0.165263
O O3 0.618463 0.754819 0.202913
O O4 0.522768 0.937015 0.909177
O O5 0.798063 0.079608 0.970472
O O6 0.725585 0.961142 0.980724
O O7 0.881539 0.885929 0.297092
O O8 0.201937 0.061140 0.529531
O O9 0.399362 0.056437 0.180646
O O10 0.600638 0.084310 0.319357
O O11 0.522767 0.203733 0.409172
O O12 0.225584 0.679605 0.480723
O O13 0.211724 0.724190 0.097069
O O14 0.678716 0.244849 0.665263
#
# Coordination Sequence:
#
# PCOD9122440 Si02
#       8
#     4   4   4   2   2   4   4   4
#     4  10  21  33  51  80 109 136 170 217 261 310
#     4  10  20  33  51  80 106 140 173 209 260 313
#     4  11  19  34  55  79 107 137 172 219 258 308
#     4  10  20  32  56  82 108 128 172 226 266 290
#     4  10  20  32  56  82 108 128 172 226 266 290
#     4  10  20  33  51  80 106 140 173 209 260 313
#     4  10  21  33  51  80 109 136 170 217 261 310
#     4  11  19  34  55  79 107 137 172 219 258 308
#
# _framework density 21.746072000000002
#
# number of rings (size 3 to 8) (size 9 to 14) (size 15 to 20)
#    0.000    1.714    5.714    1.714    4.000    0.000 
#    0.000    0.000    0.000    1.714    0.000    0.000 
#    0.000    0.000    0.000    0.000    0.000    0.000 
#
# Total GULP energy -77976.659368 kJ/mol
# GULP energy per Si atom -5569.761383 kJ/mol
# Density = 2.169658 g / cm^3
# Si number density = 21.746072 Si / 1000 Ang^3
#
#
#
# Elastic Constant Matrix: (Units=GPa)
#
#
# Indices 1 2 3 4 5 6 
#
# 1 75.8349 -66.7105 10.9743 0.0000 -15.8199 0.0000
# 2 -66.7105 -2.5331 16.2199 0.0000 25.1891 0.0000
# 3 10.9743 16.2199 19.2540 0.0000 -4.4750 0.0000
# 4 0.0000 0.0000 0.0000 18.6875 0.0000 13.5748
# 5 -15.8199 25.1891 -4.4750 0.0000 19.0981 0.0000
# 6 0.0000 0.0000 0.0000 13.5748 0.0000 48.5557
#
#
#
# Elastic Compliance Matrix: (Units=1/GPa)
#
#
# Indices 1 2 3 4 5 6 
#
# 1 0.009297 -0.008116 0.006150 0.000000 0.019847 0.000000
# 2 -0.008116 -0.008881 0.014031 0.000000 0.008278 0.000000
# 3 0.006150 0.014031 0.035424 0.000000 -0.005111 0.000000
# 4 0.000000 0.000000 0.000000 0.067148 0.000000 -0.018773
# 5 0.019847 0.008278 -0.005111 0.000000 0.056685 0.000000
# 6 0.000000 0.000000 0.000000 -0.018773 0.000000 0.025843
#
#
# Mechanical properties :
#
#
# Convention : Reuss Voigt Hill
#
# Bulk Modulus (GPa) = 16.67456 1.50258 9.08857
# Shear Modulus (GPa) = 27.56686 26.07308 26.81997
#
# Velocity S-wave (km/s) = 3.56430 3.46638 3.51568
# Velocity P-wave (km/s) = 4.96220 4.08822 4.54626
#
# Compressibility (1/GPa) = 0.05997161
#
# Stress axis : x y z
#
# Youngs Moduli (GPa) = 107.55646 -112.60365 28.22954
#
# Poissons Ratio (x) = -0.91386 -0.17362
# Poissons Ratio (y) = 0.87290 -0.39609
# Poissons Ratio (z) = -0.66150 1.57994
#
# Static dielectric constant tensor:
#      x y z
#    x 1.796970 0.000000 0.010170 
#    y 0.000000 1.872790 0.000000 
#    z 0.010170 0.000000 1.861530 
# 
# From -- ./inp_files/32675.got.cif
#   From: 2010.05.17/outbox.cif.g08.bks.cpg/sg5_17_cif.got.tgz:32675.got - 2010.06.03 18:56:24.
