data_PCOD9122293
_publ_section_title
;
Structure prediction by ZEFSAII (Michael W. Deem and Ramdas Pophale) SiO2 
 PCOD9122293
Probable space group: C 2
;
_chemical_formula_sum "Si O2"
_cell_formula_units_Z 24
_cell_length_a 22.847667
_cell_length_b 8.472692
_cell_length_c 7.930073
_cell_angle_alpha 90.000000
_cell_angle_beta 129.035157
_cell_angle_gamma 90.000000
_cell_volume 1192.414170
_symmetry_space_group_name_H-M "C 2"
_symmetry_group_IT_number 5
_symmetry_cell_setting 'monoclinic'
loop_
_space_group_symop_operation_xyz
x,y,z
-x,y,-z
1/2+x,1/2+y,z
1/2-x,1/2+y,-z
loop_
_atom_site_type_symbol
_atom_site_label
_atom_site_fract_x
_atom_site_fract_y
_atom_site_fract_z
Si Si1 0.067609 0.266610 0.719705
Si Si2 0.575107 0.491900 0.240008
Si Si3 0.334072 0.988818 0.332519
Si Si4 0.047440 0.367484 0.242413
Si Si5 0.343760 0.500605 0.946667
Si Si6 0.085919 0.807886 0.615083
O O1 0.129919 0.347074 0.714688
O O2 0.000000 0.169752 0.500000
O O3 0.011971 0.387983 0.712188
O O4 0.113156 0.166228 0.939101
O O5 0.565317 0.680317 0.256212
O O6 0.639362 0.460535 0.217169
O O7 0.587560 0.406218 0.441382
O O8 0.500000 0.441887 0.000000
O O9 0.365009 0.152029 0.319052
O O10 0.375757 0.958343 0.585630
O O11 0.244997 0.995407 0.182566
O O12 0.000000 0.424248 0.000000
O O13 0.381239 0.396890 0.162180
O O14 0.000000 0.767952 0.500000
#
# Coordination Sequence:
#
# PCOD9122293 Si02
#       6
#     4   4   4   4   4   4
#     4  10  19  40  68  86 116 170 218 241 297 384
#     4  11  22  41  69  95 114 171 223 249 297 375
#     4  11  26  39  60 100 129 159 199 265 331 353
#     4  10  19  41  68  87 117 165 222 247 289 382
#     4  12  23  43  66  92 129 162 211 263 305 370
#     4  12  23  42  66  92 131 165 204 258 315 376
#
# _framework density 20.127234999999999
#
# number of rings (size 3 to 8) (size 9 to 14) (size 15 to 20)
#    0.000    1.000    5.000    5.000    0.000    2.000 
#    6.000    0.000    0.000    0.000    0.000    0.000 
#    0.000    0.000    0.000    0.000    0.000    0.000 
#
# Total GULP energy -66926.335069 kJ/mol
# GULP energy per Si atom -5577.194589 kJ/mol
# Density = 2.008142 g / cm^3
# Si number density = 20.127235 Si / 1000 Ang^3
#
#
#
# Elastic Constant Matrix: (Units=GPa)
#
#
# Indices 1 2 3 4 5 6 
#
# 1 160.6772 25.9785 59.2980 0.0000 18.5284 0.0000
# 2 25.9785 32.7847 3.8427 0.0000 1.6628 0.0000
# 3 59.2980 3.8427 81.5204 0.0000 14.5402 0.0000
# 4 0.0000 0.0000 0.0000 12.1106 0.0000 6.0926
# 5 18.5284 1.6628 14.5402 0.0000 53.7325 0.0000
# 6 0.0000 0.0000 0.0000 6.0926 0.0000 12.8526
#
#
#
# Elastic Compliance Matrix: (Units=1/GPa)
#
#
# Indices 1 2 3 4 5 6 
#
# 1 0.009997 -0.007066 -0.006686 0.000000 -0.001419 0.000000
# 2 -0.007066 0.035683 0.003384 0.000000 0.000417 0.000000
# 3 -0.006686 0.003384 0.017419 0.000000 -0.002513 0.000000
# 4 0.000000 0.000000 0.000000 0.108430 0.000000 -0.051400
# 5 -0.001419 0.000417 -0.002513 0.000000 0.019767 0.000000
# 6 0.000000 0.000000 0.000000 -0.051400 0.000000 0.102171
#
#
# Mechanical properties :
#
#
# Convention : Reuss Voigt Hill
#
# Bulk Modulus (GPa) = 23.60562 50.35787 36.98174
# Shear Modulus (GPa) = 15.22884 28.13003 21.67944
#
# Velocity S-wave (km/s) = 2.75367 3.74252 3.28551
# Velocity P-wave (km/s) = 4.67589 6.61433 5.72771
#
# Compressibility (1/GPa) = 0.04236280
#
# Stress axis : x y z
#
# Youngs Moduli (GPa) = 100.02855 28.02423 57.40945
#
# Poissons Ratio (x) = 0.19802 0.38382
# Poissons Ratio (y) = 0.70681 -0.19425
# Poissons Ratio (z) = 0.66876 -0.09482
#
# Static dielectric constant tensor:
#      x y z
#    x 1.734070 0.000000 -0.067400 
#    y 0.000000 1.757150 0.000000 
#    z -0.067400 0.000000 1.816240 
# 
# From -- ./inp_files/29007.got.cif
#   From: 2010.05.17/outbox.cif.g08.bks.cpg/sg5_15_cif.got.tgz:29007.got - 2010.06.03 18:56:24.
