data_PCOD9122532
_publ_section_title
;
Structure prediction by ZEFSAII (Michael W. Deem and Ramdas Pophale) SiO2 
 PCOD9122532
Probable space group: C 2
;
_chemical_formula_sum "Si O2"
_cell_formula_units_Z 28
_cell_length_a 16.453464
_cell_length_b 8.810535
_cell_length_c 13.013523
_cell_angle_alpha 90.000000
_cell_angle_beta 36.781134
_cell_angle_gamma 90.000000
_cell_volume 1129.554582
_symmetry_space_group_name_H-M "C 2"
_symmetry_group_IT_number 5
_symmetry_cell_setting 'monoclinic'
loop_
_space_group_symop_operation_xyz
x,y,z
-x,y,-z
1/2+x,1/2+y,z
1/2-x,1/2+y,-z
loop_
_atom_site_type_symbol
_atom_site_label
_atom_site_fract_x
_atom_site_fract_y
_atom_site_fract_z
Si Si1 0.611227 0.280220 0.609503
Si Si2 0.292859 0.608815 0.554529
Si Si3 0.457637 0.799006 0.665576
Si Si4 0.797938 0.643891 0.129165
Si Si5 0.402148 0.141109 0.698955
Si Si6 0.683399 0.655898 0.756733
Si Si7 0.500000 0.917537 0.000000
Si Si8 0.500000 0.396655 0.000000
O O1 0.667360 0.448590 0.535171
O O2 0.653237 0.198291 0.671580
O O3 0.457089 0.260175 0.727314
O O4 0.700205 0.169358 0.444957
O O5 0.412976 0.728062 0.409925
O O6 0.282989 0.587871 0.686735
O O7 0.500000 0.802619 0.500000
O O8 0.325721 0.693777 0.817728
O O9 0.423615 0.973201 0.722385
O O10 0.911263 0.514371 0.009399
O O11 0.886904 0.794409 0.059870
O O12 0.500000 0.162047 0.500000
O O13 0.254333 0.152341 0.797487
O O14 0.586518 0.512139 0.842106
O O15 0.596816 0.807346 0.838990
#
# Coordination Sequence:
#
# PCOD9122532 Si02
#       8
#     4   4   4   4   4   4   2   2
#     4  11  23  36  57  83 114 145 180 234 284 328
#     4  11  23  36  57  83 114 145 180 234 284 328
#     4   9  18  33  56  82 109 139 183 233 273 321
#     4  10  20  36  59  86 110 142 188 225 277 321
#     4   9  18  33  56  82 109 139 183 233 273 321
#     4  10  20  36  59  86 110 142 188 225 277 321
#     4  10  20  34  56  84 114 142 186 234 258 328
#     4  10  20  34  60  84 110 150 182 226 258 336
#
# _framework density 24.788532
#
# number of rings (size 3 to 8) (size 9 to 14) (size 15 to 20)
#    0.000    2.000    2.857    0.857    6.000    1.714 
#    0.000    0.000    0.000   10.286    0.000    0.000 
#    0.000    0.000    0.000    0.000    0.000    0.000 
#
# Total GULP energy -78189.420117 kJ/mol
# GULP energy per Si atom -5584.958580 kJ/mol
# Density = 2.473211 g / cm^3
# Si number density = 24.788532 Si / 1000 Ang^3
#
#
#
# Elastic Constant Matrix: (Units=GPa)
#
#
# Indices 1 2 3 4 5 6 
#
# 1 43.2943 12.9633 9.1188 0.0000 -11.1968 0.0000
# 2 12.9633 127.4333 17.9217 0.0000 -12.8376 0.0000
# 3 9.1188 17.9217 82.3360 0.0000 -16.8059 0.0000
# 4 0.0000 0.0000 0.0000 43.9368 0.0000 -14.7557
# 5 -11.1968 -12.8376 -16.8059 0.0000 24.3846 0.0000
# 6 0.0000 0.0000 0.0000 -14.7557 0.0000 17.3630
#
#
#
# Elastic Compliance Matrix: (Units=1/GPa)
#
#
# Indices 1 2 3 4 5 6 
#
# 1 0.026505 -0.001528 -0.000329 0.000000 0.011139 0.000000
# 2 -0.001528 0.008455 -0.001054 0.000000 0.003023 0.000000
# 3 -0.000329 -0.001054 0.014275 0.000000 0.009132 0.000000
# 4 0.000000 0.000000 0.000000 0.031850 0.000000 0.027068
# 5 0.011139 0.003023 0.009132 0.000000 0.054010 0.000000
# 6 0.000000 0.000000 0.000000 0.027068 0.000000 0.080597
#
#
# Mechanical properties :
#
#
# Convention : Reuss Voigt Hill
#
# Bulk Modulus (GPa) = 23.03416 37.00793 30.02104
# Shear Modulus (GPa) = 21.18758 31.34087 26.26423
#
# Velocity S-wave (km/s) = 2.92675 3.55960 3.25858
# Velocity P-wave (km/s) = 4.55342 5.64413 5.12786
#
# Compressibility (1/GPa) = 0.04341379
#
# Stress axis : x y z
#
# Youngs Moduli (GPa) = 37.72818 118.26634 70.05105
#
# Poissons Ratio (x) = 0.18069 0.02306
# Poissons Ratio (y) = 0.05764 0.07384
# Poissons Ratio (z) = 0.01242 0.12467
#
# Static dielectric constant tensor:
#      x y z
#    x 2.136200 0.000000 0.017360 
#    y 0.000000 1.919640 0.000000 
#    z 0.017360 0.000000 2.027540 
# 
# From -- ./inp_files/66557.got.cif
#   From: 2010.05.17/outbox.cif.g08.bks.cpg/sg5_34_cif.got.tgz:66557.got - 2010.06.03 18:56:24.
