data_PCOD9122834
_publ_section_title
;
Structure prediction by ZEFSAII (Michael W. Deem and Ramdas Pophale) SiO2 
 PCOD9122834
Probable space group: C 2
;
_chemical_formula_sum "Si O2"
_cell_formula_units_Z 24
_cell_length_a 10.182153
_cell_length_b 19.713804
_cell_length_c 10.728374
_cell_angle_alpha 90.000000
_cell_angle_beta 149.566219
_cell_angle_gamma 90.000000
_cell_volume 1090.836333
_symmetry_space_group_name_H-M "C 2"
_symmetry_group_IT_number 5
_symmetry_cell_setting 'monoclinic'
loop_
_space_group_symop_operation_xyz
x,y,z
-x,y,-z
1/2+x,1/2+y,z
1/2-x,1/2+y,-z
loop_
_atom_site_type_symbol
_atom_site_label
_atom_site_fract_x
_atom_site_fract_y
_atom_site_fract_z
Si Si1 0.000000 0.559820 0.000000
Si Si2 0.874760 0.812906 0.027306
Si Si3 0.198856 0.634359 0.568082
Si Si4 0.634191 0.873824 0.472704
Si Si5 0.486156 0.007564 0.257546
Si Si6 0.380679 0.683399 0.271727
Si Si7 0.500000 0.533975 0.000000
O O1 0.996414 0.513389 0.118796
O O2 0.245357 0.611364 0.190613
O O3 0.096372 0.832936 0.305937
O O4 0.587647 0.844491 0.801048
O O5 0.823973 0.733179 0.962018
O O6 0.000000 0.837621 0.000000
O O7 0.043622 0.583675 0.350759
O O8 0.387288 0.676475 0.636108
O O9 0.364886 0.583249 0.789664
O O10 0.000000 0.670245 0.500000
O O11 0.500000 0.871673 0.500000
O O12 0.678523 0.951774 0.470581
O O13 0.211197 0.991192 0.097181
O O14 0.500000 0.710681 0.500000
#
# Coordination Sequence:
#
# PCOD9122834 Si02
#       7
#     2   4   4   4   4   4   2
#     4  12  24  38  65 105 144 188 214 292 380 430
#     4  10  22  38  64 100 131 177 237 296 343 396
#     4  10  22  38  60  98 137 182 224 284 353 428
#     4  10  22  39  64  97 133 182 235 294 343 406
#     4  11  23  38  63 100 140 179 231 283 365 421
#     4  12  22  40  66 101 145 178 233 296 358 432
#     4  10  20  36  59  93 132 178 224 276 338 430
#
# _framework density 22.001466000000001
#
# number of rings (size 3 to 8) (size 9 to 14) (size 15 to 20)
#    0.000    1.333    4.167    3.000    5.833    0.000 
#    0.000    0.000    0.000    1.000    4.333    0.000 
#    0.000    0.000    0.000    0.000    0.000    0.000 
#
# Total GULP energy -67037.106608 kJ/mol
# GULP energy per Si atom -5586.425551 kJ/mol
# Density = 2.195139 g / cm^3
# Si number density = 22.001466 Si / 1000 Ang^3
#
#
#
# Elastic Constant Matrix: (Units=GPa)
#
#
# Indices 1 2 3 4 5 6 
#
# 1 140.2457 38.0473 55.1909 0.0002 1.8344 0.0001
# 2 38.0473 74.8988 33.1381 0.0000 9.4831 0.0000
# 3 55.1909 33.1381 116.4202 0.0003 11.5934 0.0001
# 4 0.0002 0.0000 0.0003 33.8562 0.0003 7.0980
# 5 1.8344 9.4831 11.5934 0.0003 31.2560 0.0001
# 6 0.0001 0.0000 0.0001 7.0980 0.0001 10.1455
#
#
#
# Elastic Compliance Matrix: (Units=1/GPa)
#
#
# Indices 1 2 3 4 5 6 
#
# 1 0.009494 -0.003415 -0.003714 0.000000 0.001856 0.000000
# 2 -0.003415 0.016805 -0.002780 0.000000 -0.003867 0.000000
# 3 -0.003714 -0.002780 0.011459 0.000000 -0.003189 0.000000
# 4 0.000000 0.000000 0.000000 0.034614 0.000000 -0.024217
# 5 0.001856 -0.003867 -0.003189 0.000000 0.034241 0.000000
# 6 0.000000 0.000000 0.000000 -0.024217 0.000000 0.115508
#
#
# Mechanical properties :
#
#
# Convention : Reuss Voigt Hill
#
# Bulk Modulus (GPa) = 55.73429 64.92414 60.32921
# Shear Modulus (GPa) = 20.16797 28.73077 24.44937
#
# Velocity S-wave (km/s) = 3.03093 3.61758 3.33717
# Velocity P-wave (km/s) = 6.13480 6.85728 6.50608
#
# Compressibility (1/GPa) = 0.01794228
#
# Stress axis : x y z
#
# Youngs Moduli (GPa) = 105.33138 59.50458 87.26897
#
# Poissons Ratio (x) = 0.20319 0.32408
# Poissons Ratio (y) = 0.35968 0.24257
# Poissons Ratio (z) = 0.39116 0.16540
#
# Static dielectric constant tensor:
#      x y z
#    x 1.787530 0.000000 0.045150 
#    y 0.000000 1.831390 0.000000 
#    z 0.045150 0.000000 1.910330 
# 
# From -- ./inp_files/40517.got.cif
#   From: 2010.05.17/outbox.cif.g08.bks.cpg/sg5_21_cif.got.tgz:40517.got - 2010.06.03 18:56:24.
