data_PCOD9122290
_publ_section_title
;
Structure prediction by ZEFSAII (Michael W. Deem and Ramdas Pophale) SiO2 
 PCOD9122290
Probable space group: C 2
;
_chemical_formula_sum "Si O2"
_cell_formula_units_Z 30
_cell_length_a 15.409681
_cell_length_b 8.220181
_cell_length_c 13.653420
_cell_angle_alpha 90.000000
_cell_angle_beta 48.492741
_cell_angle_gamma 90.000000
_cell_volume 1295.161528
_symmetry_space_group_name_H-M "C 2"
_symmetry_group_IT_number 5
_symmetry_cell_setting 'monoclinic'
loop_
_space_group_symop_operation_xyz
x,y,z
-x,y,-z
1/2+x,1/2+y,z
1/2-x,1/2+y,-z
loop_
_atom_site_type_symbol
_atom_site_label
_atom_site_fract_x
_atom_site_fract_y
_atom_site_fract_z
Si Si1 0.884517 0.647310 0.315903
Si Si2 0.191531 0.757301 0.831200
Si Si3 0.886719 0.086188 0.190470
Si Si4 0.599408 0.950094 0.133161
Si Si5 0.500000 0.862694 0.000000
Si Si6 0.657055 0.502108 0.562852
Si Si7 0.081933 0.115388 0.270124
Si Si8 0.136586 0.933940 0.049449
O O1 0.882886 0.681598 0.200254
O O2 0.777280 0.530617 0.419889
O O3 0.005651 0.567221 0.252209
O O4 0.862566 0.816530 0.388524
O O5 0.314104 0.667685 0.737961
O O6 0.191062 0.948711 0.802515
O O7 0.146307 0.770877 0.976810
O O8 0.842949 0.098769 0.333582
O O9 0.020419 0.019075 0.094130
O O10 0.899354 0.253776 0.125623
O O11 0.581262 0.769616 0.194596
O O12 0.566048 0.938461 0.043507
O O13 0.731827 0.000057 0.054164
O O14 0.544639 0.577310 0.593307
O O15 0.112754 0.954892 0.182748
#
# Coordination Sequence:
#
# PCOD9122290 Si02
#       8
#     4   4   4   4   2   4   4   4
#     4  11  25  43  67  93 125 180 230 276 326 404
#     4  10  21  37  64  95 124 170 222 258 327 394
#     4  10  19  40  67  92 127 181 207 270 330 399
#     4  11  24  37  61 100 130 174 213 273 325 393
#     4  12  20  40  62 100 138 166 212 272 326 410
#     4  10  22  43  65  90 127 173 224 276 330 386
#     4  10  21  41  65  93 134 174 211 275 332 392
#     4  10  20  37  59  95 137 167 206 264 332 389
#
# _framework density 23.163132000000001
#
# number of rings (size 3 to 8) (size 9 to 14) (size 15 to 20)
#    0.000    1.600    4.000    0.800    1.867    8.000 
#    0.000    1.333    0.000    6.400    0.000    0.000 
#    0.000    0.000    0.000    0.000    0.000    0.000 
#
# Total GULP energy -83688.196437 kJ/mol
# GULP energy per Si atom -5579.213096 kJ/mol
# Density = 2.311041 g / cm^3
# Si number density = 23.163132 Si / 1000 Ang^3
#
#
#
# Elastic Constant Matrix: (Units=GPa)
#
#
# Indices 1 2 3 4 5 6 
#
# 1 99.6973 31.3780 27.2037 0.0000 -17.9200 0.0000
# 2 31.3780 76.9480 30.4121 0.0000 -5.9419 0.0000
# 3 27.2037 30.4121 110.3873 0.0000 -28.7553 0.0000
# 4 0.0000 0.0000 0.0000 41.2734 0.0000 -5.0257
# 5 -17.9200 -5.9419 -28.7553 0.0000 35.5593 0.0000
# 6 0.0000 0.0000 0.0000 -5.0257 0.0000 18.1181
#
#
#
# Elastic Compliance Matrix: (Units=1/GPa)
#
#
# Indices 1 2 3 4 5 6 
#
# 1 0.012510 -0.004506 -0.000501 0.000000 0.005146 0.000000
# 2 -0.004506 0.016237 -0.004114 0.000000 -0.002885 0.000000
# 3 -0.000501 -0.004114 0.012759 0.000000 0.009377 0.000000
# 4 0.000000 0.000000 0.000000 0.025076 0.000000 0.006956
# 5 0.005146 -0.002885 0.009377 0.000000 0.037817 0.000000
# 6 0.000000 0.000000 0.000000 0.006956 0.000000 0.057123
#
#
# Mechanical properties :
#
#
# Convention : Reuss Voigt Hill
#
# Bulk Modulus (GPa) = 42.98648 51.66892 47.32770
# Shear Modulus (GPa) = 26.66415 32.19275 29.42845
#
# Velocity S-wave (km/s) = 3.39654 3.73208 3.56826
# Velocity P-wave (km/s) = 5.82927 6.39736 6.11991
#
# Compressibility (1/GPa) = 0.02326313
#
# Stress axis : x y z
#
# Youngs Moduli (GPa) = 79.93410 61.58930 78.37769
#
# Poissons Ratio (x) = 0.27753 0.03926
# Poissons Ratio (y) = 0.36019 0.32246
# Poissons Ratio (z) = 0.04004 0.25339
#
# Static dielectric constant tensor:
#      x y z
#    x 1.906950 0.000000 0.038400 
#    y 0.000000 1.950120 0.000000 
#    z 0.038400 0.000000 1.878650 
# 
# From -- ./inp_files/62167.got.cif
#   From: 2010.05.17/outbox.cif.g08.bks.cpg/sg5_32_cif.got.tgz:62167.got - 2010.06.03 18:56:24.
