data_PCOD9122970
_publ_section_title
;
Structure prediction by ZEFSAII (Michael W. Deem and Ramdas Pophale) SiO2 
 PCOD9122970
Probable space group: C 2
;
_chemical_formula_sum "Si O2"
_cell_formula_units_Z 26
_cell_length_a 9.020953
_cell_length_b 21.959614
_cell_length_c 8.002528
_cell_angle_alpha 90.000000
_cell_angle_beta 126.690188
_cell_angle_gamma 90.000000
_cell_volume 1271.196271
_symmetry_space_group_name_H-M "C 2"
_symmetry_group_IT_number 5
_symmetry_cell_setting 'monoclinic'
loop_
_space_group_symop_operation_xyz
x,y,z
-x,y,-z
1/2+x,1/2+y,z
1/2-x,1/2+y,-z
loop_
_atom_site_type_symbol
_atom_site_label
_atom_site_fract_x
_atom_site_fract_y
_atom_site_fract_z
Si Si1 0.574928 0.191970 0.360485
Si Si2 0.444471 0.972313 0.134546
Si Si3 0.500000 0.281848 0.000000
Si Si4 0.292603 0.879875 0.289669
Si Si5 0.225785 0.599339 0.937213
Si Si6 0.354251 0.472841 0.542234
Si Si7 0.597566 0.610492 0.312234
O O1 0.500000 0.206551 0.500000
O O2 0.529892 0.243197 0.191676
O O3 0.459791 0.135926 0.208963
O O4 0.779551 0.162779 0.518889
O O5 0.328717 0.929362 0.172640
O O6 0.641035 0.985318 0.350196
O O7 0.328698 0.033538 0.030841
O O8 0.500000 0.941419 0.000000
O O9 0.680396 0.324982 0.131689
O O10 0.500000 0.864010 0.500000
O O11 0.169436 0.917356 0.342036
O O12 0.309542 0.598423 0.806663
O O13 0.385083 0.630837 0.152232
O O14 0.500000 0.452678 0.500000
O O15 0.415300 0.541345 0.630660
#
# Coordination Sequence:
#
# PCOD9122970 Si02
#       7
#     4   4   2   4   4   4   4
#     4  10  24  45  65  99 138 183 233 287 338 414
#     4  11  22  38  65 103 139 175 225 287 356 416
#     4  12  28  46  74  92 138 202 232 276 340 422
#     4  10  26  47  66  98 139 185 232 288 337 412
#     4  10  20  36  68 101 138 177 217 286 362 408
#     4  11  22  37  65 104 142 176 220 289 354 411
#     4  10  20  37  65 101 140 177 219 287 353 410
#
# _framework density 20.453175999999999
#
# number of rings (size 3 to 8) (size 9 to 14) (size 15 to 20)
#    0.000    1.538    3.077    0.923    5.385    3.077 
#    2.769    0.000    0.000    0.000    0.000    0.000 
#    0.000    0.000    0.000    0.000    0.000    0.000 
#
# Total GULP energy -72441.566017 kJ/mol
# GULP energy per Si atom -5572.428155 kJ/mol
# Density = 2.040662 g / cm^3
# Si number density = 20.453176 Si / 1000 Ang^3
#
#
#
# Elastic Constant Matrix: (Units=GPa)
#
#
# Indices 1 2 3 4 5 6 
#
# 1 94.4153 48.2411 49.5239 0.0000 -6.8713 0.0000
# 2 48.2411 75.7032 59.6442 0.0000 0.8623 0.0000
# 3 49.5239 59.6442 117.2028 0.0000 10.4848 0.0000
# 4 0.0000 0.0000 0.0000 65.1361 0.0000 53.7810
# 5 -6.8713 0.8623 10.4848 0.0000 21.1680 0.0000
# 6 0.0000 0.0000 0.0000 53.7810 0.0000 60.0722
#
#
#
# Elastic Compliance Matrix: (Units=1/GPa)
#
#
# Indices 1 2 3 4 5 6 
#
# 1 0.017341 -0.008029 -0.003949 0.000000 0.007912 0.000000
# 2 -0.008029 0.026260 -0.010089 0.000000 0.001321 0.000000
# 3 -0.003949 -0.010089 0.016128 0.000000 -0.008859 0.000000
# 4 0.000000 0.000000 0.000000 0.058867 0.000000 -0.052702
# 5 0.007912 0.001321 -0.008859 0.000000 0.054144 0.000000
# 6 0.000000 0.000000 0.000000 -0.052702 0.000000 0.063830
#
#
# Mechanical properties :
#
#
# Convention : Reuss Voigt Hill
#
# Bulk Modulus (GPa) = 64.12771 66.90441 65.51606
# Shear Modulus (GPa) = 17.48846 37.93606 27.71226
#
# Velocity S-wave (km/s) = 2.92729 4.31138 3.68491
# Velocity P-wave (km/s) = 6.54575 7.58723 7.08565
#
# Compressibility (1/GPa) = 0.01559388
#
# Stress axis : x y z
#
# Youngs Moduli (GPa) = 57.66545 38.08111 62.00450
#
# Poissons Ratio (x) = 0.30576 0.24488
# Poissons Ratio (y) = 0.46300 0.62556
# Poissons Ratio (z) = 0.22775 0.38420
#
# Static dielectric constant tensor:
#      x y z
#    x 1.663970 0.000000 0.060910 
#    y 0.000000 1.730430 0.000000 
#    z 0.060910 0.000000 1.640770 
# 
# From -- ./inp_files/17024.got.cif
#   From: 2010.05.17/outbox.cif.g08.bks.cpg/sg5_9_cif.got.tgz:17024.got - 2010.06.03 18:56:24.
