data_PCOD9122538
_publ_section_title
;
Structure prediction by ZEFSAII (Michael W. Deem and Ramdas Pophale) SiO2 
 PCOD9122538
Probable space group: C 2
;
_chemical_formula_sum "Si O2"
_cell_formula_units_Z 18
_cell_length_a 14.529631
_cell_length_b 5.229039
_cell_length_c 8.841023
_cell_angle_alpha 90.000000
_cell_angle_beta 81.581569
_cell_angle_gamma 90.000000
_cell_volume 664.468193
_symmetry_space_group_name_H-M "C 2"
_symmetry_group_IT_number 5
_symmetry_cell_setting 'monoclinic'
loop_
_space_group_symop_operation_xyz
x,y,z
-x,y,-z
1/2+x,1/2+y,z
1/2-x,1/2+y,-z
loop_
_atom_site_type_symbol
_atom_site_label
_atom_site_fract_x
_atom_site_fract_y
_atom_site_fract_z
Si Si1 0.566294 0.673630 0.221624
Si Si2 0.856929 0.573818 0.613365
Si Si3 0.559077 0.280179 0.684033
Si Si4 0.000000 0.572842 0.000000
Si Si5 0.214116 0.815225 0.089847
O O1 0.467387 0.581360 0.311766
O O2 0.610018 0.430931 0.125258
O O3 0.634051 0.777987 0.337169
O O4 0.557112 0.879999 0.093732
O O5 0.859194 0.674813 0.441788
O O6 0.779485 0.704015 0.739500
O O7 0.961921 0.660031 0.642421
O O8 0.564842 0.206541 0.857822
O O9 0.235914 0.572674 0.979825
#
# Coordination Sequence:
#
# PCOD9122538 Si02
#       5
#     4   4   4   2   4
#     4  10  20  37  58  90 120 154 194 243 298 348
#     4   9  19  34  57  87 118 150 194 249 287 348
#     4   9  19  33  54  89 118 153 187 243 300 347
#     4  10  20  34  56  90 122 154 188 234 310 356
#     4  11  21  37  59  91 117 154 201 247 289 344
#
# _framework density 27.089334999999998
#
# number of rings (size 3 to 8) (size 9 to 14) (size 15 to 20)
#    0.000    2.222    2.222    0.667    0.000   14.222 
#    0.000    0.000    0.000    0.000   28.889    0.000 
#    0.000    0.000    0.000    0.000    0.000    0.000 
#
# Total GULP energy -50117.888667 kJ/mol
# GULP energy per Si atom -5568.654296 kJ/mol
# Density = 2.702768 g / cm^3
# Si number density = 27.089335 Si / 1000 Ang^3
#
#
#
# Elastic Constant Matrix: (Units=GPa)
#
#
# Indices 1 2 3 4 5 6 
#
# 1 34.9482 7.9871 25.8018 0.0000 -9.0786 0.0000
# 2 7.9871 161.4023 107.5158 0.0000 -16.3128 0.0000
# 3 25.8018 107.5158 281.3727 0.0000 -17.6090 0.0000
# 4 0.0000 0.0000 0.0000 24.7126 0.0000 -8.9819
# 5 -9.0786 -16.3128 -17.6090 0.0000 29.8060 0.0000
# 6 0.0000 0.0000 0.0000 -8.9819 0.0000 32.0652
#
#
#
# Elastic Compliance Matrix: (Units=1/GPa)
#
#
# Indices 1 2 3 4 5 6 
#
# 1 0.032810 0.001223 -0.002916 0.000000 0.008940 0.000000
# 2 0.001223 0.008584 -0.003193 0.000000 0.003184 0.000000
# 3 -0.002916 -0.003193 0.005064 0.000000 0.000356 0.000000
# 4 0.000000 0.000000 0.000000 0.045052 0.000000 0.012620
# 5 0.008940 0.003184 0.000356 0.000000 0.038226 0.000000
# 6 0.000000 0.000000 0.000000 0.012620 0.000000 0.034721
#
#
# Mechanical properties :
#
#
# Convention : Reuss Voigt Hill
#
# Bulk Modulus (GPa) = 27.25969 84.48141 55.87055
# Shear Modulus (GPa) = 26.81571 39.74467 33.28019
#
# Velocity S-wave (km/s) = 3.14968 3.83452 3.50885
# Velocity P-wave (km/s) = 4.82825 7.13153 6.08977
#
# Compressibility (1/GPa) = 0.03668420
#
# Stress axis : x y z
#
# Youngs Moduli (GPa) = 30.47871 116.49749 197.48296
#
# Poissons Ratio (x) = -0.14243 0.57593
# Poissons Ratio (y) = -0.03726 0.63053
# Poissons Ratio (z) = 0.08889 0.37196
#
# Static dielectric constant tensor:
#      x y z
#    x 2.478380 0.000000 0.058010 
#    y 0.000000 2.418650 0.000000 
#    z 0.058010 0.000000 2.197690 
# 
# From -- ./inp_files/28093.got.cif
#   From: 2010.05.17/outbox.cif.g08.bks.cpg/sg5_15_cif.got.tgz:28093.got - 2010.06.03 18:56:24.
