data_PCOD9122159
_publ_section_title
;
Structure prediction by ZEFSAII (Michael W. Deem and Ramdas Pophale) SiO2 
 PCOD9122159
Probable space group: C 2
;
_chemical_formula_sum "Si O2"
_cell_formula_units_Z 28
_cell_length_a 20.872246
_cell_length_b 9.346812
_cell_length_c 23.625620
_cell_angle_alpha 90.000000
_cell_angle_beta 17.695978
_cell_angle_gamma 90.000000
_cell_volume 1401.009825
_symmetry_space_group_name_H-M "C 2"
_symmetry_group_IT_number 5
_symmetry_cell_setting 'monoclinic'
loop_
_space_group_symop_operation_xyz
x,y,z
-x,y,-z
1/2+x,1/2+y,z
1/2-x,1/2+y,-z
loop_
_atom_site_type_symbol
_atom_site_label
_atom_site_fract_x
_atom_site_fract_y
_atom_site_fract_z
Si Si1 0.377782 0.035510 0.458106
Si Si2 0.502673 0.556817 0.694341
Si Si3 0.524196 0.544605 0.849708
Si Si4 0.179835 0.760325 0.013085
Si Si5 0.473170 0.749743 0.615364
Si Si6 0.158990 0.778800 0.787735
Si Si7 0.669179 0.253349 0.151314
O O1 0.221744 0.064643 0.642017
O O2 0.517345 0.167989 0.321254
O O3 0.219626 0.003959 0.539381
O O4 0.516404 0.897700 0.358122
O O5 0.525575 0.621891 0.613196
O O6 0.349386 0.421531 0.824248
O O7 0.404118 0.686520 0.814681
O O8 0.357051 0.431864 0.961259
O O9 0.603070 0.448286 0.835787
O O10 0.400596 0.688257 0.965133
O O11 0.106194 0.724568 0.138448
O O12 0.037745 0.707958 0.079369
O O13 0.252303 0.731500 0.768678
O O14 0.654197 0.763119 0.415702
#
# Coordination Sequence:
#
# PCOD9122159 Si02
#       7
#     4   4   4   4   4   4   4
#     4  11  21  37  59  88 121 157 198 249 299 359
#     4  12  22  34  58  94 124 153 199 252 310 350
#     4   9  20  40  59  88 116 160 209 239 299 357
#     4  10  19  39  58  84 120 158 204 246 284 363
#     4  10  20  39  65  86 116 159 211 252 288 365
#     4   8  19  40  65  83 109 161 218 241 283 362
#     4  12  21  37  57  92 130 150 194 254 315 350
#
# _framework density 19.985583999999999
#
# number of rings (size 3 to 8) (size 9 to 14) (size 15 to 20)
#    0.857    0.857    2.857    2.571    0.000    0.571 
#    5.143    0.000    6.286    1.714    0.000    0.000 
#    0.000    0.000    0.000    0.000    0.000    0.000 
#
# Total GULP energy -78023.104582 kJ/mol
# GULP energy per Si atom -5573.078899 kJ/mol
# Density = 1.994010 g / cm^3
# Si number density = 19.985584 Si / 1000 Ang^3
#
#
#
# Elastic Constant Matrix: (Units=GPa)
#
#
# Indices 1 2 3 4 5 6 
#
# 1 79.3777 6.3694 13.6430 -0.0034 -6.1023 0.0010
# 2 6.3694 46.9676 18.9495 0.0017 15.1684 0.0005
# 3 13.6430 18.9495 43.9508 -0.0063 6.1490 -0.0004
# 4 -0.0034 0.0017 -0.0063 26.5746 -0.0003 -0.1642
# 5 -6.1023 15.1684 6.1490 -0.0003 24.0308 0.0019
# 6 0.0010 0.0005 -0.0004 -0.1642 0.0019 24.1987
#
#
#
# Elastic Compliance Matrix: (Units=1/GPa)
#
#
# Indices 1 2 3 4 5 6 
#
# 1 0.013957 -0.002098 -0.004262 0.000001 0.005959 -0.000001
# 2 -0.002098 0.031531 -0.010459 -0.000005 -0.017759 0.000001
# 3 -0.004262 -0.010459 0.028845 0.000007 -0.001861 0.000001
# 4 0.000001 -0.000005 0.000007 0.037631 0.000002 0.000255
# 5 0.005959 -0.017759 -0.001861 0.000002 0.054812 -0.000004
# 6 -0.000001 0.000001 0.000001 0.000255 -0.000004 0.041326
#
#
# Mechanical properties :
#
#
# Convention : Reuss Voigt Hill
#
# Bulk Modulus (GPa) = 24.57206 27.57999 26.07602
# Shear Modulus (GPa) = 19.58443 23.71644 21.65043
#
# Velocity S-wave (km/s) = 3.13378 3.44856 3.29493
# Velocity P-wave (km/s) = 5.04139 5.44854 5.24892
#
# Compressibility (1/GPa) = 0.04069663
#
# Stress axis : x y z
#
# Youngs Moduli (GPa) = 71.64927 31.71503 34.66766
#
# Poissons Ratio (x) = 0.06653 0.14774
# Poissons Ratio (y) = 0.15030 0.36258
# Poissons Ratio (z) = 0.30534 0.33170
#
# Static dielectric constant tensor:
#      x y z
#    x 1.734260 0.000000 0.000330 
#    y 0.000000 1.662610 0.000000 
#    z 0.000330 0.000000 1.755800 
# 
# From -- ./inp_files/69423.got.cif
#   From: 2010.05.17/outbox.cif.g08.bks.cpg/sg5_35_cif.got.tgz:69423.got - 2010.06.03 18:56:24.
