data_PCOD9122640
_publ_section_title
;
Structure prediction by ZEFSAII (Michael W. Deem and Ramdas Pophale) SiO2 
 PCOD9122640
Probable space group: C 2
;
_chemical_formula_sum "Si O2"
_cell_formula_units_Z 28
_cell_length_a 30.135411
_cell_length_b 8.428407
_cell_length_c 8.498181
_cell_angle_alpha 90.000000
_cell_angle_beta 37.707815
_cell_angle_gamma 90.000000
_cell_volume 1320.203539
_symmetry_space_group_name_H-M "C 2"
_symmetry_group_IT_number 5
_symmetry_cell_setting 'monoclinic'
loop_
_space_group_symop_operation_xyz
x,y,z
-x,y,-z
1/2+x,1/2+y,z
1/2-x,1/2+y,-z
loop_
_atom_site_type_symbol
_atom_site_label
_atom_site_fract_x
_atom_site_fract_y
_atom_site_fract_z
Si Si1 0.797552 0.115590 0.540954
Si Si2 0.889066 0.061663 0.848296
Si Si3 0.547135 0.867132 0.509243
Si Si4 0.743865 0.956710 0.407734
Si Si5 0.832732 0.551377 0.646244
Si Si6 0.311087 0.409561 0.805249
Si Si7 0.957966 0.125769 0.962469
O O1 0.749873 0.273098 0.656237
O O2 0.755259 0.981942 0.559800
O O3 0.813427 0.045058 0.666285
O O4 0.876505 0.157922 0.249827
O O5 0.909654 0.226463 0.705647
O O6 0.944270 0.027335 0.837461
O O7 0.876467 0.937078 0.744442
O O8 0.809315 0.061546 0.151175
O O9 0.500000 0.940748 0.500000
O O10 0.499653 0.778046 0.776038
O O11 0.598095 0.989299 0.455497
O O12 0.670777 0.019424 0.530997
O O13 0.816626 0.734133 0.723183
O O14 0.766479 0.443222 0.897096
O O15 0.000000 0.062816 0.000000
#
# Coordination Sequence:
#
# PCOD9122640 Si02
#       7
#     4   4   4   4   4   4   4
#     4  11  22  37  60  91 121 154 193 242 303 353
#     4   9  19  36  57  84 112 150 199 241 288 342
#     4  10  21  39  61  84 116 160 202 237 286 360
#     4  10  20  35  56  86 120 150 191 243 294 347
#     4  11  21  37  60  89 120 153 199 248 301 346
#     4  11  21  36  62  91 119 149 195 258 302 343
#     4  10  20  36  60  83 113 156 195 229 284 361
#
# _framework density 21.208850999999999
#
# number of rings (size 3 to 8) (size 9 to 14) (size 15 to 20)
#    0.000    1.714    0.000    6.857    0.000    2.286 
#    0.000    3.571    0.000   11.143    0.000    0.000 
#    0.000    0.000    0.000    0.000    0.000    0.000 
#
# Total GULP energy -78033.926098 kJ/mol
# GULP energy per Si atom -5573.851864 kJ/mol
# Density = 2.116058 g / cm^3
# Si number density = 21.208851 Si / 1000 Ang^3
#
#
#
# Elastic Constant Matrix: (Units=GPa)
#
#
# Indices 1 2 3 4 5 6 
#
# 1 197.1606 39.9004 15.5613 0.0000 3.6265 0.0000
# 2 39.9004 68.8069 3.2439 0.0000 -3.8616 0.0000
# 3 15.5613 3.2439 48.1200 0.0000 -1.7197 0.0000
# 4 0.0000 0.0000 0.0000 13.6170 0.0000 -6.9923
# 5 3.6265 -3.8616 -1.7197 0.0000 29.7404 0.0000
# 6 0.0000 0.0000 0.0000 -6.9923 0.0000 38.6595
#
#
#
# Elastic Compliance Matrix: (Units=1/GPa)
#
#
# Indices 1 2 3 4 5 6 
#
# 1 0.005925 -0.003425 -0.001730 0.000000 -0.001267 0.000000
# 2 -0.003425 0.016661 0.000077 0.000000 0.002586 0.000000
# 3 -0.001730 0.000077 0.021388 0.000000 0.001458 0.000000
# 4 0.000000 0.000000 0.000000 0.080956 0.000000 0.014643
# 5 -0.001267 0.002586 0.001458 0.000000 0.034199 0.000000
# 6 0.000000 0.000000 0.000000 0.014643 0.000000 0.028515
#
#
# Mechanical properties :
#
#
# Convention : Reuss Voigt Hill
#
# Bulk Modulus (GPa) = 29.57151 47.94432 38.75791
# Shear Modulus (GPa) = 23.91487 33.42885 28.67186
#
# Velocity S-wave (km/s) = 3.36160 3.97441 3.68078
# Velocity P-wave (km/s) = 5.38892 6.61182 6.03144
#
# Compressibility (1/GPa) = 0.03381633
#
# Stress axis : x y z
#
# Youngs Moduli (GPa) = 168.77279 60.01936 46.75547
#
# Poissons Ratio (x) = 0.20559 0.08091
# Poissons Ratio (y) = 0.57812 -0.00360
# Poissons Ratio (z) = 0.29205 -0.00462
#
# Static dielectric constant tensor:
#      x y z
#    x 1.883250 0.000000 0.048600 
#    y 0.000000 1.717490 0.000000 
#    z 0.048600 0.000000 1.834210 
# 
# From -- ./inp_files/32464.got.cif
#   From: 2010.05.17/outbox.cif.g08.bks.cpg/sg5_17_cif.got.tgz:32464.got - 2010.06.03 18:56:24.
