data_PCOD9122701
_publ_section_title
;
Structure prediction by ZEFSAII (Michael W. Deem and Ramdas Pophale) SiO2 
 PCOD9122701
Probable space group: C 2
;
_chemical_formula_sum "Si O2"
_cell_formula_units_Z 24
_cell_length_a 29.906872
_cell_length_b 7.778106
_cell_length_c 5.164440
_cell_angle_alpha 90.000000
_cell_angle_beta 96.038233
_cell_angle_gamma 90.000000
_cell_volume 1194.680782
_symmetry_space_group_name_H-M "C 2"
_symmetry_group_IT_number 5
_symmetry_cell_setting 'monoclinic'
loop_
_space_group_symop_operation_xyz
x,y,z
-x,y,-z
1/2+x,1/2+y,z
1/2-x,1/2+y,-z
loop_
_atom_site_type_symbol
_atom_site_label
_atom_site_fract_x
_atom_site_fract_y
_atom_site_fract_z
Si Si1 0.500000 0.238081 0.500000
Si Si2 0.097718 0.746144 0.518773
Si Si3 0.903033 0.985405 0.983405
Si Si4 0.681807 0.713818 0.192843
Si Si5 0.732898 0.752777 0.715309
Si Si6 0.500000 0.483616 0.000000
Si Si7 0.813900 0.561318 0.553098
O O1 0.549269 0.151179 0.522711
O O2 0.499952 0.360729 0.750159
O O3 0.099818 0.891085 0.742417
O O4 0.141957 0.630664 0.557838
O O5 0.098810 0.840012 0.240928
O O6 0.951905 0.076010 0.982534
O O7 0.862000 0.112527 0.916015
O O8 0.701067 0.656907 0.483963
O O9 0.672260 0.916629 0.228846
O O10 0.719203 0.700017 0.993187
O O11 0.783551 0.707339 0.668169
O O12 0.718103 0.948954 0.654971
#
# Coordination Sequence:
#
# PCOD9122701 Si02
#       7
#     2   4   4   4   4   2   4
#     4   8  16  34  54  88 110 142 188 236 280 344
#     4  10  21  35  64  85 115 150 194 239 289 341
#     4  10  20  35  62  85 113 150 196 238 290 342
#     4  10  24  38  58  82 118 150 199 236 290 349
#     4  10  25  39  56  82 117 154 194 243 283 355
#     4   8  16  32  54  86 110 140 188 240 280 342
#     4  10  26  38  60  83 121 153 199 236 298 340
#
# _framework density 20.089048999999999
#
# number of rings (size 3 to 8) (size 9 to 14) (size 15 to 20)
#    1.000    1.333    0.000    1.000    9.333    0.000 
#    0.000    0.000    3.667    0.000    0.000    0.000 
#    0.000    0.000    0.000    0.000    0.000    0.000 
#
# Total GULP energy -66835.338004 kJ/mol
# GULP energy per Si atom -5569.611500 kJ/mol
# Density = 2.004333 g / cm^3
# Si number density = 20.089049 Si / 1000 Ang^3
#
#
#
# Elastic Constant Matrix: (Units=GPa)
#
#
# Indices 1 2 3 4 5 6 
#
# 1 158.5529 52.4743 -9.8049 0.0000 -19.6170 0.0000
# 2 52.4743 30.2181 -10.7164 0.0000 -2.8920 0.0000
# 3 -9.8049 -10.7164 67.6442 0.0000 -12.9092 0.0000
# 4 0.0000 0.0000 0.0000 16.0213 0.0000 0.0135
# 5 -19.6170 -2.8920 -12.9092 0.0000 27.0561 0.0000
# 6 0.0000 0.0000 0.0000 0.0135 0.0000 12.6322
#
#
#
# Elastic Compliance Matrix: (Units=1/GPa)
#
#
# Indices 1 2 3 4 5 6 
#
# 1 0.016821 -0.028478 -0.000360 0.000000 0.008980 0.000000
# 2 -0.028478 0.084538 0.007755 0.000000 -0.007911 0.000000
# 3 -0.000360 0.007755 0.017678 0.000000 0.009003 0.000000
# 4 0.000000 0.000000 0.000000 0.062417 0.000000 -0.000067
# 5 0.008980 -0.007911 0.009003 0.000000 0.046921 0.000000
# 6 0.000000 0.000000 0.000000 -0.000067 0.000000 0.079163
#
#
# Mechanical properties :
#
#
# Convention : Reuss Voigt Hill
#
# Bulk Modulus (GPa) = 13.00856 35.59124 24.29990
# Shear Modulus (GPa) = 13.32175 26.10609 19.71392
#
# Velocity S-wave (km/s) = 2.57793 3.60879 3.13601
# Velocity P-wave (km/s) = 3.91797 5.92619 5.02346
#
# Compressibility (1/GPa) = 0.07687248
#
# Stress axis : x y z
#
# Youngs Moduli (GPa) = 59.44999 11.82898 56.56813
#
# Poissons Ratio (x) = 0.33686 0.02034
# Poissons Ratio (y) = 1.69301 -0.43870
# Poissons Ratio (z) = 0.02138 -0.09174
#
# Static dielectric constant tensor:
#      x y z
#    x 1.758240 0.000000 0.028600 
#    y 0.000000 1.716050 0.000000 
#    z 0.028600 0.000000 1.707040 
# 
# From -- ./inp_files/10704.got.cif
#   From: 2010.05.17/outbox.cif.g08.bks.cpg/sg5_6_cif.got.tgz:10704.got - 2010.06.03 18:56:24.
