data_PCOD9122469
_publ_section_title
;
Structure prediction by ZEFSAII (Michael W. Deem and Ramdas Pophale) SiO2 
 PCOD9122469
Probable space group: C 2
;
_chemical_formula_sum "Si O2"
_cell_formula_units_Z 24
_cell_length_a 12.691386
_cell_length_b 13.981338
_cell_length_c 12.326894
_cell_angle_alpha 90.000000
_cell_angle_beta 146.566670
_cell_angle_gamma 90.000000
_cell_volume 1205.137166
_symmetry_space_group_name_H-M "C 2"
_symmetry_group_IT_number 5
_symmetry_cell_setting 'monoclinic'
loop_
_space_group_symop_operation_xyz
x,y,z
-x,y,-z
1/2+x,1/2+y,z
1/2-x,1/2+y,-z
loop_
_atom_site_type_symbol
_atom_site_label
_atom_site_fract_x
_atom_site_fract_y
_atom_site_fract_z
Si Si1 0.779620 0.223160 0.785009
Si Si2 0.600043 0.584558 0.291529
Si Si3 0.940103 0.545535 0.750253
Si Si4 0.219769 0.706460 0.981494
Si Si5 0.295023 0.426986 0.027733
Si Si6 0.299675 0.430498 0.293143
O O1 0.789738 0.133968 0.713887
O O2 0.687757 0.203793 0.822770
O O3 0.702827 0.320584 0.667714
O O4 0.000000 0.247164 0.000000
O O5 0.757184 0.566031 0.518066
O O6 0.481883 0.488982 0.157866
O O7 0.428077 0.657771 0.178421
O O8 0.864552 0.486359 0.787149
O O9 0.052997 0.640098 0.884138
O O10 0.102411 0.482497 0.828677
O O11 0.208795 0.816250 0.008094
O O12 0.289353 0.428430 0.154825
O O13 0.500000 0.475492 0.500000
#
# Coordination Sequence:
#
# PCOD9122469 Si02
#       6
#     4   4   4   4   4   4
#     4   9  19  36  57  85 113 140 182 231 274 328
#     4  10  20  33  55  88 113 143 185 226 278 331
#     4  11  21  33  56  85 115 144 179 238 276 322
#     4   9  21  37  57  82 113 147 184 227 280 325
#     4  10  21  39  56  84 114 146 184 230 277 329
#     4  11  20  34  58  86 111 142 186 230 276 328
#
# _framework density 19.914743999999999
#
# number of rings (size 3 to 8) (size 9 to 14) (size 15 to 20)
#    0.000    2.000    1.667    3.500    4.667    1.333 
#    0.000    0.000    0.000   22.000    0.000    0.000 
#    0.000    0.000    0.000    0.000    0.000    0.000 
#
# Total GULP energy -66962.582860 kJ/mol
# GULP energy per Si atom -5580.215238 kJ/mol
# Density = 1.986942 g / cm^3
# Si number density = 19.914744 Si / 1000 Ang^3
#
#
#
# Elastic Constant Matrix: (Units=GPa)
#
#
# Indices 1 2 3 4 5 6 
#
# 1 42.1804 25.2083 5.9035 -0.0001 3.4571 -0.0001
# 2 25.2083 150.8472 37.3445 -0.0003 7.2102 -0.0005
# 3 5.9035 37.3445 105.9279 0.0001 7.3607 0.0002
# 4 -0.0001 -0.0003 0.0001 32.9385 -0.0002 15.1349
# 5 3.4571 7.2102 7.3607 -0.0002 12.9480 -0.0003
# 6 -0.0001 -0.0005 0.0002 15.1349 -0.0003 59.2622
#
#
#
# Elastic Compliance Matrix: (Units=1/GPa)
#
#
# Indices 1 2 3 4 5 6 
#
# 1 0.026634 -0.004309 0.000377 0.000000 -0.004926 0.000000
# 2 -0.004309 0.008052 -0.002464 0.000000 -0.001932 0.000000
# 3 0.000377 -0.002464 0.010619 0.000000 -0.004765 0.000000
# 4 0.000000 0.000000 0.000000 0.034396 0.000000 -0.008784
# 5 -0.004926 -0.001932 -0.004765 0.000000 0.082332 0.000000
# 6 0.000000 0.000000 0.000000 -0.008784 0.000000 0.019118
#
#
# Mechanical properties :
#
#
# Convention : Reuss Voigt Hill
#
# Bulk Modulus (GPa) = 30.75707 48.42980 39.59343
# Shear Modulus (GPa) = 24.41646 36.39635 30.40640
#
# Velocity S-wave (km/s) = 3.50530 4.27969 3.91170
# Velocity P-wave (km/s) = 5.64453 6.98515 6.35032
#
# Compressibility (1/GPa) = 0.03251285
#
# Stress axis : x y z
#
# Youngs Moduli (GPa) = 37.54646 124.19796 94.16865
#
# Poissons Ratio (x) = 0.53513 -0.03550
# Poissons Ratio (y) = 0.16177 0.23205
# Poissons Ratio (z) = -0.01415 0.30605
#
# Static dielectric constant tensor:
#      x y z
#    x 1.695780 0.000000 -0.000500 
#    y 0.000000 1.740350 0.000000 
#    z -0.000500 0.000000 1.708840 
# 
# From -- ./inp_files/43000.got.cif
#   From: 2010.05.17/outbox.cif.g08.bks.cpg/sg5_22_cif.got.tgz:43000.got - 2010.06.03 18:56:24.
