data_PCOD9122932
_publ_section_title
;
Structure prediction by ZEFSAII (Michael W. Deem and Ramdas Pophale) SiO2 
 PCOD9122932
Probable space group: C 2
;
_chemical_formula_sum "Si O2"
_cell_formula_units_Z 32
_cell_length_a 14.324266
_cell_length_b 8.788835
_cell_length_c 11.766420
_cell_angle_alpha 90.000000
_cell_angle_beta 91.036769
_cell_angle_gamma 90.000000
_cell_volume 1481.074588
_symmetry_space_group_name_H-M "C 2"
_symmetry_group_IT_number 5
_symmetry_cell_setting 'monoclinic'
loop_
_space_group_symop_operation_xyz
x,y,z
-x,y,-z
1/2+x,1/2+y,z
1/2-x,1/2+y,-z
loop_
_atom_site_type_symbol
_atom_site_label
_atom_site_fract_x
_atom_site_fract_y
_atom_site_fract_z
Si Si1 0.802711 0.327510 0.319007
Si Si2 0.112612 0.109536 0.816720
Si Si3 0.178822 0.852559 0.090676
Si Si4 0.703852 0.917656 0.252982
Si Si5 0.167082 0.212544 0.051870
Si Si6 0.848826 0.673472 0.342287
Si Si7 0.132447 0.685730 0.404890
Si Si8 0.506245 0.311850 0.212399
O O1 0.891634 0.226522 0.288118
O O2 0.742539 0.324140 0.201681
O O3 0.818365 0.500500 0.344897
O O4 0.739061 0.245916 0.409599
O O5 0.213764 0.022252 0.803237
O O6 0.106698 0.201633 0.934832
O O7 0.036550 0.978092 0.807648
O O8 0.077384 0.781727 0.111376
O O9 0.172141 0.034957 0.083734
O O10 0.231898 0.774563 0.988094
O O11 0.645398 0.826593 0.155085
O O12 0.763813 0.789929 0.320704
O O13 0.643153 0.025819 0.335386
O O14 0.897424 0.692019 0.465615
O O15 0.920562 0.702309 0.240404
O O16 0.071048 0.796728 0.325472
#
# Coordination Sequence:
#
# PCOD9122932 Si02
#       8
#     4   4   4   4   4   4   4   4
#     4   9  19  37  60  92 119 159 214 258 295 384
#     4   9  20  38  59  88 128 163 202 254 318 378
#     4  10  21  37  63  87 122 161 205 254 320 376
#     4  10  20  36  64  95 119 164 217 259 303 377
#     4  11  19  37  63  89 122 163 206 256 307 377
#     4  11  20  38  64  91 125 162 210 271 317 358
#     4  10  21  39  63  88 125 168 217 255 317 366
#     4  10  23  40  59  89 126 168 201 259 321 381
#
# _framework density 21.605933
#
# number of rings (size 3 to 8) (size 9 to 14) (size 15 to 20)
#    0.000    2.000    2.500    1.875    0.000    0.500 
#    2.250    0.000    0.000    0.000    0.000    0.000 
#    0.000    0.000    0.000    0.000    0.000    0.000 
#
# Total GULP energy -89180.496553 kJ/mol
# GULP energy per Si atom -5573.781035 kJ/mol
# Density = 2.155676 g / cm^3
# Si number density = 21.605933 Si / 1000 Ang^3
#
#
#
# Elastic Constant Matrix: (Units=GPa)
#
#
# Indices 1 2 3 4 5 6 
#
# 1 29.3360 5.9652 10.3477 0.0000 -1.9645 0.0000
# 2 5.9652 95.8720 25.2956 0.0000 2.0290 0.0000
# 3 10.3477 25.2956 63.0787 0.0000 2.9606 0.0000
# 4 0.0000 0.0000 0.0000 14.7846 0.0000 -0.5219
# 5 -1.9645 2.0290 2.9606 0.0000 28.5124 0.0000
# 6 0.0000 0.0000 0.0000 -0.5219 0.0000 18.2119
#
#
#
# Elastic Compliance Matrix: (Units=1/GPa)
#
#
# Indices 1 2 3 4 5 6 
#
# 1 0.036516 -0.000805 -0.005817 0.000000 0.003177 0.000000
# 2 -0.000805 0.011686 -0.004535 0.000000 -0.000416 0.000000
# 3 -0.005817 -0.004535 0.018721 0.000000 -0.002022 0.000000
# 4 0.000000 0.000000 0.000000 0.067706 0.000000 0.001940
# 5 0.003177 -0.000416 -0.002022 0.000000 0.035531 0.000000
# 6 0.000000 0.000000 0.000000 0.001940 0.000000 0.054965
#
#
# Mechanical properties :
#
#
# Convention : Reuss Voigt Hill
#
# Bulk Modulus (GPa) = 22.41619 30.16710 26.29164
# Shear Modulus (GPa) = 19.06166 22.08034 20.57100
#
# Velocity S-wave (km/s) = 2.97348 3.20027 3.08896
# Velocity P-wave (km/s) = 4.71023 5.25817 4.99173
#
# Compressibility (1/GPa) = 0.04461062
#
# Stress axis : x y z
#
# Youngs Moduli (GPa) = 27.38533 85.57299 53.41647
#
# Poissons Ratio (x) = 0.06885 0.31071
# Poissons Ratio (y) = 0.02203 0.24223
# Poissons Ratio (z) = 0.15929 0.38805
#
# Static dielectric constant tensor:
#      x y z
#    x 1.862110 0.000000 -0.038580 
#    y 0.000000 1.778190 0.000000 
#    z -0.038580 0.000000 1.820940 
# 
# From -- ./inp_files/41957.got.cif
#   From: 2010.05.17/outbox.cif.g08.bks.cpg/sg5_21_cif.got.tgz:41957.got - 2010.06.03 18:56:24.
