data_PCOD9122109
_publ_section_title
;
Structure prediction by ZEFSAII (Michael W. Deem and Ramdas Pophale) SiO2 
 PCOD9122109
Probable space group: C 2
;
_chemical_formula_sum "Si O2"
_cell_formula_units_Z 26
_cell_length_a 15.433237
_cell_length_b 10.179321
_cell_length_c 7.148947
_cell_angle_alpha 90.000000
_cell_angle_beta 72.232351
_cell_angle_gamma 90.000000
_cell_volume 1069.528936
_symmetry_space_group_name_H-M "C 2"
_symmetry_group_IT_number 5
_symmetry_cell_setting 'monoclinic'
loop_
_space_group_symop_operation_xyz
x,y,z
-x,y,-z
1/2+x,1/2+y,z
1/2-x,1/2+y,-z
loop_
_atom_site_type_symbol
_atom_site_label
_atom_site_fract_x
_atom_site_fract_y
_atom_site_fract_z
Si Si1 0.120616 0.975990 0.703921
Si Si2 0.761727 0.361441 0.875207
Si Si3 0.921466 0.504572 0.270577
Si Si4 0.827996 0.249583 0.209134
Si Si5 0.000000 0.828075 0.500000
Si Si6 0.395560 0.081916 0.713393
Si Si7 0.242881 0.146457 0.382279
O O1 0.168691 0.880085 0.820950
O O2 0.036918 0.913087 0.649569
O O3 0.115519 0.113028 0.822346
O O4 0.187866 0.018414 0.487163
O O5 0.805418 0.507724 0.844864
O O6 0.808279 0.243354 0.724769
O O7 0.770180 0.300377 0.072887
O O8 0.899065 0.362575 0.210039
O O9 0.905742 0.508003 0.506294
O O10 0.842006 0.601193 0.252256
O O11 0.026005 0.544924 0.189283
O O12 0.756837 0.226597 0.424372
O O13 0.923488 0.729356 0.635685
#
# Coordination Sequence:
#
# PCOD9122109 Si02
#       7
#     4   4   4   4   2   4   4
#     4  10  23  40  66 102 135 189 231 293 358 410
#     4  12  22  41  66 104 139 181 239 289 352 436
#     4  10  19  38  64  95 133 173 234 276 350 417
#     4  10  24  37  66 102 137 183 233 288 356 428
#     4  10  22  42  72  96 144 180 246 286 358 432
#     4  10  20  36  69  95 130 186 225 291 344 419
#     4  10  21  40  65  97 132 184 228 287 354 414
#
# _framework density 24.30977
#
# number of rings (size 3 to 8) (size 9 to 14) (size 15 to 20)
#    0.923    0.923    3.077    1.846    2.154    3.077 
#    0.000    0.000    6.769    0.000    0.000    0.000 
#    0.000    0.000    0.000    0.000    0.000    0.000 
#
# Total GULP energy -72447.783726 kJ/mol
# GULP energy per Si atom -5572.906440 kJ/mol
# Density = 2.425444 g / cm^3
# Si number density = 24.309770 Si / 1000 Ang^3
#
#
#
# Elastic Constant Matrix: (Units=GPa)
#
#
# Indices 1 2 3 4 5 6 
#
# 1 86.7957 28.6881 25.9066 0.0000 18.8949 0.0000
# 2 28.6881 146.6808 35.8933 0.0000 16.5604 0.0000
# 3 25.9066 35.8933 89.2379 0.0000 28.3914 0.0000
# 4 0.0000 0.0000 0.0000 31.4063 0.0000 9.1012
# 5 18.8949 16.5604 28.3914 0.0000 36.8786 0.0000
# 6 0.0000 0.0000 0.0000 9.1012 0.0000 25.8647
#
#
#
# Elastic Compliance Matrix: (Units=1/GPa)
#
#
# Indices 1 2 3 4 5 6 
#
# 1 0.013666 -0.001697 -0.001721 0.000000 -0.004915 0.000000
# 2 -0.001697 0.007827 -0.002402 0.000000 -0.000796 0.000000
# 3 -0.001721 -0.002402 0.015956 0.000000 -0.010324 0.000000
# 4 0.000000 0.000000 0.000000 0.035456 0.000000 -0.012476
# 5 -0.004915 -0.000796 -0.010324 0.000000 0.037939 0.000000
# 6 0.000000 0.000000 0.000000 -0.012476 0.000000 0.043053
#
#
# Mechanical properties :
#
#
# Convention : Reuss Voigt Hill
#
# Bulk Modulus (GPa) = 38.74668 55.96559 47.35614
# Shear Modulus (GPa) = 28.71235 34.31169 31.51202
#
# Velocity S-wave (km/s) = 3.44045 3.76098 3.60428
# Velocity P-wave (km/s) = 5.63521 6.47548 6.06990
#
# Compressibility (1/GPa) = 0.02580866
#
# Stress axis : x y z
#
# Youngs Moduli (GPa) = 73.17559 127.76104 62.67052
#
# Poissons Ratio (x) = 0.21677 0.10787
# Poissons Ratio (y) = 0.12416 0.15056
# Poissons Ratio (z) = 0.12595 0.30694
#
# Static dielectric constant tensor:
#      x y z
#    x 1.995560 0.000000 -0.044050 
#    y 0.000000 1.978450 0.000000 
#    z -0.044050 0.000000 2.002020 
# 
# From -- ./inp_files/23360.got.cif
#   From: 2010.05.17/outbox.cif.g08.bks.cpg/sg5_12_cif.got.tgz:23360.got - 2010.06.03 18:56:24.
