data_PCOD9122686
_publ_section_title
;
Structure prediction by ZEFSAII (Michael W. Deem and Ramdas Pophale) SiO2 
 PCOD9122686
Probable space group: C 2
;
_chemical_formula_sum "Si O2"
_cell_formula_units_Z 28
_cell_length_a 15.413746
_cell_length_b 9.779557
_cell_length_c 10.513494
_cell_angle_alpha 90.000000
_cell_angle_beta 137.485835
_cell_angle_gamma 90.000000
_cell_volume 1070.964169
_symmetry_space_group_name_H-M "C 2"
_symmetry_group_IT_number 5
_symmetry_cell_setting 'monoclinic'
loop_
_space_group_symop_operation_xyz
x,y,z
-x,y,-z
1/2+x,1/2+y,z
1/2-x,1/2+y,-z
loop_
_atom_site_type_symbol
_atom_site_label
_atom_site_fract_x
_atom_site_fract_y
_atom_site_fract_z
Si Si1 0.445296 0.509990 0.614748
Si Si2 0.786271 0.026823 0.195008
Si Si3 0.986581 0.549858 0.133949
Si Si4 0.586417 0.920844 0.482099
Si Si5 0.365276 0.456815 0.812124
Si Si6 0.349124 0.752589 0.860038
Si Si7 0.876479 0.720868 0.541412
O O1 0.343045 0.556278 0.397834
O O2 0.589183 0.562653 0.753954
O O3 0.389245 0.514163 0.694999
O O4 0.463604 0.348639 0.604676
O O5 0.724861 0.869488 0.136890
O O6 0.659202 0.101083 0.006928
O O7 0.021547 0.427241 0.271881
O O8 0.087468 0.665877 0.282201
O O9 0.000000 0.525096 0.000000
O O10 0.500000 0.860939 0.500000
O O11 0.732968 0.874994 0.657559
O O12 0.597839 0.086167 0.512911
O O13 0.342574 0.589128 0.879272
O O14 0.500000 0.392267 0.000000
O O15 0.266997 0.767834 0.640857
O O16 0.500000 0.769422 0.000000
#
# Coordination Sequence:
#
# PCOD9122686 Si02
#       7
#     4   4   4   4   4   4   4
#     4  10  21  37  56  91 124 163 209 264 317 383
#     4  10  21  35  62  89 122 159 219 263 308 384
#     4  10  20  35  60  87 120 157 211 260 321 373
#     4   9  20  35  61  87 118 162 216 257 314 382
#     4  10  21  34  57  84 126 160 201 259 322 370
#     4   9  18  35  56  90 116 157 207 265 305 369
#     4   8  20  34  59  83 122 161 204 261 311 383
#
# _framework density 26.144665
#
# number of rings (size 3 to 8) (size 9 to 14) (size 15 to 20)
#    0.857    1.714    0.000    1.286    8.000    1.714 
#    2.571    0.000    0.000    0.000    0.000    0.000 
#    0.000    0.000    0.000    0.000    0.000    0.000 
#
# Total GULP energy -77968.599573 kJ/mol
# GULP energy per Si atom -5569.185684 kJ/mol
# Density = 2.608516 g / cm^3
# Si number density = 26.144665 Si / 1000 Ang^3
#
#
#
# Elastic Constant Matrix: (Units=GPa)
#
#
# Indices 1 2 3 4 5 6 
#
# 1 126.1230 -1.3648 77.0563 0.0000 12.4283 0.0000
# 2 -1.3648 53.0536 -2.9091 0.0000 -0.2377 0.0000
# 3 77.0563 -2.9091 224.8951 0.0000 14.5653 0.0000
# 4 0.0000 0.0000 0.0000 9.8340 0.0000 7.4430
# 5 12.4283 -0.2377 14.5653 0.0000 50.5606 0.0000
# 6 0.0000 0.0000 0.0000 7.4430 0.0000 12.8227
#
#
#
# Elastic Compliance Matrix: (Units=1/GPa)
#
#
# Indices 1 2 3 4 5 6 
#
# 1 0.010142 0.000069 -0.003375 0.000000 -0.001520 0.000000
# 2 0.000069 0.018863 0.000220 0.000000 0.000008 0.000000
# 3 -0.003375 0.000220 0.005658 0.000000 -0.000799 0.000000
# 4 0.000000 0.000000 0.000000 0.181369 0.000000 -0.105277
# 5 -0.001520 0.000008 -0.000799 0.000000 0.020382 0.000000
# 6 0.000000 0.000000 0.000000 -0.105277 0.000000 0.139096
#
#
# Mechanical properties :
#
#
# Convention : Reuss Voigt Hill
#
# Bulk Modulus (GPa) = 35.10172 61.07071 48.08621
# Shear Modulus (GPa) = 12.78190 36.72941 24.75565
#
# Velocity S-wave (km/s) = 2.21349 3.75220 3.08047
# Velocity P-wave (km/s) = 4.47077 6.49473 5.57536
#
# Compressibility (1/GPa) = 0.02848863
#
# Stress axis : x y z
#
# Youngs Moduli (GPa) = 98.60370 53.01460 176.75142
#
# Poissons Ratio (x) = -0.00366 0.59662
# Poissons Ratio (y) = -0.00680 -0.03885
# Poissons Ratio (z) = 0.33284 -0.01165
#
# Static dielectric constant tensor:
#      x y z
#    x 2.060090 0.000000 0.007940 
#    y 0.000000 2.160000 0.000000 
#    z 0.007940 0.000000 2.090460 
# 
# From -- ./inp_files/42942.got.cif
#   From: 2010.05.17/outbox.cif.g08.bks.cpg/sg5_22_cif.got.tgz:42942.got - 2010.06.03 18:56:24.
