data_PCOD9122399
_publ_section_title
;
Structure prediction by ZEFSAII (Michael W. Deem and Ramdas Pophale) SiO2 
 PCOD9122399
Probable space group: C 2
;
_chemical_formula_sum "Si O2"
_cell_formula_units_Z 30
_cell_length_a 12.241067
_cell_length_b 6.947460
_cell_length_c 15.057011
_cell_angle_alpha 90.000000
_cell_angle_beta 85.376618
_cell_angle_gamma 90.000000
_cell_volume 1276.346607
_symmetry_space_group_name_H-M "C 2"
_symmetry_group_IT_number 5
_symmetry_cell_setting 'monoclinic'
loop_
_space_group_symop_operation_xyz
x,y,z
-x,y,-z
1/2+x,1/2+y,z
1/2-x,1/2+y,-z
loop_
_atom_site_type_symbol
_atom_site_label
_atom_site_fract_x
_atom_site_fract_y
_atom_site_fract_z
Si Si1 0.152134 0.845700 0.842729
Si Si2 0.434468 0.020131 0.661170
Si Si3 0.674743 0.926933 0.619178
Si Si4 0.276790 0.368943 0.427872
Si Si5 0.302870 0.491248 0.774584
Si Si6 0.483287 0.440388 0.327262
Si Si7 0.500000 0.167181 0.000000
Si Si8 0.649384 0.104914 0.141453
O O1 0.232030 0.664609 0.817322
O O2 0.084849 0.894464 0.758145
O O3 0.071046 0.789792 0.926494
O O4 0.230046 0.019084 0.865242
O O5 0.543982 0.905639 0.627379
O O6 0.462075 0.243895 0.639250
O O7 0.413305 0.021835 0.768136
O O8 0.326631 0.953304 0.617725
O O9 0.696313 0.157304 0.610406
O O10 0.740675 0.847703 0.531522
O O11 0.726187 0.873430 0.710309
O O12 0.387285 0.492375 0.402840
O O13 0.410558 0.559124 0.712048
O O14 0.342303 0.335160 0.843958
O O15 0.416281 0.053115 0.942639
#
# Coordination Sequence:
#
# PCOD9122399 Si02
#       8
#     4   4   4   4   4   4   2   4
#     4  12  24  51  68 105 145 175 240 292 355 428
#     4  10  19  45  67  89 137 185 219 292 355 388
#     4  11  24  41  66 100 140 182 242 294 341 421
#     4  11  23  42  64 101 137 185 237 297 344 412
#     4  11  23  49  72 101 140 196 231 286 366 413
#     4  10  22  43  69  95 137 184 226 292 346 416
#     4  12  26  48  72 110 144 170 238 304 348 432
#     4  11  25  45  76 100 138 187 228 294 356 428
#
# _framework density 23.504587000000001
#
# number of rings (size 3 to 8) (size 9 to 14) (size 15 to 20)
#    0.000    1.067    6.667    0.400    5.600    0.533 
#   14.400    1.333    0.000    0.000    0.000    0.000 
#    0.000    0.000    0.000    0.000    0.000    0.000 
#
# Total GULP energy -83968.530513 kJ/mol
# GULP energy per Si atom -5597.902034 kJ/mol
# Density = 2.345109 g / cm^3
# Si number density = 23.504587 Si / 1000 Ang^3
#
#
#
# Elastic Constant Matrix: (Units=GPa)
#
#
# Indices 1 2 3 4 5 6 
#
# 1 139.2437 28.4769 3.8877 0.0000 -28.3403 0.0000
# 2 28.4769 49.6746 5.3979 0.0000 -1.1276 0.0000
# 3 3.8877 5.3979 61.9024 0.0000 -16.4989 0.0000
# 4 0.0000 0.0000 0.0000 19.0159 0.0000 -2.1823
# 5 -28.3403 -1.1276 -16.4989 0.0000 54.0974 0.0000
# 6 0.0000 0.0000 0.0000 -2.1823 0.0000 43.9363
#
#
#
# Elastic Compliance Matrix: (Units=1/GPa)
#
#
# Indices 1 2 3 4 5 6 
#
# 1 0.009284 -0.005342 0.001251 0.000000 0.005134 0.000000
# 2 -0.005342 0.023398 -0.002526 0.000000 -0.003081 0.000000
# 3 0.001251 -0.002526 0.017913 0.000000 0.006066 0.000000
# 4 0.000000 0.000000 0.000000 0.052889 0.000000 0.002627
# 5 0.005134 -0.003081 0.006066 0.000000 0.022961 0.000000
# 6 0.000000 0.000000 0.000000 0.002627 0.000000 0.022891
#
#
# Mechanical properties :
#
#
# Convention : Reuss Voigt Hill
#
# Bulk Modulus (GPa) = 26.76552 36.26063 31.51308
# Shear Modulus (GPa) = 28.56784 37.61381 33.09083
#
# Velocity S-wave (km/s) = 3.49006 4.00468 3.75620
# Velocity P-wave (km/s) = 5.25859 6.06991 5.67876
#
# Compressibility (1/GPa) = 0.03736150
#
# Stress axis : x y z
#
# Youngs Moduli (GPa) = 107.71154 42.73912 55.82567
#
# Poissons Ratio (x) = 0.22830 -0.06984
# Poissons Ratio (y) = 0.57536 0.14102
# Poissons Ratio (z) = -0.13475 0.10796
#
# Static dielectric constant tensor:
#      x y z
#    x 1.891130 0.000000 -0.017370 
#    y 0.000000 1.980550 0.000000 
#    z -0.017370 0.000000 1.863230 
# 
# From -- ./inp_files/52277.got.cif
#   From: 2010.05.17/outbox.cif.g08.bks.cpg/sg5_27_cif.got.tgz:52277.got - 2010.06.03 18:56:24.
