data_PCOD9122676
_publ_section_title
;
Structure prediction by ZEFSAII (Michael W. Deem and Ramdas Pophale) SiO2 
 PCOD9122676
Probable space group: C 2
;
_chemical_formula_sum "Si O2"
_cell_formula_units_Z 28
_cell_length_a 13.164241
_cell_length_b 8.516999
_cell_length_c 12.729720
_cell_angle_alpha 90.000000
_cell_angle_beta 121.135781
_cell_angle_gamma 90.000000
_cell_volume 1221.649998
_symmetry_space_group_name_H-M "C 2"
_symmetry_group_IT_number 5
_symmetry_cell_setting 'monoclinic'
loop_
_space_group_symop_operation_xyz
x,y,z
-x,y,-z
1/2+x,1/2+y,z
1/2-x,1/2+y,-z
loop_
_atom_site_type_symbol
_atom_site_label
_atom_site_fract_x
_atom_site_fract_y
_atom_site_fract_z
Si Si1 0.251822 0.155260 0.646909
Si Si2 0.798049 0.468565 0.864296
Si Si3 0.037340 0.508130 0.351935
Si Si4 0.185405 0.508130 0.648065
Si Si5 0.933753 0.968565 0.135704
Si Si6 0.500000 0.222279 0.000000
Si Si7 0.604913 0.655260 0.353091
Si Si8 0.500000 0.722279 0.000000
O O1 0.232185 0.021091 0.722492
O O2 0.231078 0.328942 0.681659
O O3 0.165680 0.138065 0.500000
O O4 0.385505 0.123280 0.677951
O O5 0.700060 0.438106 0.900120
O O6 0.892157 0.329937 0.903564
O O7 0.882770 0.616241 0.935486
O O8 0.105715 0.508757 0.500000
O O9 0.049420 0.328942 0.318341
O O10 0.900956 0.549332 0.301912
O O11 0.292446 0.623280 0.677951
O O12 0.009693 0.021092 0.277508
O O13 0.947284 0.116240 0.064514
O O14 0.988592 0.829936 0.096436
#
# Coordination Sequence:
#
# PCOD9122676 Si02
#       8
#     4   4   4   4   4   2   4   2
#     4  10  20  35  59  90 119 149 188 233 288 352
#     4  11  22  40  63  85 116 153 191 240 289 336
#     4   9  18  34  53  77 116 157 187 223 275 336
#     4   9  18  34  53  77 116 157 187 223 275 336
#     4  11  22  40  63  85 116 153 191 240 289 336
#     4  10  24  42  60  86 112 150 204 242 276 334
#     4  10  20  35  59  90 119 149 188 233 288 352
#     4  10  24  42  60  86 112 150 204 242 276 334
#
# _framework density 22.919822
#
# number of rings (size 3 to 8) (size 9 to 14) (size 15 to 20)
#    0.000    2.000    0.000    3.429    0.000    1.714 
#    0.000   12.857    0.000   17.143    0.000    0.000 
#    0.000    0.000    0.000    0.000    0.000    0.000 
#
# Total GULP energy -78298.457286 kJ/mol
# GULP energy per Si atom -5592.746949 kJ/mol
# Density = 2.286766 g / cm^3
# Si number density = 22.919822 Si / 1000 Ang^3
#
#
#
# Elastic Constant Matrix: (Units=GPa)
#
#
# Indices 1 2 3 4 5 6 
#
# 1 153.2739 14.4557 16.2269 0.0000 5.8680 0.0000
# 2 14.4557 55.4161 32.6109 0.0000 -1.1933 0.0000
# 3 16.2269 32.6109 77.6203 0.0000 -0.8965 0.0000
# 4 0.0000 0.0000 0.0000 25.4506 0.0000 -1.6011
# 5 5.8680 -1.1933 -0.8965 0.0000 24.3208 0.0000
# 6 0.0000 0.0000 0.0000 -1.6011 0.0000 1.0861
#
#
#
# Elastic Compliance Matrix: (Units=1/GPa)
#
#
# Indices 1 2 3 4 5 6 
#
# 1 0.006807 -0.001281 -0.000905 0.000000 -0.001739 0.000000
# 2 -0.001281 0.024229 -0.009899 0.000000 0.001133 0.000000
# 3 -0.000905 -0.009899 0.017235 0.000000 0.000368 0.000000
# 4 0.000000 0.000000 0.000000 0.043309 0.000000 0.063849
# 5 -0.001739 0.001133 0.000368 0.000000 0.041606 0.000000
# 6 0.000000 0.000000 0.000000 0.063849 0.000000 1.014888
#
#
# Mechanical properties :
#
#
# Convention : Reuss Voigt Hill
#
# Bulk Modulus (GPa) = 41.48846 45.87747 43.68297
# Shear Modulus (GPa) = 4.23629 25.03926 14.63778
#
# Velocity S-wave (km/s) = 1.36100 3.30884 2.52990
# Velocity P-wave (km/s) = 4.53989 5.88709 5.25683
#
# Compressibility (1/GPa) = 0.02410309
#
# Stress axis : x y z
#
# Youngs Moduli (GPa) = 146.89822 41.27328 58.02001
#
# Poissons Ratio (x) = 0.05285 0.05252
# Poissons Ratio (y) = 0.18810 0.57431
# Poissons Ratio (z) = 0.13298 0.40854
#
# Static dielectric constant tensor:
#      x y z
#    x 1.858540 0.000000 -0.001580 
#    y 0.000000 1.824420 0.000000 
#    z -0.001580 0.000000 1.882670 
# 
# From -- ./inp_files/52522.got.cif
#   From: 2010.05.17/outbox.cif.g08.bks.cpg/sg5_27_cif.got.tgz:52522.got - 2010.06.03 18:56:24.
