data_PCOD9122086
_publ_section_title
;
Structure prediction by ZEFSAII (Michael W. Deem and Ramdas Pophale) SiO2 
 PCOD9122086
Probable space group: C 2
;
_chemical_formula_sum "Si O2"
_cell_formula_units_Z 28
_cell_length_a 19.721254
_cell_length_b 14.223974
_cell_length_c 9.216741
_cell_angle_alpha 90.000000
_cell_angle_beta 151.925342
_cell_angle_gamma 90.000000
_cell_volume 1216.759596
_symmetry_space_group_name_H-M "C 2"
_symmetry_group_IT_number 5
_symmetry_cell_setting 'monoclinic'
loop_
_space_group_symop_operation_xyz
x,y,z
-x,y,-z
1/2+x,1/2+y,z
1/2-x,1/2+y,-z
loop_
_atom_site_type_symbol
_atom_site_label
_atom_site_fract_x
_atom_site_fract_y
_atom_site_fract_z
Si Si1 0.180580 0.859090 0.041736
Si Si2 0.808005 0.084038 0.972214
Si Si3 0.435287 0.794028 0.736254
Si Si4 0.124902 0.348830 0.847341
Si Si5 0.074724 0.084985 0.280267
Si Si6 0.468133 0.202589 0.611158
Si Si7 0.303298 0.053484 0.924910
O O1 0.299995 0.830536 0.386826
O O2 0.232289 0.828701 0.975695
O O3 0.196194 0.971637 0.067227
O O4 0.025520 0.806860 0.767703
O O5 0.686483 0.150228 0.668340
O O6 0.787440 0.091446 0.107196
O O7 0.962013 0.104385 0.195685
O O8 0.575913 0.796991 0.898185
O O9 0.382688 0.690422 0.685478
O O10 0.500000 0.845021 0.000000
O O11 0.000000 0.325932 0.500000
O O12 0.121915 0.459214 0.878227
O O13 0.203625 0.031277 0.599887
O O14 0.000000 0.038527 0.000000
O O15 0.500000 0.193492 0.500000
O O16 0.582707 0.132382 0.901355
#
# Coordination Sequence:
#
# PCOD9122086 Si02
#       7
#     4   4   4   4   4   4   4
#     4  10  20  38  64  93 123 159 214 267 319 392
#     4  10  23  40  63  93 128 158 208 271 327 377
#     4  10  21  37  60  86 123 169 211 252 311 389
#     4   9  19  34  61  96 123 153 210 270 323 382
#     4  11  24  40  59  86 125 170 208 247 311 386
#     4  10  20  35  63  93 124 159 203 263 326 377
#     4  10  19  38  63  90 120 162 204 260 322 380
#
# _framework density 23.011942000000001
#
# number of rings (size 3 to 8) (size 9 to 14) (size 15 to 20)
#    0.000    2.000    1.429    3.429    4.000    4.571 
#    0.000    0.714    0.000    0.000    0.000    0.000 
#    0.000    0.000    0.000    0.000    0.000    0.000 
#
# Total GULP energy -77979.420578 kJ/mol
# GULP energy per Si atom -5569.958613 kJ/mol
# Density = 2.295957 g / cm^3
# Si number density = 23.011942 Si / 1000 Ang^3
#
#
#
# Elastic Constant Matrix: (Units=GPa)
#
#
# Indices 1 2 3 4 5 6 
#
# 1 31.2362 6.8828 26.7274 0.0000 -10.8175 0.0000
# 2 6.8828 84.4963 25.2671 0.0000 9.0158 0.0000
# 3 26.7274 25.2671 108.2388 0.0000 -11.7193 0.0000
# 4 0.0000 0.0000 0.0000 2082.9457 0.0000 558.2288
# 5 -10.8175 9.0158 -11.7193 0.0000 32.6539 0.0000
# 6 0.0000 0.0000 0.0000 558.2288 0.0000 161.3429
#
#
#
# Elastic Compliance Matrix: (Units=1/GPa)
#
#
# Indices 1 2 3 4 5 6 
#
# 1 0.044523 -0.002167 -0.009183 0.000000 0.012052 0.000000
# 2 -0.002167 0.013583 -0.003246 0.000000 -0.005633 0.000000
# 3 -0.009183 -0.003246 0.012518 0.000000 0.002347 0.000000
# 4 0.000000 0.000000 0.000000 0.006599 0.000000 -0.022832
# 5 0.012052 -0.005633 0.002347 0.000000 0.037014 0.000000
# 6 0.000000 0.000000 0.000000 -0.022832 0.000000 0.085195
#
#
# Mechanical properties :
#
#
# Convention : Reuss Voigt Hill
#
# Bulk Modulus (GPa) = 24.13539 37.96955 31.05247
# Shear Modulus (GPa) = 20.62409 466.39477 243.50943
#
# Velocity S-wave (km/s) = 2.99696 14.25185 10.29798
# Velocity P-wave (km/s) = 4.74201 16.95157 12.44674
#
# Compressibility (1/GPa) = 0.04143294
#
# Stress axis : x y z
#
# Youngs Moduli (GPa) = 22.46025 73.62202 79.88346
#
# Poissons Ratio (x) = 0.15950 0.73361
# Poissons Ratio (y) = 0.04866 0.25928
# Poissons Ratio (z) = 0.20626 0.23895
#
# Static dielectric constant tensor:
#      x y z
#    x -4.856920 0.000000 -2.747640 
#    y 0.000000 1.991500 0.000000 
#    z -2.747640 0.000000 0.757690 
# 
# From -- ./inp_files/29918.got.cif
#   From: 2010.05.17/outbox.cif.g08.bks.cpg/sg5_15_cif.got.tgz:29918.got - 2010.06.03 18:56:24.
