data_PCOD9122635
_publ_section_title
;
Structure prediction by ZEFSAII (Michael W. Deem and Ramdas Pophale) SiO2 
 PCOD9122635
Probable space group: C 2
;
_chemical_formula_sum "Si O2"
_cell_formula_units_Z 28
_cell_length_a 22.675484
_cell_length_b 9.991743
_cell_length_c 9.283029
_cell_angle_alpha 90.000000
_cell_angle_beta 140.956279
_cell_angle_gamma 90.000000
_cell_volume 1324.854718
_symmetry_space_group_name_H-M "C 2"
_symmetry_group_IT_number 5
_symmetry_cell_setting 'monoclinic'
loop_
_space_group_symop_operation_xyz
x,y,z
-x,y,-z
1/2+x,1/2+y,z
1/2-x,1/2+y,-z
loop_
_atom_site_type_symbol
_atom_site_label
_atom_site_fract_x
_atom_site_fract_y
_atom_site_fract_z
Si Si1 0.928332 0.134900 0.246374
Si Si2 0.188168 0.383726 0.099524
Si Si3 0.108446 0.302317 0.237018
Si Si4 0.159673 0.861457 0.807331
Si Si5 0.395517 0.072368 0.293255
Si Si6 0.776746 0.413739 0.288209
Si Si7 0.916290 0.013696 0.931432
O O1 0.862423 0.252532 0.063673
O O2 0.000000 0.188192 0.500000
O O3 0.880065 0.006273 0.228698
O O4 0.966911 0.071277 0.171660
O O5 0.151256 0.509272 0.937810
O O6 0.166119 0.382340 0.224952
O O7 0.296392 0.369785 0.266759
O O8 0.149724 0.341018 0.469289
O O9 0.115977 0.144303 0.219297
O O10 0.000000 0.336459 0.000000
O O11 0.097809 0.731567 0.703905
O O12 0.241030 0.833776 0.080573
O O13 0.500000 0.015439 0.500000
O O14 0.332094 0.034421 0.312341
O O15 0.680426 0.446698 0.193963
O O16 0.000000 0.942978 0.000000
#
# Coordination Sequence:
#
# PCOD9122635 Si02
#       7
#     4   4   4   4   4   4   4
#     4  10  20  36  57  82 110 144 189 235 276 335
#     4  10  20  35  56  82 109 145 192 235 281 338
#     4  10  20  36  56  81 111 148 192 238 283 337
#     4  10  21  37  56  83 115 148 187 234 287 341
#     4  11  21  36  58  85 116 151 190 239 291 339
#     4  10  22  39  57  82 118 152 190 239 285 342
#     4   9  20  37  56  81 112 148 193 236 281 336
#
# _framework density 21.134391000000001
#
# number of rings (size 3 to 8) (size 9 to 14) (size 15 to 20)
#    0.000    2.000    0.000    5.143    0.000    8.000 
#    0.000    2.857    0.000    3.429    0.000    0.000 
#    0.000    0.000    0.000    0.000    0.000    0.000 
#
# Total GULP energy -78028.673588 kJ/mol
# GULP energy per Si atom -5573.476685 kJ/mol
# Density = 2.108629 g / cm^3
# Si number density = 21.134391 Si / 1000 Ang^3
#
#
#
# Elastic Constant Matrix: (Units=GPa)
#
#
# Indices 1 2 3 4 5 6 
#
# 1 95.4447 -8.0398 2.3676 0.0000 9.3958 0.0000
# 2 -8.0398 27.0579 -7.8946 0.0000 11.1475 0.0000
# 3 2.3676 -7.8946 67.7293 0.0000 0.8577 0.0000
# 4 0.0000 0.0000 0.0000 3.4920 0.0000 -0.6154
# 5 9.3958 11.1475 0.8577 0.0000 20.9434 0.0000
# 6 0.0000 0.0000 0.0000 -0.6154 0.0000 16.0917
#
#
#
# Elastic Compliance Matrix: (Units=1/GPa)
#
#
# Indices 1 2 3 4 5 6 
#
# 1 0.012045 0.007670 0.000593 0.000000 -0.009511 0.000000
# 2 0.007670 0.054650 0.006517 0.000000 -0.032796 0.000000
# 3 0.000593 0.006517 0.015559 0.000000 -0.004372 0.000000
# 4 0.000000 0.000000 0.000000 0.288314 0.000000 0.011027
# 5 -0.009511 -0.032796 -0.004372 0.000000 0.069650 0.000000
# 6 0.000000 0.000000 0.000000 0.011027 0.000000 0.062566
#
#
# Mechanical properties :
#
#
# Convention : Reuss Voigt Hill
#
# Bulk Modulus (GPa) = 8.94326 18.12203 13.53264
# Shear Modulus (GPa) = 9.79445 21.69200 15.74323
#
# Velocity S-wave (km/s) = 2.15509 3.20720 2.73227
# Velocity P-wave (km/s) = 3.23007 4.72315 4.04608
#
# Compressibility (1/GPa) = 0.11181602
#
# Stress axis : x y z
#
# Youngs Moduli (GPa) = 83.02250 18.29828 64.27170
#
# Poissons Ratio (x) = -0.14035 -0.03814
# Poissons Ratio (y) = -0.63681 -0.41888
# Poissons Ratio (z) = -0.04927 -0.11926
#
# Static dielectric constant tensor:
#      x y z
#    x 1.832620 0.000000 0.051600 
#    y 0.000000 1.765980 0.000000 
#    z 0.051600 0.000000 1.782510 
# 
# From -- ./inp_files/29666.got.cif
#   From: 2010.05.17/outbox.cif.g08.bks.cpg/sg5_15_cif.got.tgz:29666.got - 2010.06.03 18:56:24.
