data_PCOD9122771
_publ_section_title
;
Structure prediction by ZEFSAII (Michael W. Deem and Ramdas Pophale) SiO2 
 PCOD9122771
Probable space group: C 2
;
_chemical_formula_sum "Si O2"
_cell_formula_units_Z 28
_cell_length_a 14.204136
_cell_length_b 13.118346
_cell_length_c 6.956258
_cell_angle_alpha 90.000000
_cell_angle_beta 121.186105
_cell_angle_gamma 90.000000
_cell_volume 1108.879750
_symmetry_space_group_name_H-M "C 2"
_symmetry_group_IT_number 5
_symmetry_cell_setting 'monoclinic'
loop_
_space_group_symop_operation_xyz
x,y,z
-x,y,-z
1/2+x,1/2+y,z
1/2-x,1/2+y,-z
loop_
_atom_site_type_symbol
_atom_site_label
_atom_site_fract_x
_atom_site_fract_y
_atom_site_fract_z
Si Si1 0.322542 0.155550 0.526503
Si Si2 0.218230 0.863265 0.406959
Si Si3 0.556189 0.961118 0.378365
Si Si4 0.375513 0.529845 0.193682
Si Si5 0.903351 0.811815 0.060232
Si Si6 0.597581 0.573409 0.328357
Si Si7 0.633443 0.090306 0.978453
O O1 0.340562 0.276114 0.528402
O O2 0.385623 0.066225 0.483062
O O3 0.190955 0.149816 0.359355
O O4 0.350520 0.117835 0.776676
O O5 0.211062 0.819411 0.182985
O O6 0.341228 0.896387 0.593912
O O7 0.145074 0.964256 0.314933
O O8 0.500000 0.906278 0.500000
O O9 0.455445 0.001718 0.144607
O O10 0.467708 0.584948 0.161639
O O11 0.390387 0.564874 0.427822
O O12 0.250035 0.555410 0.018450
O O13 0.402062 0.409939 0.194469
O O14 0.906660 0.698741 0.149478
O O15 0.000000 0.816369 0.000000
#
# Coordination Sequence:
#
# PCOD9122771 Si02
#       7
#     4   4   4   4   4   4   4
#     4   9  20  39  61  79 115 155 196 226 286 352
#     4  10  20  38  57  87 113 149 192 236 287 338
#     4  11  22  36  58  90 120 144 188 246 291 331
#     4  10  20  36  57  83 116 144 194 235 282 339
#     4  11  20  36  62  83 110 152 197 232 282 346
#     4   9  19  36  58  84 108 152 189 242 275 333
#     4  10  21  38  56  88 113 158 187 233 286 354
#
# _framework density 25.250710000000002
#
# number of rings (size 3 to 8) (size 9 to 14) (size 15 to 20)
#    0.000    2.000    1.429    3.000    0.000    1.143 
#   10.286    0.000    0.000    0.000   14.857    0.000 
#    0.000    0.000    0.000    0.000    0.000    0.000 
#
# Total GULP energy -78161.793655 kJ/mol
# GULP energy per Si atom -5582.985261 kJ/mol
# Density = 2.519324 g / cm^3
# Si number density = 25.250710 Si / 1000 Ang^3
#
#
#
# Elastic Constant Matrix: (Units=GPa)
#
#
# Indices 1 2 3 4 5 6 
#
# 1 104.0541 10.3866 29.5905 0.0000 30.8349 0.0000
# 2 10.3866 57.9997 -3.7910 0.0000 9.8834 0.0000
# 3 29.5905 -3.7910 84.1411 0.0000 32.0904 0.0000
# 4 0.0000 0.0000 0.0000 30.1477 0.0000 5.5498
# 5 30.8349 9.8834 32.0904 0.0000 50.1627 0.0000
# 6 0.0000 0.0000 0.0000 5.5498 0.0000 26.7993
#
#
#
# Elastic Compliance Matrix: (Units=1/GPa)
#
#
# Indices 1 2 3 4 5 6 
#
# 1 0.012058 -0.001302 -0.002077 0.000000 -0.005827 0.000000
# 2 -0.001302 0.018508 0.003144 0.000000 -0.004858 0.000000
# 3 -0.002077 0.003144 0.016542 0.000000 -0.009925 0.000000
# 4 0.000000 0.000000 0.000000 0.034485 0.000000 -0.007141
# 5 -0.005827 -0.004858 -0.009925 0.000000 0.030823 0.000000
# 6 0.000000 0.000000 0.000000 -0.007141 0.000000 0.038793
#
#
# Mechanical properties :
#
#
# Convention : Reuss Voigt Hill
#
# Bulk Modulus (GPa) = 21.44136 35.39635 28.41885
# Shear Modulus (GPa) = 29.89994 35.42254 32.66124
#
# Velocity S-wave (km/s) = 3.44484 3.74951 3.60040
# Velocity P-wave (km/s) = 4.93279 5.72656 5.34443
#
# Compressibility (1/GPa) = 0.04663883
#
# Stress axis : x y z
#
# Youngs Moduli (GPa) = 82.93521 54.03078 60.45114
#
# Poissons Ratio (x) = 0.07036 0.12555
# Poissons Ratio (y) = 0.10799 -0.19009
# Poissons Ratio (z) = 0.17224 -0.16990
#
# Static dielectric constant tensor:
#      x y z
#    x 2.049380 0.000000 -0.049090 
#    y 0.000000 2.011440 0.000000 
#    z -0.049090 0.000000 2.224760 
# 
# From -- ./inp_files/24680.got.cif
#   From: 2010.05.17/outbox.cif.g08.bks.cpg/sg5_13_cif.got.tgz:24680.got - 2010.06.03 18:56:24.
