data_PCOD9122061
_publ_section_title
;
Structure prediction by ZEFSAII (Michael W. Deem and Ramdas Pophale) SiO2 
 PCOD9122061
Probable space group: C 2
;
_chemical_formula_sum "Si O2"
_cell_formula_units_Z 32
_cell_length_a 8.577637
_cell_length_b 12.849564
_cell_length_c 14.023063
_cell_angle_alpha 90.000000
_cell_angle_beta 121.610273
_cell_angle_gamma 90.000000
_cell_volume 1316.289470
_symmetry_space_group_name_H-M "C 2"
_symmetry_group_IT_number 5
_symmetry_cell_setting 'monoclinic'
loop_
_space_group_symop_operation_xyz
x,y,z
-x,y,-z
1/2+x,1/2+y,z
1/2-x,1/2+y,-z
loop_
_atom_site_type_symbol
_atom_site_label
_atom_site_fract_x
_atom_site_fract_y
_atom_site_fract_z
Si Si1 0.153676 0.497260 0.474022
Si Si2 0.063780 0.128860 0.316970
Si Si3 0.418724 0.308545 0.565968
Si Si4 0.995187 0.890820 0.104581
Si Si5 0.517380 0.056926 0.220728
Si Si6 0.797003 0.924619 0.215794
Si Si7 0.245227 0.253033 0.701018
Si Si8 0.608964 0.623025 0.117237
O O1 0.269786 0.583753 0.568391
O O2 0.300962 0.408421 0.495451
O O3 0.064662 0.534957 0.346981
O O4 0.000000 0.459336 0.500000
O O5 0.115065 0.165035 0.226858
O O6 0.957997 0.221330 0.336591
O O7 0.924076 0.029647 0.264675
O O8 0.500000 0.252236 0.500000
O O9 0.596743 0.346499 0.680905
O O10 0.288512 0.258011 0.603259
O O11 0.823901 0.874324 0.120013
O O12 0.174755 0.854624 0.221373
O O13 0.001502 0.014354 0.095468
O O14 0.000000 0.844285 0.000000
O O15 0.625705 0.159399 0.221860
O O16 0.307614 0.087139 0.146706
O O17 0.598015 0.960792 0.186026
O O18 0.500000 0.683461 0.000000
#
# Coordination Sequence:
#
# PCOD9122061 Si02
#       8
#     4   4   4   4   4   4   4   4
#     4  11  21  37  65  93 126 175 213 256 306 393
#     4   9  19  38  58  90 128 160 206 254 315 378
#     4  10  19  38  61  92 131 166 203 253 322 382
#     4   9  19  40  63  87 123 164 210 267 322 375
#     4  11  21  38  61  96 126 163 215 262 324 375
#     4   8  17  34  62  87 119 160 209 257 303 380
#     4  10  23  37  60  94 131 163 203 263 328 383
#     4  10  21  40  65  89 122 167 219 265 308 383
#
# _framework density 24.310762
#
# number of rings (size 3 to 8) (size 9 to 14) (size 15 to 20)
#    0.000    2.250    2.500    0.750    0.000    1.500 
#    2.250   11.875    0.000    0.000    0.000    0.000 
#    0.000    0.000    0.000    0.000    0.000    0.000 
#
# Total GULP energy -89411.195345 kJ/mol
# GULP energy per Si atom -5588.199709 kJ/mol
# Density = 2.425543 g / cm^3
# Si number density = 24.310762 Si / 1000 Ang^3
#
#
#
# Elastic Constant Matrix: (Units=GPa)
#
#
# Indices 1 2 3 4 5 6 
#
# 1 169.6175 17.9423 77.0109 0.0000 -16.5769 0.0000
# 2 17.9423 35.8258 21.7591 0.0000 -6.3089 0.0000
# 3 77.0109 21.7591 117.3562 0.0000 -17.0043 0.0000
# 4 0.0000 0.0000 0.0000 12.8391 0.0000 2.5701
# 5 -16.5769 -6.3089 -17.0043 0.0000 37.7313 0.0000
# 6 0.0000 0.0000 0.0000 2.5701 0.0000 44.0078
#
#
#
# Elastic Compliance Matrix: (Units=1/GPa)
#
#
# Indices 1 2 3 4 5 6 
#
# 1 0.008480 -0.000855 -0.005228 0.000000 0.001226 0.000000
# 2 -0.000855 0.031823 -0.004945 0.000000 0.002716 0.000000
# 3 -0.005228 -0.004945 0.013284 0.000000 0.002863 0.000000
# 4 0.000000 0.000000 0.000000 0.078808 0.000000 -0.004602
# 5 0.001226 0.002716 0.002863 0.000000 0.028786 0.000000
# 6 0.000000 0.000000 0.000000 -0.004602 0.000000 0.022992
#
#
# Mechanical properties :
#
#
# Convention : Reuss Voigt Hill
#
# Bulk Modulus (GPa) = 31.71741 61.80267 46.76004
# Shear Modulus (GPa) = 23.06906 32.65480 27.86193
#
# Velocity S-wave (km/s) = 3.08380 3.66898 3.38904
# Velocity P-wave (km/s) = 5.07491 6.58981 5.88134
#
# Compressibility (1/GPa) = 0.03152842
#
# Stress axis : x y z
#
# Youngs Moduli (GPa) = 117.92867 31.42355 75.28081
#
# Poissons Ratio (x) = 0.02688 0.39358
# Poissons Ratio (y) = 0.10089 0.37229
# Poissons Ratio (z) = 0.61656 0.15540
#
# Static dielectric constant tensor:
#      x y z
#    x 1.948830 0.000000 -0.023190 
#    y 0.000000 2.009330 0.000000 
#    z -0.023190 0.000000 1.962490 
# 
# From -- ./inp_files/50939.got.cif
#   From: 2010.05.17/outbox.cif.g08.bks.cpg/sg5_26_cif.got.tgz:50939.got - 2010.06.03 18:56:24.
