data_PCOD9122716
_publ_section_title
;
Structure prediction by ZEFSAII (Michael W. Deem and Ramdas Pophale) SiO2 
 PCOD9122716
Probable space group: C 2
;
_chemical_formula_sum "Si O2"
_cell_formula_units_Z 28
_cell_length_a 18.880231
_cell_length_b 17.053774
_cell_length_c 12.451248
_cell_angle_alpha 90.000000
_cell_angle_beta 160.031286
_cell_angle_gamma 90.000000
_cell_volume 1369.116088
_symmetry_space_group_name_H-M "C 2"
_symmetry_group_IT_number 5
_symmetry_cell_setting 'monoclinic'
loop_
_space_group_symop_operation_xyz
x,y,z
-x,y,-z
1/2+x,1/2+y,z
1/2-x,1/2+y,-z
loop_
_atom_site_type_symbol
_atom_site_label
_atom_site_fract_x
_atom_site_fract_y
_atom_site_fract_z
Si Si1 0.643687 0.485620 0.898074
Si Si2 0.785785 0.129748 0.737407
Si Si3 0.826074 0.633444 0.035819
Si Si4 0.796513 0.946250 0.770310
Si Si5 0.259067 0.228868 0.129694
Si Si6 0.190621 0.536742 0.193993
Si Si7 0.119934 0.395585 0.931441
O O1 0.407353 0.516036 0.559514
O O2 0.789293 0.556269 0.059440
O O3 0.691570 0.452594 0.083936
O O4 0.687569 0.418326 0.872251
O O5 0.568713 0.156327 0.378442
O O6 0.789208 0.153603 0.866253
O O7 0.783181 0.037073 0.715395
O O8 0.000000 0.163257 0.000000
O O9 0.722411 0.704037 0.954070
O O10 0.762533 0.604108 0.827895
O O11 0.588999 0.905514 0.434515
O O12 0.000000 0.913303 0.000000
O O13 0.500000 0.243960 0.500000
O O14 0.139749 0.306144 0.994245
O O15 0.122797 0.459097 0.030815
O O16 0.000000 0.558007 0.000000
#
# Coordination Sequence:
#
# PCOD9122716 Si02
#       7
#     4   4   4   4   4   4   4
#     4  11  21  37  60  87 120 162 207 255 306 368
#     4  10  20  35  63  94 121 160 209 261 306 373
#     4  10  20  37  60  88 120 164 213 252 303 372
#     4  11  21  37  63  94 120 158 213 258 304 370
#     4  10  21  38  63  92 127 164 209 261 315 377
#     4  11  23  37  59  91 128 162 205 265 316 371
#     4  11  22  39  63  92 123 160 212 260 314 367
#
# _framework density 20.451150999999999
#
# number of rings (size 3 to 8) (size 9 to 14) (size 15 to 20)
#    0.000    1.429    4.286    3.857    2.000    0.571 
#    0.000    5.714    0.000    1.714    0.000    0.000 
#    0.000    0.000    0.000    0.000    0.000    0.000 
#
# Total GULP energy -78083.407302 kJ/mol
# GULP energy per Si atom -5577.386236 kJ/mol
# Density = 2.040460 g / cm^3
# Si number density = 20.451151 Si / 1000 Ang^3
#
#
#
# Elastic Constant Matrix: (Units=GPa)
#
#
# Indices 1 2 3 4 5 6 
#
# 1 61.4325 -1.3979 27.9207 0.0000 2.3277 0.0000
# 2 -1.3979 38.0594 5.4307 0.0000 -3.0534 0.0000
# 3 27.9207 5.4307 101.2872 0.0000 9.2969 0.0000
# 4 0.0000 0.0000 0.0000 13.5553 0.0000 2.4414
# 5 2.3277 -3.0534 9.2969 0.0000 28.3920 0.0000
# 6 0.0000 0.0000 0.0000 2.4414 0.0000 11.2217
#
#
#
# Elastic Compliance Matrix: (Units=1/GPa)
#
#
# Indices 1 2 3 4 5 6 
#
# 1 0.018690 0.001465 -0.005263 0.000000 0.000349 0.000000
# 2 0.001465 0.026917 -0.002167 0.000000 0.003484 0.000000
# 3 -0.005263 -0.002167 0.011775 0.000000 -0.003657 0.000000
# 4 0.000000 0.000000 0.000000 0.076780 0.000000 -0.016705
# 5 0.000349 0.003484 -0.003657 0.000000 0.036765 0.000000
# 6 0.000000 0.000000 0.000000 -0.016705 0.000000 0.092747
#
#
# Mechanical properties :
#
#
# Convention : Reuss Voigt Hill
#
# Bulk Modulus (GPa) = 22.00014 29.40958 25.70486
# Shear Modulus (GPa) = 17.19658 21.88884 19.54271
#
# Velocity S-wave (km/s) = 2.90291 3.27509 3.09460
# Velocity P-wave (km/s) = 4.69218 5.35847 5.03636
#
# Compressibility (1/GPa) = 0.04545425
#
# Stress axis : x y z
#
# Youngs Moduli (GPa) = 53.50459 37.15091 84.92211
#
# Poissons Ratio (x) = -0.05444 0.44691
# Poissons Ratio (y) = -0.07840 0.18402
# Poissons Ratio (z) = 0.28157 0.08050
#
# Static dielectric constant tensor:
#      x y z
#    x 1.776700 0.000000 0.014930 
#    y 0.000000 1.719150 0.000000 
#    z 0.014930 0.000000 1.747930 
# 
# From -- ./inp_files/45165.got.cif
#   From: 2010.05.17/outbox.cif.g08.bks.cpg/sg5_23_cif.got.tgz:45165.got - 2010.06.03 18:56:24.
