data_PCOD9122619
_publ_section_title
;
Structure prediction by ZEFSAII (Michael W. Deem and Ramdas Pophale) SiO2 
 PCOD9122619
Probable space group: C 2
;
_chemical_formula_sum "Si O2"
_cell_formula_units_Z 30
_cell_length_a 9.394241
_cell_length_b 33.520229
_cell_length_c 6.911799
_cell_angle_alpha 90.000000
_cell_angle_beta 34.504630
_cell_angle_gamma 90.000000
_cell_volume 1232.931249
_symmetry_space_group_name_H-M "C 2"
_symmetry_group_IT_number 5
_symmetry_cell_setting 'monoclinic'
loop_
_space_group_symop_operation_xyz
x,y,z
-x,y,-z
1/2+x,1/2+y,z
1/2-x,1/2+y,-z
loop_
_atom_site_type_symbol
_atom_site_label
_atom_site_fract_x
_atom_site_fract_y
_atom_site_fract_z
Si Si1 0.410526 0.840940 0.310274
Si Si2 0.098034 0.225462 0.170956
Si Si3 0.500000 0.495525 0.000000
Si Si4 0.910950 0.693679 0.314315
Si Si5 0.299786 0.568340 0.001106
Si Si6 0.764376 0.420472 0.618176
Si Si7 0.194996 0.601753 0.539754
Si Si8 0.401935 0.308674 0.828672
O O1 0.331701 0.887135 0.386540
O O2 0.167009 0.814716 0.643449
O O3 0.500000 0.826369 0.000000
O O4 0.670432 0.837937 0.138775
O O5 0.000000 0.218535 0.500000
O O6 0.832303 0.220395 0.356104
O O7 0.324411 0.195076 0.866765
O O8 0.254844 0.266646 0.993674
O O9 0.336312 0.523878 0.044576
O O10 0.320160 0.466102 0.325600
O O11 0.823674 0.648247 0.397560
O O12 0.000000 0.706978 0.000000
O O13 0.249610 0.594750 0.250495
O O14 0.062943 0.578281 0.136990
O O15 0.567287 0.582142 0.625740
O O16 0.000000 0.422258 0.500000
O O17 0.500000 0.404667 0.000000
O O18 0.500000 0.316505 0.500000
#
# Coordination Sequence:
#
# PCOD9122619 Si02
#       8
#     4   4   2   4   4   4   4   4
#     4  10  21  38  58  78 115 149 184 228 288 336
#     4  10  21  36  53  76 105 145 180 226 286 321
#     4   8  20  32  56  80 118 134 182 226 286 318
#     4  10  20  35  53  74 106 142 179 226 271 324
#     4   9  18  31  53  77 105 142 164 224 272 318
#     4  10  21  33  56  90 111 141 190 231 279 323
#     4   9  17  31  49  76 101 131 180 205 267 314
#     4  10  21  38  55  78 107 149 186 229 280 340
#
# _framework density 24.332259000000001
#
# number of rings (size 3 to 8) (size 9 to 14) (size 15 to 20)
#    0.400    2.133    0.000    2.400    3.733    1.600 
#    7.200    0.000    0.000    3.200    6.933    0.000 
#    0.000    0.000    0.000    0.000    0.000    0.000 
#
# Total GULP energy -83625.029201 kJ/mol
# GULP energy per Si atom -5575.001947 kJ/mol
# Density = 2.427688 g / cm^3
# Si number density = 24.332259 Si / 1000 Ang^3
#
#
#
# Elastic Constant Matrix: (Units=GPa)
#
#
# Indices 1 2 3 4 5 6 
#
# 1 84.5723 -1.4230 54.1462 0.0000 -29.8501 0.0000
# 2 -1.4230 140.2022 61.5859 0.0000 -22.6299 0.0000
# 3 54.1462 61.5859 230.4194 0.0000 -50.8691 0.0000
# 4 0.0000 0.0000 0.0000 30.7660 0.0000 26.3349
# 5 -29.8501 -22.6299 -50.8691 0.0000 53.8644 0.0000
# 6 0.0000 0.0000 0.0000 26.3349 0.0000 -17.0935
#
#
#
# Elastic Compliance Matrix: (Units=1/GPa)
#
#
# Indices 1 2 3 4 5 6 
#
# 1 0.016352 0.002642 -0.002910 0.000000 0.007424 0.000000
# 2 0.002642 0.008635 -0.002280 0.000000 0.002939 0.000000
# 3 -0.002910 -0.002280 0.006400 0.000000 0.003474 0.000000
# 4 0.000000 0.000000 0.000000 0.014018 0.000000 0.021596
# 5 0.007424 0.002939 0.003474 0.000000 0.027194 0.000000
# 6 0.000000 0.000000 0.000000 0.021596 0.000000 -0.025230
#
#
# Mechanical properties :
#
#
# Convention : Reuss Voigt Hill
#
# Bulk Modulus (GPa) = 38.03417 75.97913 57.00665
# Shear Modulus (GPa) = 81.66113 36.23303 58.94708
#
# Velocity S-wave (km/s) = 5.79946 3.86307 4.92732
# Velocity P-wave (km/s) = 7.77882 7.15480 7.47333
#
# Compressibility (1/GPa) = 0.02629215
#
# Stress axis : x y z
#
# Youngs Moduli (GPa) = 61.15475 115.80322 156.25043
#
# Poissons Ratio (x) = -0.30600 0.45467
# Poissons Ratio (y) = -0.16160 0.35628
# Poissons Ratio (z) = 0.17795 0.26405
#
# Static dielectric constant tensor:
#      x y z
#    x 2.138700 0.000000 -0.130730 
#    y 0.000000 1.919770 0.000000 
#    z -0.130730 0.000000 1.945840 
# 
# From -- ./inp_files/43501.got.cif
#   From: 2010.05.17/outbox.cif.g08.bks.cpg/sg5_22_cif.got.tgz:43501.got - 2010.06.03 18:56:24.
