data_PCOD9122003
_publ_section_title
;
Structure prediction by ZEFSAII (Michael W. Deem and Ramdas Pophale) SiO2 
 PCOD9122003
Probable space group: C 2
;
_chemical_formula_sum "Si O2"
_cell_formula_units_Z 26
_cell_length_a 14.610363
_cell_length_b 9.496484
_cell_length_c 8.043463
_cell_angle_alpha 90.000000
_cell_angle_beta 91.583099
_cell_angle_gamma 90.000000
_cell_volume 1115.581021
_symmetry_space_group_name_H-M "C 2"
_symmetry_group_IT_number 5
_symmetry_cell_setting 'monoclinic'
loop_
_space_group_symop_operation_xyz
x,y,z
-x,y,-z
1/2+x,1/2+y,z
1/2-x,1/2+y,-z
loop_
_atom_site_type_symbol
_atom_site_label
_atom_site_fract_x
_atom_site_fract_y
_atom_site_fract_z
Si Si1 0.227219 0.472010 0.307316
Si Si2 0.758042 0.162062 0.001327
Si Si3 0.481378 0.534461 0.801342
Si Si4 0.800870 0.733642 0.503272
Si Si5 0.781570 0.915514 0.803119
Si Si6 0.000000 0.844229 0.500000
Si Si7 0.068042 0.328051 0.137956
O O1 0.273163 0.559825 0.161019
O O2 0.229021 0.575085 0.465943
O O3 0.270297 0.319189 0.340479
O O4 0.122511 0.439621 0.249783
O O5 0.698544 0.293999 0.058135
O O6 0.851919 0.239443 0.953458
O O7 0.721944 0.045373 0.869026
O O8 0.376482 0.489713 0.766739
O O9 0.528264 0.442708 0.659275
O O10 0.487018 0.702627 0.773076
O O11 0.500000 0.508465 0.000000
O O12 0.750952 0.823044 0.646896
O O13 0.909706 0.752445 0.532436
O O14 0.000000 0.393285 0.000000
#
# Coordination Sequence:
#
# PCOD9122003 Si02
#       7
#     4   4   4   4   4   2   4
#     4  11  24  43  66  97 134 176 222 274 334 403
#     4  10  19  37  65  91 123 172 217 267 325 385
#     4   9  20  37  63  96 127 170 225 272 333 404
#     4  10  25  41  64  97 136 173 219 273 336 408
#     4   9  19  36  57  91 124 159 220 257 323 394
#     4  10  22  42  64  94 142 174 218 282 342 398
#     4  10  22  40  65  98 133 170 227 278 332 401
#
# _framework density 23.306241
#
# number of rings (size 3 to 8) (size 9 to 14) (size 15 to 20)
#    0.000    2.154    1.538    0.000   12.923    0.000 
#    0.000   12.308    0.000    0.000    0.000    0.000 
#    0.000    0.000    0.000    0.000    0.000    0.000 
#
# Total GULP energy -72444.656171 kJ/mol
# GULP energy per Si atom -5572.665859 kJ/mol
# Density = 2.325320 g / cm^3
# Si number density = 23.306241 Si / 1000 Ang^3
#
#
#
# Elastic Constant Matrix: (Units=GPa)
#
#
# Indices 1 2 3 4 5 6 
#
# 1 30.9276 8.4959 1.7700 0.0000 14.0676 0.0000
# 2 8.4959 127.3825 33.2044 0.0000 1.4356 0.0000
# 3 1.7700 33.2044 65.9537 0.0000 0.9228 0.0000
# 4 0.0000 0.0000 0.0000 39.9986 0.0000 14.3273
# 5 14.0676 1.4356 0.9228 0.0000 31.1837 0.0000
# 6 0.0000 0.0000 0.0000 14.3273 0.0000 14.4419
#
#
#
# Elastic Compliance Matrix: (Units=1/GPa)
#
#
# Indices 1 2 3 4 5 6 
#
# 1 0.041512 -0.002689 0.000500 0.000000 -0.018618 0.000000
# 2 -0.002689 0.009213 -0.004579 0.000000 0.000925 0.000000
# 3 0.000500 -0.004579 0.017461 0.000000 -0.000532 0.000000
# 4 0.000000 0.000000 0.000000 0.038782 0.000000 -0.038474
# 5 -0.018618 0.000925 -0.000532 0.000000 0.040440 0.000000
# 6 0.000000 0.000000 0.000000 -0.038474 0.000000 0.107412
#
#
# Mechanical properties :
#
#
# Convention : Reuss Voigt Hill
#
# Bulk Modulus (GPa) = 18.29800 34.57828 26.43814
# Shear Modulus (GPa) = 17.44753 29.17774 23.31263
#
# Velocity S-wave (km/s) = 2.73906 3.54210 3.16614
# Velocity P-wave (km/s) = 4.22746 5.62115 4.97337
#
# Compressibility (1/GPa) = 0.05465078
#
# Stress axis : x y z
#
# Youngs Moduli (GPa) = 24.08926 108.54327 57.26891
#
# Poissons Ratio (x) = 0.29191 -0.02866
# Poissons Ratio (y) = 0.06478 0.26224
# Poissons Ratio (z) = -0.01205 0.49702
#
# Static dielectric constant tensor:
#      x y z
#    x 1.905110 0.000000 -0.047380 
#    y 0.000000 1.879370 0.000000 
#    z -0.047380 0.000000 2.037640 
# 
# From -- ./inp_files/26529.got.cif
#   From: 2010.05.17/outbox.cif.g08.bks.cpg/sg5_14_cif.got.tgz:26529.got - 2010.06.03 18:56:24.
