data_PCOD9122812
_publ_section_title
;
Structure prediction by ZEFSAII (Michael W. Deem and Ramdas Pophale) SiO2 
 PCOD9122812
Probable space group: C 2
;
_chemical_formula_sum "Si O2"
_cell_formula_units_Z 18
_cell_length_a 10.163147
_cell_length_b 15.280900
_cell_length_c 9.697544
_cell_angle_alpha 90.000000
_cell_angle_beta 143.253591
_cell_angle_gamma 90.000000
_cell_volume 901.030113
_symmetry_space_group_name_H-M "C 2"
_symmetry_group_IT_number 5
_symmetry_cell_setting 'monoclinic'
loop_
_space_group_symop_operation_xyz
x,y,z
-x,y,-z
1/2+x,1/2+y,z
1/2-x,1/2+y,-z
loop_
_atom_site_type_symbol
_atom_site_label
_atom_site_fract_x
_atom_site_fract_y
_atom_site_fract_z
Si Si1 0.687553 0.547360 0.040380
Si Si2 0.251749 0.739978 0.961151
Si Si3 0.000000 0.453030 0.500000
Si Si4 0.661484 0.832001 0.240362
Si Si5 0.422265 0.386019 0.710233
O O1 0.741313 0.637521 0.009759
O O2 0.907032 0.512734 0.298795
O O3 0.500000 0.566372 0.000000
O O4 0.582808 0.468505 0.865211
O O5 0.240773 0.761191 0.785509
O O6 0.057079 0.798302 0.857454
O O7 0.488490 0.782347 0.194401
O O8 0.788443 0.399330 0.370465
O O9 0.831642 0.880367 0.478566
O O10 0.500000 0.885603 0.000000
#
# Coordination Sequence:
#
# PCOD9122812 Si02
#       5
#     4   4   2   4   4
#     4  10  20  36  58  94 120 147 204 253 291 343
#     4   9  19  35  61  93 116 152 197 252 291 347
#     4  10  24  34  54  94 124 158 194 242 298 358
#     4   8  19  33  60  93 111 148 200 245 297 337
#     4  11  20  35  57  95 123 155 191 252 299 350
#
# _framework density 19.977136000000002
#
# number of rings (size 3 to 8) (size 9 to 14) (size 15 to 20)
#    1.333    0.889    2.222    2.000    3.111    0.000 
#    0.000    0.000    0.000    0.000  150.222    0.000 
#    0.000    0.000    0.000    0.000    0.000    0.000 
#
# Total GULP energy -50104.095990 kJ/mol
# GULP energy per Si atom -5567.121777 kJ/mol
# Density = 1.993167 g / cm^3
# Si number density = 19.977136 Si / 1000 Ang^3
#
#
#
# Elastic Constant Matrix: (Units=GPa)
#
#
# Indices 1 2 3 4 5 6 
#
# 1 34.1149 28.6222 11.3017 0.0000 23.3116 0.0000
# 2 28.6222 142.3379 79.0485 0.0000 10.6255 0.0000
# 3 11.3017 79.0485 119.2327 0.0000 -2.1487 0.0000
# 4 0.0000 0.0000 0.0000 16.2924 0.0000 -0.6704
# 5 23.3116 10.6255 -2.1487 0.0000 40.0085 0.0000
# 6 0.0000 0.0000 0.0000 -0.6704 0.0000 26.1014
#
#
#
# Elastic Compliance Matrix: (Units=1/GPa)
#
#
# Indices 1 2 3 4 5 6 
#
# 1 0.059085 -0.009613 0.000198 0.000000 -0.031863 0.000000
# 2 -0.009613 0.013152 -0.007778 0.000000 0.001690 0.000000
# 3 0.000198 -0.007778 0.013573 0.000000 0.002679 0.000000
# 4 0.000000 0.000000 0.000000 0.061443 0.000000 0.001578
# 5 -0.031863 0.001690 0.002679 0.000000 0.043255 0.000000
# 6 0.000000 0.000000 0.000000 0.001578 0.000000 0.038353
#
#
# Mechanical properties :
#
#
# Convention : Reuss Voigt Hill
#
# Bulk Modulus (GPa) = 19.44560 59.29225 39.36893
# Shear Modulus (GPa) = 17.83249 28.26132 23.04691
#
# Velocity S-wave (km/s) = 2.99096 3.76531 3.40025
# Velocity P-wave (km/s) = 4.65648 6.97480 5.93004
#
# Compressibility (1/GPa) = 0.05142552
#
# Stress axis : x y z
#
# Youngs Moduli (GPa) = 16.92473 76.03571 73.67657
#
# Poissons Ratio (x) = 0.73091 -0.01461
# Poissons Ratio (y) = 0.16269 0.57303
# Poissons Ratio (z) = -0.00336 0.59138
#
# Static dielectric constant tensor:
#      x y z
#    x 1.778220 0.000000 0.015560 
#    y 0.000000 1.695080 0.000000 
#    z 0.015560 0.000000 1.749580 
# 
# From -- ./inp_files/39749.got.cif
#   From: 2010.05.17/outbox.cif.g08.bks.cpg/sg5_20_cif.got.tgz:39749.got - 2010.06.03 18:56:24.
