data_PCOD9122140
_publ_section_title
;
Structure prediction by ZEFSAII (Michael W. Deem and Ramdas Pophale) SiO2 
 PCOD9122140
Probable space group: C 2
;
_chemical_formula_sum "Si O2"
_cell_formula_units_Z 24
_cell_length_a 15.065662
_cell_length_b 12.792896
_cell_length_c 11.636443
_cell_angle_alpha 90.000000
_cell_angle_beta 154.341463
_cell_angle_gamma 90.000000
_cell_volume 971.118315
_symmetry_space_group_name_H-M "C 2"
_symmetry_group_IT_number 5
_symmetry_cell_setting 'monoclinic'
loop_
_space_group_symop_operation_xyz
x,y,z
-x,y,-z
1/2+x,1/2+y,z
1/2-x,1/2+y,-z
loop_
_atom_site_type_symbol
_atom_site_label
_atom_site_fract_x
_atom_site_fract_y
_atom_site_fract_z
Si Si1 0.253176 0.288560 0.714636
Si Si2 0.951233 0.663049 0.578622
Si Si3 0.222995 0.514979 0.056443
Si Si4 0.192687 0.988029 0.356019
Si Si5 0.795576 0.062454 0.392664
Si Si6 0.650531 0.347514 0.940632
O O1 0.204943 0.398583 0.600922
O O2 0.188517 0.186442 0.571722
O O3 0.500000 0.277653 0.000000
O O4 0.212283 0.288850 0.803567
O O5 0.983788 0.772085 0.685260
O O6 0.000000 0.673725 0.500000
O O7 0.737667 0.599312 0.348090
O O8 0.115204 0.588863 0.836900
O O9 0.181808 0.541484 0.140664
O O10 0.469451 0.528513 0.341725
O O11 0.210091 0.396836 0.995533
O O12 0.967993 0.939301 0.124085
O O13 0.288904 0.004327 0.594185
#
# Coordination Sequence:
#
# PCOD9122140 Si02
#       6
#     4   4   4   4   4   4
#     4  10  19  38  67  93 124 176 222 268 335 401
#     4  12  25  42  68 101 134 174 231 283 335 395
#     4  10  23  41  64  95 131 179 218 287 330 398
#     4  10  22  37  62  94 128 170 217 272 321 404
#     4  10  21  40  65  93 134 174 224 270 342 403
#     4  10  22  42  67  92 135 181 221 274 344 397
#
# _framework density 24.713774999999998
#
# number of rings (size 3 to 8) (size 9 to 14) (size 15 to 20)
#    0.000    1.667    1.667    3.000    4.667    2.667 
#    3.000    0.000    3.667    0.000    0.000    0.000 
#    0.000    0.000    0.000    0.000    0.000    0.000 
#
# Total GULP energy -66975.927175 kJ/mol
# GULP energy per Si atom -5581.327265 kJ/mol
# Density = 2.465753 g / cm^3
# Si number density = 24.713775 Si / 1000 Ang^3
#
#
#
# Elastic Constant Matrix: (Units=GPa)
#
#
# Indices 1 2 3 4 5 6 
#
# 1 116.1441 45.7128 23.6763 0.0000 -40.1206 0.0000
# 2 45.7128 112.8181 13.0291 0.0000 -22.9519 0.0000
# 3 23.6763 13.0291 102.7666 0.0000 -24.2394 0.0000
# 4 0.0000 0.0000 0.0000 44.4639 0.0000 -9.2109
# 5 -40.1206 -22.9519 -24.2394 0.0000 48.1598 0.0000
# 6 0.0000 0.0000 0.0000 -9.2109 0.0000 33.7381
#
#
#
# Elastic Compliance Matrix: (Units=1/GPa)
#
#
# Indices 1 2 3 4 5 6 
#
# 1 0.013215 -0.003443 -0.000452 0.000000 0.009140 0.000000
# 2 -0.003443 0.010715 -0.000042 0.000000 0.002217 0.000000
# 3 -0.000452 -0.000042 0.011060 0.000000 0.005170 0.000000
# 4 0.000000 0.000000 0.000000 0.023838 0.000000 0.006508
# 5 0.009140 0.002217 0.005170 0.000000 0.032037 0.000000
# 6 0.000000 0.000000 0.000000 0.006508 0.000000 0.031417
#
#
# Mechanical properties :
#
#
# Convention : Reuss Voigt Hill
#
# Bulk Modulus (GPa) = 36.88027 55.17391 46.02709
# Shear Modulus (GPa) = 35.92108 41.89309 38.90709
#
# Velocity S-wave (km/s) = 3.81659 4.12166 3.97206
# Velocity P-wave (km/s) = 5.86321 6.71003 6.30086
#
# Compressibility (1/GPa) = 0.02711477
#
# Stress axis : x y z
#
# Youngs Moduli (GPa) = 75.67381 93.32981 90.41860
#
# Poissons Ratio (x) = 0.32130 0.04088
# Poissons Ratio (y) = 0.26052 0.00383
# Poissons Ratio (z) = 0.03421 0.00395
#
# Static dielectric constant tensor:
#      x y z
#    x 2.188740 0.000000 0.037110 
#    y 0.000000 1.983140 0.000000 
#    z 0.037110 0.000000 1.988680 
# 
# From -- ./inp_files/39272.got.cif
#   From: 2010.05.17/outbox.cif.g08.bks.cpg/sg5_20_cif.got.tgz:39272.got - 2010.06.03 18:56:24.
