data_PCOD9122331
_publ_section_title
;
Structure prediction by ZEFSAII (Michael W. Deem and Ramdas Pophale) SiO2 
 PCOD9122331
Probable space group: C 2
;
_chemical_formula_sum "Si O2"
_cell_formula_units_Z 26
_cell_length_a 27.672109
_cell_length_b 7.851542
_cell_length_c 12.969118
_cell_angle_alpha 90.000000
_cell_angle_beta 25.332427
_cell_angle_gamma 90.000000
_cell_volume 1205.643631
_symmetry_space_group_name_H-M "C 2"
_symmetry_group_IT_number 5
_symmetry_cell_setting 'monoclinic'
loop_
_space_group_symop_operation_xyz
x,y,z
-x,y,-z
1/2+x,1/2+y,z
1/2-x,1/2+y,-z
loop_
_atom_site_type_symbol
_atom_site_label
_atom_site_fract_x
_atom_site_fract_y
_atom_site_fract_z
Si Si1 0.461524 0.375000 0.460574
Si Si2 0.930528 0.414542 0.230579
Si Si3 0.694278 0.531546 0.964213
Si Si4 0.195589 0.834978 0.761567
Si Si5 0.725914 0.908906 0.982432
Si Si6 0.556647 0.073192 0.162728
Si Si7 0.500000 0.255948 0.000000
O O1 0.500000 0.313701 0.500000
O O2 0.343980 0.470264 0.704259
O O3 0.466581 0.214904 0.373652
O O4 0.561127 0.497300 0.232208
O O5 0.811174 0.324451 0.475513
O O6 0.001361 0.426103 0.200049
O O7 0.000000 0.340401 0.000000
O O8 0.925472 0.618022 0.209573
O O9 0.721169 0.479369 0.796732
O O10 0.719666 0.718722 0.952644
O O11 0.758880 0.415680 0.924217
O O12 0.087216 0.864576 0.898146
O O13 0.151759 0.669743 0.909989
O O14 0.620083 0.007481 0.141466
#
# Coordination Sequence:
#
# PCOD9122331 Si02
#       7
#     4   4   4   4   4   4   2
#     4   9  19  36  56  86 123 156 194 241 291 357
#     4   9  20  40  57  89 121 156 201 257 303 352
#     4  10  21  36  61  94 120 160 202 238 302 362
#     4  10  19  41  65  88 122 160 206 252 300 363
#     4  11  21  39  60  90 128 159 193 245 296 364
#     4  10  21  38  61  86 120 162 200 243 307 351
#     4   8  20  40  62  86 120 162 196 258 310 340
#
# _framework density 21.565245999999998
#
# number of rings (size 3 to 8) (size 9 to 14) (size 15 to 20)
#    0.462    1.846    0.000    3.692    0.000    1.231 
#   11.077   10.000    0.000    0.000    0.000    0.000 
#    0.000    0.000    0.000    0.000    0.000    0.000 
#
# Total GULP energy -72478.601834 kJ/mol
# GULP energy per Si atom -5575.277064 kJ/mol
# Density = 2.151616 g / cm^3
# Si number density = 21.565246 Si / 1000 Ang^3
#
#
#
# Elastic Constant Matrix: (Units=GPa)
#
#
# Indices 1 2 3 4 5 6 
#
# 1 95.2682 5.1066 13.5051 0.0000 -10.0360 0.0000
# 2 5.1066 21.2979 5.9116 0.0000 -8.4153 0.0000
# 3 13.5051 5.9116 79.7911 0.0000 9.6055 0.0000
# 4 0.0000 0.0000 0.0000 11.3312 0.0000 -9.0655
# 5 -10.0360 -8.4153 9.6055 0.0000 24.6793 0.0000
# 6 0.0000 0.0000 0.0000 -9.0655 0.0000 3.6959
#
#
#
# Elastic Compliance Matrix: (Units=1/GPa)
#
#
# Indices 1 2 3 4 5 6 
#
# 1 0.011469 0.000277 -0.002659 0.000000 0.005794 0.000000
# 2 0.000277 0.057748 -0.007039 0.000000 0.022544 -0.000001
# 3 -0.002659 -0.007039 0.014608 0.000000 -0.009167 0.000000
# 4 0.000000 0.000000 0.000000 -0.091696 0.000000 -0.224921
# 5 0.005794 0.022544 -0.009167 0.000000 0.054131 0.000000
# 6 0.000000 -0.000001 0.000000 -0.224921 0.000000 -0.281133
#
#
# Mechanical properties :
#
#
# Convention : Reuss Voigt Hill
#
# Bulk Modulus (GPa) = 15.38872 27.26708 21.32790
# Shear Modulus (GPa) = -25.72411 19.39688 -3.16362
#
# Velocity S-wave (km/s) = -3.45751 3.00234 -1.21251
# Velocity P-wave (km/s) = 2.96443 4.96892 2.81978
#
# Compressibility (1/GPa) = 0.06498268
#
# Stress axis : x y z
#
# Youngs Moduli (GPa) = 87.19086 17.31664 68.45601
#
# Poissons Ratio (x) = -0.00480 0.18204
# Poissons Ratio (y) = -0.02418 0.48188
# Poissons Ratio (z) = 0.23186 0.12190
#
# Static dielectric constant tensor:
#      x y z
#    x 1.825290 0.000000 0.013280 
#    y 0.000000 1.789640 0.000000 
#    z 0.013280 0.000000 1.805720 
# 
# From -- ./inp_files/47922.got.cif
#   From: 2010.05.17/outbox.cif.g08.bks.cpg/sg5_24_cif.got.tgz:47922.got - 2010.06.03 18:56:24.
