data_PCOD9122237
_publ_section_title
;
Structure prediction by ZEFSAII (Michael W. Deem and Ramdas Pophale) SiO2 
 PCOD9122237
Probable space group: C 2
;
_chemical_formula_sum "Si O2"
_cell_formula_units_Z 24
_cell_length_a 8.116046
_cell_length_b 11.667226
_cell_length_c 12.069496
_cell_angle_alpha 90.000000
_cell_angle_beta 86.017427
_cell_angle_gamma 90.000000
_cell_volume 1140.121806
_symmetry_space_group_name_H-M "C 2"
_symmetry_group_IT_number 5
_symmetry_cell_setting 'monoclinic'
loop_
_space_group_symop_operation_xyz
x,y,z
-x,y,-z
1/2+x,1/2+y,z
1/2-x,1/2+y,-z
loop_
_atom_site_type_symbol
_atom_site_label
_atom_site_fract_x
_atom_site_fract_y
_atom_site_fract_z
Si Si1 0.449689 0.056380 0.874941
Si Si2 0.282843 0.982518 0.318203
Si Si3 0.642152 0.812536 0.085918
Si Si4 0.500000 0.323056 0.000000
Si Si5 0.686422 0.732495 0.317943
Si Si6 0.000000 0.388501 0.500000
Si Si7 0.055769 0.798587 0.230172
O O1 0.390515 0.172386 0.817351
O O2 0.603225 0.009544 0.794568
O O3 0.330476 0.947381 0.888892
O O4 0.500000 0.076152 0.000000
O O5 0.396194 0.964234 0.419605
O O6 0.177359 0.868019 0.302616
O O7 0.178901 0.097680 0.340795
O O8 0.820507 0.767916 0.039201
O O9 0.597193 0.755625 0.204495
O O10 0.500000 0.801133 0.000000
O O11 0.542173 0.375076 0.118132
O O12 0.611477 0.807656 0.418200
O O13 0.876271 0.773613 0.290252
#
# Coordination Sequence:
#
# PCOD9122237 Si02
#       7
#     4   4   4   2   4   2   4
#     4  10  19  39  70 100 142 180 213 275 354 415
#     4  11  25  46  71  98 136 181 232 288 347 410
#     4  10  20  41  70  99 145 185 225 289 350 423
#     4  10  20  36  60 104 138 176 230 262 346 432
#     4  10  25  45  67 102 131 177 241 278 352 413
#     4  12  26  48  68  94 134 186 236 290 344 396
#     4  10  21  41  66 101 135 175 223 279 337 418
#
# _framework density 21.050381000000002
#
# number of rings (size 3 to 8) (size 9 to 14) (size 15 to 20)
#    0.000    1.667    2.500    2.000    0.000    4.667 
#    7.500    0.000    1.833    0.000    0.000    0.000 
#    0.000    0.000    0.000    0.000    0.000    0.000 
#
# Total GULP energy -66890.291492 kJ/mol
# GULP energy per Si atom -5574.190958 kJ/mol
# Density = 2.100247 g / cm^3
# Si number density = 21.050381 Si / 1000 Ang^3
#
#
#
# Elastic Constant Matrix: (Units=GPa)
#
#
# Indices 1 2 3 4 5 6 
#
# 1 53.5853 33.0608 46.4323 0.0000 15.2141 0.0000
# 2 33.0608 142.5582 46.1391 0.0000 17.1354 0.0000
# 3 46.4323 46.1391 129.2180 0.0000 9.7134 0.0000
# 4 0.0000 0.0000 0.0000 -28.6974 0.0000 -16.8164
# 5 15.2141 17.1354 9.7134 0.0000 42.2951 0.0000
# 6 0.0000 0.0000 0.0000 -16.8164 0.0000 33.2319
#
#
#
# Elastic Compliance Matrix: (Units=1/GPa)
#
#
# Indices 1 2 3 4 5 6 
#
# 1 0.030976 -0.003217 -0.009405 0.000000 -0.007679 0.000000
# 2 -0.003217 0.008558 -0.001757 0.000000 -0.001907 0.000000
# 3 -0.009405 -0.001757 0.011639 0.000000 0.001422 0.000000
# 4 0.000000 0.000000 0.000000 -0.026877 0.000000 -0.013600
# 5 -0.007679 -0.001907 0.001422 0.000000 0.026852 0.000000
# 6 0.000000 0.000000 0.000000 -0.013600 0.000000 0.023209
#
#
# Mechanical properties :
#
#
# Convention : Reuss Voigt Hill
#
# Bulk Modulus (GPa) = 44.60955 64.06952 54.33954
# Shear Modulus (GPa) = 45.21322 22.68121 33.94721
#
# Velocity S-wave (km/s) = 4.63953 3.28605 4.02016
# Velocity P-wave (km/s) = 7.06669 6.70073 6.88614
#
# Compressibility (1/GPa) = 0.02241672
#
# Stress axis : x y z
#
# Youngs Moduli (GPa) = 32.28264 116.84385 85.91989
#
# Poissons Ratio (x) = 0.37586 0.80807
# Poissons Ratio (y) = 0.10385 0.15093
# Poissons Ratio (z) = 0.30362 0.20526
#
# Static dielectric constant tensor:
#      x y z
#    x 1.812590 0.000000 0.031080 
#    y 0.000000 1.830780 0.000000 
#    z 0.031080 0.000000 1.799740 
# 
# From -- ./inp_files/35449.got.cif
#   From: 2010.05.17/outbox.cif.g08.bks.cpg/sg5_18_cif.got.tgz:35449.got - 2010.06.03 18:56:24.
