data_PCOD9122144
_publ_section_title
;
Structure prediction by ZEFSAII (Michael W. Deem and Ramdas Pophale) SiO2 
 PCOD9122144
Probable space group: C 2
;
_chemical_formula_sum "Si O2"
_cell_formula_units_Z 24
_cell_length_a 11.320890
_cell_length_b 17.449831
_cell_length_c 10.799570
_cell_angle_alpha 90.000000
_cell_angle_beta 27.685133
_cell_angle_gamma 90.000000
_cell_volume 991.217482
_symmetry_space_group_name_H-M "C 2"
_symmetry_group_IT_number 5
_symmetry_cell_setting 'monoclinic'
loop_
_space_group_symop_operation_xyz
x,y,z
-x,y,-z
1/2+x,1/2+y,z
1/2-x,1/2+y,-z
loop_
_atom_site_type_symbol
_atom_site_label
_atom_site_fract_x
_atom_site_fract_y
_atom_site_fract_z
Si Si1 0.513282 0.789570 0.859284
Si Si2 0.726528 0.137281 0.374412
Si Si3 0.781524 0.335139 0.599409
Si Si4 0.570200 0.199857 0.126098
Si Si5 0.404154 0.030099 0.953484
Si Si6 0.613847 0.492662 0.674553
O O1 0.690637 0.720521 0.745288
O O2 0.627936 0.828611 0.629558
O O3 0.500000 0.837475 0.000000
O O4 0.273166 0.745374 0.021296
O O5 0.500000 0.107689 0.500000
O O6 0.632713 0.160133 0.596417
O O7 0.924568 0.069608 0.207858
O O8 0.586419 0.265316 0.797904
O O9 0.657857 0.418681 0.717560
O O10 0.000000 0.328430 0.500000
O O11 0.672844 0.122133 0.968075
O O12 0.631613 0.007837 0.645356
O O13 0.500000 0.011958 0.000000
O O14 0.146342 0.985285 0.159511
#
# Coordination Sequence:
#
# PCOD9122144 Si02
#       6
#     4   4   4   4   4   4
#     4  11  22  42  71 106 135 190 248 304 360 432
#     4  10  19  38  67  97 135 180 244 303 356 423
#     4  11  28  46  68 107 153 195 239 304 386 449
#     4  10  23  41  69 102 140 188 242 302 359 439
#     4  11  25  46  74 103 143 196 256 307 365 440
#     4  11  25  47  68 106 146 197 243 306 371 450
#
# _framework density 24.21265
#
# number of rings (size 3 to 8) (size 9 to 14) (size 15 to 20)
#    0.000    1.333    3.333    1.000    4.667    0.667 
#    3.000    1.667    0.000    0.000    0.000    0.000 
#    0.000    0.000    0.000    0.000    0.000    0.000 
#
# Total GULP energy -66940.777950 kJ/mol
# GULP energy per Si atom -5578.398162 kJ/mol
# Density = 2.415754 g / cm^3
# Si number density = 24.212650 Si / 1000 Ang^3
#
#
#
# Elastic Constant Matrix: (Units=GPa)
#
#
# Indices 1 2 3 4 5 6 
#
# 1 154.2012 31.4928 29.6724 -0.0909 -20.5551 0.0014
# 2 31.4928 113.0183 16.3863 0.0208 -6.9849 -0.0614
# 3 29.6724 16.3863 64.1489 -0.1956 -3.8128 0.0232
# 4 -0.0909 0.0208 -0.1956 16.8560 -0.0324 -16.0349
# 5 -20.5551 -6.9849 -3.8128 -0.0324 57.3306 0.0335
# 6 0.0014 -0.0614 0.0232 -16.0349 0.0335 25.6567
#
#
#
# Elastic Compliance Matrix: (Units=1/GPa)
#
#
# Indices 1 2 3 4 5 6 
#
# 1 0.007701 -0.001561 -0.003023 0.000021 0.002370 0.000009
# 2 -0.001561 0.009559 -0.001690 -0.000040 0.000492 -0.000001
# 3 -0.003023 -0.001690 0.017412 0.000417 -0.000132 0.000241
# 4 0.000021 -0.000040 0.000417 0.146327 0.000060 0.091451
# 5 0.002370 0.000492 -0.000132 0.000060 0.018344 0.000015
# 6 0.000009 -0.000001 0.000241 0.091451 0.000015 0.096130
#
#
# Mechanical properties :
#
#
# Convention : Reuss Voigt Hill
#
# Bulk Modulus (GPa) = 45.20050 54.05236 49.62643
# Shear Modulus (GPa) = 15.85306 36.88977 26.37142
#
# Velocity S-wave (km/s) = 2.56157 3.90753 3.30382
# Velocity P-wave (km/s) = 5.23999 6.53689 5.92404
#
# Compressibility (1/GPa) = 0.02212365
#
# Stress axis : x y z
#
# Youngs Moduli (GPa) = 129.84535 104.61666 57.43162
#
# Poissons Ratio (x) = 0.16334 0.17359
# Poissons Ratio (y) = 0.20273 0.09708
# Poissons Ratio (z) = 0.39247 0.17684
#
# Static dielectric constant tensor:
#      x y z
#    x 1.890690 -0.000080 0.033250 
#    y -0.000080 1.995880 0.000050 
#    z 0.033250 0.000050 2.106070 
# 
# From -- ./inp_files/40403.got.cif
#   From: 2010.05.17/outbox.cif.g08.bks.cpg/sg5_21_cif.got.tgz:40403.got - 2010.06.03 18:56:24.
