data_PCOD9122276
_publ_section_title
;
Structure prediction by ZEFSAII (Michael W. Deem and Ramdas Pophale) SiO2 
 PCOD9122276
Probable space group: C 2
;
_chemical_formula_sum "Si O2"
_cell_formula_units_Z 26
_cell_length_a 13.866846
_cell_length_b 5.190807
_cell_length_c 15.142199
_cell_angle_alpha 90.000000
_cell_angle_beta 72.704261
_cell_angle_gamma 90.000000
_cell_volume 1040.653529
_symmetry_space_group_name_H-M "C 2"
_symmetry_group_IT_number 5
_symmetry_cell_setting 'monoclinic'
loop_
_space_group_symop_operation_xyz
x,y,z
-x,y,-z
1/2+x,1/2+y,z
1/2-x,1/2+y,-z
loop_
_atom_site_type_symbol
_atom_site_label
_atom_site_fract_x
_atom_site_fract_y
_atom_site_fract_z
Si Si1 0.531484 0.561440 0.649554
Si Si2 0.644449 0.933971 0.498864
Si Si3 0.924032 0.381734 0.197863
Si Si4 0.165088 0.082666 0.931922
Si Si5 0.206662 0.677921 0.653332
Si Si6 0.880978 0.584235 0.939337
Si Si7 0.500000 0.406351 0.500000
O O1 0.575232 0.684950 0.542900
O O2 0.525770 0.777377 0.724777
O O3 0.606953 0.356849 0.670161
O O4 0.440880 0.452543 0.618187
O O5 0.704248 0.871532 0.394572
O O6 0.710631 0.976055 0.569487
O O7 0.581193 0.188545 0.512948
O O8 0.892345 0.148567 0.142551
O O9 0.819689 0.524864 0.251640
O O10 0.991790 0.563711 0.868080
O O11 0.134439 0.319199 0.003613
O O12 0.132763 0.821015 0.989554
O O13 0.287537 0.092995 0.895622
#
# Coordination Sequence:
#
# PCOD9122276 Si02
#       7
#     4   4   4   4   4   4   2
#     4  10  22  41  65 100 142 186 253 294 359 449
#     4  10  19  40  65  92 129 196 234 296 362 426
#     4  11  25  41  77 113 139 196 253 313 378 449
#     4  10  24  48  79 111 149 198 246 309 394 470
#     4  10  21  38  67  97 137 180 250 298 353 441
#     4  10  24  48  79 109 154 193 247 312 389 474
#     4  10  22  38  68  92 140 200 244 292 378 428
#
# _framework density 24.984303000000001
#
# number of rings (size 3 to 8) (size 9 to 14) (size 15 to 20)
#    0.000    1.846    1.538    0.923    4.308    1.231 
#    0.000   12.308    0.000    0.000    0.000    0.000 
#    0.000    0.000    0.000    0.000    0.000    0.000 
#
# Total GULP energy -72468.767049 kJ/mol
# GULP energy per Si atom -5574.520542 kJ/mol
# Density = 2.492744 g / cm^3
# Si number density = 24.984303 Si / 1000 Ang^3
#
#
#
# Elastic Constant Matrix: (Units=GPa)
#
#
# Indices 1 2 3 4 5 6 
#
# 1 73.5465 13.4874 54.5426 0.0001 -1.6801 0.0001
# 2 13.4874 88.2360 20.5315 -0.0004 -8.1493 0.0000
# 3 54.5426 20.5315 98.3146 0.0000 -0.5829 0.0000
# 4 0.0001 -0.0004 0.0000 78.5825 -0.0001 -18.6010
# 5 -1.6801 -8.1493 -0.5829 -0.0001 34.4312 -0.0001
# 6 0.0001 0.0000 0.0000 -18.6010 -0.0001 12.1106
#
#
#
# Elastic Compliance Matrix: (Units=1/GPa)
#
#
# Indices 1 2 3 4 5 6 
#
# 1 0.023151 -0.000502 -0.012734 0.000000 0.000795 0.000000
# 2 -0.000502 0.012195 -0.002251 0.000000 0.002824 0.000000
# 3 -0.012734 -0.002251 0.017701 0.000000 -0.000855 0.000000
# 4 0.000000 0.000000 0.000000 0.019995 0.000000 0.030711
# 5 0.000795 0.002824 -0.000855 0.000000 0.029736 0.000001
# 6 0.000000 0.000000 0.000000 0.030711 0.000001 0.129742
#
#
# Mechanical properties :
#
#
# Convention : Reuss Voigt Hill
#
# Bulk Modulus (GPa) = 45.30734 48.58002 46.94368
# Shear Modulus (GPa) = 18.46033 36.46056 27.46044
#
# Velocity S-wave (km/s) = 2.72118 3.82427 3.31888
# Velocity P-wave (km/s) = 5.29592 6.24392 5.78936
#
# Compressibility (1/GPa) = 0.02207148
#
# Stress axis : x y z
#
# Youngs Moduli (GPa) = 43.19547 82.00321 56.49429
#
# Poissons Ratio (x) = 0.04119 0.71939
# Poissons Ratio (y) = 0.02169 0.12719
# Poissons Ratio (z) = 0.55004 0.18461
#
# Static dielectric constant tensor:
#      x y z
#    x 3.506420 0.000000 0.593160 
#    y 0.000000 2.066730 0.000000 
#    z 0.593160 0.000000 2.029850 
# 
# From -- ./inp_files/60971.got.cif
#   From: 2010.05.17/outbox.cif.g08.bks.cpg/sg5_31_cif.got.tgz:60971.got - 2010.06.03 18:56:24.
