data_PCOD9122288
_publ_section_title
;
Structure prediction by ZEFSAII (Michael W. Deem and Ramdas Pophale) SiO2 
 PCOD9122288
Probable space group: C 2
;
_chemical_formula_sum "Si O2"
_cell_formula_units_Z 30
_cell_length_a 11.741525
_cell_length_b 17.914158
_cell_length_c 7.544076
_cell_angle_alpha 90.000000
_cell_angle_beta 114.540502
_cell_angle_gamma 90.000000
_cell_volume 1443.476879
_symmetry_space_group_name_H-M "C 2"
_symmetry_group_IT_number 5
_symmetry_cell_setting 'monoclinic'
loop_
_space_group_symop_operation_xyz
x,y,z
-x,y,-z
1/2+x,1/2+y,z
1/2-x,1/2+y,-z
loop_
_atom_site_type_symbol
_atom_site_label
_atom_site_fract_x
_atom_site_fract_y
_atom_site_fract_z
Si Si1 0.104525 0.098840 0.438509
Si Si2 0.761587 0.736706 0.581120
Si Si3 0.993243 0.648432 0.279988
Si Si4 0.360565 0.895743 0.982896
Si Si5 0.747153 0.738493 0.145538
Si Si6 0.632757 0.879344 0.611834
Si Si7 0.000000 0.149024 0.000000
Si Si8 0.147436 0.507522 0.329250
O O1 0.149226 0.178913 0.545862
O O2 0.232662 0.053277 0.527862
O O3 0.000000 0.066397 0.500000
O O4 0.051975 0.105546 0.205166
O O5 0.894439 0.701031 0.715857
O O6 0.759606 0.740624 0.366395
O O7 0.737420 0.817350 0.646661
O O8 0.031373 0.565307 0.242243
O O9 0.000000 0.645000 0.500000
O O10 0.861505 0.687626 0.149586
O O11 0.363634 0.913758 0.191440
O O12 0.500000 0.873364 0.000000
O O13 0.267700 0.825138 0.912323
O O14 0.326274 0.965322 0.837573
O O15 0.616476 0.699384 0.012366
O O16 0.500000 0.838193 0.500000
O O17 0.630939 0.943185 0.463783
#
# Coordination Sequence:
#
# PCOD9122288 Si02
#       8
#     4   4   4   4   4   4   2   4
#     4  10  23  42  67  95 134 180 222 278 342 407
#     4   9  19  39  66  99 131 175 229 278 340 408
#     4   9  20  40  71  98 138 182 224 286 350 403
#     4  12  24  41  66 101 132 176 232 280 343 410
#     4  10  19  40  67 101 133 171 227 289 335 401
#     4  12  23  39  69  94 133 178 227 284 339 409
#     4  10  22  38  68 100 132 168 234 278 336 410
#     4  11  24  46  65 101 138 179 226 280 352 412
#
# _framework density 20.783152999999999
#
# number of rings (size 3 to 8) (size 9 to 14) (size 15 to 20)
#    0.000    1.600    3.333    1.600    3.733    1.067 
#    4.800    0.667    0.000    0.000    0.000    0.000 
#    0.000    0.000    0.000    0.000    0.000    0.000 
#
# Total GULP energy -83760.230956 kJ/mol
# GULP energy per Si atom -5584.015397 kJ/mol
# Density = 2.073585 g / cm^3
# Si number density = 20.783153 Si / 1000 Ang^3
#
#
#
# Elastic Constant Matrix: (Units=GPa)
#
#
# Indices 1 2 3 4 5 6 
#
# 1 85.1618 47.6530 35.2114 0.0000 12.9481 0.0000
# 2 47.6530 126.5306 43.9420 0.0000 9.3115 0.0000
# 3 35.2114 43.9420 97.9589 0.0000 -2.3378 0.0000
# 4 0.0000 0.0000 0.0000 27.2532 0.0000 4.2239
# 5 12.9481 9.3115 -2.3378 0.0000 38.7574 0.0000
# 6 0.0000 0.0000 0.0000 4.2239 0.0000 20.8394
#
#
#
# Elastic Compliance Matrix: (Units=1/GPa)
#
#
# Indices 1 2 3 4 5 6 
#
# 1 0.016676 -0.004514 -0.004082 0.000000 -0.004733 0.000000
# 2 -0.004514 0.010833 -0.003268 0.000000 -0.001292 0.000000
# 3 -0.004082 -0.003268 0.013212 0.000000 0.002946 0.000000
# 4 0.000000 0.000000 0.000000 0.037883 0.000000 -0.007678
# 5 -0.004733 -0.001292 0.002946 0.000000 0.027871 0.000000
# 6 0.000000 0.000000 0.000000 -0.007678 0.000000 0.049542
#
#
# Mechanical properties :
#
#
# Convention : Reuss Voigt Hill
#
# Bulk Modulus (GPa) = 58.84907 62.58488 60.71698
# Shear Modulus (GPa) = 26.96738 29.55964 28.26351
#
# Velocity S-wave (km/s) = 3.60607 3.77542 3.69172
# Velocity P-wave (km/s) = 6.76133 7.01311 6.88837
#
# Compressibility (1/GPa) = 0.01699262
#
# Stress axis : x y z
#
# Youngs Moduli (GPa) = 59.96721 92.30831 75.69022
#
# Poissons Ratio (x) = 0.41672 0.30897
# Poissons Ratio (y) = 0.27072 0.24733
# Poissons Ratio (z) = 0.24479 0.30163
#
# Static dielectric constant tensor:
#      x y z
#    x 1.746770 0.000000 -0.005200 
#    y 0.000000 1.755490 0.000000 
#    z -0.005200 0.000000 1.750860 
# 
# From -- ./inp_files/21493.got.cif
#   From: 2010.05.17/outbox.cif.g08.bks.cpg/sg5_11_cif.got.tgz:21493.got - 2010.06.03 18:56:24.
