data_PCOD9122131
_publ_section_title
;
Structure prediction by ZEFSAII (Michael W. Deem and Ramdas Pophale) SiO2 
 PCOD9122131
Probable space group: C 2
;
_chemical_formula_sum "Si O2"
_cell_formula_units_Z 28
_cell_length_a 18.109599
_cell_length_b 5.006764
_cell_length_c 16.730623
_cell_angle_alpha 90.000000
_cell_angle_beta 55.108231
_cell_angle_gamma 90.000000
_cell_volume 1244.273545
_symmetry_space_group_name_H-M "C 2"
_symmetry_group_IT_number 5
_symmetry_cell_setting 'monoclinic'
loop_
_space_group_symop_operation_xyz
x,y,z
-x,y,-z
1/2+x,1/2+y,z
1/2-x,1/2+y,-z
loop_
_atom_site_type_symbol
_atom_site_label
_atom_site_fract_x
_atom_site_fract_y
_atom_site_fract_z
Si Si1 0.343475 0.030960 0.604977
Si Si2 0.714654 0.792263 0.065113
Si Si3 0.807375 0.641104 0.458337
Si Si4 0.929963 0.754836 0.695544
Si Si5 0.266130 0.620007 0.776987
Si Si6 0.157079 0.371516 0.725621
Si Si7 0.021229 0.225243 0.235372
O O1 0.365139 0.032420 0.497394
O O2 0.420614 0.169596 0.609459
O O3 0.247898 0.192570 0.664286
O O4 0.319140 0.763938 0.670309
O O5 0.741985 0.807186 0.141568
O O6 0.612137 0.685197 0.128504
O O7 0.775662 0.573960 0.983602
O O8 0.718528 0.449904 0.517987
O O9 0.842797 0.575887 0.349041
O O10 0.956967 0.503245 0.732506
O O11 0.828657 0.876676 0.768725
O O12 0.989286 0.001206 0.689349
O O13 0.172513 0.523951 0.798628
O O14 0.064727 0.221264 0.768259
#
# Coordination Sequence:
#
# PCOD9122131 Si02
#       7
#     4   4   4   4   4   4   4
#     4  10  19  38  66  89 120 168 214 245 283 374
#     4  11  23  41  67  89 115 159 214 254 301 381
#     4  10  20  35  58  94 123 163 212 248 289 356
#     4  10  20  37  63  85 120 170 204 242 293 378
#     4  10  20  40  67  90 117 165 209 242 308 375
#     4  10  23  37  65  94 130 161 200 259 312 356
#     4  11  23  40  64  92 126 159 201 254 325 356
#
# _framework density 22.50309
#
# number of rings (size 3 to 8) (size 9 to 14) (size 15 to 20)
#    0.000    1.714    4.286    1.714    4.000    0.000 
#    0.000    1.429    3.143    0.000    0.000    0.000 
#    0.000    0.000    0.000    0.000    0.000    0.000 
#
# Total GULP energy -78117.705230 kJ/mol
# GULP energy per Si atom -5579.836088 kJ/mol
# Density = 2.245187 g / cm^3
# Si number density = 22.503090 Si / 1000 Ang^3
#
#
#
# Elastic Constant Matrix: (Units=GPa)
#
#
# Indices 1 2 3 4 5 6 
#
# 1 153.4630 25.9248 26.3354 -0.0112 7.5517 0.0094
# 2 25.9248 104.6778 7.7539 0.0129 14.0439 0.0080
# 3 26.3354 7.7539 41.6044 -0.0013 7.6427 0.0023
# 4 -0.0112 0.0129 -0.0013 21.6146 -0.0022 17.3840
# 5 7.5517 14.0439 7.6427 -0.0022 25.1577 -0.0035
# 6 0.0094 0.0080 0.0023 17.3840 -0.0035 34.4558
#
#
#
# Elastic Compliance Matrix: (Units=1/GPa)
#
#
# Indices 1 2 3 4 5 6 
#
# 1 0.007546 -0.001530 -0.004483 0.000010 -0.000049 -0.000006
# 2 -0.001530 0.010670 -0.000011 -0.000009 -0.005494 0.000002
# 3 -0.004483 -0.000011 0.028201 0.000000 -0.007216 -0.000001
# 4 0.000010 -0.000009 0.000000 0.077858 0.000004 -0.039282
# 5 -0.000049 -0.005494 -0.007216 0.000004 0.045023 0.000004
# 6 -0.000006 0.000002 -0.000001 -0.039282 0.000004 0.048842
#
#
# Mechanical properties :
#
#
# Convention : Reuss Voigt Hill
#
# Bulk Modulus (GPa) = 29.09509 46.64149 37.86829
# Shear Modulus (GPa) = 20.69160 32.22768 26.45964
#
# Velocity S-wave (km/s) = 3.03562 3.78847 3.43275
# Velocity P-wave (km/s) = 5.02435 6.31731 5.70756
#
# Compressibility (1/GPa) = 0.03437006
#
# Stress axis : x y z
#
# Youngs Moduli (GPa) = 132.51312 93.72086 35.45984
#
# Poissons Ratio (x) = 0.14342 0.15895
# Poissons Ratio (y) = 0.20279 0.00038
# Poissons Ratio (z) = 0.59401 0.00100
#
# Static dielectric constant tensor:
#      x y z
#    x 1.865730 -0.000010 -0.013270 
#    y -0.000010 1.903320 0.000000 
#    z -0.013270 0.000000 1.878260 
# 
# From -- ./inp_files/55411.got.cif
#   From: 2010.05.17/outbox.cif.g08.bks.cpg/sg5_28_cif.got.tgz:55411.got - 2010.06.03 18:56:24.
