data_PCOD9122986
_publ_section_title
;
Structure prediction by ZEFSAII (Michael W. Deem and Ramdas Pophale) SiO2 
 PCOD9122986
Probable space group: C 2
;
_chemical_formula_sum "Si O2"
_cell_formula_units_Z 30
_cell_length_a 18.083171
_cell_length_b 16.897384
_cell_length_c 5.870659
_cell_angle_alpha 90.000000
_cell_angle_beta 118.284713
_cell_angle_gamma 90.000000
_cell_volume 1579.652210
_symmetry_space_group_name_H-M "C 2"
_symmetry_group_IT_number 5
_symmetry_cell_setting 'monoclinic'
loop_
_space_group_symop_operation_xyz
x,y,z
-x,y,-z
1/2+x,1/2+y,z
1/2-x,1/2+y,-z
loop_
_atom_site_type_symbol
_atom_site_label
_atom_site_fract_x
_atom_site_fract_y
_atom_site_fract_z
Si Si1 0.122536 0.725900 0.335412
Si Si2 0.079842 0.443673 0.734582
Si Si3 0.150911 0.858870 0.999832
Si Si4 0.959714 0.273688 0.187318
Si Si5 0.794603 0.423341 0.457911
Si Si6 0.000000 0.816624 0.500000
Si Si7 0.099150 0.550061 0.137958
Si Si8 0.775050 0.285814 0.806649
O O1 0.102708 0.641937 0.196430
O O2 0.213045 0.724949 0.590688
O O3 0.053731 0.759374 0.412314
O O4 0.129024 0.790974 0.148239
O O5 0.042954 0.370021 0.821611
O O6 0.141144 0.400843 0.648059
O O7 0.000000 0.482642 0.500000
O O8 0.126089 0.513129 0.935294
O O9 0.218115 0.824190 0.919714
O O10 0.065559 0.870787 0.735316
O O11 0.201352 0.925476 0.214759
O O12 0.000000 0.253694 0.500000
O O13 0.861458 0.250523 0.026603
O O14 0.000000 0.248480 0.000000
O O15 0.837625 0.503688 0.604821
O O16 0.794937 0.356545 0.654653
O O17 0.000000 0.527008 0.000000
#
# Coordination Sequence:
#
# PCOD9122986 Si02
#       8
#     4   4   4   4   4   2   4   4
#     4  10  24  37  57  80 120 158 199 241 300 360
#     4  11  20  31  50  80 121 157 185 232 289 361
#     4  10  20  37  57  78 112 149 203 249 292 351
#     4  11  21  32  57  87 118 153 198 246 302 354
#     4  11  20  34  53  81 117 155 191 245 292 355
#     4  10  20  40  58  82 108 156 204 250 298 350
#     4  12  22  34  52  84 121 160 192 229 297 374
#     4  10  20  37  54  82 116 156 201 248 292 354
#
# _framework density 18.991523000000001
#
# number of rings (size 3 to 8) (size 9 to 14) (size 15 to 20)
#    0.000    1.333    4.000    3.200    1.867    3.200 
#    1.200    0.000    0.000    0.000    1.733    3.733 
#    0.000    0.000    0.000    0.000    0.000    0.000 
#
# Total GULP energy -83524.072291 kJ/mol
# GULP energy per Si atom -5568.271486 kJ/mol
# Density = 1.894830 g / cm^3
# Si number density = 18.991523 Si / 1000 Ang^3
#
#
#
# Elastic Constant Matrix: (Units=GPa)
#
#
# Indices 1 2 3 4 5 6 
#
# 1 111.0830 22.2582 60.9299 0.0000 -1.3581 0.0000
# 2 22.2582 40.3261 17.3818 0.0000 4.4574 0.0000
# 3 60.9299 17.3818 146.0584 0.0000 29.9907 0.0000
# 4 0.0000 0.0000 0.0000 24.7867 0.0000 9.9676
# 5 -1.3581 4.4574 29.9907 0.0000 53.8079 0.0000
# 6 0.0000 0.0000 0.0000 9.9676 0.0000 11.3766
#
#
#
# Elastic Compliance Matrix: (Units=1/GPa)
#
#
# Indices 1 2 3 4 5 6 
#
# 1 0.013239 -0.005285 -0.005705 0.000000 0.003952 0.000000
# 2 -0.005285 0.028260 -0.000734 0.000000 -0.002065 0.000000
# 3 -0.005705 -0.000734 0.010537 0.000000 -0.005956 0.000000
# 4 0.000000 0.000000 0.000000 0.062291 0.000000 -0.054577
# 5 0.003952 -0.002065 -0.005956 0.000000 0.022175 0.000000
# 6 0.000000 0.000000 0.000000 -0.054577 0.000000 0.135718
#
#
# Mechanical properties :
#
#
# Convention : Reuss Voigt Hill
#
# Bulk Modulus (GPa) = 34.98166 55.40083 45.19124
# Shear Modulus (GPa) = 16.38281 31.12071 23.75176
#
# Velocity S-wave (km/s) = 2.94026 4.05243 3.54029
# Velocity P-wave (km/s) = 5.47599 7.15059 6.36857
#
# Compressibility (1/GPa) = 0.02858641
#
# Stress axis : x y z
#
# Youngs Moduli (GPa) = 75.53450 35.38608 94.90361
#
# Poissons Ratio (x) = 0.18701 0.54145
# Poissons Ratio (y) = 0.39920 0.06969
# Poissons Ratio (z) = 0.43095 0.02599
#
# Static dielectric constant tensor:
#      x y z
#    x 1.716740 0.000000 -0.023240 
#    y 0.000000 1.606970 0.000000 
#    z -0.023240 0.000000 1.826150 
# 
# From -- ./inp_files/8854.got.cif
#   From: 2010.05.17/outbox.cif.g08.bks.cpg/sg5_5_cif.got.tgz:8854.got - 2010.06.03 18:56:24.
