data_PCOD9122197
_publ_section_title
;
Structure prediction by ZEFSAII (Michael W. Deem and Ramdas Pophale) SiO2 
 PCOD9122197
Probable space group: C 2
;
_chemical_formula_sum "Si O2"
_cell_formula_units_Z 32
_cell_length_a 27.828769
_cell_length_b 9.069162
_cell_length_c 16.213197
_cell_angle_alpha 90.000000
_cell_angle_beta 19.901338
_cell_angle_gamma 90.000000
_cell_volume 1392.904338
_symmetry_space_group_name_H-M "C 2"
_symmetry_group_IT_number 5
_symmetry_cell_setting 'monoclinic'
loop_
_space_group_symop_operation_xyz
x,y,z
-x,y,-z
1/2+x,1/2+y,z
1/2-x,1/2+y,-z
loop_
_atom_site_type_symbol
_atom_site_label
_atom_site_fract_x
_atom_site_fract_y
_atom_site_fract_z
Si Si1 0.855492 0.023160 0.768211
Si Si2 0.660088 0.176036 0.954224
Si Si3 0.904063 0.885273 0.416378
Si Si4 0.348533 0.823468 0.865611
Si Si5 0.862617 0.428126 0.573896
Si Si6 0.340687 0.045414 0.230596
Si Si7 0.414046 0.714109 0.342447
Si Si8 0.782125 0.236723 0.161094
O O1 0.727055 0.064221 0.912562
O O2 0.891661 0.178359 0.749237
O O3 0.000000 0.962076 0.500000
O O4 0.790158 0.909416 0.939057
O O5 0.775034 0.304561 0.762290
O O6 0.654076 0.100111 0.873727
O O7 0.514382 0.260857 0.210945
O O8 0.755728 0.899002 0.604898
O O9 0.839275 0.844353 0.609043
O O10 0.952892 0.057111 0.327865
O O11 0.479571 0.934093 0.646832
O O12 0.306853 0.765493 0.024480
O O13 0.886326 0.354768 0.445493
O O14 0.778289 0.577835 0.716899
O O15 0.241282 0.166234 0.438448
O O16 0.500000 0.032744 0.000000
O O17 0.557239 0.749460 0.062270
#
# Coordination Sequence:
#
# PCOD9122197 Si02
#       8
#     4   4   4   4   4   4   4   4
#     4  12  27  43  63  93 134 171 217 267 319 382
#     4  11  21  41  71  91 127 174 215 260 331 380
#     4  10  21  38  67  93 125 168 208 260 323 384
#     4  11  27  39  60  94 124 171 215 264 314 371
#     4  10  19  39  64  86 124 164 212 262 314 370
#     4   9  20  42  67  94 129 169 213 267 325 382
#     4   8  20  36  60  93 123 165 206 255 320 369
#     4  11  21  39  64  94 127 163 216 260 314 383
#
# _framework density 22.973582
#
# number of rings (size 3 to 8) (size 9 to 14) (size 15 to 20)
#    0.750    1.000    2.500    1.500    1.750    4.000 
#    2.250    0.000    0.000    0.750    0.000    0.000 
#    0.000    0.000    0.000    0.000    0.000    0.000 
#
# Total GULP energy -89128.137464 kJ/mol
# GULP energy per Si atom -5570.508591 kJ/mol
# Density = 2.292129 g / cm^3
# Si number density = 22.973582 Si / 1000 Ang^3
#
#
#
# Elastic Constant Matrix: (Units=GPa)
#
#
# Indices 1 2 3 4 5 6 
#
# 1 23.4946 2.0628 21.3663 0.0000 -5.8012 0.0000
# 2 2.0628 83.4159 39.2644 0.0000 0.2668 0.0000
# 3 21.3663 39.2644 194.5686 0.0000 -5.8003 0.0000
# 4 0.0000 0.0000 0.0000 56.4529 0.0000 3.9863
# 5 -5.8012 0.2668 -5.8003 0.0000 28.4641 0.0000
# 6 0.0000 0.0000 0.0000 3.9863 0.0000 10.9894
#
#
#
# Elastic Compliance Matrix: (Units=1/GPa)
#
#
# Indices 1 2 3 4 5 6 
#
# 1 0.049620 0.001307 -0.005445 0.000000 0.008991 0.000000
# 2 0.001307 0.013294 -0.002839 0.000000 -0.000437 0.000000
# 3 -0.005445 -0.002839 0.006317 0.000000 0.000204 0.000000
# 4 0.000000 0.000000 0.000000 0.018180 0.000000 -0.006594
# 5 0.008991 -0.000437 0.000204 0.000000 0.037010 0.000000
# 6 0.000000 0.000000 0.000000 -0.006594 0.000000 0.093388
#
#
# Mechanical properties :
#
#
# Convention : Reuss Voigt Hill
#
# Bulk Modulus (GPa) = 18.09102 47.42959 32.76031
# Shear Modulus (GPa) = 19.98506 35.10034 27.54270
#
# Velocity S-wave (km/s) = 2.95263 3.91302 3.46625
# Velocity P-wave (km/s) = 4.41767 6.41138 5.50552
#
# Compressibility (1/GPa) = 0.05527603
#
# Stress axis : x y z
#
# Youngs Moduli (GPa) = 20.15332 75.22395 158.31503
#
# Poissons Ratio (x) = -0.09832 0.86197
# Poissons Ratio (y) = -0.02634 0.44949
# Poissons Ratio (z) = 0.10973 0.21358
#
# Static dielectric constant tensor:
#      x y z
#    x 1.961660 0.000000 -0.021980 
#    y 0.000000 1.915830 0.000000 
#    z -0.021980 0.000000 1.895060 
# 
# From -- ./inp_files/63792.got.cif
#   From: 2010.05.17/outbox.cif.g08.bks.cpg/sg5_32_cif.got.tgz:63792.got - 2010.06.03 18:56:24.
