data_PCOD9122199
_publ_section_title
;
Structure prediction by ZEFSAII (Michael W. Deem and Ramdas Pophale) SiO2 
 PCOD9122199
Probable space group: C 2
;
_chemical_formula_sum "Si O2"
_cell_formula_units_Z 24
_cell_length_a 8.251500
_cell_length_b 14.769923
_cell_length_c 14.009185
_cell_angle_alpha 90.000000
_cell_angle_beta 38.093201
_cell_angle_gamma 90.000000
_cell_volume 1053.340268
_symmetry_space_group_name_H-M "C 2"
_symmetry_group_IT_number 5
_symmetry_cell_setting 'monoclinic'
loop_
_space_group_symop_operation_xyz
x,y,z
-x,y,-z
1/2+x,1/2+y,z
1/2-x,1/2+y,-z
loop_
_atom_site_type_symbol
_atom_site_label
_atom_site_fract_x
_atom_site_fract_y
_atom_site_fract_z
Si Si1 0.977828 0.098230 0.396932
Si Si2 0.941662 0.557214 0.890904
Si Si3 0.086375 0.546928 0.325711
Si Si4 0.275857 0.730826 0.344537
Si Si5 0.474888 0.408854 0.896500
Si Si6 0.823601 0.242498 0.988958
O O1 0.249028 0.057295 0.233562
O O2 0.000000 0.111692 0.500000
O O3 0.715909 0.038527 0.502905
O O4 0.919002 0.192582 0.371470
O O5 0.910097 0.559036 0.790293
O O6 0.775411 0.473471 0.005024
O O7 0.803042 0.649508 0.988662
O O8 0.194795 0.639674 0.322415
O O9 0.272228 0.462033 0.258468
O O10 0.482228 0.781739 0.182481
O O11 0.000000 0.776775 0.500000
O O12 0.500000 0.398348 0.000000
O O13 0.408915 0.312299 0.883135
O O14 0.000000 0.226612 0.000000
#
# Coordination Sequence:
#
# PCOD9122199 Si02
#       6
#     4   4   4   4   4   4
#     4   9  20  34  65  94 122 164 216 257 323 384
#     4  10  19  39  64  90 125 167 210 266 318 375
#     4   9  17  40  62  86 123 171 202 257 321 379
#     4  10  20  37  63  91 127 169 210 257 328 380
#     4  10  22  38  61  91 130 167 216 261 317 377
#     4  12  23  39  64  99 130 171 218 269 319 383
#
# _framework density 22.784658
#
# number of rings (size 3 to 8) (size 9 to 14) (size 15 to 20)
#    0.000    2.000    3.333    0.500    2.333    1.333 
#    0.000    4.167    0.000    7.000    0.000    0.000 
#    0.000    0.000    0.000    0.000    0.000    0.000 
#
# Total GULP energy -67093.032005 kJ/mol
# GULP energy per Si atom -5591.086000 kJ/mol
# Density = 2.273280 g / cm^3
# Si number density = 22.784658 Si / 1000 Ang^3
#
#
#
# Elastic Constant Matrix: (Units=GPa)
#
#
# Indices 1 2 3 4 5 6 
#
# 1 79.8521 11.7467 40.8119 -0.0011 -19.3585 0.0007
# 2 11.7467 53.4537 2.2494 -0.0023 -16.2339 0.0020
# 3 40.8119 2.2494 103.6309 -0.0027 -23.0705 0.0017
# 4 -0.0011 -0.0023 -0.0027 24.4434 0.0020 -9.9522
# 5 -19.3585 -16.2339 -23.0705 0.0020 48.0009 -0.0012
# 6 0.0007 0.0020 0.0017 -9.9522 -0.0012 14.6186
#
#
#
# Elastic Compliance Matrix: (Units=1/GPa)
#
#
# Indices 1 2 3 4 5 6 
#
# 1 0.016594 -0.002470 -0.005798 0.000000 0.003070 0.000000
# 2 -0.002470 0.021363 0.002123 0.000001 0.007249 -0.000002
# 3 -0.005798 0.002123 0.012907 0.000001 0.004583 -0.000001
# 4 0.000000 0.000001 0.000001 0.056599 -0.000001 0.038532
# 5 0.003070 0.007249 0.004583 -0.000001 0.026726 0.000000
# 6 0.000000 -0.000002 -0.000001 0.038532 0.000000 0.094638
#
#
# Mechanical properties :
#
#
# Convention : Reuss Voigt Hill
#
# Bulk Modulus (GPa) = 25.92444 38.50585 32.21514
# Shear Modulus (GPa) = 19.68692 29.55449 24.62070
#
# Velocity S-wave (km/s) = 2.94265 3.60547 3.29079
# Velocity P-wave (km/s) = 4.79044 5.85398 5.34871
#
# Compressibility (1/GPa) = 0.03857364
#
# Stress axis : x y z
#
# Youngs Moduli (GPa) = 60.26210 46.81034 77.47586
#
# Poissons Ratio (x) = 0.11563 0.44920
# Poissons Ratio (y) = 0.14886 -0.16447
# Poissons Ratio (z) = 0.34940 -0.09937
#
# Static dielectric constant tensor:
#      x y z
#    x 1.867300 0.000000 -0.002300 
#    y 0.000000 1.777030 0.000000 
#    z -0.002300 0.000000 1.868510 
# 
# From -- ./inp_files/50827.got.cif
#   From: 2010.05.17/outbox.cif.g08.bks.cpg/sg5_26_cif.got.tgz:50827.got - 2010.06.03 18:56:24.
