data_PCOD9122332
_publ_section_title
;
Structure prediction by ZEFSAII (Michael W. Deem and Ramdas Pophale) SiO2 
 PCOD9122332
Probable space group: C 2
;
_chemical_formula_sum "Si O2"
_cell_formula_units_Z 28
_cell_length_a 11.277264
_cell_length_b 16.603868
_cell_length_c 8.030050
_cell_angle_alpha 90.000000
_cell_angle_beta 112.222900
_cell_angle_gamma 90.000000
_cell_volume 1391.908474
_symmetry_space_group_name_H-M "C 2"
_symmetry_group_IT_number 5
_symmetry_cell_setting 'monoclinic'
loop_
_space_group_symop_operation_xyz
x,y,z
-x,y,-z
1/2+x,1/2+y,z
1/2-x,1/2+y,-z
loop_
_atom_site_type_symbol
_atom_site_label
_atom_site_fract_x
_atom_site_fract_y
_atom_site_fract_z
Si Si1 0.926778 0.159210 0.791789
Si Si2 0.784108 0.787032 0.350568
Si Si3 0.991383 0.750627 0.743640
Si Si4 0.250026 0.467487 0.427316
Si Si5 0.500000 0.391168 0.000000
Si Si6 0.228715 0.000691 0.184039
Si Si7 0.000000 0.075858 0.500000
Si Si8 0.000979 0.569083 0.705470
O O1 0.841026 0.234257 0.693599
O O2 0.004894 0.128219 0.672312
O O3 0.835459 0.085119 0.796706
O O4 0.000000 0.179911 0.000000
O O5 0.860028 0.765085 0.223820
O O6 0.758146 0.881052 0.347837
O O7 0.888169 0.760763 0.542613
O O8 0.987060 0.656196 0.784213
O O9 0.959591 0.827180 0.839588
O O10 0.248776 0.456512 0.627264
O O11 0.374750 0.519858 0.447698
O O12 0.121614 0.515676 0.317199
O O13 0.378532 0.449504 0.971929
O O14 0.366257 0.023635 0.181616
O O15 0.000000 0.581574 0.500000
#
# Coordination Sequence:
#
# PCOD9122332 Si02
#       8
#     4   4   4   4   2   4   2   4
#     4  11  23  43  68  95 133 172 218 272 333 393
#     4  11  21  41  63  93 125 171 213 267 326 388
#     4  11  21  40  66  91 126 169 221 262 325 398
#     4  10  21  38  67  94 125 170 222 271 320 394
#     4  12  24  38  66 102 124 164 228 286 314 386
#     4  10  20  40  64  95 128 174 216 267 338 393
#     4  10  22  42  70  98 118 178 228 266 324 392
#     4  10  19  41  65  89 126 174 213 260 340 396
#
# _framework density 20.116264999999999
#
# number of rings (size 3 to 8) (size 9 to 14) (size 15 to 20)
#    0.000    1.429    5.000    2.571    2.000    0.000 
#   11.571    1.429    0.000    0.000    0.000    0.000 
#    0.000    0.000    0.000    0.000    0.000    0.000 
#
# Total GULP energy -78093.325025 kJ/mol
# GULP energy per Si atom -5578.094645 kJ/mol
# Density = 2.007048 g / cm^3
# Si number density = 20.116265 Si / 1000 Ang^3
#
#
#
# Elastic Constant Matrix: (Units=GPa)
#
#
# Indices 1 2 3 4 5 6 
#
# 1 109.6645 63.4890 31.3896 0.0000 25.1400 0.0000
# 2 63.4890 131.5981 44.6205 0.0000 21.4298 0.0000
# 3 31.3896 44.6205 53.1292 0.0000 11.5624 0.0000
# 4 0.0000 0.0000 0.0000 21.9964 0.0000 9.9745
# 5 25.1400 21.4298 11.5624 0.0000 23.4547 0.0000
# 6 0.0000 0.0000 0.0000 9.9745 0.0000 35.7059
#
#
#
# Elastic Compliance Matrix: (Units=1/GPa)
#
#
# Indices 1 2 3 4 5 6 
#
# 1 0.014957 -0.004591 -0.002694 0.000000 -0.010509 0.000000
# 2 -0.004591 0.012830 -0.007373 0.000000 -0.003166 0.000000
# 3 -0.002694 -0.007373 0.027457 0.000000 -0.003911 0.000000
# 4 0.000000 0.000000 0.000000 0.052056 0.000000 -0.014542
# 5 -0.010509 -0.003166 -0.003911 0.000000 0.058720 0.000000
# 6 0.000000 0.000000 0.000000 -0.014542 0.000000 0.032069
#
#
# Mechanical properties :
#
#
# Convention : Reuss Voigt Hill
#
# Bulk Modulus (GPa) = 38.56987 63.71001 51.13994
# Shear Modulus (GPa) = 21.18214 26.55758 23.86986
#
# Velocity S-wave (km/s) = 3.24849 3.63740 3.44844
# Velocity P-wave (km/s) = 5.76935 7.02713 6.42907
#
# Compressibility (1/GPa) = 0.02592697
#
# Stress axis : x y z
#
# Youngs Moduli (GPa) = 66.85880 77.94529 36.42023
#
# Poissons Ratio (x) = 0.35786 0.09811
# Poissons Ratio (y) = 0.30696 0.26854
# Poissons Ratio (z) = 0.18011 0.57471
#
# Static dielectric constant tensor:
#      x y z
#    x 1.719200 0.000000 -0.017430 
#    y 0.000000 1.692360 0.000000 
#    z -0.017430 0.000000 1.694160 
# 
# From -- ./inp_files/20567.got.cif
#   From: 2010.05.17/outbox.cif.g08.bks.cpg/sg5_11_cif.got.tgz:20567.got - 2010.06.03 18:56:24.
