data_PCOD9122514
_publ_section_title
;
Structure prediction by ZEFSAII (Michael W. Deem and Ramdas Pophale) SiO2 
 PCOD9122514
Probable space group: C 2
;
_chemical_formula_sum "Si O2"
_cell_formula_units_Z 32
_cell_length_a 8.920927
_cell_length_b 19.706507
_cell_length_c 12.465459
_cell_angle_alpha 90.000000
_cell_angle_beta 132.023294
_cell_angle_gamma 90.000000
_cell_volume 1627.954734
_symmetry_space_group_name_H-M "C 2"
_symmetry_group_IT_number 5
_symmetry_cell_setting 'monoclinic'
loop_
_space_group_symop_operation_xyz
x,y,z
-x,y,-z
1/2+x,1/2+y,z
1/2-x,1/2+y,-z
loop_
_atom_site_type_symbol
_atom_site_label
_atom_site_fract_x
_atom_site_fract_y
_atom_site_fract_z
Si Si1 0.354974 0.518760 0.843787
Si Si2 0.347205 0.605347 0.157857
Si Si3 0.654274 0.626338 0.480068
Si Si4 0.039017 0.741213 0.389280
Si Si5 0.082149 0.491009 0.381329
Si Si6 0.445737 0.399325 0.599949
Si Si7 0.159895 0.480826 0.166196
Si Si8 0.769963 0.162936 0.906013
O O1 0.514177 0.550160 0.837927
O O2 0.261525 0.585953 0.856766
O O3 0.153635 0.485108 0.701688
O O4 0.500000 0.481646 0.000000
O O5 0.512959 0.640646 0.310540
O O6 0.202779 0.559944 0.161388
O O7 0.240380 0.652990 0.019311
O O8 0.500000 0.605706 0.500000
O O9 0.773144 0.695227 0.555750
O O10 0.814784 0.564623 0.544533
O O11 0.065001 0.820402 0.377894
O O12 0.000000 0.732363 0.500000
O O13 0.863462 0.710594 0.231089
O O14 0.233677 0.437582 0.507605
O O15 0.087820 0.478056 0.254821
O O16 0.500000 0.403282 0.500000
O O17 0.632370 0.438543 0.743823
O O18 0.000000 0.457592 0.000000
O O19 0.000000 0.185107 0.000000
#
# Coordination Sequence:
#
# PCOD9122514 Si02
#       8
#     4   4   4   4   4   4   4   4
#     4   9  18  32  53  87 119 144 189 247 299 345
#     4  10  20  34  54  88 120 147 195 246 300 355
#     4  12  22  36  57  87 122 153 194 253 298 351
#     4  11  22  39  62  85 118 160 201 245 297 354
#     4  11  19  38  59  85 124 158 195 251 297 348
#     4   9  21  39  57  85 120 160 204 241 290 364
#     4  11  20  34  58  87 119 157 198 241 306 352
#     4   9  18  33  53  86 119 142 190 250 298 346
#
# _framework density 19.656566000000002
#
# number of rings (size 3 to 8) (size 9 to 14) (size 15 to 20)
#    0.000    2.000    3.750    3.375    0.000    0.500 
#    0.000    2.500    0.000    0.000    0.000    0.875 
#    0.000    0.000    0.000    0.000    0.000    0.000 
#
# Total GULP energy -89205.287559 kJ/mol
# GULP energy per Si atom -5575.330472 kJ/mol
# Density = 1.961183 g / cm^3
# Si number density = 19.656566 Si / 1000 Ang^3
#
#
#
# Elastic Constant Matrix: (Units=GPa)
#
#
# Indices 1 2 3 4 5 6 
#
# 1 40.8132 10.0974 29.2201 0.0000 8.5408 0.0000
# 2 10.0974 91.2085 60.9358 0.0000 14.5236 0.0000
# 3 29.2201 60.9358 162.6121 0.0000 17.6240 0.0000
# 4 0.0000 0.0000 0.0000 21.0105 0.0000 1.1447
# 5 8.5408 14.5236 17.6240 0.0000 35.5581 0.0000
# 6 0.0000 0.0000 0.0000 1.1447 0.0000 15.2417
#
#
#
# Elastic Compliance Matrix: (Units=1/GPa)
#
#
# Indices 1 2 3 4 5 6 
#
# 1 0.028871 0.000919 -0.005009 0.000000 -0.004827 0.000000
# 2 0.000919 0.015065 -0.005410 0.000000 -0.003692 0.000000
# 3 -0.005009 -0.005410 0.009201 0.000000 -0.001148 0.000000
# 4 0.000000 0.000000 0.000000 0.047791 0.000000 -0.003589
# 5 -0.004827 -0.003692 -0.001148 0.000000 0.031359 0.000000
# 6 0.000000 0.000000 0.000000 -0.003589 0.000000 0.065879
#
#
# Mechanical properties :
#
#
# Convention : Reuss Voigt Hill
#
# Bulk Modulus (GPa) = 29.29416 55.01559 42.15487
# Shear Modulus (GPa) = 21.87749 27.32076 24.59913
#
# Velocity S-wave (km/s) = 3.33976 3.73219 3.54142
# Velocity P-wave (km/s) = 5.45961 6.82799 6.18178
#
# Compressibility (1/GPa) = 0.03413650
#
# Stress axis : x y z
#
# Youngs Moduli (GPa) = 34.63695 66.38097 108.67889
#
# Poissons Ratio (x) = -0.06100 0.54438
# Poissons Ratio (y) = -0.03183 0.58796
# Poissons Ratio (z) = 0.17350 0.35913
#
# Static dielectric constant tensor:
#      x y z
#    x 1.749580 0.000000 -0.012360 
#    y 0.000000 1.655480 0.000000 
#    z -0.012360 0.000000 1.777290 
# 
# From -- ./inp_files/37346.got.cif
#   From: 2010.05.17/outbox.cif.g08.bks.cpg/sg5_19_cif.got.tgz:37346.got - 2010.06.03 18:56:24.
