data_PCOD9122105
_publ_section_title
;
Structure prediction by ZEFSAII (Michael W. Deem and Ramdas Pophale) SiO2 
 PCOD9122105
Probable space group: C 2
;
_chemical_formula_sum "Si O2"
_cell_formula_units_Z 26
_cell_length_a 10.386926
_cell_length_b 14.187496
_cell_length_c 9.410981
_cell_angle_alpha 90.000000
_cell_angle_beta 119.594457
_cell_angle_gamma 90.000000
_cell_volume 1205.920298
_symmetry_space_group_name_H-M "C 2"
_symmetry_group_IT_number 5
_symmetry_cell_setting 'monoclinic'
loop_
_space_group_symop_operation_xyz
x,y,z
-x,y,-z
1/2+x,1/2+y,z
1/2-x,1/2+y,-z
loop_
_atom_site_type_symbol
_atom_site_label
_atom_site_fract_x
_atom_site_fract_y
_atom_site_fract_z
Si Si1 0.917707 0.214650 0.693272
Si Si2 0.249989 0.595356 0.836448
Si Si3 0.728417 0.219729 0.084899
Si Si4 0.500000 0.113457 0.500000
Si Si5 0.127295 0.425192 0.255291
Si Si6 0.728380 0.922678 0.994680
Si Si7 0.196719 0.635846 0.367966
O O1 0.856291 0.159640 0.798829
O O2 0.861746 0.323172 0.664686
O O3 0.854222 0.164775 0.518762
O O4 0.093591 0.211089 0.801438
O O5 0.126061 0.559637 0.657032
O O6 0.308901 0.508729 0.960487
O O7 0.181265 0.660023 0.922574
O O8 0.706229 0.328332 0.036581
O O9 0.666605 0.178367 0.197330
O O10 0.585125 0.173015 0.428151
O O11 0.175648 0.522692 0.354605
O O12 0.949546 0.432507 0.131342
O O13 0.223769 0.421184 0.162766
#
# Coordination Sequence:
#
# PCOD9122105 Si02
#       7
#     4   4   4   2   4   4   4
#     4  10  23  39  62  94 129 163 207 261 311 367
#     4  11  20  39  67  86 132 155 212 256 315 364
#     4  11  22  39  67  91 119 169 213 251 310 377
#     4  10  24  38  58 100 116 164 196 272 316 348
#     4  10  19  38  64  92 119 162 214 260 301 357
#     4  10  20  36  65  95 114 161 222 255 292 372
#     4  11  22  39  66  91 130 159 211 260 311 366
#
# _framework density 21.560298
#
# number of rings (size 3 to 8) (size 9 to 14) (size 15 to 20)
#    0.000    1.538    4.615    0.923    0.000    3.077 
#    0.000    0.000   33.846    0.000    0.000    0.000 
#    0.000    0.000    0.000    0.000    0.000    0.000 
#
# Total GULP energy -72525.463181 kJ/mol
# GULP energy per Si atom -5578.881783 kJ/mol
# Density = 2.151123 g / cm^3
# Si number density = 21.560298 Si / 1000 Ang^3
#
#
#
# Elastic Constant Matrix: (Units=GPa)
#
#
# Indices 1 2 3 4 5 6 
#
# 1 76.2914 24.9009 18.0990 0.0000 -32.8981 0.0000
# 2 24.9009 149.2422 32.4893 0.0000 -12.8678 0.0000
# 3 18.0990 32.4893 84.4735 0.0000 -20.0818 0.0000
# 4 0.0000 0.0000 0.0000 29.0057 0.0000 -0.2748
# 5 -32.8981 -12.8678 -20.0818 0.0000 37.3571 0.0000
# 6 0.0000 0.0000 0.0000 -0.2748 0.0000 10.9896
#
#
#
# Elastic Compliance Matrix: (Units=1/GPa)
#
#
# Indices 1 2 3 4 5 6 
#
# 1 0.021743 -0.002147 0.000623 0.000000 0.018743 0.000000
# 2 -0.002147 0.007569 -0.002615 0.000000 -0.000690 0.000000
# 3 0.000623 -0.002615 0.014477 0.000000 0.007430 0.000000
# 4 0.000000 0.000000 0.000000 0.034484 0.000000 0.000862
# 5 0.018743 -0.000690 0.007430 0.000000 0.047031 0.000000
# 6 0.000000 0.000000 0.000000 0.000862 0.000000 0.091016
#
#
# Mechanical properties :
#
#
# Convention : Reuss Voigt Hill
#
# Bulk Modulus (GPa) = 28.16120 51.22060 39.69090
# Shear Modulus (GPa) = 21.14751 31.10502 26.12627
#
# Velocity S-wave (km/s) = 3.13526 3.80241 3.48483
# Velocity P-wave (km/s) = 5.11824 6.56401 5.88569
#
# Compressibility (1/GPa) = 0.03550985
#
# Stress axis : x y z
#
# Youngs Moduli (GPa) = 45.99186 132.12531 69.07720
#
# Poissons Ratio (x) = 0.28373 -0.04304
# Poissons Ratio (y) = 0.09876 0.18062
# Poissons Ratio (z) = -0.02866 0.34548
#
# Static dielectric constant tensor:
#      x y z
#    x 1.843010 0.000000 0.021030 
#    y 0.000000 1.771540 0.000000 
#    z 0.021030 0.000000 1.819600 
# 
# From -- ./inp_files/20187.got.cif
#   From: 2010.05.17/outbox.cif.g08.bks.cpg/sg5_11_cif.got.tgz:20187.got - 2010.06.03 18:56:24.
