data_PCOD9122169
_publ_section_title
;
Structure prediction by ZEFSAII (Michael W. Deem and Ramdas Pophale) SiO2 
 PCOD9122169
Probable space group: C 2
;
_chemical_formula_sum "Si O2"
_cell_formula_units_Z 28
_cell_length_a 10.056640
_cell_length_b 9.992080
_cell_length_c 13.595383
_cell_angle_alpha 90.000000
_cell_angle_beta 76.360093
_cell_angle_gamma 90.000000
_cell_volume 1327.626159
_symmetry_space_group_name_H-M "C 2"
_symmetry_group_IT_number 5
_symmetry_cell_setting 'monoclinic'
loop_
_space_group_symop_operation_xyz
x,y,z
-x,y,-z
1/2+x,1/2+y,z
1/2-x,1/2+y,-z
loop_
_atom_site_type_symbol
_atom_site_label
_atom_site_fract_x
_atom_site_fract_y
_atom_site_fract_z
Si Si1 0.844754 0.814230 0.065406
Si Si2 0.855507 0.534859 0.980812
Si Si3 0.202588 0.329652 0.292438
Si Si4 0.508487 0.054124 0.240825
Si Si5 0.579069 0.264753 0.386031
Si Si6 0.831285 0.516049 0.532528
Si Si7 0.218153 0.030114 0.330110
O O1 0.750342 0.917726 0.022254
O O2 0.816919 0.836788 0.186663
O O3 0.801892 0.661245 0.050769
O O4 0.000000 0.827884 0.000000
O O5 0.900763 0.594542 0.867016
O O6 0.000000 0.485069 0.000000
O O7 0.080416 0.423979 0.274340
O O8 0.235374 0.398774 0.391056
O O9 0.160230 0.176796 0.318753
O O10 0.500609 0.175152 0.319768
O O11 0.354812 0.017023 0.241535
O O12 0.500000 0.297155 0.500000
O O13 0.625994 0.401663 0.330276
O O14 0.691427 0.156890 0.406247
O O15 0.769067 0.520037 0.435025
O O16 0.000000 0.499320 0.500000
#
# Coordination Sequence:
#
# PCOD9122169 Si02
#       7
#     4   4   4   4   4   4   4
#     4  10  22  43  66  94 129 163 210 269 324 372
#     4  10  22  41  68  94 124 167 213 263 321 378
#     4  10  22  39  62  91 120 165 205 252 314 372
#     4  10  22  43  60  85 127 160 204 259 309 366
#     4  10  21  39  54  89 119 163 207 247 302 367
#     4  10  19  39  61  82 128 166 199 251 308 364
#     4  12  20  36  64  81 121 162 206 250 307 364
#
# _framework density 21.090274000000001
#
# number of rings (size 3 to 8) (size 9 to 14) (size 15 to 20)
#    0.000    1.714    4.286    2.571    0.000    3.429 
#    2.571    7.143    0.000    0.000    0.000    0.000 
#    0.000    0.000    0.000    0.000    0.000    0.000 
#
# Total GULP energy -78126.782233 kJ/mol
# GULP energy per Si atom -5580.484445 kJ/mol
# Density = 2.104227 g / cm^3
# Si number density = 21.090274 Si / 1000 Ang^3
#
#
#
# Elastic Constant Matrix: (Units=GPa)
#
#
# Indices 1 2 3 4 5 6 
#
# 1 59.4569 56.1831 25.8762 0.0000 0.5469 0.0000
# 2 56.1831 151.5458 54.4579 0.0000 -21.0123 0.0000
# 3 25.8762 54.4579 94.9224 0.0000 -6.2938 0.0000
# 4 0.0000 0.0000 0.0000 34.6788 0.0000 0.7220
# 5 0.5469 -21.0123 -6.2938 0.0000 17.6614 0.0000
# 6 0.0000 0.0000 0.0000 0.7220 0.0000 27.5313
#
#
#
# Elastic Compliance Matrix: (Units=1/GPa)
#
#
# Indices 1 2 3 4 5 6 
#
# 1 0.029774 -0.012641 -0.001969 0.000000 -0.016663 0.000000
# 2 -0.012641 0.015100 -0.004097 0.000000 0.016897 0.000000
# 3 -0.001969 -0.004097 0.013420 0.000000 -0.000031 0.000000
# 4 0.000000 0.000000 0.000000 0.028852 0.000000 -0.000757
# 5 -0.016663 0.016897 -0.000031 0.000000 0.077228 0.000000
# 6 0.000000 0.000000 0.000000 -0.000757 0.000000 0.036342
#
#
# Mechanical properties :
#
#
# Convention : Reuss Voigt Hill
#
# Bulk Modulus (GPa) = 47.89169 64.32883 56.11026
# Shear Modulus (GPa) = 20.40062 27.26815 23.83438
#
# Velocity S-wave (km/s) = 3.11352 3.59963 3.36536
# Velocity P-wave (km/s) = 5.97349 6.91696 6.46246
#
# Compressibility (1/GPa) = 0.02088045
#
# Stress axis : x y z
#
# Youngs Moduli (GPa) = 33.58605 66.22481 74.51564
#
# Poissons Ratio (x) = 0.83716 0.14673
# Poissons Ratio (y) = 0.42457 0.30527
# Poissons Ratio (z) = 0.06613 0.27130
#
# Static dielectric constant tensor:
#      x y z
#    x 1.777270 0.000000 0.013350 
#    y 0.000000 1.737830 0.000000 
#    z 0.013350 0.000000 1.821170 
# 
# From -- ./inp_files/52227.got.cif
#   From: 2010.05.17/outbox.cif.g08.bks.cpg/sg5_27_cif.got.tgz:52227.got - 2010.06.03 18:56:24.
