data_PCOD9122416
_publ_section_title
;
Structure prediction by ZEFSAII (Michael W. Deem and Ramdas Pophale) SiO2 
 PCOD9122416
Probable space group: C 2
;
_chemical_formula_sum "Si O2"
_cell_formula_units_Z 32
_cell_length_a 25.755821
_cell_length_b 10.861732
_cell_length_c 5.471679
_cell_angle_alpha 90.000000
_cell_angle_beta 103.493894
_cell_angle_gamma 90.000000
_cell_volume 1488.461881
_symmetry_space_group_name_H-M "C 2"
_symmetry_group_IT_number 5
_symmetry_cell_setting 'monoclinic'
loop_
_space_group_symop_operation_xyz
x,y,z
-x,y,-z
1/2+x,1/2+y,z
1/2-x,1/2+y,-z
loop_
_atom_site_type_symbol
_atom_site_label
_atom_site_fract_x
_atom_site_fract_y
_atom_site_fract_z
Si Si1 0.578775 0.532490 0.336748
Si Si2 0.982012 0.861020 0.229177
Si Si3 0.751753 0.930085 0.470465
Si Si4 0.717758 0.618369 0.842210
Si Si5 0.113868 0.036913 0.879450
Si Si6 0.155968 0.635569 0.909292
Si Si7 0.144190 0.775190 0.392967
Si Si8 0.311546 0.888271 0.106691
O O1 0.518117 0.486465 0.267245
O O2 0.594613 0.595727 0.604915
O O3 0.610280 0.401018 0.366974
O O4 0.597012 0.599945 0.112428
O O5 0.000000 0.797530 0.500000
O O6 0.921847 0.911166 0.159472
O O7 0.000000 0.795540 0.000000
O O8 0.777254 0.062334 0.425024
O O9 0.795703 0.826253 0.556225
O O10 0.716959 0.934560 0.674500
O O11 0.720644 0.898675 0.185209
O O12 0.677808 0.521077 0.933778
O O13 0.685236 0.743828 0.840528
O O14 0.778337 0.640781 0.998945
O O15 0.138743 0.701284 0.640282
O O16 0.142730 0.490055 0.880631
O O17 0.135197 0.695382 0.138588
#
# Coordination Sequence:
#
# PCOD9122416 Si02
#       8
#     4   4   4   4   4   4   4   4
#     4  10  20  32  54  77 107 138 172 223 280 342
#     4   8  16  32  47  74 111 130 157 218 282 345
#     4  11  22  35  52  75 102 144 194 233 268 320
#     4  11  22  36  54  74 107 149 187 228 277 323
#     4  10  20  31  52  81 107 138 171 219 284 345
#     4  11  24  35  50  73 108 146 192 229 258 321
#     4  12  20  37  51  76 103 143 190 228 272 321
#     4  11  24  38  50  71 107 151 189 236 265 317
#
# _framework density 21.498702999999999
#
# number of rings (size 3 to 8) (size 9 to 14) (size 15 to 20)
#    0.000    1.500    3.750    2.250    3.500    2.000 
#    0.000    0.000    0.000    0.000    0.000    0.000 
#    0.000   54.000    0.000    0.000    0.000    0.000 
#
# Total GULP energy -89164.951837 kJ/mol
# GULP energy per Si atom -5572.809490 kJ/mol
# Density = 2.144977 g / cm^3
# Si number density = 21.498703 Si / 1000 Ang^3
#
#
#
# Elastic Constant Matrix: (Units=GPa)
#
#
# Indices 1 2 3 4 5 6 
#
# 1 69.0789 2.6860 22.1171 0.0000 -10.4247 0.0000
# 2 2.6860 73.0060 25.4461 0.0000 0.0149 0.0000
# 3 22.1171 25.4461 174.2193 0.0000 -35.8141 0.0000
# 4 0.0000 0.0000 0.0000 22.3346 0.0000 -1.0031
# 5 -10.4247 0.0149 -35.8141 0.0000 35.6962 0.0000
# 6 0.0000 0.0000 0.0000 -1.0031 0.0000 12.8511
#
#
#
# Elastic Compliance Matrix: (Units=1/GPa)
#
#
# Indices 1 2 3 4 5 6 
#
# 1 0.015373 -0.000122 -0.001273 0.000000 0.003212 0.000000
# 2 -0.000122 0.014638 -0.002685 0.000000 -0.002736 0.000000
# 3 -0.001273 -0.002685 0.007833 0.000000 0.007488 0.000000
# 4 0.000000 0.000000 0.000000 0.044931 0.000000 0.003507
# 5 0.003212 -0.002736 0.007488 0.000000 0.036466 0.000000
# 6 0.000000 0.000000 0.000000 0.003507 0.000000 0.078088
#
#
# Mechanical properties :
#
#
# Convention : Reuss Voigt Hill
#
# Bulk Modulus (GPa) = 33.68896 46.31138 40.00017
# Shear Modulus (GPa) = 23.21416 31.91340 27.56378
#
# Velocity S-wave (km/s) = 3.28959 3.85701 3.58455
# Velocity P-wave (km/s) = 5.48933 6.43612 5.98149
#
# Compressibility (1/GPa) = 0.02968332
#
# Stress axis : x y z
#
# Youngs Moduli (GPa) = 65.04737 68.31358 127.66458
#
# Poissons Ratio (x) = 0.00836 0.16258
# Poissons Ratio (y) = 0.00796 0.34276
# Poissons Ratio (z) = 0.08284 0.18341
#
# Static dielectric constant tensor:
#      x y z
#    x 1.862290 0.000000 -0.013550 
#    y 0.000000 1.826170 0.000000 
#    z -0.013550 0.000000 1.890890 
# 
# From -- ./inp_files/11338.got.cif
#   From: 2010.05.17/outbox.cif.g08.bks.cpg/sg5_6_cif.got.tgz:11338.got - 2010.06.03 18:56:24.
