data_PCOD9122373
_publ_section_title
;
Structure prediction by ZEFSAII (Michael W. Deem and Ramdas Pophale) SiO2 
 PCOD9122373
Probable space group: C 2
;
_chemical_formula_sum "Si O2"
_cell_formula_units_Z 28
_cell_length_a 16.492219
_cell_length_b 11.331843
_cell_length_c 8.955892
_cell_angle_alpha 90.000000
_cell_angle_beta 56.297401
_cell_angle_gamma 90.000000
_cell_volume 1392.434351
_symmetry_space_group_name_H-M "C 2"
_symmetry_group_IT_number 5
_symmetry_cell_setting 'monoclinic'
loop_
_space_group_symop_operation_xyz
x,y,z
-x,y,-z
1/2+x,1/2+y,z
1/2-x,1/2+y,-z
loop_
_atom_site_type_symbol
_atom_site_label
_atom_site_fract_x
_atom_site_fract_y
_atom_site_fract_z
Si Si1 0.500000 0.023481 0.000000
Si Si2 0.364877 0.176184 0.353372
Si Si3 0.884755 0.442486 0.853326
Si Si4 0.321873 0.407760 0.850591
Si Si5 0.467154 0.418563 0.354498
Si Si6 0.332598 0.611250 0.595256
Si Si7 0.000000 0.295388 0.500000
Si Si8 0.615168 0.162539 0.349087
O O1 0.442302 0.103930 0.177092
O O2 0.576429 0.948033 0.017705
O O3 0.411744 0.302883 0.350076
O O4 0.264011 0.171769 0.368446
O O5 0.344325 0.116417 0.535410
O O6 0.874144 0.573205 0.796872
O O7 0.964934 0.376492 0.672109
O O8 0.776248 0.390461 0.956186
O O9 0.425431 0.426956 0.828312
O O10 0.307286 0.521133 0.757089
O O11 0.337374 0.286819 0.742546
O O12 0.500000 0.420640 0.500000
O O13 0.392709 0.526886 0.419429
O O14 0.409053 0.710973 0.561356
O O15 0.500000 0.174376 0.500000
#
# Coordination Sequence:
#
# PCOD9122373 Si02
#       8
#     2   4   4   4   4   4   2   4
#     4  12  24  40  64 102 144 174 238 304 338 408
#     4  12  22  39  70 101 133 181 241 286 344 413
#     4  12  27  41  69 104 142 184 237 290 362 416
#     4  11  21  42  71  97 131 190 230 278 348 421
#     4  10  19  42  68  97 134 182 229 276 341 420
#     4  11  23  40  72 100 133 187 232 286 354 416
#     4  12  26  48  66 100 148 184 236 294 362 422
#     4  12  21  45  70  96 138 189 226 285 349 424
#
# _framework density 20.108668000000002
#
# number of rings (size 3 to 8) (size 9 to 14) (size 15 to 20)
#    0.000    0.571   10.000    0.000    2.000    4.571 
#    0.000    0.000    0.000    0.857    0.000    0.000 
#    0.000    0.000    0.000    0.000    0.000    0.000 
#
# Total GULP energy -78074.717479 kJ/mol
# GULP energy per Si atom -5576.765534 kJ/mol
# Density = 2.006290 g / cm^3
# Si number density = 20.108668 Si / 1000 Ang^3
#
#
#
# Elastic Constant Matrix: (Units=GPa)
#
#
# Indices 1 2 3 4 5 6 
#
# 1 120.5371 32.8245 12.5432 0.0000 -16.4391 0.0000
# 2 32.8245 74.9471 21.4974 0.0000 0.6697 0.0000
# 3 12.5432 21.4974 67.1999 0.0000 -15.0994 0.0000
# 4 0.0000 0.0000 0.0000 17.2525 0.0000 -0.7926
# 5 -16.4391 0.6697 -15.0994 0.0000 29.2939 0.0000
# 6 0.0000 0.0000 0.0000 -0.7926 0.0000 32.2741
#
#
#
# Elastic Compliance Matrix: (Units=1/GPa)
#
#
# Indices 1 2 3 4 5 6 
#
# 1 0.010416 -0.004936 0.001101 0.000000 0.006525 0.000000
# 2 -0.004936 0.017286 -0.006017 0.000000 -0.006266 0.000000
# 3 0.001101 -0.006017 0.018967 0.000000 0.010532 0.000000
# 4 0.000000 0.000000 0.000000 0.058028 0.000000 0.001425
# 5 0.006525 -0.006266 0.010532 0.000000 0.043371 0.000000
# 6 0.000000 0.000000 0.000000 0.001425 0.000000 0.031020
#
#
# Mechanical properties :
#
#
# Convention : Reuss Voigt Hill
#
# Bulk Modulus (GPa) = 37.08411 44.04603 40.56507
# Shear Modulus (GPa) = 24.06413 28.81869 26.44141
#
# Velocity S-wave (km/s) = 3.46309 3.78980 3.63012
# Velocity P-wave (km/s) = 5.87134 6.41106 6.14712
#
# Compressibility (1/GPa) = 0.02696573
#
# Stress axis : x y z
#
# Youngs Moduli (GPa) = 96.00873 57.84935 52.72437
#
# Poissons Ratio (x) = 0.28554 -0.05805
# Poissons Ratio (y) = 0.47389 0.31722
# Poissons Ratio (z) = -0.10571 0.34806
#
# Static dielectric constant tensor:
#      x y z
#    x 1.753810 0.000000 -0.000090 
#    y 0.000000 1.725900 0.000000 
#    z -0.000090 0.000000 1.781510 
# 
# From -- ./inp_files/23826.got.cif
#   From: 2010.05.17/outbox.cif.g08.bks.cpg/sg5_12_cif.got.tgz:23826.got - 2010.06.03 18:56:24.
