data_PCOD9122132
_publ_section_title
;
Structure prediction by ZEFSAII (Michael W. Deem and Ramdas Pophale) SiO2 
 PCOD9122132
Probable space group: C 2
;
_chemical_formula_sum "Si O2"
_cell_formula_units_Z 30
_cell_length_a 20.367872
_cell_length_b 15.838509
_cell_length_c 8.018310
_cell_angle_alpha 90.000000
_cell_angle_beta 143.801213
_cell_angle_gamma 90.000000
_cell_volume 1527.663995
_symmetry_space_group_name_H-M "C 2"
_symmetry_group_IT_number 5
_symmetry_cell_setting 'monoclinic'
loop_
_space_group_symop_operation_xyz
x,y,z
-x,y,-z
1/2+x,1/2+y,z
1/2-x,1/2+y,-z
loop_
_atom_site_type_symbol
_atom_site_label
_atom_site_fract_x
_atom_site_fract_y
_atom_site_fract_z
Si Si1 0.118809 0.341380 0.803324
Si Si2 0.053884 0.660754 0.277281
Si Si3 0.000000 0.764401 0.500000
Si Si4 0.312549 0.565240 0.240294
Si Si5 0.569907 0.025213 0.814642
Si Si6 0.678300 0.403156 0.957591
Si Si7 0.961235 0.034368 0.100168
Si Si8 0.696432 0.673116 0.119030
O O1 0.093336 0.425829 0.857107
O O2 0.000000 0.307299 0.500000
O O3 0.195009 0.367507 0.798007
O O4 0.174431 0.270370 0.031749
O O5 0.185599 0.661876 0.551860
O O6 0.020232 0.709912 0.376556
O O7 0.007119 0.566163 0.204404
O O8 0.000000 0.697836 0.000000
O O9 0.897839 0.825003 0.246705
O O10 0.317410 0.470238 0.181864
O O11 0.427383 0.566429 0.576062
O O12 0.189955 0.571773 0.069413
O O13 0.309807 0.627024 0.075295
O O14 0.500000 0.039819 0.500000
O O15 0.614866 0.460343 0.968615
O O16 0.888453 0.119364 0.944185
O O17 0.000000 0.003468 0.000000
#
# Coordination Sequence:
#
# PCOD9122132 Si02
#       8
#     4   4   2   4   4   4   4   4
#     4  10  21  37  69 103 127 170 228 284 344 409
#     4  12  26  41  67  98 131 179 231 282 345 417
#     4  12  20  44  66  96 130 174 228 290 330 404
#     4  10  19  38  66  89 127 178 222 271 338 403
#     4  10  20  40  64  95 130 170 221 282 341 404
#     4  10  20  39  66  91 129 173 226 274 340 405
#     4  11  24  38  62  99 139 180 226 283 346 415
#     4  11  21  42  66  94 133 175 233 277 335 419
#
# _framework density 19.637824999999999
#
# number of rings (size 3 to 8) (size 9 to 14) (size 15 to 20)
#    0.000    1.333    4.667    2.000    3.733    0.533 
#    0.000    0.667    0.000    0.000    0.000    0.000 
#    0.000    0.000    0.000    0.000    0.000    0.000 
#
# Total GULP energy -83521.941823 kJ/mol
# GULP energy per Si atom -5568.129455 kJ/mol
# Density = 1.959313 g / cm^3
# Si number density = 19.637825 Si / 1000 Ang^3
#
#
#
# Elastic Constant Matrix: (Units=GPa)
#
#
# Indices 1 2 3 4 5 6 
#
# 1 68.4200 26.9286 66.8211 0.0000 6.2451 0.0000
# 2 26.9286 85.7336 24.9436 0.0000 8.0390 0.0000
# 3 66.8211 24.9436 126.6825 0.0000 30.1224 0.0000
# 4 0.0000 0.0000 0.0000 11.0045 0.0000 -3.2908
# 5 6.2451 8.0390 30.1224 0.0000 31.1439 0.0000
# 6 0.0000 0.0000 0.0000 -3.2908 0.0000 -35.4238
#
#
#
# Elastic Compliance Matrix: (Units=1/GPa)
#
#
# Indices 1 2 3 4 5 6 
#
# 1 0.037530 -0.006804 -0.022187 0.000000 0.015690 0.000000
# 2 -0.006804 0.013635 0.001840 0.000000 -0.003935 0.000000
# 3 -0.022187 0.001840 0.023752 0.000000 -0.018999 0.000000
# 4 0.000000 0.000000 0.000000 0.088416 0.000000 -0.008214
# 5 0.015690 -0.003935 -0.018999 0.000000 0.048354 0.000000
# 6 0.000000 0.000000 0.000000 -0.008214 0.000000 -0.027467
#
#
# Mechanical properties :
#
#
# Convention : Reuss Voigt Hill
#
# Bulk Modulus (GPa) = 48.50987 57.58031 53.04509
# Shear Modulus (GPa) = 20.37548 12.15442 16.26495
#
# Velocity S-wave (km/s) = 3.22462 2.49053 2.88105
# Velocity P-wave (km/s) = 6.21451 6.13637 6.17556
#
# Compressibility (1/GPa) = 0.02061436
#
# Stress axis : x y z
#
# Youngs Moduli (GPa) = 26.64554 73.34155 42.10209
#
# Poissons Ratio (x) = 0.49902 0.93411
# Poissons Ratio (y) = 0.18130 -0.07746
# Poissons Ratio (z) = 0.59118 -0.13494
#
# Static dielectric constant tensor:
#      x y z
#    x 1.791550 0.000000 0.099970 
#    y 0.000000 1.701270 0.000000 
#    z 0.099970 0.000000 1.827880 
# 
# From -- ./inp_files/30045.got.cif
#   From: 2010.05.17/outbox.cif.g08.bks.cpg/sg5_16_cif.got.tgz:30045.got - 2010.06.03 18:56:24.
