data_PCOD9122859
_publ_section_title
;
Structure prediction by ZEFSAII (Michael W. Deem and Ramdas Pophale) SiO2 
 PCOD9122859
Probable space group: C 2
;
_chemical_formula_sum "Si O2"
_cell_formula_units_Z 20
_cell_length_a 4.777158
_cell_length_b 21.911711
_cell_length_c 7.709417
_cell_angle_alpha 90.000000
_cell_angle_beta 76.745802
_cell_angle_gamma 90.000000
_cell_volume 785.492473
_symmetry_space_group_name_H-M "C 2"
_symmetry_group_IT_number 5
_symmetry_cell_setting 'monoclinic'
loop_
_space_group_symop_operation_xyz
x,y,z
-x,y,-z
1/2+x,1/2+y,z
1/2-x,1/2+y,-z
loop_
_atom_site_type_symbol
_atom_site_label
_atom_site_fract_x
_atom_site_fract_y
_atom_site_fract_z
Si Si1 0.208182 0.006240 0.631390
Si Si2 0.049076 0.876825 0.700545
Si Si3 0.984942 0.203739 0.774725
Si Si4 0.500000 0.290722 0.000000
Si Si5 0.000000 0.297646 0.500000
Si Si6 0.981545 0.624591 0.710653
O O1 0.500000 0.981495 0.500000
O O2 0.336230 0.057473 0.741889
O O3 0.000000 0.027721 0.500000
O O4 0.053675 0.948320 0.738819
O O5 0.887497 0.835514 0.862781
O O6 0.357257 0.843822 0.655978
O O7 0.000000 0.870096 0.500000
O O8 0.758139 0.248613 0.894993
O O9 0.789637 0.146997 0.733553
O O10 0.141366 0.246832 0.606927
O O11 0.250187 0.170229 0.825708
O O12 0.000000 0.631196 0.500000
#
# Coordination Sequence:
#
# PCOD9122859 Si02
#       6
#     4   4   4   2   2   4
#     4  10  20  38  67 100 130 175 235 279 338 413
#     4  10  22  43  67  96 136 180 226 284 338 404
#     4  11  23  38  61  94 136 171 221 275 337 396
#     4  10  26  44  64 104 138 180 232 278 342 422
#     4  10  20  36  60  92 126 174 220 266 326 402
#     4  11  20  38  65  98 129 175 224 281 334 401
#
# _framework density 25.461735000000001
#
# number of rings (size 3 to 8) (size 9 to 14) (size 15 to 20)
#    0.000    1.600    3.000    2.400    5.600    0.800 
#    3.600    2.000    0.000    0.000    0.000    0.000 
#    0.000    0.000    0.000    0.000    0.000    0.000 
#
# Total GULP energy -55697.993800 kJ/mol
# GULP energy per Si atom -5569.799380 kJ/mol
# Density = 2.540378 g / cm^3
# Si number density = 25.461735 Si / 1000 Ang^3
#
#
#
# Elastic Constant Matrix: (Units=GPa)
#
#
# Indices 1 2 3 4 5 6 
#
# 1 92.7036 6.7054 1.9525 0.0000 6.8087 0.0000
# 2 6.7054 171.2021 40.9862 0.0000 10.9501 0.0000
# 3 1.9525 40.9862 63.0198 0.0000 3.7278 0.0000
# 4 0.0000 0.0000 0.0000 43.5669 0.0000 -1.3810
# 5 6.8087 10.9501 3.7278 0.0000 36.1069 0.0000
# 6 0.0000 0.0000 0.0000 -1.3810 0.0000 16.0078
#
#
#
# Elastic Compliance Matrix: (Units=1/GPa)
#
#
# Indices 1 2 3 4 5 6 
#
# 1 0.010954 -0.000296 -0.000030 0.000000 -0.001973 0.000000
# 2 -0.000296 0.007025 -0.004464 0.000000 -0.001614 0.000000
# 3 -0.000030 -0.004464 0.018807 0.000000 -0.000582 0.000000
# 4 0.000000 0.000000 0.000000 0.023016 0.000000 0.001986
# 5 -0.001973 -0.001614 -0.000582 0.000000 0.028617 0.000000
# 6 0.000000 0.000000 0.000000 0.001986 0.000000 0.062641
#
#
# Mechanical properties :
#
#
# Convention : Reuss Voigt Hill
#
# Bulk Modulus (GPa) = 36.75765 47.35708 42.05737
# Shear Modulus (GPa) = 29.46247 37.62175 33.54211
#
# Velocity S-wave (km/s) = 3.40535 3.84810 3.63347
# Velocity P-wave (km/s) = 5.47080 6.19544 5.84436
#
# Compressibility (1/GPa) = 0.02720522
#
# Stress axis : x y z
#
# Youngs Moduli (GPa) = 91.29104 142.35865 53.17280
#
# Poissons Ratio (x) = 0.04208 0.00162
# Poissons Ratio (y) = 0.02698 0.23736
# Poissons Ratio (z) = 0.00278 0.63548
#
# Static dielectric constant tensor:
#      x y z
#    x 2.145680 0.000000 -0.013390 
#    y 0.000000 2.025790 0.000000 
#    z -0.013390 0.000000 2.179310 
# 
# From -- ./inp_files/12245.got.cif
#   From: 2010.05.17/outbox.cif.g08.bks.cpg/sg5_7_cif.got.tgz:12245.got - 2010.06.03 18:56:24.
