data_PCOD9122518
_publ_section_title
;
Structure prediction by ZEFSAII (Michael W. Deem and Ramdas Pophale) SiO2 
 PCOD9122518
Probable space group: C 2
;
_chemical_formula_sum "Si O2"
_cell_formula_units_Z 30
_cell_length_a 32.706295
_cell_length_b 7.815438
_cell_length_c 12.570231
_cell_angle_alpha 90.000000
_cell_angle_beta 158.997998
_cell_angle_gamma 90.000000
_cell_volume 1151.586652
_symmetry_space_group_name_H-M "C 2"
_symmetry_group_IT_number 5
_symmetry_cell_setting 'monoclinic'
loop_
_space_group_symop_operation_xyz
x,y,z
-x,y,-z
1/2+x,1/2+y,z
1/2-x,1/2+y,-z
loop_
_atom_site_type_symbol
_atom_site_label
_atom_site_fract_x
_atom_site_fract_y
_atom_site_fract_z
Si Si1 0.392688 0.299270 0.690796
Si Si2 0.455172 0.386920 0.621400
Si Si3 0.300444 0.384104 0.764852
Si Si4 0.846348 0.487932 0.928186
Si Si5 0.590472 0.949196 0.137162
Si Si6 0.743500 0.474952 0.117805
Si Si7 0.500000 0.446740 0.500000
Si Si8 0.786524 0.573926 0.000387
O O1 0.426620 0.261351 0.649457
O O2 0.272797 0.392229 0.385067
O O3 0.392051 0.142023 0.772515
O O4 0.500000 0.406614 0.000000
O O5 0.485327 0.339148 0.572641
O O6 0.341567 0.499969 0.331781
O O7 0.576340 0.471597 0.950312
O O8 0.326903 0.188567 0.857777
O O9 0.215328 0.375958 0.461376
O O10 0.234862 0.474907 0.704184
O O11 0.933282 0.432131 0.046031
O O12 0.863844 0.483896 0.097907
O O13 0.500000 0.870897 0.000000
O O14 0.615605 0.553603 0.795581
O O15 0.815761 0.544621 0.195278
O O16 0.724372 0.275019 0.045465
#
# Coordination Sequence:
#
# PCOD9122518 Si02
#       8
#     4   4   4   4   4   4   2   4
#     4  10  20  34  55  78 105 140 180 222 267 323
#     4   9  17  34  56  79 105 141 180 213 264 321
#     4  10  20  35  57  80 108 142 181 224 266 319
#     4  10  20  36  54  78 107 140 180 221 266 316
#     4  11  22  36  55  79 109 143 182 225 271 321
#     4   9  18  34  55  80 108 142 182 219 266 316
#     4   8  16  30  54  76 102 142 176 212 256 316
#     4   9  19  34  57  82 109 141 178 223 265 320
#
# _framework density 26.051012
#
# number of rings (size 3 to 8) (size 9 to 14) (size 15 to 20)
#    0.000    2.400    0.000    3.200    0.000    3.733 
#    0.000    5.333    0.000   16.000    0.000    0.000 
#    0.000    0.000    0.000    0.000    0.000    0.000 
#
# Total GULP energy -83605.837760 kJ/mol
# GULP energy per Si atom -5573.722517 kJ/mol
# Density = 2.599172 g / cm^3
# Si number density = 26.051012 Si / 1000 Ang^3
#
#
#
# Elastic Constant Matrix: (Units=GPa)
#
#
# Indices 1 2 3 4 5 6 
#
# 1 257.5502 2.4467 6.9194 0.0000 -12.9087 0.0000
# 2 2.4467 32.4065 -3.8388 0.0000 4.7559 0.0000
# 3 6.9194 -3.8388 51.0217 0.0000 -3.2949 0.0000
# 4 0.0000 0.0000 0.0000 29.5705 0.0000 -8.7410
# 5 -12.9087 4.7559 -3.2949 0.0000 32.4185 0.0000
# 6 0.0000 0.0000 0.0000 -8.7410 0.0000 72.8869
#
#
#
# Elastic Compliance Matrix: (Units=1/GPa)
#
#
# Indices 1 2 3 4 5 6 
#
# 1 0.003983 -0.000596 -0.000480 0.000000 0.001625 0.000000
# 2 -0.000596 0.031849 0.002174 0.000000 -0.004689 0.000000
# 3 -0.000480 0.002174 0.019926 0.000000 0.001515 0.000000
# 4 0.000000 0.000000 0.000000 0.035060 0.000000 0.004205
# 5 0.001625 -0.004689 0.001515 0.000000 0.032335 0.000000
# 6 0.000000 0.000000 0.000000 0.004205 0.000000 0.014224
#
#
# Mechanical properties :
#
#
# Convention : Reuss Voigt Hill
#
# Bulk Modulus (GPa) = 17.25507 39.11476 28.18491
# Shear Modulus (GPa) = 32.36274 49.33858 40.85066
#
# Velocity S-wave (km/s) = 3.52843 4.35664 3.96422
# Velocity P-wave (km/s) = 4.82055 6.35251 5.63880
#
# Compressibility (1/GPa) = 0.05795399
#
# Stress axis : x y z
#
# Youngs Moduli (GPa) = 251.08473 31.39850 50.18558
#
# Poissons Ratio (x) = 0.01871 0.02409
# Poissons Ratio (y) = 0.14964 -0.10912
# Poissons Ratio (z) = 0.12053 -0.06827
#
# Static dielectric constant tensor:
#      x y z
#    x 2.160850 0.000000 0.057610 
#    y 0.000000 2.023000 0.000000 
#    z 0.057610 0.000000 2.125190 
# 
# From -- ./inp_files/48365.got.cif
#   From: 2010.05.17/outbox.cif.g08.bks.cpg/sg5_25_cif.got.tgz:48365.got - 2010.06.03 18:56:24.
