data_PCOD9122908
_publ_section_title
;
Structure prediction by ZEFSAII (Michael W. Deem and Ramdas Pophale) SiO2 
 PCOD9122908
Probable space group: C 2
;
_chemical_formula_sum "Si O2"
_cell_formula_units_Z 26
_cell_length_a 20.309782
_cell_length_b 11.838936
_cell_length_c 7.124081
_cell_angle_alpha 90.000000
_cell_angle_beta 57.517469
_cell_angle_gamma 90.000000
_cell_volume 1444.974899
_symmetry_space_group_name_H-M "C 2"
_symmetry_group_IT_number 5
_symmetry_cell_setting 'monoclinic'
loop_
_space_group_symop_operation_xyz
x,y,z
-x,y,-z
1/2+x,1/2+y,z
1/2-x,1/2+y,-z
loop_
_atom_site_type_symbol
_atom_site_label
_atom_site_fract_x
_atom_site_fract_y
_atom_site_fract_z
Si Si1 0.161607 0.877190 0.114780
Si Si2 0.708413 0.806270 0.802223
Si Si3 0.235884 0.743960 0.690450
Si Si4 0.068715 0.702142 0.040194
Si Si5 0.650119 0.635914 0.202557
Si Si6 0.500000 0.779720 0.500000
Si Si7 0.944999 0.447802 0.903637
O O1 0.221816 0.852836 0.848684
O O2 0.090148 0.795624 0.164313
O O3 0.210248 0.841152 0.223647
O O4 0.137526 0.005864 0.174329
O O5 0.722770 0.774439 0.565159
O O6 0.676303 0.701492 0.974201
O O7 0.642447 0.902784 0.922899
O O8 0.148640 0.697235 0.795907
O O9 0.282869 0.655239 0.745320
O O10 0.056503 0.579424 0.149904
O O11 0.000000 0.730151 0.000000
O O12 0.574839 0.699271 0.400211
O O13 0.483142 0.862936 0.697500
O O14 0.000000 0.442751 0.000000
#
# Coordination Sequence:
#
# PCOD9122908 Si02
#       7
#     4   4   4   4   4   2   4
#     4   9  21  38  56  86 124 157 196 244 290 358
#     4  10  20  36  63  88 117 158 202 243 300 351
#     4   9  20  38  58  89 115 154 199 239 300 349
#     4   9  20  41  57  85 125 150 198 250 289 351
#     4  10  20  39  59  86 124 153 199 247 292 355
#     4  10  22  38  58  90 110 156 198 240 300 346
#     4  10  20  38  60  85 119 151 195 251 290 350
#
# _framework density 17.993393000000001
#
# number of rings (size 3 to 8) (size 9 to 14) (size 15 to 20)
#    0.923    1.538    0.000    1.846    0.000    2.462 
#    8.308    3.077    0.000    0.000    0.000    0.000 
#    0.000    0.000    0.000    0.000    0.000    0.000 
#
# Total GULP energy -72386.248349 kJ/mol
# GULP energy per Si atom -5568.172950 kJ/mol
# Density = 1.795244 g / cm^3
# Si number density = 17.993393 Si / 1000 Ang^3
#
#
#
# Elastic Constant Matrix: (Units=GPa)
#
#
# Indices 1 2 3 4 5 6 
#
# 1 122.5227 67.8405 22.1652 0.0000 5.2691 0.0000
# 2 67.8405 154.7806 32.0457 0.0000 6.1978 0.0000
# 3 22.1652 32.0457 77.4302 0.0000 6.8558 0.0000
# 4 0.0000 0.0000 0.0000 -18.9847 0.0000 28.6503
# 5 5.2691 6.1978 6.8558 0.0000 22.8296 0.0000
# 6 0.0000 0.0000 0.0000 28.6503 0.0000 -34.1448
#
#
#
# Elastic Compliance Matrix: (Units=1/GPa)
#
#
# Indices 1 2 3 4 5 6 
#
# 1 0.010906 -0.004499 -0.001177 0.000000 -0.000942 0.000000
# 2 -0.004499 0.008947 -0.002355 0.000000 -0.000684 0.000000
# 3 -0.001177 -0.002355 0.014532 0.000000 -0.003453 0.000000
# 4 0.000000 0.000000 0.000000 0.197819 0.000000 0.165986
# 5 -0.000942 -0.000684 -0.003453 0.000000 0.045243 0.000000
# 6 0.000000 0.000000 0.000000 0.165986 0.000000 0.109989
#
#
# Mechanical properties :
#
#
# Convention : Reuss Voigt Hill
#
# Bulk Modulus (GPa) = 54.56948 66.53737 60.55342
# Shear Modulus (GPa) = 12.20690 9.45215 10.82952
#
# Velocity S-wave (km/s) = 2.60746 2.29446 2.45595
# Velocity P-wave (km/s) = 6.28160 6.63916 6.46285
#
# Compressibility (1/GPa) = 0.01832526
#
# Stress axis : x y z
#
# Youngs Moduli (GPa) = 91.69161 111.76328 68.81386
#
# Poissons Ratio (x) = 0.50280 0.08097
# Poissons Ratio (y) = 0.41250 0.16204
# Poissons Ratio (z) = 0.10789 0.26317
#
# Static dielectric constant tensor:
#      x y z
#    x 1.680740 0.000000 0.063840 
#    y 0.000000 1.608040 0.000000 
#    z 0.063840 0.000000 1.731240 
# 
# From -- ./inp_files/9414.got.cif
#   From: 2010.05.17/outbox.cif.g08.bks.cpg/sg5_5_cif.got.tgz:9414.got - 2010.06.03 18:56:24.
