data_PCOD9122580
_publ_section_title
;
Structure prediction by ZEFSAII (Michael W. Deem and Ramdas Pophale) SiO2 
 PCOD9122580
Probable space group: C 2
;
_chemical_formula_sum "Si O2"
_cell_formula_units_Z 32
_cell_length_a 9.876727
_cell_length_b 22.855258
_cell_length_c 15.348573
_cell_angle_alpha 90.000000
_cell_angle_beta 26.485126
_cell_angle_gamma 90.000000
_cell_volume 1545.142074
_symmetry_space_group_name_H-M "C 2"
_symmetry_group_IT_number 5
_symmetry_cell_setting 'monoclinic'
loop_
_space_group_symop_operation_xyz
x,y,z
-x,y,-z
1/2+x,1/2+y,z
1/2-x,1/2+y,-z
loop_
_atom_site_type_symbol
_atom_site_label
_atom_site_fract_x
_atom_site_fract_y
_atom_site_fract_z
Si Si1 0.178856 0.894060 0.237414
Si Si2 0.823609 0.526265 0.193207
Si Si3 0.607333 0.349652 0.766154
Si Si4 0.551901 0.847631 0.758872
Si Si5 0.827529 0.252160 0.764208
Si Si6 0.856319 0.562244 0.808000
Si Si7 0.333857 0.942660 0.762200
Si Si8 0.898026 0.137526 0.462910
O O1 0.205428 0.852565 0.305350
O O2 0.944700 0.866027 0.304090
O O3 0.172231 0.961496 0.275035
O O4 0.500000 0.893017 0.000000
O O5 0.577950 0.577722 0.339234
O O6 0.037893 0.538113 0.156091
O O7 0.000000 0.532305 0.000000
O O8 0.762772 0.290420 0.713409
O O9 0.779897 0.404782 0.708397
O O10 0.276352 0.348464 0.002914
O O11 0.531830 0.792745 0.708065
O O12 0.548309 0.905619 0.701897
O O13 0.992935 0.190664 0.658341
O O14 0.500000 0.244393 0.000000
O O15 0.936392 0.508874 0.696767
O O16 0.049089 0.618903 0.671600
O O17 0.500000 0.573415 0.000000
O O18 0.000000 0.945540 0.000000
O O19 0.000000 0.156079 0.500000
#
# Coordination Sequence:
#
# PCOD9122580 Si02
#       8
#     4   4   4   4   4   4   4   4
#     4   9  15  25  49  90 130 153 187 238 302 368
#     4  10  20  34  59  90 126 165 196 243 312 372
#     4   8  15  25  50  87 121 155 188 241 293 370
#     4   8  13  25  48  88 119 148 193 236 294 362
#     4   9  17  33  60  86 117 160 207 247 298 357
#     4  10  20  35  60  86 121 166 209 254 309 361
#     4   8  13  24  46  80 117 147 190 233 294 359
#     4  10  22  39  59  84 122 160 215 257 295 362
#
# _framework density 20.710070000000002
#
# number of rings (size 3 to 8) (size 9 to 14) (size 15 to 20)
#    0.000    3.000    1.250    1.875    5.250    0.000 
#    0.000    0.625    5.500   21.000    0.000    0.000 
#    0.000    0.000    0.000    0.000    0.000    0.000 
#
# Total GULP energy -89228.782723 kJ/mol
# GULP energy per Si atom -5576.798920 kJ/mol
# Density = 2.066293 g / cm^3
# Si number density = 20.710070 Si / 1000 Ang^3
#
#
#
# Elastic Constant Matrix: (Units=GPa)
#
#
# Indices 1 2 3 4 5 6 
#
# 1 149.8836 69.7694 43.8883 -0.0298 -12.7770 -0.1690
# 2 69.7694 135.1191 49.4001 -0.1153 -9.9997 -0.1068
# 3 43.8883 49.4001 87.9207 -0.0062 -8.8663 -0.1418
# 4 -0.0298 -0.1153 -0.0062 14.4205 -0.0694 7.9495
# 5 -12.7770 -9.9997 -8.8663 -0.0694 23.8500 0.1145
# 6 -0.1690 -0.1068 -0.1418 7.9495 0.1145 -2.7817
#
#
#
# Elastic Compliance Matrix: (Units=1/GPa)
#
#
# Indices 1 2 3 4 5 6 
#
# 1 0.009319 -0.003796 -0.002261 0.000043 0.002561 -0.000077
# 2 -0.003796 0.010957 -0.004159 0.000019 0.001014 0.000117
# 3 -0.002261 -0.004159 0.015108 0.000071 0.002662 -0.000162
# 4 0.000043 0.000019 0.000071 0.026930 -0.000234 0.076942
# 5 0.002561 0.001014 0.002662 -0.000234 0.044711 0.000841
# 6 -0.000077 0.000117 -0.000162 0.076942 0.000841 -0.139566
#
#
# Mechanical properties :
#
#
# Convention : Reuss Voigt Hill
#
# Bulk Modulus (GPa) = 66.88248 77.67099 72.27673
# Shear Modulus (GPa) = -701.48720 21.08881 -340.19920
#
# Velocity S-wave (km/s) = -18.42426 3.19452 -12.83059
# Velocity P-wave (km/s) = 20.49975 7.15486 13.58395
#
# Compressibility (1/GPa) = 0.01495160
#
# Stress axis : x y z
#
# Youngs Moduli (GPa) = 107.30726 91.26992 66.19218
#
# Poissons Ratio (x) = 0.34644 0.14966
# Poissons Ratio (y) = 0.40732 0.27529
# Poissons Ratio (z) = 0.24262 0.37959
#
# Static dielectric constant tensor:
#      x y z
#    x 1.751260 0.000080 0.015860 
#    y 0.000080 1.709620 0.000240 
#    z 0.015860 0.000240 1.836780 
# 
# From -- ./inp_files/51689.got.cif
#   From: 2010.05.17/outbox.cif.g08.bks.cpg/sg5_26_cif.got.tgz:51689.got - 2010.06.03 18:56:24.
