data_PCOD9122991
_publ_section_title
;
Structure prediction by ZEFSAII (Michael W. Deem and Ramdas Pophale) SiO2 
 PCOD9122991
Probable space group: C 2
;
_chemical_formula_sum "Si O2"
_cell_formula_units_Z 24
_cell_length_a 28.819498
_cell_length_b 5.154765
_cell_length_c 13.436319
_cell_angle_alpha 90.000000
_cell_angle_beta 150.115198
_cell_angle_gamma 90.000000
_cell_volume 994.556985
_symmetry_space_group_name_H-M "C 2"
_symmetry_group_IT_number 5
_symmetry_cell_setting 'monoclinic'
loop_
_space_group_symop_operation_xyz
x,y,z
-x,y,-z
1/2+x,1/2+y,z
1/2-x,1/2+y,-z
loop_
_atom_site_type_symbol
_atom_site_label
_atom_site_fract_x
_atom_site_fract_y
_atom_site_fract_z
Si Si1 0.307268 0.724430 0.099944
Si Si2 0.632484 0.029060 0.311408
Si Si3 0.399812 0.677921 0.477952
Si Si4 0.966070 0.464845 0.129610
Si Si5 0.276966 0.528939 0.423770
Si Si6 0.415457 0.468935 0.120531
O O1 0.377062 0.736821 0.322596
O O2 0.349874 0.594141 0.080869
O O3 0.229151 0.513805 0.985646
O O4 0.525781 0.052191 0.146361
O O5 0.686688 0.245878 0.477096
O O6 0.672931 0.059167 0.274920
O O7 0.663736 0.742026 0.403704
O O8 0.309135 0.589779 0.371483
O O9 0.480997 0.465267 0.639187
O O10 0.452111 0.907305 0.635024
O O11 0.919865 0.180375 0.039476
O O12 0.900370 0.684230 0.052244
#
# Coordination Sequence:
#
# PCOD9122991 Si02
#       6
#     4   4   4   4   4   4
#     4  12  27  40  54  78 111 146 184 225 272 320
#     4   9  14  26  42  83 111 128 153 219 272 310
#     4   9  21  36  57  80 104 142 181 221 263 314
#     4   9  17  31  57  80 107 131 174 217 270 309
#     4   9  16  25  48  74 115 128 163 209 276 305
#     4  10  20  37  56  78 102 142 178 224 266 314
#
# _framework density 24.131347999999999
#
# number of rings (size 3 to 8) (size 9 to 14) (size 15 to 20)
#    1.000    1.333    1.667    1.500    2.333    0.000 
#    3.000    0.000    0.000    0.000    0.000    7.000 
#    0.000    0.000    0.000    0.000    0.000    0.000 
#
# Total GULP energy -66952.051104 kJ/mol
# GULP energy per Si atom -5579.337592 kJ/mol
# Density = 2.407642 g / cm^3
# Si number density = 24.131348 Si / 1000 Ang^3
#
#
#
# Elastic Constant Matrix: (Units=GPa)
#
#
# Indices 1 2 3 4 5 6 
#
# 1 92.1333 -14.6369 6.4532 0.0000 20.1314 0.0000
# 2 -14.6369 77.5973 -1.3823 0.0000 -7.7715 -0.0002
# 3 6.4532 -1.3823 49.7568 0.0000 -3.4198 0.0000
# 4 0.0000 0.0000 0.0000 13.7011 0.0000 11.0918
# 5 20.1314 -7.7715 -3.4198 0.0000 48.3459 0.0000
# 6 0.0000 -0.0002 0.0000 11.0918 0.0000 34.8088
#
#
#
# Elastic Compliance Matrix: (Units=1/GPa)
#
#
# Indices 1 2 3 4 5 6 
#
# 1 0.012363 0.001798 -0.001897 0.000000 -0.004993 0.000000
# 2 0.001798 0.013372 0.000236 0.000000 0.001417 0.000000
# 3 -0.001897 0.000236 0.020507 0.000000 0.002278 0.000000
# 4 0.000000 0.000000 0.000000 0.098360 0.000000 -0.031342
# 5 -0.004993 0.001417 0.002278 0.000000 0.023153 0.000000
# 6 0.000000 0.000000 0.000000 -0.031342 0.000000 0.038716
#
#
# Mechanical properties :
#
#
# Convention : Reuss Voigt Hill
#
# Bulk Modulus (GPa) = 21.49749 22.26172 21.87960
# Shear Modulus (GPa) = 22.55277 34.64139 28.59708
#
# Velocity S-wave (km/s) = 3.06041 3.79296 3.44620
# Velocity P-wave (km/s) = 4.62775 5.33172 4.99216
#
# Compressibility (1/GPa) = 0.04651707
#
# Stress axis : x y z
#
# Youngs Moduli (GPa) = 80.88395 74.78089 48.76417
#
# Poissons Ratio (x) = -0.13447 0.09249
# Poissons Ratio (y) = -0.14544 -0.01149
# Poissons Ratio (z) = 0.15341 -0.01763
#
# Static dielectric constant tensor:
#      x y z
#    x 1.950030 0.000000 0.031680 
#    y 0.000000 1.864650 0.000000 
#    z 0.031680 0.000000 1.981500 
# 
# From -- ./inp_files/58263.got.cif
#   From: 2010.05.17/outbox.cif.g08.bks.cpg/sg5_30_cif.got.tgz:58263.got - 2010.06.03 18:56:24.
