data_PCOD9122336
_publ_section_title
;
Structure prediction by ZEFSAII (Michael W. Deem and Ramdas Pophale) SiO2 
 PCOD9122336
Probable space group: C 2
;
_chemical_formula_sum "Si O2"
_cell_formula_units_Z 32
_cell_length_a 10.391989
_cell_length_b 22.142691
_cell_length_c 9.183491
_cell_angle_alpha 90.000000
_cell_angle_beta 126.504477
_cell_angle_gamma 90.000000
_cell_volume 1698.597547
_symmetry_space_group_name_H-M "C 2"
_symmetry_group_IT_number 5
_symmetry_cell_setting 'monoclinic'
loop_
_space_group_symop_operation_xyz
x,y,z
-x,y,-z
1/2+x,1/2+y,z
1/2-x,1/2+y,-z
loop_
_atom_site_type_symbol
_atom_site_label
_atom_site_fract_x
_atom_site_fract_y
_atom_site_fract_z
Si Si1 0.549269 0.630160 0.870643
Si Si2 0.596612 0.316032 0.715403
Si Si3 0.188735 0.768685 0.303888
Si Si4 0.826259 0.423675 0.811353
Si Si5 0.060498 0.361815 0.391389
Si Si6 0.829245 0.265082 0.085709
Si Si7 0.836713 0.148164 0.473736
Si Si8 0.189275 0.563955 0.136312
O O1 0.581329 0.701739 0.870406
O O2 0.399564 0.619496 0.663708
O O3 0.704123 0.592530 0.921572
O O4 0.500000 0.616529 0.000000
O O5 0.500000 0.303389 0.500000
O O6 0.469969 0.303552 0.757274
O O7 0.679684 0.381243 0.761999
O O8 0.744979 0.275802 0.872911
O O9 0.326085 0.810703 0.463858
O O10 0.212514 0.758355 0.147895
O O11 0.215417 0.704105 0.398989
O O12 0.852334 0.407646 0.658688
O O13 0.790537 0.492430 0.829250
O O14 0.000000 0.409660 0.000000
O O15 0.000000 0.392869 0.500000
O O16 0.935770 0.322517 0.209279
O O17 0.758486 0.097553 0.322706
O O18 0.000000 0.170149 0.500000
O O19 0.000000 0.576535 0.000000
#
# Coordination Sequence:
#
# PCOD9122336 Si02
#       8
#     4   4   4   4   4   4   4   4
#     4  11  24  40  67 100 127 174 217 267 331 387
#     4  12  26  35  59  99 132 165 209 273 322 373
#     4  11  20  38  60  98 130 159 212 260 330 385
#     4  11  23  46  65  88 128 179 222 259 324 394
#     4  10  20  38  66  92 123 168 215 257 322 396
#     4  11  22  38  63  90 135 172 205 260 329 398
#     4  10  19  41  66  92 124 175 212 258 322 394
#     4  10  24  45  70  93 124 178 227 267 318 385
#
# _framework density 18.839071000000001
#
# number of rings (size 3 to 8) (size 9 to 14) (size 15 to 20)
#    0.000    1.250    6.250    0.750    5.250    1.500 
#    0.000    4.375    0.000    0.000    0.000    0.000 
#    0.000    0.000    0.000    0.000    0.000    0.000 
#
# Total GULP energy -89158.688619 kJ/mol
# GULP energy per Si atom -5572.418039 kJ/mol
# Density = 1.879619 g / cm^3
# Si number density = 18.839071 Si / 1000 Ang^3
#
#
#
# Elastic Constant Matrix: (Units=GPa)
#
#
# Indices 1 2 3 4 5 6 
#
# 1 102.1103 56.2940 44.3408 0.0000 -11.2469 0.0000
# 2 56.2940 54.9445 39.0821 0.0000 -5.1972 0.0000
# 3 44.3408 39.0821 126.6948 0.0000 -4.6494 0.0000
# 4 0.0000 0.0000 0.0000 9.0236 0.0000 -13.7370
# 5 -11.2469 -5.1972 -4.6494 0.0000 28.2703 0.0000
# 6 0.0000 0.0000 0.0000 -13.7370 0.0000 -3.4678
#
#
#
# Elastic Compliance Matrix: (Units=1/GPa)
#
#
# Indices 1 2 3 4 5 6 
#
# 1 0.023255 -0.022675 -0.000963 0.000000 0.004925 0.000000
# 2 -0.022675 0.045703 -0.006223 0.000000 -0.001642 0.000000
# 3 -0.000963 -0.006223 0.010155 0.000000 0.000143 0.000000
# 4 0.000000 0.000000 0.000000 0.015763 0.000000 -0.062442
# 5 0.004925 -0.001642 0.000143 0.000000 0.037054 0.000000
# 6 0.000000 0.000000 0.000000 -0.062442 0.000000 -0.041017
#
#
# Mechanical properties :
#
#
# Convention : Reuss Voigt Hill
#
# Bulk Modulus (GPa) = 51.57112 62.57593 57.07352
# Shear Modulus (GPa) = 31.82723 16.36740 24.09731
#
# Velocity S-wave (km/s) = 4.11472 2.95074 3.58035
# Velocity P-wave (km/s) = 7.07167 6.70055 6.88861
#
# Compressibility (1/GPa) = 0.01939070
#
# Stress axis : x y z
#
# Youngs Moduli (GPa) = 43.00151 21.88046 98.47453
#
# Poissons Ratio (x) = 0.49614 0.09487
# Poissons Ratio (y) = 0.97506 0.61276
# Poissons Ratio (z) = 0.04143 0.13615
#
# Static dielectric constant tensor:
#      x y z
#    x 1.728520 0.000000 0.043950 
#    y 0.000000 1.627450 0.000000 
#    z 0.043950 0.000000 1.793470 
# 
# From -- ./inp_files/21980.got.cif
#   From: 2010.05.17/outbox.cif.g08.bks.cpg/sg5_11_cif.got.tgz:21980.got - 2010.06.03 18:56:24.
