data_PCOD9122344
_publ_section_title
;
Structure prediction by ZEFSAII (Michael W. Deem and Ramdas Pophale) SiO2 
 PCOD9122344
Probable space group: C 2
;
_chemical_formula_sum "Si O2"
_cell_formula_units_Z 26
_cell_length_a 11.758021
_cell_length_b 16.912105
_cell_length_c 8.956419
_cell_angle_alpha 90.000000
_cell_angle_beta 141.393529
_cell_angle_gamma 90.000000
_cell_volume 1111.292847
_symmetry_space_group_name_H-M "C 2"
_symmetry_group_IT_number 5
_symmetry_cell_setting 'monoclinic'
loop_
_space_group_symop_operation_xyz
x,y,z
-x,y,-z
1/2+x,1/2+y,z
1/2-x,1/2+y,-z
loop_
_atom_site_type_symbol
_atom_site_label
_atom_site_fract_x
_atom_site_fract_y
_atom_site_fract_z
Si Si1 0.165293 0.687820 0.067832
Si Si2 0.437707 0.918417 0.089875
Si Si3 0.500000 0.595436 0.500000
Si Si4 0.423160 0.596728 0.750274
Si Si5 0.778671 0.271432 0.641460
Si Si6 0.514505 0.063695 0.344420
Si Si7 0.645438 0.302155 0.820282
O O1 0.238645 0.764673 0.059877
O O2 0.083214 0.628438 0.859141
O O3 0.316050 0.645470 0.318709
O O4 0.000000 0.712294 0.000000
O O5 0.581633 0.844622 0.240466
O O6 0.441425 0.977602 0.230181
O O7 0.500000 0.961815 0.000000
O O8 0.231162 0.886613 0.870407
O O9 0.520380 0.566217 0.695971
O O10 0.377254 0.691104 0.692092
O O11 0.227834 0.556807 0.535877
O O12 0.500000 0.583264 0.000000
O O13 0.725264 0.255161 0.760026
O O14 0.571987 0.294838 0.377864
O O15 0.500000 0.087671 0.500000
#
# Coordination Sequence:
#
# PCOD9122344 Si02
#       7
#     4   4   2   4   4   4   4
#     4  12  23  43  70 106 138 175 236 292 348 419
#     4  10  23  43  67  96 137 178 231 283 353 422
#     4  12  24  40  68 108 136 180 228 288 356 410
#     4  12  24  44  74 108 142 184 245 297 353 427
#     4  10  19  41  69 101 133 178 233 289 345 421
#     4  12  25  47  67  98 146 189 229 296 358 418
#     4  10  20  39  70  98 131 185 224 283 356 412
#
# _framework density 23.396173000000001
#
# number of rings (size 3 to 8) (size 9 to 14) (size 15 to 20)
#    0.000    0.923    3.077    5.538    0.000    0.000 
#   13.846    0.000    0.000    0.000    0.000    0.000 
#    0.000    0.000    0.000    0.000    0.000    0.000 
#
# Total GULP energy -72452.312461 kJ/mol
# GULP energy per Si atom -5573.254805 kJ/mol
# Density = 2.334292 g / cm^3
# Si number density = 23.396173 Si / 1000 Ang^3
#
#
#
# Elastic Constant Matrix: (Units=GPa)
#
#
# Indices 1 2 3 4 5 6 
#
# 1 102.2858 7.9210 32.8227 0.0000 -16.6806 0.0000
# 2 7.9210 35.3387 5.2493 0.0000 -9.7173 0.0000
# 3 32.8227 5.2493 106.2146 0.0000 -11.5569 0.0000
# 4 0.0000 0.0000 0.0000 30.6847 0.0000 -7.7659
# 5 -16.6806 -9.7173 -11.5569 0.0000 50.1816 0.0000
# 6 0.0000 0.0000 0.0000 -7.7659 0.0000 17.9915
#
#
#
# Elastic Compliance Matrix: (Units=1/GPa)
#
#
# Indices 1 2 3 4 5 6 
#
# 1 0.011340 -0.001308 -0.003136 0.000000 0.002794 0.000000
# 2 -0.001308 0.030118 -0.000510 0.000000 0.005280 0.000000
# 3 -0.003136 -0.000510 0.010549 0.000000 0.001288 0.000000
# 4 0.000000 0.000000 0.000000 0.036586 0.000000 0.015792
# 5 0.002794 0.005280 0.001288 0.000000 0.022176 0.000000
# 6 0.000000 0.000000 0.000000 0.015792 0.000000 0.062398
#
#
# Mechanical properties :
#
#
# Convention : Reuss Voigt Hill
#
# Bulk Modulus (GPa) = 23.75244 37.31391 30.53317
# Shear Modulus (GPa) = 25.36688 32.96129 29.16408
#
# Velocity S-wave (km/s) = 3.29634 3.75751 3.53446
# Velocity P-wave (km/s) = 4.96610 5.89988 5.45301
#
# Compressibility (1/GPa) = 0.04210094
#
# Stress axis : x y z
#
# Youngs Moduli (GPa) = 88.18649 33.20237 94.79340
#
# Poissons Ratio (x) = 0.04342 0.29723
# Poissons Ratio (y) = 0.11532 0.04834
# Poissons Ratio (z) = 0.27651 0.01693
#
# Static dielectric constant tensor:
#      x y z
#    x 1.855840 0.000000 -0.033010 
#    y 0.000000 1.885790 0.000000 
#    z -0.033010 0.000000 1.999430 
# 
# From -- ./inp_files/22029.got.cif
#   From: 2010.05.17/outbox.cif.g08.bks.cpg/sg5_12_cif.got.tgz:22029.got - 2010.06.03 18:56:24.
