data_PCOD9122913
_publ_section_title
;
Structure prediction by ZEFSAII (Michael W. Deem and Ramdas Pophale) SiO2 
 PCOD9122913
Probable space group: C 2
;
_chemical_formula_sum "Si O2"
_cell_formula_units_Z 30
_cell_length_a 18.024397
_cell_length_b 9.374905
_cell_length_c 9.005425
_cell_angle_alpha 90.000000
_cell_angle_beta 84.218209
_cell_angle_gamma 90.000000
_cell_volume 1513.968506
_symmetry_space_group_name_H-M "C 2"
_symmetry_group_IT_number 5
_symmetry_cell_setting 'monoclinic'
loop_
_space_group_symop_operation_xyz
x,y,z
-x,y,-z
1/2+x,1/2+y,z
1/2-x,1/2+y,-z
loop_
_atom_site_type_symbol
_atom_site_label
_atom_site_fract_x
_atom_site_fract_y
_atom_site_fract_z
Si Si1 0.500000 0.778301 0.000000
Si Si2 0.518340 0.894148 0.308006
Si Si3 0.122356 0.114027 0.802409
Si Si4 0.151240 0.584372 0.341028
Si Si5 0.732686 0.374389 0.850179
Si Si6 0.740665 0.122573 0.627118
Si Si7 0.740419 0.329901 0.199957
Si Si8 0.397328 0.731703 0.477839
O O1 0.477721 0.875812 0.866988
O O2 0.565625 0.677334 0.930869
O O3 0.433124 0.868374 0.380064
O O4 0.559821 0.758349 0.376924
O O5 0.566262 0.030450 0.347078
O O6 0.188712 0.230517 0.775846
O O7 0.087230 0.107725 0.644897
O O8 0.159550 0.969529 0.843691
O O9 0.200823 0.463095 0.245176
O O10 0.183433 0.600885 0.501905
O O11 0.169324 0.731949 0.254156
O O12 0.719296 0.227059 0.766449
O O13 0.746308 0.359253 0.022894
O O14 0.812821 0.201181 0.541386
O O15 0.759084 0.970768 0.698877
#
# Coordination Sequence:
#
# PCOD9122913 Si02
#       8
#     2   4   4   4   4   4   4   4
#     4  10  22  38  66  90 128 174 216 272 326 406
#     4  10  21  38  63  97 126 169 223 262 321 403
#     4  10  21  39  58  94 121 170 220 263 325 389
#     4  11  21  38  63  95 130 169 220 272 328 383
#     4  11  22  36  59  94 131 163 215 275 328 387
#     4  12  21  38  65  97 132 169 215 284 327 390
#     4  11  23  35  61  96 133 161 216 278 332 375
#     4  10  20  36  63  93 123 165 217 261 316 397
#
# _framework density 19.815473000000001
#
# number of rings (size 3 to 8) (size 9 to 14) (size 15 to 20)
#    0.000    1.333    4.000    4.000    1.867    0.000 
#    0.000    0.000    0.000   11.200    0.000    0.000 
#    0.000    0.000    0.000    0.000    0.000    0.000 
#
# Total GULP energy -83558.787732 kJ/mol
# GULP energy per Si atom -5570.585849 kJ/mol
# Density = 1.977037 g / cm^3
# Si number density = 19.815473 Si / 1000 Ang^3
#
#
#
# Elastic Constant Matrix: (Units=GPa)
#
#
# Indices 1 2 3 4 5 6 
#
# 1 79.9637 33.3996 16.8436 0.0000 -6.2158 0.0000
# 2 33.3996 106.1785 38.3957 0.0000 1.1905 0.0000
# 3 16.8436 38.3957 154.3014 0.0000 13.5798 0.0000
# 4 0.0000 0.0000 0.0000 28.8888 0.0000 1.6046
# 5 -6.2158 1.1905 13.5798 0.0000 28.4479 0.0000
# 6 0.0000 0.0000 0.0000 1.6046 0.0000 38.0817
#
#
#
# Elastic Compliance Matrix: (Units=1/GPa)
#
#
# Indices 1 2 3 4 5 6 
#
# 1 0.014820 -0.004393 -0.000862 0.000000 0.003834 0.000000
# 2 -0.004393 0.011670 -0.002398 0.000000 -0.000304 0.000000
# 3 -0.000862 -0.002398 0.007494 0.000000 -0.003665 0.000000
# 4 0.000000 0.000000 0.000000 0.034697 0.000000 -0.001462
# 5 0.003834 -0.000304 -0.003665 0.000000 0.037752 0.000000
# 6 0.000000 0.000000 0.000000 -0.001462 0.000000 0.026321
#
#
# Mechanical properties :
#
#
# Convention : Reuss Voigt Hill
#
# Bulk Modulus (GPa) = 53.53585 57.52460 55.53022
# Shear Modulus (GPa) = 32.40723 35.87064 34.13894
#
# Velocity S-wave (km/s) = 4.04846 4.25930 4.15522
# Velocity P-wave (km/s) = 6.99494 7.29945 7.14882
#
# Compressibility (1/GPa) = 0.01867907
#
# Stress axis : x y z
#
# Youngs Moduli (GPa) = 67.47557 85.68627 133.43742
#
# Poissons Ratio (x) = 0.37643 0.11502
# Poissons Ratio (y) = 0.29643 0.31995
# Poissons Ratio (z) = 0.05816 0.20545
#
# Static dielectric constant tensor:
#      x y z
#    x 1.761500 0.000000 0.011450 
#    y 0.000000 1.694060 0.000000 
#    z 0.011450 0.000000 1.740350 
# 
# From -- ./inp_files/28963.got.cif
#   From: 2010.05.17/outbox.cif.g08.bks.cpg/sg5_15_cif.got.tgz:28963.got - 2010.06.03 18:56:24.
