data_PCOD9122899
_publ_section_title
;
Structure prediction by ZEFSAII (Michael W. Deem and Ramdas Pophale) SiO2 
 PCOD9122899
Probable space group: C 2
;
_chemical_formula_sum "Si O2"
_cell_formula_units_Z 32
_cell_length_a 15.518189
_cell_length_b 22.188175
_cell_length_c 8.947199
_cell_angle_alpha 90.000000
_cell_angle_beta 151.150759
_cell_angle_gamma 90.000000
_cell_volume 1486.459165
_symmetry_space_group_name_H-M "C 2"
_symmetry_group_IT_number 5
_symmetry_cell_setting 'monoclinic'
loop_
_space_group_symop_operation_xyz
x,y,z
-x,y,-z
1/2+x,1/2+y,z
1/2-x,1/2+y,-z
loop_
_atom_site_type_symbol
_atom_site_label
_atom_site_fract_x
_atom_site_fract_y
_atom_site_fract_z
Si Si1 0.984309 0.637380 0.796959
Si Si2 0.470253 0.913109 0.131274
Si Si3 0.883911 0.187222 0.703062
Si Si4 0.216759 0.535467 0.097306
Si Si5 0.971176 0.062472 0.206341
Si Si6 0.308851 0.854005 0.135036
Si Si7 0.656165 0.439742 0.132464
Si Si8 0.195082 0.223689 0.740517
O O1 0.790846 0.663203 0.476914
O O2 0.000000 0.636284 0.000000
O O3 0.030177 0.571149 0.812131
O O4 0.145796 0.678222 0.983170
O O5 0.364589 0.857317 0.046498
O O6 0.659915 0.929873 0.496812
O O7 0.500000 0.909055 0.000000
O O8 0.335818 0.966559 0.973895
O O9 0.824892 0.225054 0.469365
O O10 0.994681 0.128022 0.814398
O O11 0.000000 0.222059 0.000000
O O12 0.332369 0.558125 0.133076
O O13 0.335440 0.548711 0.424813
O O14 0.900192 0.008607 0.992395
O O15 0.500000 0.868957 0.500000
O O16 0.175440 0.902193 0.006929
O O17 0.263606 0.787572 0.123008
O O18 0.500000 0.414488 0.000000
O O19 0.000000 0.202944 0.500000
#
# Coordination Sequence:
#
# PCOD9122899 Si02
#       8
#     4   4   4   4   4   4   4   4
#     4  10  20  36  62  97 131 175 222 273 343 412
#     4  11  23  40  65  96 137 179 232 289 346 413
#     4  11  24  39  61 100 141 171 231 282 346 412
#     4  11  21  36  61  94 138 179 223 266 346 418
#     4  11  22  37  59  93 141 180 213 278 338 415
#     4   9  21  43  66  94 126 176 236 292 336 409
#     4  11  23  39  60  94 136 180 227 269 345 404
#     4  10  20  43  71  87 126 180 228 284 348 409
#
# _framework density 21.527667000000001
#
# number of rings (size 3 to 8) (size 9 to 14) (size 15 to 20)
#    0.000    1.500    3.750    2.250    3.500    1.500 
#    0.000    7.500    0.000   13.500    0.000    0.000 
#    0.000    0.000    0.000    0.000    0.000    0.000 
#
# Total GULP energy -89261.073076 kJ/mol
# GULP energy per Si atom -5578.817067 kJ/mol
# Density = 2.147867 g / cm^3
# Si number density = 21.527667 Si / 1000 Ang^3
#
#
#
# Elastic Constant Matrix: (Units=GPa)
#
#
# Indices 1 2 3 4 5 6 
#
# 1 102.7149 51.2261 15.2839 0.0000 -0.3790 0.0000
# 2 51.2261 83.8178 4.6831 0.0000 1.0974 0.0000
# 3 15.2839 4.6831 44.5036 0.0000 -11.8534 0.0000
# 4 0.0000 0.0000 0.0000 16.8324 0.0000 -0.6948
# 5 -0.3790 1.0974 -11.8534 0.0000 18.9655 0.0000
# 6 0.0000 0.0000 0.0000 -0.6948 0.0000 26.6151
#
#
#
# Elastic Compliance Matrix: (Units=1/GPa)
#
#
# Indices 1 2 3 4 5 6 
#
# 1 0.014796 -0.008750 -0.004735 0.000000 -0.002158 0.000000
# 2 -0.008750 0.017226 0.001056 0.000000 -0.000512 0.000000
# 3 -0.004735 0.001056 0.028726 0.000000 0.017798 0.000000
# 4 0.000000 0.000000 0.000000 0.059473 0.000000 0.001553
# 5 -0.002158 -0.000512 0.017798 0.000000 0.063837 0.000000
# 6 0.000000 0.000000 0.000000 0.001553 0.000000 0.037613
#
#
# Mechanical properties :
#
#
# Convention : Reuss Voigt Hill
#
# Bulk Modulus (GPa) = 27.86358 41.49141 34.67749
# Shear Modulus (GPa) = 19.34287 23.13881 21.24084
#
# Velocity S-wave (km/s) = 3.00077 3.28203 3.14455
# Velocity P-wave (km/s) = 4.99774 5.80325 5.41549
#
# Compressibility (1/GPa) = 0.03588915
#
# Stress axis : x y z
#
# Youngs Moduli (GPa) = 67.58517 58.05190 34.81217
#
# Poissons Ratio (x) = 0.50795 0.16485
# Poissons Ratio (y) = 0.59137 -0.03676
# Poissons Ratio (z) = 0.32004 -0.06131
#
# Static dielectric constant tensor:
#      x y z
#    x 1.821130 0.000000 -0.023440 
#    y 0.000000 1.817170 0.000000 
#    z -0.023440 0.000000 1.795190 
# 
# From -- ./inp_files/25682.got.cif
#   From: 2010.05.17/outbox.cif.g08.bks.cpg/sg5_13_cif.got.tgz:25682.got - 2010.06.03 18:56:24.
