data_PCOD9122021
_publ_section_title
;
Structure prediction by ZEFSAII (Michael W. Deem and Ramdas Pophale) SiO2 
 PCOD9122021
Probable space group: C 2
;
_chemical_formula_sum "Si O2"
_cell_formula_units_Z 28
_cell_length_a 6.809822
_cell_length_b 13.515425
_cell_length_c 13.487583
_cell_angle_alpha 90.000000
_cell_angle_beta 104.423307
_cell_angle_gamma 90.000000
_cell_volume 1202.239835
_symmetry_space_group_name_H-M "C 2"
_symmetry_group_IT_number 5
_symmetry_cell_setting 'monoclinic'
loop_
_space_group_symop_operation_xyz
x,y,z
-x,y,-z
1/2+x,1/2+y,z
1/2-x,1/2+y,-z
loop_
_atom_site_type_symbol
_atom_site_label
_atom_site_fract_x
_atom_site_fract_y
_atom_site_fract_z
Si Si1 0.060005 0.188460 0.391901
Si Si2 0.130674 0.404753 0.369687
Si Si3 0.798731 0.969832 0.587429
Si Si4 0.795827 0.050484 0.038345
Si Si5 0.025429 0.915529 0.205482
Si Si6 0.678277 0.197782 0.196957
Si Si7 0.914205 0.525723 0.187166
O O1 0.170601 0.288367 0.372084
O O2 0.184241 0.087576 0.397263
O O3 0.000000 0.198658 0.500000
O O4 0.861729 0.184689 0.297070
O O5 0.280703 0.453867 0.467544
O O6 0.906983 0.421433 0.393843
O O7 0.083127 0.455846 0.258653
O O8 0.977429 0.918550 0.675143
O O9 0.740319 0.143091 0.102159
O O10 0.631136 0.021187 0.935110
O O11 0.845970 0.957856 0.116250
O O12 0.000000 0.073169 0.000000
O O13 0.110650 0.810880 0.179109
O O14 0.201583 0.996027 0.207177
O O15 0.488736 0.136272 0.215508
#
# Coordination Sequence:
#
# PCOD9122021 Si02
#       7
#     4   4   4   4   4   4   4
#     4  12  21  37  71  97 126 174 211 260 332 388
#     4  10  20  41  62  91 131 169 208 264 322 379
#     4  10  19  37  67  90 125 167 209 260 322 384
#     4  10  23  42  64  92 129 171 219 267 320 377
#     4  10  21  43  65  90 128 170 209 269 326 377
#     4  12  22  41  68  95 128 170 218 265 325 385
#     4  10  22  38  62  93 125 167 218 262 312 381
#
# _framework density 23.289861999999999
#
# number of rings (size 3 to 8) (size 9 to 14) (size 15 to 20)
#    0.000    1.429    5.714    1.286    0.000    3.429 
#    0.000    8.571    9.429    0.000    0.000    0.000 
#    0.000    0.000    0.000    0.000    0.000    0.000 
#
# Total GULP energy -78193.469188 kJ/mol
# GULP energy per Si atom -5585.247799 kJ/mol
# Density = 2.323685 g / cm^3
# Si number density = 23.289862 Si / 1000 Ang^3
#
#
#
# Elastic Constant Matrix: (Units=GPa)
#
#
# Indices 1 2 3 4 5 6 
#
# 1 53.1969 33.1006 36.0699 0.0000 1.4137 0.0000
# 2 33.1006 142.2713 73.5297 0.0000 10.4307 0.0000
# 3 36.0699 73.5297 233.0856 0.0000 21.2173 0.0000
# 4 0.0000 0.0000 0.0000 23.6614 0.0000 1.1876
# 5 1.4137 10.4307 21.2173 0.0000 54.4512 0.0000
# 6 0.0000 0.0000 0.0000 1.1876 0.0000 39.8131
#
#
#
# Elastic Compliance Matrix: (Units=1/GPa)
#
#
# Indices 1 2 3 4 5 6 
#
# 1 0.022974 -0.004226 -0.002324 0.000000 0.001119 0.000000
# 2 -0.004226 0.009194 -0.002173 0.000000 -0.000805 0.000000
# 3 -0.002324 -0.002173 0.005487 0.000000 -0.001661 0.000000
# 4 0.000000 0.000000 0.000000 0.042326 0.000000 -0.001263
# 5 0.001119 -0.000805 -0.001661 0.000000 0.019138 0.000000
# 6 0.000000 0.000000 0.000000 -0.001263 0.000000 0.025155
#
#
# Mechanical properties :
#
#
# Convention : Reuss Voigt Hill
#
# Bulk Modulus (GPa) = 49.48441 79.32827 64.40634
# Shear Modulus (GPa) = 33.68016 42.64205 38.16110
#
# Velocity S-wave (km/s) = 3.80693 4.28358 4.05227
# Velocity P-wave (km/s) = 6.37314 7.65510 7.04335
#
# Compressibility (1/GPa) = 0.02020838
#
# Stress axis : x y z
#
# Youngs Moduli (GPa) = 43.52833 108.76423 182.25986
#
# Poissons Ratio (x) = 0.45963 0.42354
# Poissons Ratio (y) = 0.18395 0.39609
# Poissons Ratio (z) = 0.10115 0.23637
#
# Static dielectric constant tensor:
#      x y z
#    x 1.982340 0.000000 -0.042510 
#    y 0.000000 1.806080 0.000000 
#    z -0.042510 0.000000 1.952780 
# 
# From -- ./inp_files/50337.got.cif
#   From: 2010.05.17/outbox.cif.g08.bks.cpg/sg5_26_cif.got.tgz:50337.got - 2010.06.03 18:56:24.
