data_PCOD9122187
_publ_section_title
;
Structure prediction by ZEFSAII (Michael W. Deem and Ramdas Pophale) SiO2 
 PCOD9122187
Probable space group: C 2
;
_chemical_formula_sum "Si O2"
_cell_formula_units_Z 32
_cell_length_a 18.905858
_cell_length_b 7.561096
_cell_length_c 26.840226
_cell_angle_alpha 90.000000
_cell_angle_beta 157.032296
_cell_angle_gamma 90.000000
_cell_volume 1497.159809
_symmetry_space_group_name_H-M "C 2"
_symmetry_group_IT_number 5
_symmetry_cell_setting 'monoclinic'
loop_
_space_group_symop_operation_xyz
x,y,z
-x,y,-z
1/2+x,1/2+y,z
1/2-x,1/2+y,-z
loop_
_atom_site_type_symbol
_atom_site_label
_atom_site_fract_x
_atom_site_fract_y
_atom_site_fract_z
Si Si1 0.786162 0.679190 0.363945
Si Si2 0.949529 0.948341 0.609987
Si Si3 0.809063 0.528116 0.133378
Si Si4 0.213614 0.530857 0.362242
Si Si5 0.115474 0.330082 0.715248
Si Si6 0.585415 0.487205 0.143870
Si Si7 0.183730 0.286857 0.128870
Si Si8 0.223350 0.412176 0.560328
O O1 0.676695 0.583580 0.249434
O O2 0.718595 0.581015 0.370275
O O3 0.000000 0.640682 0.500000
O O4 0.762451 0.891271 0.350886
O O5 0.853712 0.879273 0.597765
O O6 0.143932 0.857585 0.729537
O O7 0.811006 0.945681 0.474255
O O8 0.007333 0.151098 0.653334
O O9 0.841047 0.408166 0.202855
O O10 0.762128 0.719175 0.126967
O O11 0.996585 0.533643 0.225933
O O12 0.628842 0.460679 0.988769
O O13 0.279291 0.735578 0.406764
O O14 0.295378 0.321247 0.797790
O O15 0.972940 0.448244 0.591551
O O16 0.611787 0.623001 0.114945
O O17 0.000000 0.398847 0.000000
#
# Coordination Sequence:
#
# PCOD9122187 Si02
#       8
#     4   4   4   4   4   4   4   4
#     4  12  25  44  65  86 128 174 219 259 322 386
#     4  11  21  36  65  99 124 152 212 269 332 376
#     4  10  19  39  63  88 128 159 208 262 318 375
#     4  11  24  39  66  96 123 166 213 265 321 382
#     4  10  20  35  63  96 122 161 202 259 333 373
#     4  10  22  41  60  87 128 177 203 252 318 386
#     4   9  19  36  63  89 122 161 199 258 315 371
#     4  11  23  39  65  98 128 157 207 280 321 374
#
# _framework density 21.373804
#
# number of rings (size 3 to 8) (size 9 to 14) (size 15 to 20)
#    0.000    1.500    3.750    2.625    3.500    1.500 
#    4.500    0.000    0.000    0.000    0.000    0.000 
#    0.000    0.000    0.000    0.000    0.000    0.000 
#
# Total GULP energy -89246.215437 kJ/mol
# GULP energy per Si atom -5577.888465 kJ/mol
# Density = 2.132516 g / cm^3
# Si number density = 21.373804 Si / 1000 Ang^3
#
#
#
# Elastic Constant Matrix: (Units=GPa)
#
#
# Indices 1 2 3 4 5 6 
#
# 1 21.6277 3.3118 22.6705 -0.0054 -1.5160 0.0008
# 2 3.3118 56.6605 12.2032 0.0040 -11.2239 0.0001
# 3 22.6705 12.2032 162.5454 0.0190 14.1695 -0.0030
# 4 -0.0054 0.0040 0.0190 17.7037 -0.0004 -2.6580
# 5 -1.5160 -11.2239 14.1695 -0.0004 26.2034 0.0001
# 6 0.0008 0.0001 -0.0030 -2.6580 0.0001 18.0831
#
#
#
# Elastic Compliance Matrix: (Units=1/GPa)
#
#
# Indices 1 2 3 4 5 6 
#
# 1 0.055626 0.000122 -0.008451 0.000026 0.007840 0.000000
# 2 0.000122 0.020122 -0.002392 -0.000002 0.009920 -0.000001
# 3 -0.008451 -0.002392 0.008020 -0.000011 -0.005851 0.000000
# 4 0.000026 -0.000002 -0.000011 0.057760 0.000008 0.008490
# 5 0.007840 0.009920 -0.005851 0.000008 0.046030 0.000000
# 6 0.000000 -0.000001 0.000000 0.008490 0.000000 0.056548
#
#
# Mechanical properties :
#
#
# Convention : Reuss Voigt Hill
#
# Bulk Modulus (GPa) = 16.04466 35.24496 25.64481
# Shear Modulus (GPa) = 17.46267 25.90790 21.68529
#
# Velocity S-wave (km/s) = 2.86144 3.48535 3.18869
# Velocity P-wave (km/s) = 4.29420 5.72035 5.05780
#
# Compressibility (1/GPa) = 0.06232602
#
# Stress axis : x y z
#
# Youngs Moduli (GPa) = 17.97707 49.69640 124.68140
#
# Poissons Ratio (x) = -0.00606 1.05368
# Poissons Ratio (y) = -0.00219 0.29829
# Poissons Ratio (z) = 0.15192 0.11890
#
# Static dielectric constant tensor:
#      x y z
#    x 1.781520 0.000000 0.019830 
#    y 0.000000 1.824780 0.000000 
#    z 0.019830 0.000000 1.860120 
# 
# From -- ./inp_files/72252.got.cif
#   From: 2010.05.17/outbox.cif.g08.bks.cpg/sg5_37_cif.got.tgz:72252.got - 2010.06.03 18:56:24.
