data_PCOD9122781
_publ_section_title
;
Structure prediction by ZEFSAII (Michael W. Deem and Ramdas Pophale) SiO2 
 PCOD9122781
Probable space group: C 2
;
_chemical_formula_sum "Si O2"
_cell_formula_units_Z 26
_cell_length_a 8.271023
_cell_length_b 11.744114
_cell_length_c 18.212258
_cell_angle_alpha 90.000000
_cell_angle_beta 132.686258
_cell_angle_gamma 90.000000
_cell_volume 1300.397867
_symmetry_space_group_name_H-M "C 2"
_symmetry_group_IT_number 5
_symmetry_cell_setting 'monoclinic'
loop_
_space_group_symop_operation_xyz
x,y,z
-x,y,-z
1/2+x,1/2+y,z
1/2-x,1/2+y,-z
loop_
_atom_site_type_symbol
_atom_site_label
_atom_site_fract_x
_atom_site_fract_y
_atom_site_fract_z
Si Si1 0.546714 0.959090 0.335827
Si Si2 0.921876 0.055610 0.826695
Si Si3 0.261685 0.267228 0.301979
Si Si4 0.281963 0.169189 0.532508
Si Si5 0.907905 0.815687 0.180330
Si Si6 0.361596 0.758557 0.360540
Si Si7 0.500000 0.675774 0.000000
O O1 0.660284 0.871902 0.315332
O O2 0.444734 0.883582 0.368759
O O3 0.336559 0.024645 0.237816
O O4 0.705542 0.047671 0.424077
O O5 0.905760 0.163229 0.766499
O O6 0.020600 0.098951 0.933570
O O7 0.038912 0.943656 0.830426
O O8 0.472543 0.212066 0.408793
O O9 0.335416 0.310491 0.243637
O O10 0.214247 0.249340 0.579456
O O11 0.075910 0.179243 0.414435
O O12 0.138013 0.744974 0.245479
O O13 0.713549 0.755238 0.076317
#
# Coordination Sequence:
#
# PCOD9122781 Si02
#       7
#     4   4   4   4   4   4   2
#     4  10  20  36  58  82 111 147 183 222 269 320
#     4   9  20  38  57  80 112 144 176 226 280 320
#     4   9  19  35  56  83 110 140 183 221 262 328
#     4   9  19  35  53  78 112 144 177 223 271 315
#     4   9  19  38  59  79 110 145 179 229 278 318
#     4   9  19  36  54  77 109 144 182 220 265 324
#     4  10  20  36  58  82 108 138 184 232 274 328
#
# _framework density 19.993880999999998
#
# number of rings (size 3 to 8) (size 9 to 14) (size 15 to 20)
#    0.000    2.769    0.000    0.923    0.000    6.769 
#    0.000   12.308    0.000    0.000    0.000    0.000 
#    0.000    0.000    0.000    0.000    0.000    0.000 
#
# Total GULP energy -72413.017244 kJ/mol
# GULP energy per Si atom -5570.232096 kJ/mol
# Density = 1.994837 g / cm^3
# Si number density = 19.993881 Si / 1000 Ang^3
#
#
#
# Elastic Constant Matrix: (Units=GPa)
#
#
# Indices 1 2 3 4 5 6 
#
# 1 51.0186 49.6560 33.0706 0.0000 -0.4730 0.0000
# 2 49.6560 115.4123 74.9988 0.0000 -2.6506 0.0000
# 3 33.0706 74.9988 139.7697 0.0000 17.6859 0.0000
# 4 0.0000 0.0000 0.0000 39.0749 0.0000 7.5932
# 5 -0.4730 -2.6506 17.6859 0.0000 18.6038 0.0000
# 6 0.0000 0.0000 0.0000 7.5932 0.0000 59.2585
#
#
#
# Elastic Compliance Matrix: (Units=1/GPa)
#
#
# Indices 1 2 3 4 5 6 
#
# 1 0.033750 -0.014515 -0.000050 0.000000 -0.001163 0.000000
# 2 -0.014515 0.021357 -0.009508 0.000000 0.011712 0.000000
# 3 -0.000050 -0.009508 0.014141 0.000000 -0.014799 0.000000
# 4 0.000000 0.000000 0.000000 0.026245 0.000000 -0.003363
# 5 -0.001163 0.011712 -0.014799 0.000000 0.069460 0.000000
# 6 0.000000 0.000000 0.000000 -0.003363 0.000000 0.017306
#
#
# Mechanical properties :
#
#
# Convention : Reuss Voigt Hill
#
# Bulk Modulus (GPa) = 47.38772 69.07238 58.23005
# Shear Modulus (GPa) = 21.05818 33.28581 27.17199
#
# Velocity S-wave (km/s) = 3.24887 4.08462 3.69048
# Velocity P-wave (km/s) = 6.15030 7.54104 6.88089
#
# Compressibility (1/GPa) = 0.02110251
#
# Stress axis : x y z
#
# Youngs Moduli (GPa) = 29.63002 46.82301 70.71858
#
# Poissons Ratio (x) = 0.67964 0.00351
# Poissons Ratio (y) = 0.43009 0.67236
# Poissons Ratio (z) = 0.00147 0.44517
#
# Static dielectric constant tensor:
#      x y z
#    x 1.689060 0.000000 0.028830 
#    y 0.000000 1.709880 0.000000 
#    z 0.028830 0.000000 1.759140 
# 
# From -- ./inp_files/50093.got.cif
#   From: 2010.05.17/outbox.cif.g08.bks.cpg/sg5_26_cif.got.tgz:50093.got - 2010.06.03 18:56:24.
