data_PCOD9122192
_publ_section_title
;
Structure prediction by ZEFSAII (Michael W. Deem and Ramdas Pophale) SiO2 
 PCOD9122192
Probable space group: C 2
;
_chemical_formula_sum "Si O2"
_cell_formula_units_Z 20
_cell_length_a 8.514583
_cell_length_b 11.295509
_cell_length_c 8.483626
_cell_angle_alpha 90.000000
_cell_angle_beta 85.967147
_cell_angle_gamma 90.000000
_cell_volume 813.905547
_symmetry_space_group_name_H-M "C 2"
_symmetry_group_IT_number 5
_symmetry_cell_setting 'monoclinic'
loop_
_space_group_symop_operation_xyz
x,y,z
-x,y,-z
1/2+x,1/2+y,z
1/2-x,1/2+y,-z
loop_
_atom_site_type_symbol
_atom_site_label
_atom_site_fract_x
_atom_site_fract_y
_atom_site_fract_z
Si Si1 0.435636 0.714180 0.683625
Si Si2 0.821276 0.441964 0.564447
Si Si3 0.778132 0.125428 0.186444
Si Si4 0.000000 0.938090 0.000000
Si Si5 0.000000 0.559776 0.000000
Si Si6 0.772491 0.962835 0.769108
O O1 0.500000 0.702037 0.500000
O O2 0.327461 0.831099 0.684035
O O3 0.589756 0.723306 0.785373
O O4 0.342866 0.596821 0.741604
O O5 0.762949 0.561982 0.646437
O O6 0.734496 0.413864 0.407691
O O7 0.000000 0.462150 0.500000
O O8 0.621530 0.136480 0.094703
O O9 0.872275 0.022816 0.089353
O O10 0.896099 0.888123 0.864490
O O11 0.892933 0.483454 0.128871
#
# Coordination Sequence:
#
# PCOD9122192 Si02
#       6
#     4   4   4   2   2   4
#     4  10  21  37  66  94 124 166 215 268 316 371
#     4  11  21  36  68  96 125 167 221 260 317 383
#     4  10  19  39  63  94 128 171 212 266 321 382
#     4   8  20  34  66  90 130 176 200 260 340 370
#     4  10  20  36  66  88 130 176 204 262 338 374
#     4  10  19  39  65  95 129 170 212 269 319 382
#
# _framework density 24.572876000000001
#
# number of rings (size 3 to 8) (size 9 to 14) (size 15 to 20)
#    0.000    2.000    4.000    0.000    0.000    0.000 
#    0.000    7.000   44.000    0.000    0.000    0.000 
#    0.000    0.000    0.000    0.000    0.000    0.000 
#
# Total GULP energy -55833.758972 kJ/mol
# GULP energy per Si atom -5583.375897 kJ/mol
# Density = 2.451695 g / cm^3
# Si number density = 24.572876 Si / 1000 Ang^3
#
#
#
# Elastic Constant Matrix: (Units=GPa)
#
#
# Indices 1 2 3 4 5 6 
#
# 1 127.2099 37.8216 52.0201 0.0000 46.0609 0.0000
# 2 37.8216 117.1833 21.3312 0.0000 8.0272 0.0000
# 3 52.0201 21.3312 118.6575 0.0000 47.4005 0.0000
# 4 0.0000 0.0000 0.0000 10.8741 0.0000 5.7198
# 5 46.0609 8.0272 47.4005 0.0000 77.2989 0.0000
# 6 0.0000 0.0000 0.0000 5.7198 0.0000 15.3117
#
#
#
# Elastic Compliance Matrix: (Units=1/GPa)
#
#
# Indices 1 2 3 4 5 6 
#
# 1 0.011602 -0.002936 -0.002541 0.000000 -0.005050 0.000000
# 2 -0.002936 0.009566 -0.000973 0.000000 0.001353 0.000000
# 3 -0.002541 -0.000973 0.012014 0.000000 -0.005752 0.000000
# 4 0.000000 0.000000 0.000000 0.114450 0.000000 -0.042754
# 5 -0.005050 0.001353 -0.005752 0.000000 0.019333 0.000000
# 6 0.000000 0.000000 0.000000 -0.042754 0.000000 0.081280
#
#
# Mechanical properties :
#
#
# Convention : Reuss Voigt Hill
#
# Bulk Modulus (GPa) = 49.30506 65.04403 57.17454
# Shear Modulus (GPa) = 18.66333 37.48881 28.07607
#
# Velocity S-wave (km/s) = 2.75891 3.91015 3.38385
# Velocity P-wave (km/s) = 5.50065 6.84931 6.21169
#
# Compressibility (1/GPa) = 0.02028189
#
# Stress axis : x y z
#
# Youngs Moduli (GPa) = 86.19484 104.54040 83.23399
#
# Poissons Ratio (x) = 0.30693 0.21150
# Poissons Ratio (y) = 0.25307 0.08097
# Poissons Ratio (z) = 0.21902 0.10170
#
# Static dielectric constant tensor:
#      x y z
#    x 1.970450 0.000000 0.071370 
#    y 0.000000 1.999090 0.000000 
#    z 0.071370 0.000000 2.359520 
# 
# From -- ./inp_files/14265.got.cif
#   From: 2010.05.17/outbox.cif.g08.bks.cpg/sg5_8_cif.got.tgz:14265.got - 2010.06.03 18:56:24.
