data_PCOD9122820
_publ_section_title
;
Structure prediction by ZEFSAII (Michael W. Deem and Ramdas Pophale) SiO2 
 PCOD9122820
Probable space group: C 2
;
_chemical_formula_sum "Si O2"
_cell_formula_units_Z 24
_cell_length_a 7.807740
_cell_length_b 11.359336
_cell_length_c 11.027190
_cell_angle_alpha 90.000000
_cell_angle_beta 101.182897
_cell_angle_gamma 90.000000
_cell_volume 959.440284
_symmetry_space_group_name_H-M "C 2"
_symmetry_group_IT_number 5
_symmetry_cell_setting 'monoclinic'
loop_
_space_group_symop_operation_xyz
x,y,z
-x,y,-z
1/2+x,1/2+y,z
1/2-x,1/2+y,-z
loop_
_atom_site_type_symbol
_atom_site_label
_atom_site_fract_x
_atom_site_fract_y
_atom_site_fract_z
Si Si1 0.189322 0.937700 0.963969
Si Si2 0.562994 0.688848 0.682534
Si Si3 0.946164 0.934424 0.319834
Si Si4 0.601305 0.189504 0.387118
Si Si5 0.402409 0.931193 0.615413
Si Si6 0.792975 0.691197 0.955029
O O1 0.170955 0.936258 0.817022
O O2 0.257299 0.065512 0.012209
O O3 0.282621 0.815320 0.007947
O O4 0.000000 0.934472 0.000000
O O5 0.464337 0.563195 0.669555
O O6 0.460091 0.809360 0.684344
O O7 0.706802 0.683452 0.810259
O O8 0.687944 0.692243 0.580825
O O9 0.052033 0.814524 0.322260
O O10 0.809144 0.928001 0.412661
O O11 0.500000 0.189627 0.500000
O O12 0.553787 0.060994 0.324447
O O13 0.500000 0.930805 0.500000
O O14 0.000000 0.702155 0.000000
#
# Coordination Sequence:
#
# PCOD9122820 Si02
#       6
#     4   4   4   4   4   4
#     4  10  22  38  57  83 114 149 193 235 280 338
#     4  10  22  38  57  85 116 149 192 236 281 338
#     4  10  22  38  56  85 116 147 192 235 280 340
#     4  10  20  36  59  85 115 151 189 233 285 337
#     4  10  22  39  59  86 117 150 190 233 282 340
#     4  10  22  39  58  82 114 150 192 238 282 335
#
# _framework density 25.014582999999998
#
# number of rings (size 3 to 8) (size 9 to 14) (size 15 to 20)
#    0.000    2.000    0.000    3.000    0.000   10.667 
#    0.000    0.000    0.000    0.000    0.000    0.000 
#    0.000    0.000    0.000    0.000    0.000    0.000 
#
# Total GULP energy -66936.342670 kJ/mol
# GULP energy per Si atom -5578.028556 kJ/mol
# Density = 2.495765 g / cm^3
# Si number density = 25.014583 Si / 1000 Ang^3
#
#
#
# Elastic Constant Matrix: (Units=GPa)
#
#
# Indices 1 2 3 4 5 6 
#
# 1 62.8839 67.8574 -8.9403 0.0000 -1.1577 0.0000
# 2 67.8574 362.5909 34.0076 0.0000 11.3940 0.0000
# 3 -8.9403 34.0076 42.0102 0.0000 5.5055 0.0000
# 4 0.0000 0.0000 0.0000 35.5687 0.0000 7.7780
# 5 -1.1577 11.3940 5.5055 0.0000 24.7277 0.0000
# 6 0.0000 0.0000 0.0000 7.7780 0.0000 45.8761
#
#
#
# Elastic Compliance Matrix: (Units=1/GPa)
#
#
# Indices 1 2 3 4 5 6 
#
# 1 0.022701 -0.005118 0.008782 0.000000 0.001466 0.000000
# 2 -0.005118 0.004156 -0.004297 0.000000 -0.001198 0.000000
# 3 0.008782 -0.004297 0.029704 0.000000 -0.004222 0.000000
# 4 0.000000 0.000000 0.000000 0.029197 0.000000 -0.004950
# 5 0.001466 -0.001198 -0.004222 0.000000 0.042001 0.000000
# 6 0.000000 0.000000 0.000000 -0.004950 0.000000 0.022637
#
#
# Mechanical properties :
#
#
# Convention : Reuss Voigt Hill
#
# Bulk Modulus (GPa) = 18.08459 72.59270 45.33865
# Shear Modulus (GPa) = 29.39541 46.20518 37.80030
#
# Velocity S-wave (km/s) = 3.43174 4.30249 3.89154
# Velocity P-wave (km/s) = 4.79038 7.33246 6.19325
#
# Compressibility (1/GPa) = 0.05529569
#
# Stress axis : x y z
#
# Youngs Moduli (GPa) = 44.05143 240.59240 33.66515
#
# Poissons Ratio (x) = 1.23137 -0.29565
# Poissons Ratio (y) = 0.22546 0.14465
# Poissons Ratio (z) = -0.38686 1.03378
#
# Static dielectric constant tensor:
#      x y z
#    x 1.973090 0.000000 -0.006010 
#    y 0.000000 2.046970 0.000000 
#    z -0.006010 0.000000 2.082480 
# 
# From -- ./inp_files/35426.got.cif
#   From: 2010.05.17/outbox.cif.g08.bks.cpg/sg5_18_cif.got.tgz:35426.got - 2010.06.03 18:56:24.
