data_PCOD9122973
_publ_section_title
;
Structure prediction by ZEFSAII (Michael W. Deem and Ramdas Pophale) SiO2 
 PCOD9122973
Probable space group: C 2
;
_chemical_formula_sum "Si O2"
_cell_formula_units_Z 26
_cell_length_a 17.392443
_cell_length_b 14.714279
_cell_length_c 4.964534
_cell_angle_alpha 90.000000
_cell_angle_beta 115.483672
_cell_angle_gamma 90.000000
_cell_volume 1146.899396
_symmetry_space_group_name_H-M "C 2"
_symmetry_group_IT_number 5
_symmetry_cell_setting 'monoclinic'
loop_
_space_group_symop_operation_xyz
x,y,z
-x,y,-z
1/2+x,1/2+y,z
1/2-x,1/2+y,-z
loop_
_atom_site_type_symbol
_atom_site_label
_atom_site_fract_x
_atom_site_fract_y
_atom_site_fract_z
Si Si1 0.000000 0.425270 0.500000
Si Si2 0.584308 0.778587 0.017280
Si Si3 0.097731 0.954532 0.636988
Si Si4 0.258301 0.073028 0.864220
Si Si5 0.651125 0.944416 0.404063
Si Si6 0.243094 0.694708 0.657917
Si Si7 0.671790 0.369858 0.233661
O O1 0.946450 0.355660 0.234587
O O2 0.931201 0.482875 0.566618
O O3 0.500000 0.728009 0.000000
O O4 0.619608 0.841983 0.306899
O O5 0.668311 0.724979 0.066659
O O6 0.117464 0.927490 0.361791
O O7 0.000000 0.982142 0.500000
O O8 0.167750 0.030376 0.812482
O O9 0.120866 0.870980 0.876360
O O10 0.238342 0.133178 0.571751
O O11 0.321647 0.997525 0.826293
O O12 0.297430 0.132548 0.167012
O O13 0.739791 0.924311 0.686609
O O14 0.194589 0.779378 0.441613
#
# Coordination Sequence:
#
# PCOD9122973 Si02
#       7
#     2   4   4   4   4   4   4
#     4  10  20  36  68  90 126 166 224 278 310 384
#     4   9  21  36  60  93 124 169 218 265 319 391
#     4  11  23  42  68  97 128 174 229 276 319 384
#     4  11  24  39  63  99 136 175 206 274 339 396
#     4   9  21  37  62  92 129 169 224 261 321 391
#     4  11  24  39  64  95 137 173 212 264 341 400
#     4  10  22  40  68  93 127 177 227 268 312 396
#
# _framework density 22.669816000000001
#
# number of rings (size 3 to 8) (size 9 to 14) (size 15 to 20)
#    0.000    1.846    0.000    3.231   15.077    1.231 
#    0.000    0.000    1.692    3.692    0.000    0.000 
#    0.000    0.000    0.000    0.000    0.000    0.000 
#
# Total GULP energy -72425.156736 kJ/mol
# GULP energy per Si atom -5571.165903 kJ/mol
# Density = 2.261822 g / cm^3
# Si number density = 22.669816 Si / 1000 Ang^3
#
#
#
# Elastic Constant Matrix: (Units=GPa)
#
#
# Indices 1 2 3 4 5 6 
#
# 1 129.1251 30.4131 31.1644 0.0000 -14.7398 0.0000
# 2 30.4131 58.1455 3.6406 0.0000 0.6404 0.0000
# 3 31.1644 3.6406 91.5934 0.0000 -15.6130 0.0000
# 4 0.0000 0.0000 0.0000 34.4166 0.0000 -6.3781
# 5 -14.7398 0.6404 -15.6130 0.0000 8.6907 0.0000
# 6 0.0000 0.0000 0.0000 -6.3781 0.0000 18.3213
#
#
#
# Elastic Compliance Matrix: (Units=1/GPa)
#
#
# Indices 1 2 3 4 5 6 
#
# 1 0.011497 -0.006202 -0.000380 0.000000 0.019274 0.000000
# 2 -0.006202 0.020666 -0.001101 0.000000 -0.014019 0.000000
# 3 -0.000380 -0.001101 0.015848 0.000000 0.027908 0.000000
# 4 0.000000 0.000000 0.000000 0.031060 0.000000 0.010813
# 5 0.019274 -0.014019 0.027908 0.000000 0.198926 0.000000
# 6 0.000000 0.000000 0.000000 0.010813 0.000000 0.058345
#
#
# Mechanical properties :
#
#
# Convention : Reuss Voigt Hill
#
# Bulk Modulus (GPa) = 30.63259 45.47781 38.05520
# Shear Modulus (GPa) = 13.78974 26.52879 20.15926
#
# Velocity S-wave (km/s) = 2.46902 3.42457 2.98527
# Velocity P-wave (km/s) = 4.65510 5.97841 5.35777
#
# Compressibility (1/GPa) = 0.03264497
#
# Stress axis : x y z
#
# Youngs Moduli (GPa) = 86.97893 48.38979 63.09920
#
# Poissons Ratio (x) = 0.30011 0.02397
# Poissons Ratio (y) = 0.53944 0.06947
# Poissons Ratio (z) = 0.03304 0.05327
#
# Static dielectric constant tensor:
#      x y z
#    x 1.918070 0.000000 0.016630 
#    y 0.000000 1.908060 0.000000 
#    z 0.016630 0.000000 1.933740 
# 
# From -- ./inp_files/8595.got.cif
#   From: 2010.05.17/outbox.cif.g08.bks.cpg/sg5_5_cif.got.tgz:8595.got - 2010.06.03 18:56:24.
