data_PCOD9122957
_publ_section_title
;
Structure prediction by ZEFSAII (Michael W. Deem and Ramdas Pophale) SiO2 
 PCOD9122957
Probable space group: C 2
;
_chemical_formula_sum "Si O2"
_cell_formula_units_Z 28
_cell_length_a 18.892402
_cell_length_b 5.067997
_cell_length_c 17.813012
_cell_angle_alpha 90.000000
_cell_angle_beta 34.554946
_cell_angle_gamma 90.000000
_cell_volume 967.373709
_symmetry_space_group_name_H-M "C 2"
_symmetry_group_IT_number 5
_symmetry_cell_setting 'monoclinic'
loop_
_space_group_symop_operation_xyz
x,y,z
-x,y,-z
1/2+x,1/2+y,z
1/2-x,1/2+y,-z
loop_
_atom_site_type_symbol
_atom_site_label
_atom_site_fract_x
_atom_site_fract_y
_atom_site_fract_z
Si Si1 0.484427 0.316890 0.665525
Si Si2 0.000000 0.309717 0.000000
Si Si3 0.000000 0.845460 0.500000
Si Si4 0.066757 0.412620 0.100883
Si Si5 0.133245 0.169265 0.639337
Si Si6 0.759484 0.535405 0.914086
Si Si7 0.241775 0.478904 0.243611
Si Si8 0.325726 0.871991 0.550154
O O1 0.516588 0.498581 0.564255
O O2 0.539503 0.447650 0.690685
O O3 0.340031 0.274126 0.807609
O O4 0.550080 0.041523 0.582180
O O5 0.125196 0.132893 0.874043
O O6 0.968635 0.483775 0.952948
O O7 0.123360 0.669698 0.372357
O O8 0.176997 0.512481 0.059813
O O9 0.950380 0.405606 0.257184
O O10 0.116396 0.110907 0.046572
O O11 0.221079 0.100953 0.630575
O O12 0.205117 0.212815 0.498646
O O13 0.772062 0.354893 0.828521
O O14 0.217238 0.266542 0.331047
#
# Coordination Sequence:
#
# PCOD9122957 Si02
#       8
#     4   2   2   4   4   4   4   4
#     4  10  20  38  58  88 122 159 203 259 311 376
#     4  10  20  36  66  94 124 172 220 262 328 380
#     4   8  18  36  58  84 126 166 200 254 326 382
#     4  11  22  39  64  94 122 173 213 262 327 387
#     4  12  22  36  63  91 121 166 212 265 316 377
#     4  10  21  40  65  87 129 167 210 262 324 391
#     4   9  19  37  62  90 124 173 207 263 327 387
#     4  11  21  37  60  89 125 164 210 258 322 374
#
# _framework density 28.944344999999998
#
# number of rings (size 3 to 8) (size 9 to 14) (size 15 to 20)
#    0.000    1.714    4.286    0.857    0.000    0.000 
#    2.571    0.000    6.286    0.000    0.000    0.000 
#    0.000    0.000    0.000    0.000    0.000    0.000 
#
# Total GULP energy -78011.936996 kJ/mol
# GULP energy per Si atom -5572.281214 kJ/mol
# Density = 2.887847 g / cm^3
# Si number density = 28.944345 Si / 1000 Ang^3
#
#
#
# Elastic Constant Matrix: (Units=GPa)
#
#
# Indices 1 2 3 4 5 6 
#
# 1 158.4308 1.0265 71.0303 -0.0363 44.3551 0.0130
# 2 1.0265 46.2245 25.1557 -0.0487 5.2307 0.0421
# 3 71.0303 25.1557 201.0519 -0.0611 34.7315 0.0230
# 4 -0.0363 -0.0487 -0.0611 37.5260 0.0401 -1.2117
# 5 44.3551 5.2307 34.7315 0.0401 88.0402 -0.0162
# 6 0.0130 0.0421 0.0230 -1.2117 -0.0162 21.0028
#
#
#
# Elastic Compliance Matrix: (Units=1/GPa)
#
#
# Indices 1 2 3 4 5 6 
#
# 1 0.008388 0.001598 -0.002594 0.000009 -0.003297 -0.000008
# 2 0.001598 0.023524 -0.003356 0.000026 -0.000879 -0.000044
# 3 -0.002594 -0.003356 0.006492 0.000005 -0.001055 0.000001
# 4 0.000009 0.000026 0.000005 0.026698 -0.000020 0.001540
# 5 -0.003297 -0.000879 -0.001055 -0.000020 0.013488 0.000014
# 6 -0.000008 -0.000044 0.000001 0.001540 0.000014 0.047702
#
#
# Mechanical properties :
#
#
# Convention : Reuss Voigt Hill
#
# Bulk Modulus (GPa) = 33.66884 66.68137 50.17511
# Shear Modulus (GPa) = 34.50778 49.88012 42.19395
#
# Velocity S-wave (km/s) = 3.45659 4.15578 3.82221
# Velocity P-wave (km/s) = 5.25245 6.79082 6.07056
#
# Compressibility (1/GPa) = 0.02970105
#
# Stress axis : x y z
#
# Youngs Moduli (GPa) = 119.22441 42.50972 154.02756
#
# Poissons Ratio (x) = -0.06795 0.39949
# Poissons Ratio (y) = -0.19056 0.51694
# Poissons Ratio (z) = 0.30922 0.14267
#
# Static dielectric constant tensor:
#      x y z
#    x 2.555480 0.000000 0.039060 
#    y 0.000000 2.469970 0.000000 
#    z 0.039060 0.000000 2.215420 
# 
# From -- ./inp_files/45759.got.cif
#   From: 2010.05.17/outbox.cif.g08.bks.cpg/sg5_23_cif.got.tgz:45759.got - 2010.06.03 18:56:24.
