data_PCOD9122335
_publ_section_title
;
Structure prediction by ZEFSAII (Michael W. Deem and Ramdas Pophale) SiO2 
 PCOD9122335
Probable space group: C 2
;
_chemical_formula_sum "Si O2"
_cell_formula_units_Z 26
_cell_length_a 13.051296
_cell_length_b 6.936841
_cell_length_c 12.130269
_cell_angle_alpha 90.000000
_cell_angle_beta 60.902577
_cell_angle_gamma 90.000000
_cell_volume 959.610337
_symmetry_space_group_name_H-M "C 2"
_symmetry_group_IT_number 5
_symmetry_cell_setting 'monoclinic'
loop_
_space_group_symop_operation_xyz
x,y,z
-x,y,-z
1/2+x,1/2+y,z
1/2-x,1/2+y,-z
loop_
_atom_site_type_symbol
_atom_site_label
_atom_site_fract_x
_atom_site_fract_y
_atom_site_fract_z
Si Si1 0.732147 0.674120 0.654359
Si Si2 0.753338 0.119623 0.601388
Si Si3 0.979649 0.300654 0.793614
Si Si4 0.000000 0.997612 0.500000
Si Si5 0.727874 0.911913 0.966674
Si Si6 0.746035 0.283083 0.820150
Si Si7 0.079203 0.695172 0.275427
O O1 0.742528 0.906734 0.656207
O O2 0.779084 0.621873 0.509069
O O3 0.592330 0.666383 0.744626
O O4 0.823529 0.594120 0.695068
O O5 0.893628 0.136002 0.522692
O O6 0.703959 0.271584 0.715711
O O7 0.885229 0.230551 0.752737
O O8 0.996048 0.525945 0.744709
O O9 0.896595 0.306518 0.945165
O O10 0.984765 0.847045 0.611046
O O11 0.838403 0.809803 0.852638
O O12 0.695046 0.095165 0.910761
O O13 0.768064 0.939398 0.074146
#
# Coordination Sequence:
#
# PCOD9122335 Si02
#       7
#     4   4   4   2   4   4   4
#     4  11  26  40  63 100 134 168 225 275 334 407
#     4  11  24  42  61  97 130 169 219 281 328 403
#     4  10  23  40  69  93 127 177 222 266 344 396
#     4  10  22  38  66  86 132 170 218 266 338 390
#     4  10  19  41  65  94 123 173 222 272 333 395
#     4  10  20  41  68  88 128 174 218 271 334 403
#     4  11  23  42  65  94 131 174 219 275 334 406
#
# _framework density 27.094332000000001
#
# number of rings (size 3 to 8) (size 9 to 14) (size 15 to 20)
#    0.923    0.615    4.615    0.923    6.462    0.615 
#    0.000    0.000    0.000    1.846    0.000    0.000 
#    0.000    0.000    0.000    0.000    0.000    0.000 
#
# Total GULP energy -72484.002267 kJ/mol
# GULP energy per Si atom -5575.692482 kJ/mol
# Density = 2.703266 g / cm^3
# Si number density = 27.094332 Si / 1000 Ang^3
#
#
#
# Elastic Constant Matrix: (Units=GPa)
#
#
# Indices 1 2 3 4 5 6 
#
# 1 89.2588 -5.7353 18.5618 0.0000 -2.9109 0.0000
# 2 -5.7353 58.7108 7.9357 0.0000 -8.7532 0.0000
# 3 18.5618 7.9357 169.0541 0.0000 13.5194 0.0000
# 4 0.0000 0.0000 0.0000 34.5513 0.0000 -4.5343
# 5 -2.9109 -8.7532 13.5194 0.0000 35.7863 0.0000
# 6 0.0000 0.0000 0.0000 -4.5343 0.0000 44.2755
#
#
#
# Elastic Compliance Matrix: (Units=1/GPa)
#
#
# Indices 1 2 3 4 5 6 
#
# 1 0.011686 0.001633 -0.001513 0.000000 0.001922 0.000000
# 2 0.001633 0.018150 -0.001440 0.000000 0.005116 0.000000
# 3 -0.001513 -0.001440 0.006380 0.000000 -0.002886 0.000000
# 4 0.000000 0.000000 0.000000 0.029337 0.000000 0.003004
# 5 0.001922 0.005116 -0.002886 0.000000 0.030442 0.000000
# 6 0.000000 0.000000 0.000000 0.003004 0.000000 0.022894
#
#
# Mechanical properties :
#
#
# Convention : Reuss Voigt Hill
#
# Bulk Modulus (GPa) = 29.78610 39.83869 34.81240
# Shear Modulus (GPa) = 37.67326 42.67337 40.17332
#
# Velocity S-wave (km/s) = 3.73292 3.97292 3.85479
# Velocity P-wave (km/s) = 5.44030 5.98173 5.71743
#
# Compressibility (1/GPa) = 0.03357271
#
# Stress axis : x y z
#
# Youngs Moduli (GPa) = 85.57499 55.09764 156.74453
#
# Poissons Ratio (x) = -0.08995 0.23721
# Poissons Ratio (y) = -0.13971 0.22577
# Poissons Ratio (z) = 0.12951 0.07936
#
# Static dielectric constant tensor:
#      x y z
#    x 2.237810 0.000000 -0.065000 
#    y 0.000000 2.354690 0.000000 
#    z -0.065000 0.000000 2.193400 
# 
# From -- ./inp_files/41641.got.cif
#   From: 2010.05.17/outbox.cif.g08.bks.cpg/sg5_21_cif.got.tgz:41641.got - 2010.06.03 18:56:24.
