data_PCOD9122683
_publ_section_title
;
Structure prediction by ZEFSAII (Michael W. Deem and Ramdas Pophale) SiO2 
 PCOD9122683
Probable space group: C 2
;
_chemical_formula_sum "Si O2"
_cell_formula_units_Z 20
_cell_length_a 11.542724
_cell_length_b 9.941853
_cell_length_c 17.937941
_cell_angle_alpha 90.000000
_cell_angle_beta 25.778058
_cell_angle_gamma 90.000000
_cell_volume 895.207986
_symmetry_space_group_name_H-M "C 2"
_symmetry_group_IT_number 5
_symmetry_cell_setting 'monoclinic'
loop_
_space_group_symop_operation_xyz
x,y,z
-x,y,-z
1/2+x,1/2+y,z
1/2-x,1/2+y,-z
loop_
_atom_site_type_symbol
_atom_site_label
_atom_site_fract_x
_atom_site_fract_y
_atom_site_fract_z
Si Si1 0.986592 0.692490 0.300029
Si Si2 0.781927 0.426992 0.191350
Si Si3 0.367493 0.997309 0.657162
Si Si4 0.386738 0.691771 0.940063
Si Si5 0.295104 0.204611 0.252220
O O1 0.033462 0.840491 0.305974
O O2 0.978037 0.585401 0.370733
O O3 0.783116 0.695174 0.349680
O O4 0.260108 0.667171 0.095286
O O5 0.695072 0.567754 0.274822
O O6 0.937463 0.327640 0.158798
O O7 0.000000 0.449519 0.000000
O O8 0.500000 0.001964 0.500000
O O9 0.079040 0.068154 0.812369
O O10 0.328944 0.843112 0.703076
O O11 0.116940 0.707114 0.049239
#
# Coordination Sequence:
#
# PCOD9122683 Si02
#       5
#     4   4   4   4   4
#     4   8  20  38  59  79 116 154 191 232 285 342
#     4   9  16  33  54  86 106 138 193 245 265 322
#     4  11  21  38  60  88 121 149 187 247 293 333
#     4   8  18  37  61  78 114 152 193 230 280 344
#     4  10  20  35  60  81 116 150 195 230 280 345
#
# _framework density 22.341176999999998
#
# number of rings (size 3 to 8) (size 9 to 14) (size 15 to 20)
#    1.200    1.600    0.000    3.000    0.000    1.600 
#    0.000   10.000    0.000    0.000    0.000    0.000 
#    0.000    0.000    0.000    0.000    0.000    0.000 
#
# Total GULP energy -55799.915841 kJ/mol
# GULP energy per Si atom -5579.991584 kJ/mol
# Density = 2.229033 g / cm^3
# Si number density = 22.341177 Si / 1000 Ang^3
#
#
#
# Elastic Constant Matrix: (Units=GPa)
#
#
# Indices 1 2 3 4 5 6 
#
# 1 84.6122 61.8198 16.6794 -0.0635 -6.8255 0.0312
# 2 61.8198 217.2321 52.9813 -0.0095 21.1327 0.0082
# 3 16.6794 52.9813 50.5169 -0.0900 -9.0497 0.0534
# 4 -0.0635 -0.0095 -0.0900 14.9283 0.0610 9.5133
# 5 -6.8255 21.1327 -9.0497 0.0610 19.9787 -0.0354
# 6 0.0312 0.0082 0.0534 9.5133 -0.0354 17.4073
#
#
#
# Elastic Compliance Matrix: (Units=1/GPa)
#
#
# Indices 1 2 3 4 5 6 
#
# 1 0.018172 -0.008336 0.005915 0.000065 0.017705 -0.000046
# 2 -0.008336 0.012867 -0.014900 -0.000041 -0.023208 0.000030
# 3 0.005915 -0.014900 0.039893 0.000220 0.035851 -0.000174
# 4 0.000065 -0.000041 0.000220 0.102789 -0.000248 -0.056177
# 5 0.017705 -0.023208 0.035851 -0.000248 0.096891 0.000202
# 6 -0.000046 0.000030 -0.000174 -0.056177 0.000202 0.088149
#
#
# Mechanical properties :
#
#
# Convention : Reuss Voigt Hill
#
# Bulk Modulus (GPa) = 27.55709 68.36912 47.96310
# Shear Modulus (GPa) = 12.33044 25.18825 18.75935
#
# Velocity S-wave (km/s) = 2.35184 3.36137 2.90086
# Velocity P-wave (km/s) = 4.44255 6.76268 5.72146
#
# Compressibility (1/GPa) = 0.03628830
#
# Stress axis : x y z
#
# Youngs Moduli (GPa) = 55.03118 77.71539 25.06726
#
# Poissons Ratio (x) = 0.64785 -0.14827
# Poissons Ratio (y) = 0.45875 0.37351
# Poissons Ratio (z) = -0.32550 1.15799
#
# Static dielectric constant tensor:
#      x y z
#    x 1.858470 -0.000010 -0.034870 
#    y -0.000010 1.784830 0.000020 
#    z -0.034870 0.000020 1.920640 
# 
# From -- ./inp_files/22756.got.cif
#   From: 2010.05.17/outbox.cif.g08.bks.cpg/sg5_12_cif.got.tgz:22756.got - 2010.06.03 18:56:24.
