data_PCOD9122767
_publ_section_title
;
Structure prediction by ZEFSAII (Michael W. Deem and Ramdas Pophale) SiO2 
 PCOD9122767
Probable space group: C 2
;
_chemical_formula_sum "Si O2"
_cell_formula_units_Z 22
_cell_length_a 20.574322
_cell_length_b 8.364521
_cell_length_c 9.381664
_cell_angle_alpha 90.000000
_cell_angle_beta 145.731531
_cell_angle_gamma 90.000000
_cell_volume 909.096341
_symmetry_space_group_name_H-M "C 2"
_symmetry_group_IT_number 5
_symmetry_cell_setting 'monoclinic'
loop_
_space_group_symop_operation_xyz
x,y,z
-x,y,-z
1/2+x,1/2+y,z
1/2-x,1/2+y,-z
loop_
_atom_site_type_symbol
_atom_site_label
_atom_site_fract_x
_atom_site_fract_y
_atom_site_fract_z
Si Si1 0.216800 0.757640 0.294021
Si Si2 0.922646 0.837967 0.500691
Si Si3 0.613022 0.993028 0.540580
Si Si4 0.000000 0.241782 0.500000
Si Si5 0.098047 0.013769 0.264214
Si Si6 0.253242 0.564606 0.083840
O O1 0.126931 0.850413 0.230674
O O2 0.290304 0.622444 0.508434
O O3 0.192722 0.673550 0.095848
O O4 0.300322 0.903645 0.403877
O O5 0.926592 0.665497 0.579149
O O6 0.954432 0.967946 0.676854
O O7 0.000000 0.834250 0.500000
O O8 0.794081 0.894263 0.222241
O O9 0.514072 0.864204 0.393765
O O10 0.678696 0.034372 0.808894
O O11 0.120856 0.145873 0.721969
O O12 0.000000 0.104718 0.000000
#
# Coordination Sequence:
#
# PCOD9122767 Si02
#       6
#     4   4   4   2   4   4
#     4  10  24  45  66 103 133 177 240 269 332 422
#     4  11  22  40  65 101 133 171 232 275 332 412
#     4  11  22  38  68  97 136 172 220 284 334 393
#     4  10  20  36  56  94 132 170 214 264 330 394
#     4  11  26  46  71  94 139 188 217 284 343 396
#     4  10  22  39  66  96 136 173 217 284 336 392
#
# _framework density 24.199854999999999
#
# number of rings (size 3 to 8) (size 9 to 14) (size 15 to 20)
#    0.000    1.455    1.818    3.273    5.091    0.000 
#    0.000   12.727    0.000    0.000    0.000    0.000 
#    0.000    0.000    0.000    0.000    0.000    0.000 
#
# Total GULP energy -61466.666795 kJ/mol
# GULP energy per Si atom -5587.878800 kJ/mol
# Density = 2.414477 g / cm^3
# Si number density = 24.199855 Si / 1000 Ang^3
#
#
#
# Elastic Constant Matrix: (Units=GPa)
#
#
# Indices 1 2 3 4 5 6 
#
# 1 129.6126 33.8022 21.8074 0.0000 -4.9625 0.0000
# 2 33.8022 120.1069 11.4573 0.0000 8.2783 0.0000
# 3 21.8074 11.4573 90.8753 0.0000 -0.0744 0.0000
# 4 0.0000 0.0000 0.0000 18.7172 0.0000 -5.9556
# 5 -4.9625 8.2783 -0.0744 0.0000 21.7364 0.0000
# 6 0.0000 0.0000 0.0000 -5.9556 0.0000 46.2726
#
#
#
# Elastic Compliance Matrix: (Units=1/GPa)
#
#
# Indices 1 2 3 4 5 6 
#
# 1 0.008783 -0.002505 -0.001789 0.000000 0.002953 0.000000
# 2 -0.002505 0.009372 -0.000584 0.000000 -0.004143 0.000000
# 3 -0.001789 -0.000584 0.011507 0.000000 -0.000147 0.000000
# 4 0.000000 0.000000 0.000000 0.055708 0.000000 0.007170
# 5 0.002953 -0.004143 -0.000147 0.000000 0.048257 0.000000
# 6 0.000000 0.000000 0.000000 0.007170 0.000000 0.022534
#
#
# Mechanical properties :
#
#
# Convention : Reuss Voigt Hill
#
# Bulk Modulus (GPa) = 50.23654 52.74761 51.49208
# Shear Modulus (GPa) = 28.97675 35.58043 32.27859
#
# Velocity S-wave (km/s) = 3.46409 3.83858 3.65613
# Velocity P-wave (km/s) = 6.06663 6.44129 6.25676
#
# Compressibility (1/GPa) = 0.01990583
#
# Stress axis : x y z
#
# Youngs Moduli (GPa) = 113.86165 106.70015 86.90368
#
# Poissons Ratio (x) = 0.26724 0.15550
# Poissons Ratio (y) = 0.28517 0.05075
# Poissons Ratio (z) = 0.20374 0.06231
#
# Static dielectric constant tensor:
#      x y z
#    x 1.951680 0.000000 0.006040 
#    y 0.000000 1.989100 0.000000 
#    z 0.006040 0.000000 1.975230 
# 
# From -- ./inp_files/22895.got.cif
#   From: 2010.05.17/outbox.cif.g08.bks.cpg/sg5_12_cif.got.tgz:22895.got - 2010.06.03 18:56:24.
