data_PCOD9122592
_publ_section_title
;
Structure prediction by ZEFSAII (Michael W. Deem and Ramdas Pophale) SiO2 
 PCOD9122592
Probable space group: C 2
;
_chemical_formula_sum "Si O2"
_cell_formula_units_Z 30
_cell_length_a 15.294464
_cell_length_b 18.460037
_cell_length_c 11.649349
_cell_angle_alpha 90.000000
_cell_angle_beta 152.536628
_cell_angle_gamma 90.000000
_cell_volume 1516.841966
_symmetry_space_group_name_H-M "C 2"
_symmetry_group_IT_number 5
_symmetry_cell_setting 'monoclinic'
loop_
_space_group_symop_operation_xyz
x,y,z
-x,y,-z
1/2+x,1/2+y,z
1/2-x,1/2+y,-z
loop_
_atom_site_type_symbol
_atom_site_label
_atom_site_fract_x
_atom_site_fract_y
_atom_site_fract_z
Si Si1 0.161825 0.561120 0.786912
Si Si2 0.624310 0.852906 0.035329
Si Si3 0.518711 0.478820 0.268135
Si Si4 0.596706 0.961965 0.385442
Si Si5 0.185525 0.330440 0.643482
Si Si6 0.535966 0.310756 0.223905
Si Si7 0.368575 0.226974 0.234006
Si Si8 0.500000 0.449227 0.500000
O O1 0.203056 0.645023 0.857360
O O2 0.000000 0.558296 0.500000
O O3 0.058471 0.521719 0.770784
O O4 0.353367 0.514339 0.999400
O O5 0.699334 0.784233 0.052324
O O6 0.812449 0.898815 0.286579
O O7 0.500000 0.831036 0.000000
O O8 0.494362 0.904919 0.807878
O O9 0.719981 0.500568 0.451709
O O10 0.531472 0.391106 0.274229
O O11 0.492940 0.493888 0.373121
O O12 0.648375 0.913435 0.558075
O O13 0.271942 0.297329 0.625325
O O14 0.000000 0.307190 0.500000
O O15 0.359046 0.317830 0.931582
O O16 0.492233 0.252059 0.269423
O O17 0.500000 0.232456 0.500000
#
# Coordination Sequence:
#
# PCOD9122592 Si02
#       8
#     4   4   4   4   4   4   4   2
#     4  11  24  42  61  89 136 177 210 262 329 400
#     4  12  22  38  68 100 127 168 222 277 331 380
#     4  11  21  38  64  95 123 166 218 278 321 384
#     4  11  22  37  66  96 123 166 221 272 329 381
#     4  10  20  34  61  90 117 156 206 266 322 374
#     4  10  20  37  62  89 123 157 213 273 317 371
#     4  11  23  42  63  93 136 176 214 267 329 397
#     4  12  20  38  68  94 130 158 214 286 330 370
#
# _framework density 19.777933999999998
#
# number of rings (size 3 to 8) (size 9 to 14) (size 15 to 20)
#    0.000    1.067    4.667    2.800    1.867    1.600 
#    4.800    0.000   13.200    0.000    0.000    0.000 
#    0.000    0.000    0.000    0.000    0.000    0.000 
#
# Total GULP energy -83680.941863 kJ/mol
# GULP energy per Si atom -5578.729458 kJ/mol
# Density = 1.973292 g / cm^3
# Si number density = 19.777934 Si / 1000 Ang^3
#
#
#
# Elastic Constant Matrix: (Units=GPa)
#
#
# Indices 1 2 3 4 5 6 
#
# 1 134.3001 27.6329 45.1775 0.0000 20.2752 0.0000
# 2 27.6329 60.6299 22.5970 0.0000 5.3017 0.0000
# 3 45.1775 22.5970 103.9488 0.0000 20.6213 0.0000
# 4 0.0000 0.0000 0.0000 10.2183 0.0000 -15.6027
# 5 20.2752 5.3017 20.6213 0.0000 43.5208 0.0000
# 6 0.0000 0.0000 0.0000 -15.6027 0.0000 -42.9907
#
#
#
# Elastic Compliance Matrix: (Units=1/GPa)
#
#
# Indices 1 2 3 4 5 6 
#
# 1 0.009445 -0.002981 -0.002932 0.000000 -0.002648 0.000000
# 2 -0.002981 0.018894 -0.002904 0.000000 0.000463 0.000000
# 3 -0.002932 -0.002904 0.012345 0.000000 -0.004130 0.000000
# 4 0.000000 0.000000 0.000000 0.062968 0.000000 -0.022853
# 5 -0.002648 0.000463 -0.004130 0.000000 0.026112 0.000000
# 6 0.000000 0.000000 0.000000 -0.022853 0.000000 -0.014967
#
#
# Mechanical properties :
#
#
# Convention : Reuss Voigt Hill
#
# Bulk Modulus (GPa) = 43.38062 54.41039 48.89551
# Shear Modulus (GPa) = 35.68557 15.71444 25.70000
#
# Velocity S-wave (km/s) = 4.25233 2.82182 3.60867
# Velocity P-wave (km/s) = 6.78905 6.17959 6.49147
#
# Compressibility (1/GPa) = 0.02305177
#
# Stress axis : x y z
#
# Youngs Moduli (GPa) = 105.87286 52.92778 81.00597
#
# Poissons Ratio (x) = 0.15776 0.23749
# Poissons Ratio (y) = 0.31556 0.23521
# Poissons Ratio (z) = 0.31040 0.15368
#
# Static dielectric constant tensor:
#      x y z
#    x 1.741040 0.000000 -0.011980 
#    y 0.000000 1.672080 0.000000 
#    z -0.011980 0.000000 1.744560 
# 
# From -- ./inp_files/43315.got.cif
#   From: 2010.05.17/outbox.cif.g08.bks.cpg/sg5_22_cif.got.tgz:43315.got - 2010.06.03 18:56:24.
