data_PCOD9122134
_publ_section_title
;
Structure prediction by ZEFSAII (Michael W. Deem and Ramdas Pophale) SiO2 
 PCOD9122134
Probable space group: C 2
;
_chemical_formula_sum "Si O2"
_cell_formula_units_Z 26
_cell_length_a 5.246191
_cell_length_b 18.039912
_cell_length_c 15.354412
_cell_angle_alpha 90.000000
_cell_angle_beta 65.049378
_cell_angle_gamma 90.000000
_cell_volume 1317.533743
_symmetry_space_group_name_H-M "C 2"
_symmetry_group_IT_number 5
_symmetry_cell_setting 'monoclinic'
loop_
_space_group_symop_operation_xyz
x,y,z
-x,y,-z
1/2+x,1/2+y,z
1/2-x,1/2+y,-z
loop_
_atom_site_type_symbol
_atom_site_label
_atom_site_fract_x
_atom_site_fract_y
_atom_site_fract_z
Si Si1 0.507882 0.480320 0.304419
Si Si2 0.083618 0.730267 0.687570
Si Si3 0.000000 0.942888 0.500000
Si Si4 0.537262 0.856512 0.382766
Si Si5 0.531106 0.647176 0.741014
Si Si6 0.328406 0.736030 0.936066
Si Si7 0.353963 0.846471 0.211980
O O1 0.548542 0.487410 0.403588
O O2 0.242255 0.425752 0.335856
O O3 0.461929 0.559112 0.268362
O O4 0.756473 0.431401 0.225408
O O5 0.288034 0.786366 0.606807
O O6 0.288561 0.677726 0.712353
O O7 0.840709 0.681665 0.677403
O O8 0.906568 0.790589 0.770537
O O9 0.729965 0.889969 0.529396
O O10 0.425534 0.832059 0.303203
O O11 0.441933 0.677197 0.848749
O O12 0.398547 0.816687 0.883804
O O13 0.500000 0.728360 0.000000
O O14 0.000000 0.727017 0.000000
#
# Coordination Sequence:
#
# PCOD9122134 Si02
#       7
#     4   4   2   4   4   4   4
#     4  10  23  39  70  90 136 174 213 261 322 397
#     4  10  19  38  66  92 121 169 218 253 309 394
#     4  10  22  40  66  98 124 172 226 264 316 370
#     4  10  19  40  68  93 125 168 221 261 315 391
#     4  11  23  40  67  95 132 175 211 257 339 384
#     4  11  22  39  67  96 128 166 221 271 313 381
#     4   9  20  39  66  95 121 172 215 255 329 374
#
# _framework density 19.733841000000002
#
# number of rings (size 3 to 8) (size 9 to 14) (size 15 to 20)
#    0.000    1.846    3.077    2.308    6.462    0.000 
#    0.000    0.769   13.538    0.000    0.000    0.000 
#    0.000    0.000    0.000    0.000    0.000    0.000 
#
# Total GULP energy -72479.250243 kJ/mol
# GULP energy per Si atom -5575.326942 kJ/mol
# Density = 1.968893 g / cm^3
# Si number density = 19.733841 Si / 1000 Ang^3
#
#
#
# Elastic Constant Matrix: (Units=GPa)
#
#
# Indices 1 2 3 4 5 6 
#
# 1 113.9902 50.6506 32.6616 0.0000 -4.8691 0.0000
# 2 50.6506 161.1772 44.3712 0.0000 -3.4871 0.0000
# 3 32.6616 44.3712 83.1290 0.0000 -6.4500 0.0000
# 4 0.0000 0.0000 0.0000 25.6151 0.0000 3.4200
# 5 -4.8691 -3.4871 -6.4500 0.0000 27.2098 0.0000
# 6 0.0000 0.0000 0.0000 3.4200 0.0000 29.8575
#
#
#
# Elastic Compliance Matrix: (Units=1/GPa)
#
#
# Indices 1 2 3 4 5 6 
#
# 1 0.010761 -0.002599 -0.002768 0.000000 0.000936 0.000000
# 2 -0.002599 0.007901 -0.003213 0.000000 -0.000214 0.000000
# 3 -0.002768 -0.003213 0.015038 0.000000 0.002658 0.000000
# 4 0.000000 0.000000 0.000000 0.039646 0.000000 -0.004541
# 5 0.000936 -0.000214 0.002658 0.000000 0.037522 0.000000
# 6 0.000000 0.000000 0.000000 -0.004541 0.000000 0.034013
#
#
# Mechanical properties :
#
#
# Convention : Reuss Voigt Hill
#
# Bulk Modulus (GPa) = 60.45897 68.18479 64.32188
# Shear Modulus (GPa) = 29.84137 31.91068 30.87603
#
# Velocity S-wave (km/s) = 3.89291 4.02562 3.95982
# Velocity P-wave (km/s) = 7.13513 7.49898 7.31932
#
# Compressibility (1/GPa) = 0.01654014
#
# Stress axis : x y z
#
# Youngs Moduli (GPa) = 92.93023 126.56646 66.49845
#
# Poissons Ratio (x) = 0.32899 0.18406
# Poissons Ratio (y) = 0.24156 0.21363
# Poissons Ratio (z) = 0.25721 0.40660
#
# Static dielectric constant tensor:
#      x y z
#    x 1.778610 0.000000 0.009250 
#    y 0.000000 1.671980 0.000000 
#    z 0.009250 0.000000 1.756370 
# 
# From -- ./inp_files/49085.got.cif
#   From: 2010.05.17/outbox.cif.g08.bks.cpg/sg5_25_cif.got.tgz:49085.got - 2010.06.03 18:56:24.
