data_PCOD9122427
_publ_section_title
;
Structure prediction by ZEFSAII (Michael W. Deem and Ramdas Pophale) SiO2 
 PCOD9122427
Probable space group: C 2
;
_chemical_formula_sum "Si O2"
_cell_formula_units_Z 30
_cell_length_a 7.274657
_cell_length_b 33.601480
_cell_length_c 5.532809
_cell_angle_alpha 90.000000
_cell_angle_beta 78.038617
_cell_angle_gamma 90.000000
_cell_volume 1323.070891
_symmetry_space_group_name_H-M "C 2"
_symmetry_group_IT_number 5
_symmetry_cell_setting 'monoclinic'
loop_
_space_group_symop_operation_xyz
x,y,z
-x,y,-z
1/2+x,1/2+y,z
1/2-x,1/2+y,-z
loop_
_atom_site_type_symbol
_atom_site_label
_atom_site_fract_x
_atom_site_fract_y
_atom_site_fract_z
Si Si1 0.389577 0.998000 0.277290
Si Si2 0.779932 0.079643 0.559788
Si Si3 0.500000 0.361224 0.000000
Si Si4 0.779006 0.114898 0.052184
Si Si5 0.774088 0.707450 0.047861
Si Si6 0.768452 0.748292 0.555970
Si Si7 0.214005 0.834922 0.547044
Si Si8 0.698232 0.414321 0.327016
O O1 0.500000 0.995090 0.500000
O O2 0.311671 0.953911 0.252996
O O3 0.243167 0.032770 0.384764
O O4 0.500000 0.009260 0.000000
O O5 0.702855 0.096391 0.324999
O O6 0.000000 0.090345 0.500000
O O7 0.694990 0.098867 0.824385
O O8 0.657489 0.333070 0.840639
O O9 0.368300 0.391466 0.891171
O O10 0.768882 0.162159 0.016972
O O11 0.000000 0.103351 0.000000
O O12 0.711561 0.723148 0.331063
O O13 0.707285 0.731646 0.831211
O O14 0.000000 0.710849 0.000000
O O15 0.700631 0.793967 0.557737
O O16 0.000000 0.748892 0.500000
O O17 0.291879 0.878368 0.457794
O O18 0.000000 0.837474 0.500000
O O19 0.500000 0.426626 0.500000
#
# Coordination Sequence:
#
# PCOD9122427 Si02
#       8
#     4   4   2   4   4   4   4   4
#     4  12  27  42  61  92 125 158 190 244 309 361
#     4  10  22  43  65  87 111 153 201 244 288 352
#     4   8  16  30  58  86 106 152 200 258 278 332
#     4  10  21  39  63  85 111 148 196 243 290 343
#     4  10  20  32  51  83 116 150 183 231 294 349
#     4   9  18  29  49  81 117 148 188 238 286 335
#     4   8  16  28  52  82 111 150 197 249 285 321
#     4   9  20  37  60  87 116 158 208 245 292 344
#
# _framework density 22.674524000000002
#
# number of rings (size 3 to 8) (size 9 to 14) (size 15 to 20)
#    0.000    2.667    0.000    2.000   10.267    1.600 
#    3.600    0.000    0.000    2.400    0.000    0.000 
#    0.000    0.000    0.000    0.000    0.000    0.000 
#
# Total GULP energy -83551.679232 kJ/mol
# GULP energy per Si atom -5570.111949 kJ/mol
# Density = 2.262292 g / cm^3
# Si number density = 22.674524 Si / 1000 Ang^3
#
#
#
# Elastic Constant Matrix: (Units=GPa)
#
#
# Indices 1 2 3 4 5 6 
#
# 1 47.7280 -10.6540 35.7453 0.0000 8.1235 0.0000
# 2 -10.6540 122.5403 59.6080 0.0000 5.3529 0.0000
# 3 35.7453 59.6080 160.0221 0.0000 21.2659 0.0000
# 4 0.0000 0.0000 0.0000 32.8184 0.0000 -0.8918
# 5 8.1235 5.3529 21.2659 0.0000 21.7598 0.0000
# 6 0.0000 0.0000 0.0000 -0.8918 0.0000 2.4582
#
#
#
# Elastic Compliance Matrix: (Units=1/GPa)
#
#
# Indices 1 2 3 4 5 6 
#
# 1 0.029750 0.006995 -0.008673 0.000000 -0.004351 0.000000
# 2 0.006995 0.011646 -0.005945 0.000000 0.000334 0.000000
# 3 -0.008673 -0.005945 0.011236 0.000000 -0.006280 0.000000
# 4 0.000000 0.000000 0.000000 0.030774 0.000000 0.011165
# 5 -0.004351 0.000334 -0.006280 0.000000 0.053636 0.000000
# 6 0.000000 0.000000 0.000000 0.011165 0.000000 0.410855
#
#
# Mechanical properties :
#
#
# Convention : Reuss Voigt Hill
#
# Bulk Modulus (GPa) = 26.74790 55.52099 41.13445
# Shear Modulus (GPa) = 8.68652 27.78001 18.23326
#
# Velocity S-wave (km/s) = 1.95941 3.50403 2.83879
# Velocity P-wave (km/s) = 4.11596 6.39611 5.37826
#
# Compressibility (1/GPa) = 0.03738611
#
# Stress axis : x y z
#
# Youngs Moduli (GPa) = 33.61382 85.86550 89.00255
#
# Poissons Ratio (x) = -0.60066 0.77191
# Poissons Ratio (y) = -0.23514 0.52913
# Poissons Ratio (z) = 0.29153 0.51048
#
# Static dielectric constant tensor:
#      x y z
#    x 1.877890 0.000000 0.027120 
#    y 0.000000 1.858600 0.000000 
#    z 0.027120 0.000000 1.955430 
# 
# From -- ./inp_files/3918.got.cif
#   From: 2010.05.17/outbox.cif.g08.bks.cpg/sg5_2_cif.got.tgz:3918.got - 2010.06.03 18:56:24.
