data_PCOD9122460
_publ_section_title
;
Structure prediction by ZEFSAII (Michael W. Deem and Ramdas Pophale) SiO2 
 PCOD9122460
Probable space group: C 2
;
_chemical_formula_sum "Si O2"
_cell_formula_units_Z 32
_cell_length_a 11.950478
_cell_length_b 20.338544
_cell_length_c 9.162477
_cell_angle_alpha 90.000000
_cell_angle_beta 53.556075
_cell_angle_gamma 90.000000
_cell_volume 1791.475810
_symmetry_space_group_name_H-M "C 2"
_symmetry_group_IT_number 5
_symmetry_cell_setting 'monoclinic'
loop_
_space_group_symop_operation_xyz
x,y,z
-x,y,-z
1/2+x,1/2+y,z
1/2-x,1/2+y,-z
loop_
_atom_site_type_symbol
_atom_site_label
_atom_site_fract_x
_atom_site_fract_y
_atom_site_fract_z
Si Si1 0.149714 0.410830 0.461507
Si Si2 0.846839 0.873770 0.050031
Si Si3 0.370473 0.798982 0.295544
Si Si4 0.333423 0.644315 0.803773
Si Si5 0.139647 0.017953 0.062924
Si Si6 0.188454 0.042670 0.692705
Si Si7 0.193864 0.269010 0.987126
Si Si8 0.831736 0.166681 0.478954
O O1 0.245526 0.375511 0.266996
O O2 0.152758 0.368360 0.607059
O O3 0.212565 0.483409 0.432294
O O4 0.000000 0.414160 0.500000
O O5 0.807663 0.813037 0.979679
O O6 0.000000 0.874488 0.000000
O O7 0.823917 0.941313 0.976135
O O8 0.308897 0.784694 0.182801
O O9 0.311229 0.740322 0.440329
O O10 0.537761 0.789889 0.157341
O O11 0.300698 0.568711 0.866353
O O12 0.279864 0.660986 0.684469
O O13 0.501120 0.653521 0.660073
O O14 0.289941 0.694423 0.966258
O O15 0.972536 0.022555 0.212156
O O16 0.185785 0.047094 0.870199
O O17 0.225497 0.110142 0.583344
#
# Coordination Sequence:
#
# PCOD9122460 Si02
#       8
#     4   4   4   4   4   4   4   4
#     4  11  20  34  57  82 112 148 188 227 273 332
#     4  11  20  36  57  82 115 151 183 224 278 336
#     4  10  20  33  54  83 111 145 186 235 274 324
#     4   9  17  29  52  79 105 139 186 231 272 321
#     4   9  16  31  51  76 106 142 179 222 271 327
#     4   9  17  31  50  76 106 141 179 222 277 320
#     4  10  20  34  53  82 112 146 187 230 280 325
#     4   9  17  29  50  79 109 137 181 237 273 318
#
# _framework density 17.862369000000001
#
# number of rings (size 3 to 8) (size 9 to 14) (size 15 to 20)
#    0.000    2.250    3.750    1.500    1.750    4.000 
#    0.000    0.625    0.000    9.000    0.000    0.000 
#    0.000    0.000    0.000    0.000    0.000    0.000 
#
# Total GULP energy -89106.462631 kJ/mol
# GULP energy per Si atom -5569.153914 kJ/mol
# Density = 1.782171 g / cm^3
# Si number density = 17.862369 Si / 1000 Ang^3
#
#
#
# Elastic Constant Matrix: (Units=GPa)
#
#
# Indices 1 2 3 4 5 6 
#
# 1 50.9092 44.3313 30.7016 0.0000 11.3470 0.0000
# 2 44.3313 101.0284 37.0427 0.0000 14.1866 0.0000
# 3 30.7016 37.0427 61.0991 0.0000 8.2043 0.0000
# 4 0.0000 0.0000 0.0000 29.2951 0.0000 11.2485
# 5 11.3470 14.1866 8.2043 0.0000 13.8298 0.0000
# 6 0.0000 0.0000 0.0000 11.2485 0.0000 22.9371
#
#
#
# Elastic Compliance Matrix: (Units=1/GPa)
#
#
# Indices 1 2 3 4 5 6 
#
# 1 0.039150 -0.011156 -0.011009 0.000000 -0.014147 0.000000
# 2 -0.011156 0.017087 -0.003943 0.000000 -0.006035 0.000000
# 3 -0.011009 -0.003943 0.024484 0.000000 -0.001447 0.000000
# 4 0.000000 0.000000 0.000000 0.042054 0.000000 -0.020624
# 5 -0.014147 -0.006035 -0.001447 0.000000 0.090964 0.000000
# 6 0.000000 0.000000 0.000000 -0.020624 0.000000 0.053712
#
#
# Mechanical properties :
#
#
# Convention : Reuss Voigt Hill
#
# Bulk Modulus (GPa) = 35.08298 48.57644 41.82971
# Shear Modulus (GPa) = 15.18984 19.94313 17.56649
#
# Velocity S-wave (km/s) = 2.91929 3.34501 3.13938
# Velocity P-wave (km/s) = 5.57193 6.49405 6.05058
#
# Compressibility (1/GPa) = 0.02850385
#
# Stress axis : x y z
#
# Youngs Moduli (GPa) = 25.54304 58.52552 40.84343
#
# Poissons Ratio (x) = 0.65289 0.44966
# Poissons Ratio (y) = 0.28495 0.16105
# Poissons Ratio (z) = 0.28121 0.23077
#
# Static dielectric constant tensor:
#      x y z
#    x 1.621200 0.000000 0.014880 
#    y 0.000000 1.612830 0.000000 
#    z 0.014880 0.000000 1.611000 
# 
# From -- ./inp_files/21951.got.cif
#   From: 2010.05.17/outbox.cif.g08.bks.cpg/sg5_11_cif.got.tgz:21951.got - 2010.06.03 18:56:24.
