data_PCOD9122400
_publ_section_title
;
Structure prediction by ZEFSAII (Michael W. Deem and Ramdas Pophale) SiO2 
 PCOD9122400
Probable space group: C 2
;
_chemical_formula_sum "Si O2"
_cell_formula_units_Z 28
_cell_length_a 17.435166
_cell_length_b 7.292150
_cell_length_c 25.356995
_cell_angle_alpha 90.000000
_cell_angle_beta 21.013222
_cell_angle_gamma 90.000000
_cell_volume 1156.031377
_symmetry_space_group_name_H-M "C 2"
_symmetry_group_IT_number 5
_symmetry_cell_setting 'monoclinic'
loop_
_space_group_symop_operation_xyz
x,y,z
-x,y,-z
1/2+x,1/2+y,z
1/2-x,1/2+y,-z
loop_
_atom_site_type_symbol
_atom_site_label
_atom_site_fract_x
_atom_site_fract_y
_atom_site_fract_z
Si Si1 0.273534 0.297110 0.538068
Si Si2 0.313086 0.747060 0.041275
Si Si3 0.234690 0.672416 0.209088
Si Si4 0.594639 0.698813 0.539775
Si Si5 0.891225 0.900138 0.930313
Si Si6 0.282642 0.029000 0.615652
Si Si7 0.622441 0.242909 0.869748
O O1 0.510480 0.209586 0.380289
O O2 0.287220 0.507465 0.545502
O O3 0.167944 0.280311 0.548833
O O4 0.167738 0.169174 0.649790
O O5 0.565046 0.769445 0.891205
O O6 0.274693 0.543855 0.042522
O O7 0.210851 0.749886 0.164845
O O8 0.225580 0.864542 0.049357
O O9 0.305110 0.456627 0.163432
O O10 0.343996 0.656288 0.708566
O O11 0.649121 0.845726 0.459854
O O12 0.956614 0.738414 0.927793
O O13 0.120971 0.981473 0.765667
O O14 0.500000 0.110418 0.500000
O O15 0.500000 0.172216 0.000000
#
# Coordination Sequence:
#
# PCOD9122400 Si02
#       7
#     4   4   4   4   4   4   4
#     4  12  25  45  73 104 134 186 240 278 346 417
#     4  10  22  40  66  97 136 178 223 282 344 404
#     4  10  19  45  70  92 134 188 224 278 346 412
#     4  12  25  45  73 104 138 185 233 287 343 416
#     4  11  23  42  66 103 137 177 226 290 348 402
#     4  12  24  47  72 100 146 182 228 297 344 403
#     4  11  21  45  73  95 136 185 227 281 352 416
#
# _framework density 24.220796
#
# number of rings (size 3 to 8) (size 9 to 14) (size 15 to 20)
#    0.000    0.857    7.143    1.714    0.000    2.857 
#    7.714    0.000    0.000    0.000    0.000    0.000 
#    0.000    0.000    0.000    0.000    0.000    0.000 
#
# Total GULP energy -78372.087889 kJ/mol
# GULP energy per Si atom -5598.006278 kJ/mol
# Density = 2.416567 g / cm^3
# Si number density = 24.220796 Si / 1000 Ang^3
#
#
#
# Elastic Constant Matrix: (Units=GPa)
#
#
# Indices 1 2 3 4 5 6 
#
# 1 146.3457 15.3127 22.5724 -0.0033 21.2897 0.0037
# 2 15.3127 69.1822 8.5309 0.0149 4.5356 0.0132
# 3 22.5724 8.5309 44.3147 0.0116 14.1424 0.0110
# 4 -0.0033 0.0149 0.0116 20.8363 0.0028 -0.6133
# 5 21.2897 4.5356 14.1424 0.0028 40.5604 0.0018
# 6 0.0037 0.0132 0.0110 -0.6133 0.0018 28.3002
#
#
#
# Elastic Compliance Matrix: (Units=1/GPa)
#
#
# Indices 1 2 3 4 5 6 
#
# 1 0.007826 -0.001190 -0.002800 0.000004 -0.002998 0.000001
# 2 -0.001190 0.015007 -0.002190 -0.000010 -0.000290 -0.000006
# 3 -0.002800 -0.002190 0.026855 -0.000013 -0.007649 -0.000009
# 4 0.000004 -0.000010 -0.000013 0.048024 0.000000 0.001041
# 5 -0.002998 -0.000290 -0.007649 0.000000 0.028928 0.000002
# 6 0.000001 -0.000006 -0.000009 0.001041 0.000002 0.035358
#
#
# Mechanical properties :
#
#
# Convention : Reuss Voigt Hill
#
# Bulk Modulus (GPa) = 26.79073 39.18606 32.98840
# Shear Modulus (GPa) = 26.76647 32.16781 29.46714
#
# Velocity S-wave (km/s) = 3.32792 3.64827 3.49177
# Velocity P-wave (km/s) = 5.08446 5.82755 5.46864
#
# Compressibility (1/GPa) = 0.03732634
#
# Stress axis : x y z
#
# Youngs Moduli (GPa) = 127.78335 66.63503 37.23712
#
# Poissons Ratio (x) = 0.07931 0.10427
# Poissons Ratio (y) = 0.15210 0.08156
# Poissons Ratio (z) = 0.35782 0.14595
#
# Static dielectric constant tensor:
#      x y z
#    x 1.905250 0.000000 -0.043400 
#    y 0.000000 1.991240 0.000000 
#    z -0.043400 0.000000 1.884600 
# 
# From -- ./inp_files/65966.got.cif
#   From: 2010.05.17/outbox.cif.g08.bks.cpg/sg5_33_cif.got.tgz:65966.got - 2010.06.03 18:56:24.
