data_PCOD9122557
_publ_section_title
;
Structure prediction by ZEFSAII (Michael W. Deem and Ramdas Pophale) SiO2 
 PCOD9122557
Probable space group: C 2
;
_chemical_formula_sum "Si O2"
_cell_formula_units_Z 24
_cell_length_a 13.423083
_cell_length_b 8.235107
_cell_length_c 8.646088
_cell_angle_alpha 90.000000
_cell_angle_beta 91.235169
_cell_angle_gamma 90.000000
_cell_volume 955.521029
_symmetry_space_group_name_H-M "C 2"
_symmetry_group_IT_number 5
_symmetry_cell_setting 'monoclinic'
loop_
_space_group_symop_operation_xyz
x,y,z
-x,y,-z
1/2+x,1/2+y,z
1/2-x,1/2+y,-z
loop_
_atom_site_type_symbol
_atom_site_label
_atom_site_fract_x
_atom_site_fract_y
_atom_site_fract_z
Si Si1 0.360556 0.487310 0.032934
Si Si2 0.822571 0.423753 0.400728
Si Si3 0.605716 0.408273 0.320362
Si Si4 0.812608 0.657319 0.110773
Si Si5 0.000000 0.464434 0.000000
Si Si6 0.015695 0.201819 0.744299
Si Si7 0.500000 0.144858 0.500000
O O1 0.320258 0.345790 0.139418
O O2 0.446445 0.570923 0.130711
O O3 0.374654 0.403760 0.864584
O O4 0.281993 0.627859 0.999277
O O5 0.706903 0.375271 0.424460
O O6 0.802709 0.552954 0.263503
O O7 0.889513 0.273407 0.342990
O O8 0.903849 0.525134 0.502502
O O9 0.565447 0.592898 0.347929
O O10 0.523461 0.272725 0.362630
O O11 0.907694 0.578221 0.033443
O O12 0.977754 0.350700 0.849858
#
# Coordination Sequence:
#
# PCOD9122557 Si02
#       7
#     4   4   4   4   2   4   2
#     4  11  21  40  66 102 140 170 213 283 348 421
#     4  10  26  46  66 100 136 176 234 286 330 405
#     4  11  25  44  70  96 135 183 226 281 337 399
#     4  10  22  36  64 100 135 170 216 275 356 403
#     4  10  20  34  58 100 134 166 206 266 334 418
#     4  11  22  42  69 101 136 169 218 280 356 406
#     4  12  28  48  66  96 134 188 246 270 326 396
#
# _framework density 25.117187999999999
#
# number of rings (size 3 to 8) (size 9 to 14) (size 15 to 20)
#    0.000    1.333    1.667    4.000    9.333    3.333 
#    0.000    1.667    0.000    0.000    0.000    0.000 
#    0.000    0.000    0.000    0.000    0.000    0.000 
#
# Total GULP energy -67015.416451 kJ/mol
# GULP energy per Si atom -5584.618038 kJ/mol
# Density = 2.506002 g / cm^3
# Si number density = 25.117188 Si / 1000 Ang^3
#
#
#
# Elastic Constant Matrix: (Units=GPa)
#
#
# Indices 1 2 3 4 5 6 
#
# 1 74.4089 9.4952 6.2813 0.0000 16.0734 0.0000
# 2 9.4952 97.1706 11.7829 0.0000 4.0757 0.0000
# 3 6.2813 11.7829 51.1118 0.0000 7.9501 0.0000
# 4 0.0000 0.0000 0.0000 33.0835 0.0000 4.5861
# 5 16.0734 4.0757 7.9501 0.0000 25.7879 0.0000
# 6 0.0000 0.0000 0.0000 4.5861 0.0000 37.1105
#
#
#
# Elastic Compliance Matrix: (Units=1/GPa)
#
#
# Indices 1 2 3 4 5 6 
#
# 1 0.015654 -0.001107 -0.000187 0.000000 -0.009524 0.000000
# 2 -0.001107 0.010689 -0.002282 0.000000 -0.000295 0.000000
# 3 -0.000187 -0.002282 0.021049 0.000000 -0.006012 0.000000
# 4 0.000000 0.000000 0.000000 0.030753 0.000000 -0.003800
# 5 -0.009524 -0.000295 -0.006012 0.000000 0.046614 0.000000
# 6 0.000000 0.000000 0.000000 -0.003800 0.000000 0.027416
#
#
# Mechanical properties :
#
#
# Convention : Reuss Voigt Hill
#
# Bulk Modulus (GPa) = 24.85188 30.86780 27.85984
# Shear Modulus (GPa) = 28.94504 32.20514 30.57509
#
# Velocity S-wave (km/s) = 3.39838 3.58466 3.49276
# Velocity P-wave (km/s) = 5.03136 5.42672 5.23277
#
# Compressibility (1/GPa) = 0.04023840
#
# Stress axis : x y z
#
# Youngs Moduli (GPa) = 63.88257 93.55841 47.50788
#
# Poissons Ratio (x) = 0.10361 0.00888
# Poissons Ratio (y) = 0.07075 0.10841
# Poissons Ratio (z) = 0.01195 0.21350
#
# Static dielectric constant tensor:
#      x y z
#    x 2.066690 0.000000 -0.074060 
#    y 0.000000 1.943710 0.000000 
#    z -0.074060 0.000000 1.993780 
# 
# From -- ./inp_files/22877.got.cif
#   From: 2010.05.17/outbox.cif.g08.bks.cpg/sg5_12_cif.got.tgz:22877.got - 2010.06.03 18:56:24.
