data_PCOD9122815
_publ_section_title
;
Structure prediction by ZEFSAII (Michael W. Deem and Ramdas Pophale) SiO2 
 PCOD9122815
Probable space group: C 2
;
_chemical_formula_sum "Si O2"
_cell_formula_units_Z 24
_cell_length_a 13.648118
_cell_length_b 7.685901
_cell_length_c 13.631489
_cell_angle_alpha 90.000000
_cell_angle_beta 133.479613
_cell_angle_gamma 90.000000
_cell_volume 1037.575364
_symmetry_space_group_name_H-M "C 2"
_symmetry_group_IT_number 5
_symmetry_cell_setting 'monoclinic'
loop_
_space_group_symop_operation_xyz
x,y,z
-x,y,-z
1/2+x,1/2+y,z
1/2-x,1/2+y,-z
loop_
_atom_site_type_symbol
_atom_site_label
_atom_site_fract_x
_atom_site_fract_y
_atom_site_fract_z
Si Si1 0.155577 0.561160 0.083088
Si Si2 0.404008 0.026079 0.314266
Si Si3 0.071093 0.083421 0.328232
Si Si4 0.846556 0.316866 0.093569
Si Si5 0.828023 0.374357 0.452885
Si Si6 0.379602 0.410363 0.340500
O O1 0.228647 0.706095 0.065473
O O2 0.241583 0.519188 0.241205
O O3 0.167191 0.386076 0.025201
O O4 0.000000 0.600495 0.000000
O O5 0.362229 0.871253 0.360570
O O6 0.565892 0.017903 0.431861
O O7 0.350798 0.205825 0.320067
O O8 0.359566 0.982455 0.175154
O O9 0.140378 0.204876 0.460226
O O10 0.181223 0.954187 0.361921
O O11 0.987813 0.211911 0.200542
O O12 0.954115 0.964158 0.292333
O O13 0.500000 0.445383 0.500000
#
# Coordination Sequence:
#
# PCOD9122815 Si02
#       6
#     4   4   4   4   4   4
#     4  11  26  47  74 100 141 190 234 290 360 417
#     4  10  21  39  64  93 142 172 230 287 347 412
#     4  10  23  37  64  97 140 178 232 286 345 418
#     4  10  24  48  64 102 138 179 242 293 341 431
#     4  10  20  36  59 100 135 182 222 284 351 409
#     4  11  23  41  70  99 134 178 228 293 346 414
#
# _framework density 23.130849000000001
#
# number of rings (size 3 to 8) (size 9 to 14) (size 15 to 20)
#    0.000    1.667    1.667    2.000    9.333    1.333 
#    9.000    0.833    0.000    0.000    0.000    0.000 
#    0.000    0.000    0.000    0.000    0.000    0.000 
#
# Total GULP energy -66991.938709 kJ/mol
# GULP energy per Si atom -5582.661559 kJ/mol
# Density = 2.307820 g / cm^3
# Si number density = 23.130849 Si / 1000 Ang^3
#
#
#
# Elastic Constant Matrix: (Units=GPa)
#
#
# Indices 1 2 3 4 5 6 
#
# 1 54.7240 2.4192 23.7093 0.0000 31.5300 0.0000
# 2 2.4192 64.9926 23.6215 0.0000 6.9402 0.0000
# 3 23.7093 23.6215 112.5699 0.0000 7.0242 0.0000
# 4 0.0000 0.0000 0.0000 23.1396 0.0000 2.0301
# 5 31.5300 6.9402 7.0242 0.0000 42.0485 0.0000
# 6 0.0000 0.0000 0.0000 2.0301 0.0000 27.6129
#
#
#
# Elastic Compliance Matrix: (Units=1/GPa)
#
#
# Indices 1 2 3 4 5 6 
#
# 1 0.036610 0.004014 -0.006870 0.000000 -0.026967 0.000000
# 2 0.004014 0.017298 -0.004153 0.000000 -0.005171 0.000000
# 3 -0.006870 -0.004153 0.010952 0.000000 0.004008 0.000000
# 4 0.000000 0.000000 0.000000 0.043497 0.000000 -0.003198
# 5 -0.026967 -0.005171 0.004008 0.000000 0.044187 0.000000
# 6 0.000000 0.000000 0.000000 -0.003198 0.000000 0.036450
#
#
# Mechanical properties :
#
#
# Convention : Reuss Voigt Hill
#
# Bulk Modulus (GPa) = 19.66882 36.86518 28.26700
# Shear Modulus (GPa) = 22.73154 30.72931 26.73043
#
# Velocity S-wave (km/s) = 3.13826 3.64881 3.40313
# Velocity P-wave (km/s) = 4.65332 5.80724 5.26200
#
# Compressibility (1/GPa) = 0.05084190
#
# Stress axis : x y z
#
# Youngs Moduli (GPa) = 27.31511 57.80872 91.31015
#
# Poissons Ratio (x) = -0.23204 0.62733
# Poissons Ratio (y) = -0.10964 0.37917
# Poissons Ratio (z) = 0.18766 0.24006
#
# Static dielectric constant tensor:
#      x y z
#    x 1.847180 0.000000 -0.011500 
#    y 0.000000 1.880860 0.000000 
#    z -0.011500 0.000000 1.955090 
# 
# From -- ./inp_files/54253.got.cif
#   From: 2010.05.17/outbox.cif.g08.bks.cpg/sg5_28_cif.got.tgz:54253.got - 2010.06.03 18:56:24.
