data_PCOD9122488
_publ_section_title
;
Structure prediction by ZEFSAII (Michael W. Deem and Ramdas Pophale) SiO2 
 PCOD9122488
Probable space group: C 2
;
_chemical_formula_sum "Si O2"
_cell_formula_units_Z 24
_cell_length_a 10.896283
_cell_length_b 18.383179
_cell_length_c 10.791914
_cell_angle_alpha 90.000000
_cell_angle_beta 31.794489
_cell_angle_gamma 90.000000
_cell_volume 1138.948985
_symmetry_space_group_name_H-M "C 2"
_symmetry_group_IT_number 5
_symmetry_cell_setting 'monoclinic'
loop_
_space_group_symop_operation_xyz
x,y,z
-x,y,-z
1/2+x,1/2+y,z
1/2-x,1/2+y,-z
loop_
_atom_site_type_symbol
_atom_site_label
_atom_site_fract_x
_atom_site_fract_y
_atom_site_fract_z
Si Si1 0.500000 0.757061 0.000000
Si Si2 0.813617 0.447022 0.560273
Si Si3 0.500000 0.346132 0.000000
Si Si4 0.000000 0.681227 0.500000
Si Si5 0.152765 0.586739 0.601991
Si Si6 0.652785 0.851539 0.101976
Si Si7 0.686396 0.991256 0.939717
Si Si8 0.000000 0.092148 0.500000
O O1 0.750006 0.719145 0.749997
O O2 0.438086 0.801638 0.929115
O O3 0.716638 0.517742 0.574204
O O4 0.000000 0.477354 0.500000
O O5 0.944725 0.392732 0.353157
O O6 0.651459 0.398115 0.783448
O O7 0.317407 0.310463 0.060740
O O8 0.938077 0.636645 0.429127
O O9 0.317384 0.627813 0.560764
O O10 0.944687 0.545543 0.853174
O O11 0.783379 0.920534 0.925775
O O12 0.500000 0.960932 0.000000
O O13 0.848548 0.040165 0.716549
#
# Coordination Sequence:
#
# PCOD9122488 Si02
#       8
#     2   4   2   2   4   4   4   2
#     4  12  30  49  70  94 137 194 232 268 322 406
#     4   9  18  35  63 100 133 166 209 288 352 393
#     4  10  20  33  66 100 129 170 208 286 356 396
#     4  12  30  49  70  94 137 194 232 268 322 406
#     4  10  21  40  62  96 136 169 229 272 342 401
#     4  10  21  40  62  96 136 169 229 272 342 401
#     4   9  18  35  63 100 133 166 209 288 352 393
#     4  10  20  33  66 100 129 170 208 286 356 396
#
# _framework density 21.072058999999999
#
# number of rings (size 3 to 8) (size 9 to 14) (size 15 to 20)
#    0.000    2.000    1.667    1.000    4.667    1.333 
#    0.000    1.667    0.000    0.000    0.000    0.000 
#    0.000    0.000    0.000    0.000    0.000    0.000 
#
# Total GULP energy -66812.875043 kJ/mol
# GULP energy per Si atom -5567.739587 kJ/mol
# Density = 2.102410 g / cm^3
# Si number density = 21.072059 Si / 1000 Ang^3
#
#
#
# Elastic Constant Matrix: (Units=GPa)
#
#
# Indices 1 2 3 4 5 6 
#
# 1 229.5477 61.8642 37.0674 -0.0001 -1.9687 -0.0009
# 2 61.8642 48.4983 40.4771 0.0005 2.1868 0.0006
# 3 37.0674 40.4771 91.3050 0.0015 18.6331 -0.0031
# 4 -0.0001 0.0005 0.0015 -1.1143 0.0004 1.9537
# 5 -1.9687 2.1868 18.6331 0.0004 34.8232 0.0020
# 6 -0.0009 0.0006 -0.0031 1.9537 0.0020 40.2017
#
#
#
# Elastic Compliance Matrix: (Units=1/GPa)
#
#
# Indices 1 2 3 4 5 6 
#
# 1 0.006806 -0.010097 0.001690 -0.000002 0.000115 0.000000
# 2 -0.010097 0.049033 -0.018964 -0.000005 0.006497 -0.000002
# 3 0.001690 -0.018964 0.020668 0.000018 -0.009772 0.000002
# 4 -0.000002 -0.000005 0.000018 -0.826952 -0.000003 0.040187
# 5 0.000115 0.006497 -0.009772 -0.000003 0.033544 -0.000002
# 6 0.000000 -0.000002 0.000002 0.040187 -0.000002 0.022922
#
#
# Mechanical properties :
#
#
# Convention : Reuss Voigt Hill
#
# Bulk Modulus (GPa) = 45.94680 72.01871 58.98276
# Shear Modulus (GPa) = -7.91161 30.11161 11.10000
#
# Velocity S-wave (km/s) = -1.93977 3.78429 2.29762
# Velocity P-wave (km/s) = 4.10305 7.30384 5.92372
#
# Compressibility (1/GPa) = 0.02176430
#
# Stress axis : x y z
#
# Youngs Moduli (GPa) = 146.93765 20.39437 48.38445
#
# Poissons Ratio (x) = 0.20591 -0.08176
# Poissons Ratio (y) = 1.48357 0.91757
# Poissons Ratio (z) = -0.24828 0.38676
#
# Static dielectric constant tensor:
#      x y z
#    x 1.865160 0.000000 -0.071730 
#    y 0.000000 1.721050 0.000000 
#    z -0.071730 0.000000 1.828780 
# 
# From -- ./inp_files/40431.got.cif
#   From: 2010.05.17/outbox.cif.g08.bks.cpg/sg5_21_cif.got.tgz:40431.got - 2010.06.03 18:56:24.
