data_PCOD9122916
_publ_section_title
;
Structure prediction by ZEFSAII (Michael W. Deem and Ramdas Pophale) SiO2 
 PCOD9122916
Probable space group: C 2
;
_chemical_formula_sum "Si O2"
_cell_formula_units_Z 32
_cell_length_a 13.844119
_cell_length_b 7.118878
_cell_length_c 14.645278
_cell_angle_alpha 90.000000
_cell_angle_beta 84.669146
_cell_angle_gamma 90.000000
_cell_volume 1437.116629
_symmetry_space_group_name_H-M "C 2"
_symmetry_group_IT_number 5
_symmetry_cell_setting 'monoclinic'
loop_
_space_group_symop_operation_xyz
x,y,z
-x,y,-z
1/2+x,1/2+y,z
1/2-x,1/2+y,-z
loop_
_atom_site_type_symbol
_atom_site_label
_atom_site_fract_x
_atom_site_fract_y
_atom_site_fract_z
Si Si1 0.051847 0.155930 0.906664
Si Si2 0.668774 0.986140 0.918595
Si Si3 0.811419 0.308516 0.692244
Si Si4 0.519933 0.667229 0.711835
Si Si5 0.265648 0.401377 0.104016
Si Si6 0.598436 0.456623 0.544849
Si Si7 0.797338 0.436531 0.285635
Si Si8 0.213455 0.656713 0.437594
O O1 0.067299 0.379613 0.914191
O O2 0.000406 0.109976 0.817469
O O3 0.158351 0.068556 0.893400
O O4 0.000000 0.081451 0.000000
O O5 0.725978 0.924603 0.820717
O O6 0.673160 0.209506 0.911990
O O7 0.707917 0.926298 0.014358
O O8 0.795816 0.388742 0.796994
O O9 0.809679 0.468199 0.615702
O O10 0.917189 0.216450 0.678648
O O11 0.727194 0.151971 0.689099
O O12 0.572572 0.500524 0.652341
O O13 0.595488 0.844485 0.708169
O O14 0.500000 0.498785 0.500000
O O15 0.686794 0.602346 0.519474
O O16 0.635358 0.251787 0.510731
O O17 0.732237 0.310184 0.357275
#
# Coordination Sequence:
#
# PCOD9122916 Si02
#       8
#     4   4   4   4   4   4   4   4
#     4  11  23  42  63 102 147 183 236 296 347 423
#     4  10  20  36  63  95 133 181 231 284 342 415
#     4  11  23  44  75 102 139 197 233 292 375 418
#     4  10  23  45  74 103 145 191 237 300 359 433
#     4  11  21  37  67 101 137 188 236 287 354 423
#     4  11  26  49  71 106 143 183 243 300 363 438
#     4   9  22  43  64  99 142 180 238 293 348 428
#     4  11  26  46  73 103 140 189 237 305 363 434
#
# _framework density 22.266808000000001
#
# number of rings (size 3 to 8) (size 9 to 14) (size 15 to 20)
#    0.000    1.500    1.250    3.750    5.250    1.500 
#    2.250    6.250    0.000    0.000    0.000    0.000 
#    0.000    0.000    0.000    0.000    0.000    0.000 
#
# Total GULP energy -89314.557559 kJ/mol
# GULP energy per Si atom -5582.159847 kJ/mol
# Density = 2.221613 g / cm^3
# Si number density = 22.266808 Si / 1000 Ang^3
#
#
#
# Elastic Constant Matrix: (Units=GPa)
#
#
# Indices 1 2 3 4 5 6 
#
# 1 75.3318 26.4264 52.0067 0.0000 -5.7597 0.0000
# 2 26.4264 109.0282 73.6978 0.0000 -12.3286 0.0000
# 3 52.0067 73.6978 146.6428 0.0000 -0.5099 0.0000
# 4 0.0000 0.0000 0.0000 41.5862 0.0000 2.4819
# 5 -5.7597 -12.3286 -0.5099 0.0000 34.4569 0.0000
# 6 0.0000 0.0000 0.0000 2.4819 0.0000 18.8785
#
#
#
# Elastic Compliance Matrix: (Units=1/GPa)
#
#
# Indices 1 2 3 4 5 6 
#
# 1 0.017875 0.000439 -0.006550 0.000000 0.003048 0.000000
# 2 0.000439 0.014769 -0.007560 0.000000 0.005246 0.000000
# 3 -0.006550 -0.007560 0.012929 0.000000 -0.003608 0.000000
# 4 0.000000 0.000000 0.000000 0.024237 0.000000 -0.003186
# 5 0.003048 0.005246 -0.003608 0.000000 0.031355 0.000000
# 6 0.000000 0.000000 0.000000 -0.003186 0.000000 0.053389
#
#
# Mechanical properties :
#
#
# Convention : Reuss Voigt Hill
#
# Bulk Modulus (GPa) = 54.84706 70.58494 62.71600
# Shear Modulus (GPa) = 26.59981 30.90910 28.75445
#
# Velocity S-wave (km/s) = 3.46004 3.72980 3.59745
# Velocity P-wave (km/s) = 6.37556 7.09344 6.74406
#
# Compressibility (1/GPa) = 0.01823252
#
# Stress axis : x y z
#
# Youngs Moduli (GPa) = 55.94344 67.71069 77.34636
#
# Poissons Ratio (x) = -0.02974 0.50659
# Poissons Ratio (y) = -0.02457 0.58472
# Poissons Ratio (z) = 0.36641 0.51188
#
# Static dielectric constant tensor:
#      x y z
#    x 1.811520 0.000000 -0.001750 
#    y 0.000000 1.824670 0.000000 
#    z -0.001750 0.000000 1.888610 
# 
# From -- ./inp_files/41953.got.cif
#   From: 2010.05.17/outbox.cif.g08.bks.cpg/sg5_21_cif.got.tgz:41953.got - 2010.06.03 18:56:24.
