data_PCOD9122031
_publ_section_title
;
Structure prediction by ZEFSAII (Michael W. Deem and Ramdas Pophale) SiO2 
 PCOD9122031
Probable space group: C 2
;
_chemical_formula_sum "Si O2"
_cell_formula_units_Z 26
_cell_length_a 6.398488
_cell_length_b 12.676050
_cell_length_c 16.498927
_cell_angle_alpha 90.000000
_cell_angle_beta 53.917353
_cell_angle_gamma 90.000000
_cell_volume 1081.480799
_symmetry_space_group_name_H-M "C 2"
_symmetry_group_IT_number 5
_symmetry_cell_setting 'monoclinic'
loop_
_space_group_symop_operation_xyz
x,y,z
-x,y,-z
1/2+x,1/2+y,z
1/2-x,1/2+y,-z
loop_
_atom_site_type_symbol
_atom_site_label
_atom_site_fract_x
_atom_site_fract_y
_atom_site_fract_z
Si Si1 0.976034 0.915280 0.265236
Si Si2 0.500000 0.382055 0.000000
Si Si3 0.807789 0.739628 0.187996
Si Si4 0.271765 0.092830 0.476431
Si Si5 0.277744 0.642222 0.321495
Si Si6 0.226475 0.862718 0.518201
Si Si7 0.009529 0.516342 0.902723
O O1 0.950430 0.901606 0.366916
O O2 0.844649 0.813968 0.256185
O O3 0.266905 0.931772 0.167736
O O4 0.850124 0.027951 0.269349
O O5 0.454335 0.304682 0.085533
O O6 0.256471 0.458900 0.053610
O O7 0.500447 0.721507 0.244529
O O8 0.927315 0.621925 0.162806
O O9 0.474654 0.163015 0.379675
O O10 0.228707 0.128679 0.578940
O O11 0.000000 0.094434 0.500000
O O12 0.353410 0.970491 0.453903
O O13 0.500000 0.815287 0.500000
O O14 0.000000 0.830621 0.500000
O O15 0.000000 0.546231 0.000000
#
# Coordination Sequence:
#
# PCOD9122031 Si02
#       7
#     4   2   4   4   4   4   4
#     4  10  21  43  70 107 148 193 253 316 378 461
#     4  12  26  46  76 102 140 200 238 316 394 456
#     4  11  24  45  73 107 146 188 257 309 382 465
#     4   9  16  36  69  99 150 200 243 302 378 442
#     4   9  19  40  67 100 144 197 239 313 367 450
#     4  10  19  37  71 110 151 206 255 306 383 459
#     4  11  24  47  71 104 147 189 244 321 385 456
#
# _framework density 24.041112999999999
#
# number of rings (size 3 to 8) (size 9 to 14) (size 15 to 20)
#    0.000    1.846    5.385    0.000    0.000    2.462 
#    8.308    0.769   10.154    0.923    0.000    0.000 
#    0.000    0.000    0.000    0.000    0.000    0.000 
#
# Total GULP energy -72510.483439 kJ/mol
# GULP energy per Si atom -5577.729495 kJ/mol
# Density = 2.398639 g / cm^3
# Si number density = 24.041113 Si / 1000 Ang^3
#
#
#
# Elastic Constant Matrix: (Units=GPa)
#
#
# Indices 1 2 3 4 5 6 
#
# 1 113.7224 40.8168 32.2986 -0.0004 -35.5416 0.0000
# 2 40.8168 114.4053 7.4186 -0.0002 -0.5501 -0.0001
# 3 32.2986 7.4186 103.6337 -0.0001 -25.3128 0.0002
# 4 -0.0004 -0.0002 -0.0001 41.6711 0.0002 20.5377
# 5 -35.5416 -0.5501 -25.3128 0.0002 51.9460 -0.0001
# 6 0.0000 -0.0001 0.0002 20.5377 -0.0001 27.5529
#
#
#
# Elastic Compliance Matrix: (Units=1/GPa)
#
#
# Indices 1 2 3 4 5 6 
#
# 1 0.013624 -0.004699 -0.001867 0.000000 0.008362 0.000000
# 2 -0.004699 0.010405 -0.000044 0.000000 -0.003126 0.000000
# 3 -0.001867 -0.000044 0.011263 0.000000 0.004210 0.000000
# 4 0.000000 0.000000 0.000000 0.037933 0.000000 -0.028275
# 5 0.008362 -0.003126 0.004210 0.000000 0.026990 0.000000
# 6 0.000000 0.000000 0.000000 -0.028275 0.000000 0.057370
#
#
# Mechanical properties :
#
#
# Convention : Reuss Voigt Hill
#
# Bulk Modulus (GPa) = 45.30857 54.75883 50.03370
# Shear Modulus (GPa) = 28.06435 40.98250 34.52342
#
# Velocity S-wave (km/s) = 3.42035 4.13326 3.79359
# Velocity P-wave (km/s) = 5.87245 6.75315 6.32814
#
# Compressibility (1/GPa) = 0.02207088
#
# Stress axis : x y z
#
# Youngs Moduli (GPa) = 73.40239 96.10547 88.78782
#
# Poissons Ratio (x) = 0.45162 0.16578
# Poissons Ratio (y) = 0.34494 0.00390
# Poissons Ratio (z) = 0.13706 0.00422
#
# Static dielectric constant tensor:
#      x y z
#    x 2.020090 0.000000 0.028020 
#    y 0.000000 1.987360 0.000000 
#    z 0.028020 0.000000 1.840780 
# 
# From -- ./inp_files/63986.got.cif
#   From: 2010.05.17/outbox.cif.g08.bks.cpg/sg5_32_cif.got.tgz:63986.got - 2010.06.03 18:56:24.
