data_PCOD9122284
_publ_section_title
;
Structure prediction by ZEFSAII (Michael W. Deem and Ramdas Pophale) SiO2 
 PCOD9122284
Probable space group: C 2
;
_chemical_formula_sum "Si O2"
_cell_formula_units_Z 28
_cell_length_a 25.518881
_cell_length_b 8.710672
_cell_length_c 9.745178
_cell_angle_alpha 90.000000
_cell_angle_beta 144.400787
_cell_angle_gamma 90.000000
_cell_volume 1260.983685
_symmetry_space_group_name_H-M "C 2"
_symmetry_group_IT_number 5
_symmetry_cell_setting 'monoclinic'
loop_
_space_group_symop_operation_xyz
x,y,z
-x,y,-z
1/2+x,1/2+y,z
1/2-x,1/2+y,-z
loop_
_atom_site_type_symbol
_atom_site_label
_atom_site_fract_x
_atom_site_fract_y
_atom_site_fract_z
Si Si1 0.881396 0.739230 0.980439
Si Si2 0.309381 0.784571 0.947427
Si Si3 0.705000 0.124949 0.954301
Si Si4 0.978898 0.980068 0.811161
Si Si5 0.342276 0.203869 0.587617
Si Si6 0.939582 0.550725 0.568503
Si Si7 0.487921 0.715221 0.622720
O O1 0.809577 0.738900 0.949036
O O2 0.961826 0.622781 0.197740
O O3 0.840104 0.687177 0.746476
O O4 0.932167 0.900271 0.063058
O O5 0.284617 0.670414 0.020798
O O6 0.247223 0.747853 0.684264
O O7 0.411116 0.758329 0.116887
O O8 0.291764 0.955405 0.971107
O O9 0.617707 0.140871 0.667955
O O10 0.940537 0.099320 0.622989
O O11 0.912288 0.841898 0.705522
O O12 0.000000 0.059442 0.000000
O O13 0.387181 0.062586 0.601398
O O14 0.940847 0.378851 0.515850
O O15 0.500000 0.643359 0.500000
#
# Coordination Sequence:
#
# PCOD9122284 Si02
#       7
#     4   4   4   4   4   4   4
#     4  10  19  42  66  90 116 169 208 247 301 382
#     4  11  25  41  59  94 125 162 202 256 311 367
#     4  11  23  40  65  91 128 161 207 260 311 364
#     4   9  22  40  62  88 123 157 205 248 305 366
#     4   9  22  42  65  87 122 163 207 245 310 378
#     4  10  19  40  66  91 119 157 211 256 301 369
#     4  12  23  39  60  93 124 155 205 261 306 361
#
# _framework density 22.204886999999999
#
# number of rings (size 3 to 8) (size 9 to 14) (size 15 to 20)
#    0.000    1.714    2.857    1.714    4.000    3.429 
#    5.143    0.000    0.000    0.000    0.000    0.000 
#    0.000    0.000    0.000    0.000    0.000    0.000 
#
# Total GULP energy -78217.766854 kJ/mol
# GULP energy per Si atom -5586.983347 kJ/mol
# Density = 2.215435 g / cm^3
# Si number density = 22.204887 Si / 1000 Ang^3
#
#
#
# Elastic Constant Matrix: (Units=GPa)
#
#
# Indices 1 2 3 4 5 6 
#
# 1 59.8160 3.6834 20.4488 0.0000 -23.4527 0.0000
# 2 3.6834 36.4253 -15.4708 0.0000 -12.4614 0.0000
# 3 20.4488 -15.4708 73.9587 0.0000 -13.7650 0.0000
# 4 0.0000 0.0000 0.0000 21.3895 0.0000 -4.8975
# 5 -23.4527 -12.4614 -13.7650 0.0000 39.3277 0.0000
# 6 0.0000 0.0000 0.0000 -4.8975 0.0000 16.6827
#
#
#
# Elastic Compliance Matrix: (Units=1/GPa)
#
#
# Indices 1 2 3 4 5 6 
#
# 1 0.022904 0.000203 -0.003997 0.000000 0.012324 0.000000
# 2 0.000203 0.037332 0.010672 0.000000 0.015685 0.000000
# 3 -0.003997 0.010672 0.018232 0.000000 0.007380 0.000000
# 4 0.000000 0.000000 0.000000 0.050121 0.000000 0.014714
# 5 0.012324 0.015685 0.007380 0.000000 0.040330 0.000000
# 6 0.000000 0.000000 0.000000 0.014714 0.000000 0.064262
#
#
# Mechanical properties :
#
#
# Convention : Reuss Voigt Hill
#
# Bulk Modulus (GPa) = 10.84308 20.83584 15.83946
# Shear Modulus (GPa) = 19.98683 26.24921 23.11802
#
# Velocity S-wave (km/s) = 3.00344 3.44195 3.23014
# Velocity P-wave (km/s) = 4.11355 5.01995 4.58918
#
# Compressibility (1/GPa) = 0.09222473
#
# Stress axis : x y z
#
# Youngs Moduli (GPa) = 43.66118 26.78667 54.84845
#
# Poissons Ratio (x) = -0.00543 0.21920
# Poissons Ratio (y) = -0.00885 -0.58537
# Poissons Ratio (z) = 0.17449 -0.28588
#
# Static dielectric constant tensor:
#      x y z
#    x 1.814810 0.000000 0.018570 
#    y 0.000000 1.813770 0.000000 
#    z 0.018570 0.000000 1.829520 
# 
# From -- ./inp_files/31676.got.cif
#   From: 2010.05.17/outbox.cif.g08.bks.cpg/sg5_16_cif.got.tgz:31676.got - 2010.06.03 18:56:24.
