data_PCOD9122618
_publ_section_title
;
Structure prediction by ZEFSAII (Michael W. Deem and Ramdas Pophale) SiO2 
 PCOD9122618
Probable space group: C 2
;
_chemical_formula_sum "Si O2"
_cell_formula_units_Z 30
_cell_length_a 20.368025
_cell_length_b 5.516303
_cell_length_c 11.183194
_cell_angle_alpha 90.000000
_cell_angle_beta 83.885929
_cell_angle_gamma 90.000000
_cell_volume 1249.353945
_symmetry_space_group_name_H-M "C 2"
_symmetry_group_IT_number 5
_symmetry_cell_setting 'monoclinic'
loop_
_space_group_symop_operation_xyz
x,y,z
-x,y,-z
1/2+x,1/2+y,z
1/2-x,1/2+y,-z
loop_
_atom_site_type_symbol
_atom_site_label
_atom_site_fract_x
_atom_site_fract_y
_atom_site_fract_z
Si Si1 0.193600 0.808040 0.120738
Si Si2 0.555328 0.058968 0.215497
Si Si3 0.113876 0.635821 0.429773
Si Si4 0.899812 0.188730 0.949191
Si Si5 0.320948 0.043980 0.117584
Si Si6 0.333400 0.290962 0.357441
Si Si7 0.686027 0.631748 0.448470
Si Si8 0.500000 0.316305 0.000000
O O1 0.132975 0.644974 0.181541
O O2 0.264022 0.852785 0.167751
O O3 0.207319 0.696427 0.987836
O O4 0.161564 0.070107 0.105233
O O5 0.550778 0.115821 0.355893
O O6 0.489542 0.184818 0.875366
O O7 0.554891 0.785376 0.167783
O O8 0.108765 0.673164 0.573567
O O9 0.156121 0.885308 0.394193
O O10 0.151104 0.376675 0.411197
O O11 0.880606 0.397393 0.045542
O O12 0.936103 0.984165 0.016031
O O13 0.339257 0.223165 0.219877
O O14 0.327278 0.565313 0.408904
O O15 0.263643 0.169134 0.412771
#
# Coordination Sequence:
#
# PCOD9122618 Si02
#       8
#     4   4   4   4   4   4   4   2
#     4  10  21  34  54  89 127 172 210 245 323 383
#     4  10  22  37  62  87 125 161 216 271 319 381
#     4  10  21  35  55  88 121 163 218 258 321 360
#     4  10  22  38  61  90 125 168 208 266 323 380
#     4  11  21  36  55  92 131 177 204 255 321 396
#     4  10  21  33  54  83 131 178 215 252 311 382
#     4  10  20  35  51  85 123 178 214 249 301 379
#     4  10  22  42  64  96 116 164 220 280 322 380
#
# _framework density 24.012411
#
# number of rings (size 3 to 8) (size 9 to 14) (size 15 to 20)
#    0.800    1.067    2.667    1.200    5.600    1.067 
#    0.000    0.000    0.000    0.000    0.000   22.400 
#    0.000    0.000    0.000    0.000    0.000    0.000 
#
# Total GULP energy -83585.405712 kJ/mol
# GULP energy per Si atom -5572.360381 kJ/mol
# Density = 2.395776 g / cm^3
# Si number density = 24.012411 Si / 1000 Ang^3
#
#
#
# Elastic Constant Matrix: (Units=GPa)
#
#
# Indices 1 2 3 4 5 6 
#
# 1 43.2225 9.8065 16.7372 0.0000 20.5669 0.0000
# 2 9.8065 105.2251 18.5075 0.0000 13.0194 0.0000
# 3 16.7372 18.5075 85.7956 0.0000 28.4598 0.0000
# 4 0.0000 0.0000 0.0000 31.4575 0.0000 8.2627
# 5 20.5669 13.0194 28.4598 0.0000 31.4696 0.0000
# 6 0.0000 0.0000 0.0000 8.2627 0.0000 17.3422
#
#
#
# Elastic Compliance Matrix: (Units=1/GPa)
#
#
# Indices 1 2 3 4 5 6 
#
# 1 0.033670 -0.000512 0.001102 0.000000 -0.022789 0.000000
# 2 -0.000512 0.010100 -0.001148 0.000000 -0.002806 0.000000
# 3 0.001102 -0.001148 0.016814 0.000000 -0.015450 0.000000
# 4 0.000000 0.000000 0.000000 0.036336 0.000000 -0.017312
# 5 -0.022789 -0.002806 -0.015450 0.000000 0.061804 0.000000
# 6 0.000000 0.000000 0.000000 -0.017312 0.000000 0.065911
#
#
# Mechanical properties :
#
#
# Convention : Reuss Voigt Hill
#
# Bulk Modulus (GPa) = 16.81628 36.03840 26.42734
# Shear Modulus (GPa) = 20.36049 28.66668 24.51358
#
# Velocity S-wave (km/s) = 2.91506 3.45893 3.19857
# Velocity P-wave (km/s) = 4.28351 5.56714 4.96697
#
# Compressibility (1/GPa) = 0.05946619
#
# Stress axis : x y z
#
# Youngs Moduli (GPa) = 29.70043 99.00753 59.47597
#
# Poissons Ratio (x) = 0.05068 -0.06552
# Poissons Ratio (y) = 0.01520 0.06829
# Poissons Ratio (z) = -0.03272 0.11369
#
# Static dielectric constant tensor:
#      x y z
#    x 1.963270 0.000000 -0.018430 
#    y 0.000000 1.940650 0.000000 
#    z -0.018430 0.000000 2.030640 
# 
# From -- ./inp_files/46959.got.cif
#   From: 2010.05.17/outbox.cif.g08.bks.cpg/sg5_24_cif.got.tgz:46959.got - 2010.06.03 18:56:24.
