data_PCOD9122942
_publ_section_title
;
Structure prediction by ZEFSAII (Michael W. Deem and Ramdas Pophale) SiO2 
 PCOD9122942
Probable space group: C 2
;
_chemical_formula_sum "Si O2"
_cell_formula_units_Z 30
_cell_length_a 15.523121
_cell_length_b 9.311886
_cell_length_c 11.184526
_cell_angle_alpha 90.000000
_cell_angle_beta 69.271973
_cell_angle_gamma 90.000000
_cell_volume 1512.069491
_symmetry_space_group_name_H-M "C 2"
_symmetry_group_IT_number 5
_symmetry_cell_setting 'monoclinic'
loop_
_space_group_symop_operation_xyz
x,y,z
-x,y,-z
1/2+x,1/2+y,z
1/2-x,1/2+y,-z
loop_
_atom_site_type_symbol
_atom_site_label
_atom_site_fract_x
_atom_site_fract_y
_atom_site_fract_z
Si Si1 0.000000 0.676710 0.500000
Si Si2 0.870299 0.840786 0.698728
Si Si3 0.202851 0.132013 0.850501
Si Si4 0.346464 0.631314 0.848511
Si Si5 0.745612 0.322013 0.718616
Si Si6 0.054739 0.212901 0.729927
Si Si7 0.640855 0.948874 0.524472
Si Si8 0.847367 0.951564 0.441683
O O1 0.967169 0.760343 0.635186
O O2 0.918692 0.574274 0.499036
O O3 0.786653 0.734594 0.769726
O O4 0.867215 0.971163 0.791856
O O5 0.863920 0.895259 0.565184
O O6 0.110980 0.181477 0.824461
O O7 0.228498 0.970645 0.797606
O O8 0.187218 0.135610 0.999176
O O9 0.267831 0.697529 0.800553
O O10 0.444568 0.714031 0.794069
O O11 0.837679 0.337015 0.593193
O O12 0.665839 0.330357 0.655960
O O13 0.094330 0.358681 0.652420
O O14 0.085090 0.077397 0.632125
O O15 0.742246 0.010805 0.501559
#
# Coordination Sequence:
#
# PCOD9122942 Si02
#       8
#     2   4   4   4   4   4   4   4
#     4  12  22  36  60  94 128 150 200 276 316 352
#     4  12  23  40  61  94 124 162 202 260 316 361
#     4  11  22  44  60  85 130 174 202 245 309 373
#     4  12  25  37  63  94 124 165 217 250 286 381
#     4   9  20  40  63  85 123 163 201 250 312 367
#     4  11  21  40  63  95 120 160 211 254 312 361
#     4  10  20  36  65  88 121 156 195 258 321 362
#     4   9  21  39  62  87 125 154 197 259 314 373
#
# _framework density 19.840358999999999
#
# number of rings (size 3 to 8) (size 9 to 14) (size 15 to 20)
#    0.800    0.533    2.667    3.600    0.000    1.067 
#    0.000    0.000    0.000    0.000    0.000    0.000 
#    0.000    0.000    0.000    0.000    0.000    0.000 
#
# Total GULP energy -83663.608336 kJ/mol
# GULP energy per Si atom -5577.573889 kJ/mol
# Density = 1.979520 g / cm^3
# Si number density = 19.840359 Si / 1000 Ang^3
#
#
#
# Elastic Constant Matrix: (Units=GPa)
#
#
# Indices 1 2 3 4 5 6 
#
# 1 54.8526 -1.2153 19.9482 0.0000 -3.3795 0.0000
# 2 -1.2153 40.5805 17.5302 0.0000 8.2138 0.0000
# 3 19.9482 17.5302 115.2527 0.0000 17.9847 0.0000
# 4 0.0000 0.0000 0.0000 22.3783 0.0000 4.0290
# 5 -3.3795 8.2138 17.9847 0.0000 24.5361 0.0000
# 6 0.0000 0.0000 0.0000 4.0290 0.0000 22.6300
#
#
#
# Elastic Compliance Matrix: (Units=1/GPa)
#
#
# Indices 1 2 3 4 5 6 
#
# 1 0.020295 0.001451 -0.004623 0.000000 0.005698 0.000000
# 2 0.001451 0.027476 -0.003417 0.000000 -0.006493 0.000000
# 3 -0.004623 -0.003417 0.011198 0.000000 -0.007701 0.000000
# 4 0.000000 0.000000 0.000000 0.046166 0.000000 -0.008219
# 5 0.005698 -0.006493 -0.007701 0.000000 0.049359 0.000000
# 6 0.000000 0.000000 0.000000 -0.008219 0.000000 0.045652
#
#
# Mechanical properties :
#
#
# Convention : Reuss Voigt Hill
#
# Bulk Modulus (GPa) = 21.83753 31.46801 26.65277
# Shear Modulus (GPa) = 21.87342 25.53708 23.70525
#
# Velocity S-wave (km/s) = 3.32395 3.59155 3.46034
# Velocity P-wave (km/s) = 5.07563 5.75274 5.42476
#
# Compressibility (1/GPa) = 0.04579272
#
# Stress axis : x y z
#
# Youngs Moduli (GPa) = 49.27330 36.39502 89.30077
#
# Poissons Ratio (x) = -0.05282 0.41280
# Poissons Ratio (y) = -0.07152 0.30515
# Poissons Ratio (z) = 0.22777 0.12437
#
# Static dielectric constant tensor:
#      x y z
#    x 1.793670 0.000000 -0.004440 
#    y 0.000000 1.741460 0.000000 
#    z -0.004440 0.000000 1.680070 
# 
# From -- ./inp_files/44300.got.cif
#   From: 2010.05.17/outbox.cif.g08.bks.cpg/sg5_23_cif.got.tgz:44300.got - 2010.06.03 18:56:24.
