data_PCOD9122997
_publ_section_title
;
Structure prediction by ZEFSAII (Michael W. Deem and Ramdas Pophale) SiO2 
 PCOD9122997
Probable space group: C 2
;
_chemical_formula_sum "Si O2"
_cell_formula_units_Z 30
_cell_length_a 7.951531
_cell_length_b 11.878558
_cell_length_c 15.158207
_cell_angle_alpha 90.000000
_cell_angle_beta 100.124554
_cell_angle_gamma 90.000000
_cell_volume 1409.438863
_symmetry_space_group_name_H-M "C 2"
_symmetry_group_IT_number 5
_symmetry_cell_setting 'monoclinic'
loop_
_space_group_symop_operation_xyz
x,y,z
-x,y,-z
1/2+x,1/2+y,z
1/2-x,1/2+y,-z
loop_
_atom_site_type_symbol
_atom_site_label
_atom_site_fract_x
_atom_site_fract_y
_atom_site_fract_z
Si Si1 0.908155 0.323060 0.342081
Si Si2 0.867878 0.128292 0.555129
Si Si3 0.410550 0.247958 0.576254
Si Si4 0.500000 0.859228 0.000000
Si Si5 0.145760 0.021534 0.124778
Si Si6 0.281152 0.773008 0.138329
Si Si7 0.258912 0.550928 0.065994
Si Si8 0.851743 0.571897 0.312011
O O1 0.046404 0.246291 0.404859
O O2 0.730956 0.313417 0.380629
O O3 0.871602 0.272018 0.241751
O O4 0.953148 0.454527 0.334821
O O5 0.698623 0.151724 0.483638
O O6 0.809534 0.065939 0.636736
O O7 0.000000 0.073849 0.500000
O O8 0.500000 0.306996 0.500000
O O9 0.542877 0.182848 0.651701
O O10 0.414605 0.788458 0.070093
O O11 0.639295 0.941979 0.057957
O O12 0.171690 0.886720 0.126514
O O13 0.272748 0.072717 0.208038
O O14 0.946734 0.039715 0.125581
O O15 0.201404 0.065627 0.034159
O O16 0.179508 0.659759 0.105695
#
# Coordination Sequence:
#
# PCOD9122997 Si02
#       8
#     4   4   4   2   4   4   4   4
#     4  10  21  37  58  83 114 146 185 235 281 331
#     4   9  19  35  55  82 110 141 184 228 279 342
#     4   9  20  37  57  82 109 142 187 227 277 345
#     4  10  22  36  56  86 112 150 202 226 270 348
#     4   9  20  37  56  82 112 146 195 233 275 338
#     4  10  21  37  57  84 112 150 190 228 280 330
#     4  10  20  37  57  78 115 153 180 238 285 319
#     4  10  20  38  58  80 113 150 185 236 284 325
#
# _framework density 21.285066
#
# number of rings (size 3 to 8) (size 9 to 14) (size 15 to 20)
#    0.000    2.400    0.000    1.600    0.000   10.667 
#    0.000   16.000    0.000    0.000    0.000    0.000 
#    0.000    0.000    0.000    0.000    0.000    0.000 
#
# Total GULP energy -83688.487700 kJ/mol
# GULP energy per Si atom -5579.232513 kJ/mol
# Density = 2.123662 g / cm^3
# Si number density = 21.285066 Si / 1000 Ang^3
#
#
#
# Elastic Constant Matrix: (Units=GPa)
#
#
# Indices 1 2 3 4 5 6 
#
# 1 56.5867 13.6186 9.8233 0.0000 9.0275 0.0000
# 2 13.6186 48.4684 23.0109 0.0000 21.5289 0.0000
# 3 9.8233 23.0109 78.0482 0.0000 11.5527 0.0000
# 4 0.0000 0.0000 0.0000 -37.8475 0.0000 -8.7301
# 5 9.0275 21.5289 11.5527 0.0000 29.1198 0.0000
# 6 0.0000 0.0000 0.0000 -8.7301 0.0000 11.4641
#
#
#
# Elastic Compliance Matrix: (Units=1/GPa)
#
#
# Indices 1 2 3 4 5 6 
#
# 1 0.019172 -0.003689 -0.000902 0.000000 -0.002858 0.000000
# 2 -0.003689 0.034378 -0.006458 0.000000 -0.021711 0.000000
# 3 -0.000902 -0.006458 0.014961 0.000000 -0.000881 0.000000
# 4 0.000000 0.000000 0.000000 -0.022474 0.000000 -0.017114
# 5 -0.002858 -0.021711 -0.000881 0.000000 0.051628 0.000000
# 6 0.000000 0.000000 0.000000 -0.017114 0.000000 0.074196
#
#
# Mechanical properties :
#
#
# Convention : Reuss Voigt Hill
#
# Bulk Modulus (GPa) = 21.54573 30.66766 26.10669
# Shear Modulus (GPa) = 23.87434 9.65731 16.76583
#
# Velocity S-wave (km/s) = 3.35273 2.13236 2.80961
# Velocity P-wave (km/s) = 5.01320 4.52791 4.77672
#
# Compressibility (1/GPa) = 0.04641292
#
# Stress axis : x y z
#
# Youngs Moduli (GPa) = 52.15812 29.08834 66.84253
#
# Poissons Ratio (x) = 0.10731 0.06032
# Poissons Ratio (y) = 0.19241 0.43165
# Poissons Ratio (z) = 0.04707 0.18784
#
# Static dielectric constant tensor:
#      x y z
#    x 1.781380 0.000000 -0.023150 
#    y 0.000000 1.783680 0.000000 
#    z -0.023150 0.000000 1.779380 
# 
# From -- ./inp_files/50313.got.cif
#   From: 2010.05.17/outbox.cif.g08.bks.cpg/sg5_26_cif.got.tgz:50313.got - 2010.06.03 18:56:24.
