data_PCOD9122213
_publ_section_title
;
Structure prediction by ZEFSAII (Michael W. Deem and Ramdas Pophale) SiO2 
 PCOD9122213
Probable space group: C 2
;
_chemical_formula_sum "Si O2"
_cell_formula_units_Z 22
_cell_length_a 13.010894
_cell_length_b 7.179913
_cell_length_c 10.465003
_cell_angle_alpha 90.000000
_cell_angle_beta 96.358941
_cell_angle_gamma 90.000000
_cell_volume 971.595393
_symmetry_space_group_name_H-M "C 2"
_symmetry_group_IT_number 5
_symmetry_cell_setting 'monoclinic'
loop_
_space_group_symop_operation_xyz
x,y,z
-x,y,-z
1/2+x,1/2+y,z
1/2-x,1/2+y,-z
loop_
_atom_site_type_symbol
_atom_site_label
_atom_site_fract_x
_atom_site_fract_y
_atom_site_fract_z
Si Si1 0.205075 0.641960 0.362779
Si Si2 0.000000 0.258849 0.000000
Si Si3 0.975050 0.904535 0.638756
Si Si4 0.792589 0.375230 0.850974
Si Si5 0.140462 0.246879 0.394780
Si Si6 0.581125 0.386357 0.907782
O O1 0.137625 0.825151 0.344342
O O2 0.235551 0.565304 0.228112
O O3 0.133726 0.470128 0.404328
O O4 0.296748 0.670147 0.475563
O O5 0.908332 0.373595 0.921815
O O6 0.060104 0.108238 0.919549
O O7 0.000000 0.841668 0.500000
O O8 0.050000 0.835805 0.759364
O O9 0.962581 0.127683 0.634441
O O10 0.797758 0.230640 0.732071
O O11 0.701244 0.337222 0.937822
O O12 0.500000 0.305500 0.000000
#
# Coordination Sequence:
#
# PCOD9122213 Si02
#       6
#     4   2   4   4   4   4
#     4  10  21  37  66 100 137 181 239 281 362 420
#     4  10  22  46  68  98 148 182 242 286 364 412
#     4  12  22  41  66 102 144 179 238 299 354 426
#     4  10  22  44  69 100 137 188 240 290 349 438
#     4  10  19  39  65  97 139 182 229 290 360 409
#     4  10  22  43  69  98 138 190 232 295 362 405
#
# _framework density 22.643167999999999
#
# number of rings (size 3 to 8) (size 9 to 14) (size 15 to 20)
#    1.636    0.000    3.636    2.182    0.000    2.182 
#    4.909    0.000    0.000    0.000    0.000    0.000 
#    0.000    0.000    0.000    0.000    0.000    0.000 
#
# Total GULP energy -61259.427225 kJ/mol
# GULP energy per Si atom -5569.038839 kJ/mol
# Density = 2.259163 g / cm^3
# Si number density = 22.643168 Si / 1000 Ang^3
#
#
#
# Elastic Constant Matrix: (Units=GPa)
#
#
# Indices 1 2 3 4 5 6 
#
# 1 122.1761 6.8455 53.8322 0.0000 -0.2204 0.0000
# 2 6.8455 48.7227 13.1141 0.0000 -1.2549 0.0000
# 3 53.8322 13.1141 109.8900 0.0000 1.9982 0.0000
# 4 0.0000 0.0000 0.0000 0.9404 0.0000 -4.0754
# 5 -0.2204 -1.2549 1.9982 0.0000 43.1879 0.0000
# 6 0.0000 0.0000 0.0000 -4.0754 0.0000 24.6113
#
#
#
# Elastic Compliance Matrix: (Units=1/GPa)
#
#
# Indices 1 2 3 4 5 6 
#
# 1 0.010442 -0.000084 -0.005110 0.000000 0.000287 0.000000
# 2 -0.000084 0.021229 -0.002506 0.000000 0.000732 0.000000
# 3 -0.005110 -0.002506 0.011914 0.000000 -0.000650 0.000000
# 4 0.000000 0.000000 0.000000 3.766136 0.000000 0.623636
# 5 0.000287 0.000732 -0.000650 0.000000 0.023207 0.000000
# 6 0.000000 0.000000 0.000000 0.623636 0.000000 0.143900
#
#
# Mechanical properties :
#
#
# Convention : Reuss Voigt Hill
#
# Bulk Modulus (GPa) = 35.47949 47.59693 41.53821
# Shear Modulus (GPa) = 1.24949 27.54772 14.39860
#
# Velocity S-wave (km/s) = 0.74365 3.49177 2.52443
# Velocity P-wave (km/s) = 4.05467 6.10923 5.18474
#
# Compressibility (1/GPa) = 0.02818530
#
# Stress axis : x y z
#
# Youngs Moduli (GPa) = 95.76877 47.10451 83.93299
#
# Poissons Ratio (x) = 0.00396 0.42893
# Poissons Ratio (y) = 0.00806 0.21030
# Poissons Ratio (z) = 0.48941 0.11802
#
# Static dielectric constant tensor:
#      x y z
#    x 1.849930 0.000000 -0.000560 
#    y 0.000000 1.847300 0.000000 
#    z -0.000560 0.000000 1.913840 
# 
# From -- ./inp_files/22713.got.cif
#   From: 2010.05.17/outbox.cif.g08.bks.cpg/sg5_12_cif.got.tgz:22713.got - 2010.06.03 18:56:24.
