data_PCOD9122707
_publ_section_title
;
Structure prediction by ZEFSAII (Michael W. Deem and Ramdas Pophale) SiO2 
 PCOD9122707
Probable space group: C 2
;
_chemical_formula_sum "Si O2"
_cell_formula_units_Z 32
_cell_length_a 8.953897
_cell_length_b 14.903269
_cell_length_c 10.805563
_cell_angle_alpha 90.000000
_cell_angle_beta 93.645395
_cell_angle_gamma 90.000000
_cell_volume 1439.002080
_symmetry_space_group_name_H-M "C 2"
_symmetry_group_IT_number 5
_symmetry_cell_setting 'monoclinic'
loop_
_space_group_symop_operation_xyz
x,y,z
-x,y,-z
1/2+x,1/2+y,z
1/2-x,1/2+y,-z
loop_
_atom_site_type_symbol
_atom_site_label
_atom_site_fract_x
_atom_site_fract_y
_atom_site_fract_z
Si Si1 0.184372 0.930910 0.227708
Si Si2 0.059114 0.503952 0.876967
Si Si3 0.660271 0.750393 0.701072
Si Si4 0.824858 0.756218 0.449767
Si Si5 0.659678 0.383438 0.781639
Si Si6 0.568205 0.799742 0.128090
Si Si7 0.171970 0.549469 0.550797
Si Si8 0.800035 0.563811 0.725045
O O1 0.261275 0.834560 0.232498
O O2 0.012590 0.905784 0.209392
O O3 0.263788 0.992696 0.128318
O O4 0.241814 0.981244 0.355432
O O5 0.995758 0.401985 0.869094
O O6 0.977631 0.556001 0.760995
O O7 0.000000 0.545581 0.000000
O O8 0.706842 0.761465 0.558394
O O9 0.492028 0.753880 0.748261
O O10 0.737001 0.660174 0.752502
O O11 0.809149 0.835497 0.349454
O O12 0.815048 0.652876 0.403396
O O13 0.000000 0.763565 0.500000
O O14 0.753741 0.315274 0.872649
O O15 0.731562 0.481512 0.794558
O O16 0.500000 0.757882 0.000000
O O17 0.246401 0.548862 0.419138
O O18 0.000000 0.526694 0.500000
#
# Coordination Sequence:
#
# PCOD9122707 Si02
#       8
#     4   4   4   4   4   4   4   4
#     4  11  21  37  64  91 121 166 209 262 326 381
#     4   9  19  39  62  86 119 162 218 266 316 377
#     4  10  21  39  62  89 127 170 213 253 315 385
#     4  10  20  37  60  94 135 162 203 264 319 388
#     4  11  23  38  63  93 128 165 209 272 317 379
#     4   9  21  43  63  85 123 171 221 267 315 374
#     4  10  20  35  62  92 126 169 207 250 318 395
#     4  10  21  38  59  89 127 168 210 257 308 379
#
# _framework density 22.237635000000001
#
# number of rings (size 3 to 8) (size 9 to 14) (size 15 to 20)
#    0.000    2.000    2.500    0.750    0.000    1.500 
#    0.000   16.250    0.000    0.000    0.000    0.000 
#    0.000    0.000    0.000    0.000    0.000    0.000 
#
# Total GULP energy -89083.839786 kJ/mol
# GULP energy per Si atom -5567.739987 kJ/mol
# Density = 2.218702 g / cm^3
# Si number density = 22.237635 Si / 1000 Ang^3
#
#
#
# Elastic Constant Matrix: (Units=GPa)
#
#
# Indices 1 2 3 4 5 6 
#
# 1 155.4026 33.1145 44.6487 0.0000 -7.7558 0.0000
# 2 33.1145 80.7139 24.8757 0.0000 3.5391 0.0000
# 3 44.6487 24.8757 88.3658 0.0000 -8.2989 0.0000
# 4 0.0000 0.0000 0.0000 10.2532 0.0000 -4.5772
# 5 -7.7558 3.5391 -8.2989 0.0000 20.1305 0.0000
# 6 0.0000 0.0000 0.0000 -4.5772 0.0000 20.9959
#
#
#
# Elastic Compliance Matrix: (Units=1/GPa)
#
#
# Indices 1 2 3 4 5 6 
#
# 1 0.007956 -0.002392 -0.003141 0.000000 0.002191 0.000000
# 2 -0.002392 0.014622 -0.003366 0.000000 -0.004880 0.000000
# 3 -0.003141 -0.003366 0.014349 0.000000 0.005297 0.000000
# 4 0.000000 0.000000 0.000000 0.108045 0.000000 0.023554
# 5 0.002191 -0.004880 0.005297 0.000000 0.053562 0.000000
# 6 0.000000 0.000000 0.000000 0.023554 0.000000 0.052763
#
#
# Mechanical properties :
#
#
# Convention : Reuss Voigt Hill
#
# Bulk Modulus (GPa) = 52.27631 58.86225 55.56928
# Shear Modulus (GPa) = 18.15068 25.06549 21.60808
#
# Velocity S-wave (km/s) = 2.86005 3.36097 3.12058
# Velocity P-wave (km/s) = 5.87074 6.44892 6.16661
#
# Compressibility (1/GPa) = 0.01912912
#
# Stress axis : x y z
#
# Youngs Moduli (GPa) = 125.68420 68.38893 69.69339
#
# Poissons Ratio (x) = 0.16361 0.21890
# Poissons Ratio (y) = 0.30068 0.23457
# Poissons Ratio (z) = 0.39476 0.23018
#
# Static dielectric constant tensor:
#      x y z
#    x 1.977640 0.000000 -0.043790 
#    y 0.000000 1.789200 0.000000 
#    z -0.043790 0.000000 1.943140 
# 
# From -- ./inp_files/36405.got.cif
#   From: 2010.05.17/outbox.cif.g08.bks.cpg/sg5_19_cif.got.tgz:36405.got - 2010.06.03 18:56:24.
