data_PCOD9122498
_publ_section_title
;
Structure prediction by ZEFSAII (Michael W. Deem and Ramdas Pophale) SiO2 
 PCOD9122498
Probable space group: C 2
;
_chemical_formula_sum "Si O2"
_cell_formula_units_Z 18
_cell_length_a 14.653145
_cell_length_b 4.785729
_cell_length_c 8.845144
_cell_angle_alpha 90.000000
_cell_angle_beta 91.781212
_cell_angle_gamma 90.000000
_cell_volume 619.974687
_symmetry_space_group_name_H-M "C 2"
_symmetry_group_IT_number 5
_symmetry_cell_setting 'monoclinic'
loop_
_space_group_symop_operation_xyz
x,y,z
-x,y,-z
1/2+x,1/2+y,z
1/2-x,1/2+y,-z
loop_
_atom_site_type_symbol
_atom_site_label
_atom_site_fract_x
_atom_site_fract_y
_atom_site_fract_z
Si Si1 0.500000 0.437441 0.500000
Si Si2 0.377644 0.774767 0.991284
Si Si3 0.756666 0.648030 0.594464
Si Si4 0.951851 0.463214 0.696080
Si Si5 0.673015 0.283052 0.834508
O O1 0.448141 0.675916 0.597919
O O2 0.520861 0.196601 0.630782
O O3 0.449417 0.869445 0.868815
O O4 0.278443 0.778620 0.900715
O O5 0.387371 0.462926 0.051313
O O6 0.361394 0.972253 0.135722
O O7 0.736767 0.967150 0.559300
O O8 0.855979 0.623398 0.669460
O O9 0.683029 0.479919 0.687687
#
# Coordination Sequence:
#
# PCOD9122498 Si02
#       5
#     2   4   4   4   4
#     4  10  20  34  52  76 102 134 176 218 250 284
#     4   9  16  29  48  71 100 124 161 216 252 294
#     4  11  21  33  51  79 112 138 160 198 256 327
#     4  10  20  34  53  79 103 132 173 212 257 293
#     4   9  17  28  46  73 101 130 158 197 262 306
#
# _framework density 29.033441
#
# number of rings (size 3 to 8) (size 9 to 14) (size 15 to 20)
#    0.000    2.222    0.000    4.000    0.000    7.111 
#    0.000    0.000    0.000    0.000    0.000  108.889 
#    0.000    0.000    0.000    0.000    0.000    0.000 
#
# Total GULP energy -50319.252033 kJ/mol
# GULP energy per Si atom -5591.028004 kJ/mol
# Density = 2.896736 g / cm^3
# Si number density = 29.033441 Si / 1000 Ang^3
#
#
#
# Elastic Constant Matrix: (Units=GPa)
#
#
# Indices 1 2 3 4 5 6 
#
# 1 95.4523 15.5933 18.7163 0.0000 -25.6532 0.0000
# 2 15.5933 213.6489 26.0719 0.0000 -21.6869 0.0000
# 3 18.7163 26.0719 101.4525 0.0000 -31.1473 0.0000
# 4 0.0000 0.0000 0.0000 35.2132 0.0000 -10.9831
# 5 -25.6532 -21.6869 -31.1473 0.0000 35.0540 0.0000
# 6 0.0000 0.0000 0.0000 -10.9831 0.0000 37.4796
#
#
#
# Elastic Compliance Matrix: (Units=1/GPa)
#
#
# Indices 1 2 3 4 5 6 
#
# 1 0.013080 -0.000006 0.000724 0.000000 0.010211 0.000000
# 2 -0.000006 0.005010 -0.000462 0.000000 0.002684 0.000000
# 3 0.000724 -0.000462 0.013637 0.000000 0.012361 0.000000
# 4 0.000000 0.000000 0.000000 0.031255 0.000000 0.009159
# 5 0.010211 0.002684 0.012361 0.000000 0.048644 0.000000
# 6 0.000000 0.000000 0.000000 0.009159 0.000000 0.029365
#
#
# Mechanical properties :
#
#
# Convention : Reuss Voigt Hill
#
# Bulk Modulus (GPa) = 31.02064 59.03518 45.02791
# Shear Modulus (GPa) = 33.06291 44.89417 38.97854
#
# Velocity S-wave (km/s) = 3.37825 3.93656 3.66804
# Velocity P-wave (km/s) = 5.09160 6.40622 5.78637
#
# Compressibility (1/GPa) = 0.03223660
#
# Stress axis : x y z
#
# Youngs Moduli (GPa) = 76.45320 199.60464 73.32963
#
# Poissons Ratio (x) = 0.00129 -0.05306
# Poissons Ratio (y) = 0.00049 0.03390
# Poissons Ratio (z) = -0.05532 0.09227
#
# Static dielectric constant tensor:
#      x y z
#    x 2.393030 0.000000 0.138440 
#    y 0.000000 2.047990 0.000000 
#    z 0.138440 0.000000 2.359660 
# 
# From -- ./inp_files/25873.got.cif
#   From: 2010.05.17/outbox.cif.g08.bks.cpg/sg5_13_cif.got.tgz:25873.got - 2010.06.03 18:56:24.
