data_PCOD9122523
_publ_section_title
;
Structure prediction by ZEFSAII (Michael W. Deem and Ramdas Pophale) SiO2 
 PCOD9122523
Probable space group: C 2
;
_chemical_formula_sum "Si O2"
_cell_formula_units_Z 28
_cell_length_a 10.975885
_cell_length_b 15.466638
_cell_length_c 8.703111
_cell_angle_alpha 90.000000
_cell_angle_beta 115.465971
_cell_angle_gamma 90.000000
_cell_volume 1333.893557
_symmetry_space_group_name_H-M "C 2"
_symmetry_group_IT_number 5
_symmetry_cell_setting 'monoclinic'
loop_
_space_group_symop_operation_xyz
x,y,z
-x,y,-z
1/2+x,1/2+y,z
1/2-x,1/2+y,-z
loop_
_atom_site_type_symbol
_atom_site_label
_atom_site_fract_x
_atom_site_fract_y
_atom_site_fract_z
Si Si1 0.744484 0.225830 0.262631
Si Si2 0.150660 0.553032 0.056203
Si Si3 0.282885 0.151276 0.182235
Si Si4 0.379754 0.649804 0.623224
Si Si5 0.936339 0.986928 0.295792
Si Si6 0.071389 0.268779 0.897393
Si Si7 0.002341 0.799128 0.316403
O O1 0.662448 0.150440 0.131138
O O2 0.845369 0.170608 0.428078
O O3 0.817332 0.287051 0.175648
O O4 0.646008 0.276089 0.322489
O O5 0.276183 0.502911 0.199168
O O6 0.179008 0.566062 0.890910
O O7 0.000000 0.520730 0.000000
O O8 0.253033 0.135627 0.345066
O O9 0.396423 0.223905 0.220900
O O10 0.148265 0.191553 0.031274
O O11 0.479926 0.570261 0.716297
O O12 0.449851 0.735046 0.727138
O O13 0.000000 0.979707 0.500000
O O14 0.961938 0.893896 0.234223
O O15 0.000000 0.320461 0.000000
O O16 0.000000 0.801259 0.500000
#
# Coordination Sequence:
#
# PCOD9122523 Si02
#       7
#     4   4   4   4   4   4   4
#     4  11  19  34  62  90 120 169 213 256 310 388
#     4  11  21  37  63  91 123 167 217 258 313 385
#     4  10  20  34  55  88 125 159 206 259 306 378
#     4  11  18  35  61  93 116 164 217 252 304 382
#     4  11  22  39  64  93 126 163 215 267 320 373
#     4   9  19  32  56  89 118 148 211 266 300 358
#     4  11  23  38  58  95 130 163 209 272 321 372
#
# _framework density 20.991178999999999
#
# number of rings (size 3 to 8) (size 9 to 14) (size 15 to 20)
#    0.000    1.429    7.143    0.429    0.000    0.000 
#    0.000    7.857    0.000    0.000    7.429    0.000 
#    0.000    0.000    0.000    0.000    0.000    0.000 
#
# Total GULP energy -77951.065912 kJ/mol
# GULP energy per Si atom -5567.933279 kJ/mol
# Density = 2.094340 g / cm^3
# Si number density = 20.991179 Si / 1000 Ang^3
#
#
#
# Elastic Constant Matrix: (Units=GPa)
#
#
# Indices 1 2 3 4 5 6 
#
# 1 163.4039 39.0427 38.5941 0.0000 -10.1577 0.0000
# 2 39.0427 46.8040 14.8869 0.0000 9.4854 0.0000
# 3 38.5941 14.8869 82.7976 0.0000 -5.8144 0.0000
# 4 0.0000 0.0000 0.0000 -4.4870 0.0000 -1.7960
# 5 -10.1577 9.4854 -5.8144 0.0000 44.8936 0.0000
# 6 0.0000 0.0000 0.0000 -1.7960 0.0000 5.9785
#
#
#
# Elastic Compliance Matrix: (Units=1/GPa)
#
#
# Indices 1 2 3 4 5 6 
#
# 1 0.008575 -0.006975 -0.002526 0.000000 0.003087 0.000000
# 2 -0.006975 0.029692 -0.002663 0.000000 -0.008197 0.000000
# 3 -0.002526 -0.002663 0.013859 0.000000 0.001786 0.000000
# 4 0.000000 0.000000 0.000000 -0.198945 0.000000 -0.059765
# 5 0.003087 -0.008197 0.001786 0.000000 0.024936 0.000000
# 6 0.000000 0.000000 0.000000 -0.059765 0.000000 0.149311
#
#
# Mechanical properties :
#
#
# Convention : Reuss Voigt Hill
#
# Bulk Modulus (GPa) = 35.97351 53.11696 44.54524
# Shear Modulus (GPa) = 81.93522 22.64248 52.28885
#
# Velocity S-wave (km/s) = 6.25443 3.28787 4.99640
# Velocity P-wave (km/s) = 8.32657 6.30657 7.38595
#
# Compressibility (1/GPa) = 0.02779824
#
# Stress axis : x y z
#
# Youngs Moduli (GPa) = 116.61954 33.67884 72.15338
#
# Poissons Ratio (x) = 0.23491 0.18227
# Poissons Ratio (y) = 0.81342 0.19214
# Poissons Ratio (z) = 0.29459 0.08969
#
# Static dielectric constant tensor:
#      x y z
#    x 1.840420 0.000000 -0.043280 
#    y 0.000000 1.763030 0.000000 
#    z -0.043280 0.000000 1.812540 
# 
# From -- ./inp_files/20410.got.cif
#   From: 2010.05.17/outbox.cif.g08.bks.cpg/sg5_11_cif.got.tgz:20410.got - 2010.06.03 18:56:24.
