data_PCOD9122657
_publ_section_title
;
Structure prediction by ZEFSAII (Michael W. Deem and Ramdas Pophale) SiO2 
 PCOD9122657
Probable space group: C 2
;
_chemical_formula_sum "Si O2"
_cell_formula_units_Z 30
_cell_length_a 8.255555
_cell_length_b 14.522435
_cell_length_c 12.854056
_cell_angle_alpha 90.000000
_cell_angle_beta 85.254533
_cell_angle_gamma 90.000000
_cell_volume 1535.799802
_symmetry_space_group_name_H-M "C 2"
_symmetry_group_IT_number 5
_symmetry_cell_setting 'monoclinic'
loop_
_space_group_symop_operation_xyz
x,y,z
-x,y,-z
1/2+x,1/2+y,z
1/2-x,1/2+y,-z
loop_
_atom_site_type_symbol
_atom_site_label
_atom_site_fract_x
_atom_site_fract_y
_atom_site_fract_z
Si Si1 0.066277 0.718680 0.150584
Si Si2 0.111132 0.289819 0.252189
Si Si3 0.123353 0.006571 0.588627
Si Si4 0.692813 0.822608 0.467978
Si Si5 0.771343 0.208862 0.342616
Si Si6 0.000000 0.026988 0.000000
Si Si7 0.615940 0.411630 0.800428
Si Si8 0.241904 0.671036 0.936780
O O1 0.151707 0.692621 0.252936
O O2 0.977566 0.815577 0.176693
O O3 0.924796 0.650921 0.116724
O O4 0.189326 0.723117 0.045985
O O5 0.207785 0.270554 0.355925
O O6 0.190845 0.389435 0.222440
O O7 0.155777 0.230930 0.149667
O O8 0.925315 0.266254 0.287837
O O9 0.181402 0.109084 0.614407
O O10 0.000000 0.014376 0.500000
O O11 0.252107 0.928123 0.546810
O O12 0.055744 0.962934 0.699798
O O13 0.500000 0.819769 0.500000
O O14 0.784389 0.771255 0.556732
O O15 0.854230 0.087505 0.962285
O O16 0.077404 0.969452 0.903318
#
# Coordination Sequence:
#
# PCOD9122657 Si02
#       8
#     4   4   4   4   4   2   4   4
#     4  10  21  39  57  83 120 156 195 247 308 368
#     4   9  18  36  60  82 112 153 195 240 297 357
#     4  11  21  36  60  87 116 154 202 247 298 364
#     4   9  20  38  57  85 120 156 199 250 300 354
#     4  11  21  38  62  85 117 158 200 247 306 366
#     4  12  22  38  62  88 118 154 202 254 302 364
#     4  10  21  37  59  86 117 151 198 254 305 359
#     4  10  20  35  58  83 115 152 196 244 298 360
#
# _framework density 19.533795000000001
#
# number of rings (size 3 to 8) (size 9 to 14) (size 15 to 20)
#    0.000    1.867    0.000    6.000    0.000    0.000 
#    0.000   15.333    0.000    4.800    0.000    0.000 
#    0.000    0.000    0.000    0.000    0.000    0.000 
#
# Total GULP energy -83560.719723 kJ/mol
# GULP energy per Si atom -5570.714648 kJ/mol
# Density = 1.948934 g / cm^3
# Si number density = 19.533795 Si / 1000 Ang^3
#
#
#
# Elastic Constant Matrix: (Units=GPa)
#
#
# Indices 1 2 3 4 5 6 
#
# 1 55.0413 43.0969 50.2645 0.0000 20.6049 0.0000
# 2 43.0969 94.4655 60.2260 0.0000 7.6899 0.0000
# 3 50.2645 60.2260 154.4933 0.0000 18.5179 0.0000
# 4 0.0000 0.0000 0.0000 41.6793 0.0000 -0.0580
# 5 20.6049 7.6899 18.5179 0.0000 39.3092 0.0000
# 6 0.0000 0.0000 0.0000 -0.0580 0.0000 90.8397
#
#
#
# Elastic Compliance Matrix: (Units=1/GPa)
#
#
# Indices 1 2 3 4 5 6 
#
# 1 0.039531 -0.012986 -0.005956 0.000000 -0.015375 0.000000
# 2 -0.012986 0.018354 -0.003514 0.000000 0.004872 0.000000
# 3 -0.005956 -0.003514 0.009882 0.000000 -0.000846 0.000000
# 4 0.000000 0.000000 0.000000 0.023993 0.000000 0.000015
# 5 -0.015375 0.004872 -0.000846 0.000000 0.032944 0.000000
# 6 0.000000 0.000000 0.000000 0.000015 0.000000 0.011008
#
#
# Mechanical properties :
#
#
# Convention : Reuss Voigt Hill
#
# Bulk Modulus (GPa) = 43.75456 67.90833 55.83144
# Shear Modulus (GPa) = 26.56155 44.39316 35.47736
#
# Velocity S-wave (km/s) = 3.69151 4.77239 4.26632
# Velocity P-wave (km/s) = 6.37320 8.07512 7.27411
#
# Compressibility (1/GPa) = 0.02285476
#
# Stress axis : x y z
#
# Youngs Moduli (GPa) = 25.29660 54.48426 101.19572
#
# Poissons Ratio (x) = 0.70752 0.60276
# Poissons Ratio (y) = 0.32850 0.35559
# Poissons Ratio (z) = 0.15067 0.19145
#
# Static dielectric constant tensor:
#      x y z
#    x 1.687990 0.000000 -0.000670 
#    y 0.000000 1.672610 0.000000 
#    z -0.000670 0.000000 1.703430 
# 
# From -- ./inp_files/36158.got.cif
#   From: 2010.05.17/outbox.cif.g08.bks.cpg/sg5_19_cif.got.tgz:36158.got - 2010.06.03 18:56:24.
