data_PCOD9122117
_publ_section_title
;
Structure prediction by ZEFSAII (Michael W. Deem and Ramdas Pophale) SiO2 
 PCOD9122117
Probable space group: C 2
;
_chemical_formula_sum "Si O2"
_cell_formula_units_Z 30
_cell_length_a 11.603147
_cell_length_b 15.992661
_cell_length_c 9.111640
_cell_angle_alpha 90.000000
_cell_angle_beta 120.676956
_cell_angle_gamma 90.000000
_cell_volume 1454.188097
_symmetry_space_group_name_H-M "C 2"
_symmetry_group_IT_number 5
_symmetry_cell_setting 'monoclinic'
loop_
_space_group_symop_operation_xyz
x,y,z
-x,y,-z
1/2+x,1/2+y,z
1/2-x,1/2+y,-z
loop_
_atom_site_type_symbol
_atom_site_label
_atom_site_fract_x
_atom_site_fract_y
_atom_site_fract_z
Si Si1 0.000000 0.309760 0.500000
Si Si2 0.239790 0.128682 0.156981
Si Si3 0.312087 0.913958 0.562708
Si Si4 0.023569 0.538455 0.844862
Si Si5 0.683899 0.176607 0.322174
Si Si6 0.882803 0.057451 0.633701
Si Si7 0.348918 0.280884 0.420917
Si Si8 0.887662 0.176173 0.212650
O O1 0.125501 0.366341 0.536782
O O2 0.024737 0.249559 0.656423
O O3 0.330842 0.060266 0.128188
O O4 0.153742 0.081228 0.223507
O O5 0.322546 0.199887 0.301086
O O6 0.145959 0.175831 0.979552
O O7 0.265528 0.851107 0.661637
O O8 0.433773 0.973762 0.693454
O O9 0.178660 0.966933 0.438204
O O10 0.952192 0.627560 0.780979
O O11 0.000000 0.514958 0.000000
O O12 0.791852 0.117713 0.473770
O O13 0.663031 0.252474 0.417344
O O14 0.747793 0.188275 0.205556
O O15 0.034529 0.088467 0.705563
O O16 0.500000 0.311672 0.500000
#
# Coordination Sequence:
#
# PCOD9122117 Si02
#       8
#     2   4   4   4   4   4   4   4
#     4  12  22  42  66  94 126 176 210 264 318 386
#     4  11  23  39  68  97 123 165 218 271 309 369
#     4  11  25  39  65  94 132 171 210 256 332 385
#     4  11  22  39  64  92 128 167 217 263 314 376
#     4  10  19  38  65  90 116 167 220 253 300 377
#     4  10  22  39  60  94 127 164 208 261 314 374
#     4  11  22  41  65  95 132 167 210 264 322 379
#     4  12  21  39  71  93 122 165 225 262 303 378
#
# _framework density 20.630068999999999
#
# number of rings (size 3 to 8) (size 9 to 14) (size 15 to 20)
#    0.000    1.067    5.333    2.000    0.000    3.200 
#    0.000    0.000    2.933    0.000    0.000    0.000 
#    0.000    0.000    0.000    0.000    0.000    0.000 
#
# Total GULP energy -83606.857775 kJ/mol
# GULP energy per Si atom -5573.790518 kJ/mol
# Density = 2.058311 g / cm^3
# Si number density = 20.630069 Si / 1000 Ang^3
#
#
#
# Elastic Constant Matrix: (Units=GPa)
#
#
# Indices 1 2 3 4 5 6 
#
# 1 100.6187 34.3825 10.3190 0.0000 -9.3857 0.0000
# 2 34.3825 70.0946 11.2625 0.0000 -2.9606 0.0000
# 3 10.3190 11.2625 78.7178 0.0000 -17.1082 0.0000
# 4 0.0000 0.0000 0.0000 12.9549 0.0000 -1.8019
# 5 -9.3857 -2.9606 -17.1082 0.0000 29.4758 0.0000
# 6 0.0000 0.0000 0.0000 -1.8019 0.0000 34.0223
#
#
#
# Elastic Compliance Matrix: (Units=1/GPa)
#
#
# Indices 1 2 3 4 5 6 
#
# 1 0.012254 -0.005863 -0.000054 0.000000 0.003281 0.000000
# 2 -0.005863 0.017410 -0.002000 0.000000 -0.001279 0.000000
# 3 -0.000054 -0.002000 0.014819 0.000000 0.008383 0.000000
# 4 0.000000 0.000000 0.000000 0.077764 0.000000 0.004118
# 5 0.003281 -0.001279 0.008383 0.000000 0.039708 0.000000
# 6 0.000000 0.000000 0.000000 0.004118 0.000000 0.029611
#
#
# Mechanical properties :
#
#
# Convention : Reuss Voigt Hill
#
# Bulk Modulus (GPa) = 34.90820 40.15099 37.52960
# Shear Modulus (GPa) = 23.04686 28.18841 25.61764
#
# Velocity S-wave (km/s) = 3.34600 3.70046 3.52769
# Velocity P-wave (km/s) = 5.64672 6.14512 5.90118
#
# Compressibility (1/GPa) = 0.02864656
#
# Stress axis : x y z
#
# Youngs Moduli (GPa) = 81.60784 57.43874 67.48186
#
# Poissons Ratio (x) = 0.33678 0.00366
# Poissons Ratio (y) = 0.47849 0.13499
# Poissons Ratio (z) = 0.00443 0.11490
#
# Static dielectric constant tensor:
#      x y z
#    x 1.767090 0.000000 0.011580 
#    y 0.000000 1.773140 0.000000 
#    z 0.011580 0.000000 1.746860 
# 
# From -- ./inp_files/21472.got.cif
#   From: 2010.05.17/outbox.cif.g08.bks.cpg/sg5_11_cif.got.tgz:21472.got - 2010.06.03 18:56:24.
