data_PCOD9122327
_publ_section_title
;
Structure prediction by ZEFSAII (Michael W. Deem and Ramdas Pophale) SiO2 
 PCOD9122327
Probable space group: C 2
;
_chemical_formula_sum "Si O2"
_cell_formula_units_Z 20
_cell_length_a 14.404891
_cell_length_b 8.048247
_cell_length_c 11.853448
_cell_angle_alpha 90.000000
_cell_angle_beta 138.286199
_cell_angle_gamma 90.000000
_cell_volume 914.419360
_symmetry_space_group_name_H-M "C 2"
_symmetry_group_IT_number 5
_symmetry_cell_setting 'monoclinic'
loop_
_space_group_symop_operation_xyz
x,y,z
-x,y,-z
1/2+x,1/2+y,z
1/2-x,1/2+y,-z
loop_
_atom_site_type_symbol
_atom_site_label
_atom_site_fract_x
_atom_site_fract_y
_atom_site_fract_z
Si Si1 0.000000 0.841370 0.000000
Si Si2 0.275842 0.094541 0.689006
Si Si3 0.029767 0.422058 0.284933
Si Si4 0.587582 0.595447 0.889245
Si Si5 0.724755 0.907366 0.096369
Si Si6 0.500000 0.798692 0.500000
O O1 0.117535 0.728590 0.163026
O O2 0.056905 0.961064 0.954698
O O3 0.128129 0.182170 0.576684
O O4 0.332795 0.027019 0.620796
O O5 0.287507 0.936775 0.783091
O O6 0.034052 0.227607 0.249210
O O7 0.907204 0.487478 0.090599
O O8 0.979466 0.411113 0.368811
O O9 0.709340 0.717804 0.045221
O O10 0.639948 0.500156 0.826735
#
# Coordination Sequence:
#
# PCOD9122327 Si02
#       6
#     2   4   4   4   4   2
#     4  12  20  38  70 108 126 188 240 288 346 416
#     4  12  23  44  73  97 144 182 238 294 347 417
#     4  10  23  42  69 100 142 187 230 289 351 423
#     4  10  20  34  68 103 137 170 238 293 340 404
#     4  10  19  41  64 103 131 180 233 293 336 412
#     4  12  26  46  66 106 152 188 220 298 366 404
#
# _framework density 21.871801999999999
#
# number of rings (size 3 to 8) (size 9 to 14) (size 15 to 20)
#    1.200    0.000    4.000    3.600    0.000    1.600 
#    0.000    2.000    0.000    4.800    0.000    0.000 
#    0.000    0.000    0.000    0.000    0.000    0.000 
#
# Total GULP energy -55725.133134 kJ/mol
# GULP energy per Si atom -5572.513313 kJ/mol
# Density = 2.182202 g / cm^3
# Si number density = 21.871802 Si / 1000 Ang^3
#
#
#
# Elastic Constant Matrix: (Units=GPa)
#
#
# Indices 1 2 3 4 5 6 
#
# 1 124.5179 44.4095 26.9535 0.0000 0.0837 0.0000
# 2 44.4095 72.5599 12.1294 0.0000 12.2937 0.0000
# 3 26.9535 12.1294 47.4320 0.0000 7.0102 0.0000
# 4 0.0000 0.0000 0.0000 18.0382 0.0000 1.7623
# 5 0.0837 12.2937 7.0102 0.0000 42.1564 0.0000
# 6 0.0000 0.0000 0.0000 1.7623 0.0000 49.4344
#
#
#
# Elastic Compliance Matrix: (Units=1/GPa)
#
#
# Indices 1 2 3 4 5 6 
#
# 1 0.011545 -0.006658 -0.005271 0.000000 0.002795 0.000000
# 2 -0.006658 0.018816 -0.000224 0.000000 -0.005436 0.000000
# 3 -0.005271 -0.000224 0.024732 0.000000 -0.004037 0.000000
# 4 0.000000 0.000000 0.000000 0.055632 0.000000 -0.001983
# 5 0.002795 -0.005436 -0.004037 0.000000 0.025972 0.000000
# 6 0.000000 0.000000 0.000000 -0.001983 0.000000 0.020300
#
#
# Mechanical properties :
#
#
# Convention : Reuss Voigt Hill
#
# Bulk Modulus (GPa) = 32.48326 45.72162 39.10244
# Shear Modulus (GPa) = 26.10085 32.66030 29.38057
#
# Velocity S-wave (km/s) = 3.45825 3.86847 3.66909
# Velocity P-wave (km/s) = 5.55246 6.39555 5.98886
#
# Compressibility (1/GPa) = 0.03078509
#
# Stress axis : x y z
#
# Youngs Moduli (GPa) = 86.61957 53.14765 40.43345
#
# Poissons Ratio (x) = 0.35388 0.21312
# Poissons Ratio (y) = 0.57674 0.00907
# Poissons Ratio (z) = 0.45655 0.01193
#
# Static dielectric constant tensor:
#      x y z
#    x 1.854460 0.000000 0.010230 
#    y 0.000000 1.770730 0.000000 
#    z 0.010230 0.000000 1.870610 
# 
# From -- ./inp_files/38504.got.cif
#   From: 2010.05.17/outbox.cif.g08.bks.cpg/sg5_20_cif.got.tgz:38504.got - 2010.06.03 18:56:24.
