data_PCOD9122000
_publ_section_title
;
Structure prediction by ZEFSAII (Michael W. Deem and Ramdas Pophale) SiO2 
 PCOD9122000
Probable space group: C 2
;
_chemical_formula_sum "Si O2"
_cell_formula_units_Z 32
_cell_length_a 14.817164
_cell_length_b 26.880110
_cell_length_c 9.953891
_cell_angle_alpha 90.000000
_cell_angle_beta 153.420475
_cell_angle_gamma 90.000000
_cell_volume 1773.876409
_symmetry_space_group_name_H-M "C 2"
_symmetry_group_IT_number 5
_symmetry_cell_setting 'monoclinic'
loop_
_space_group_symop_operation_xyz
x,y,z
-x,y,-z
1/2+x,1/2+y,z
1/2-x,1/2+y,-z
loop_
_atom_site_type_symbol
_atom_site_label
_atom_site_fract_x
_atom_site_fract_y
_atom_site_fract_z
Si Si1 0.431201 0.760360 0.756019
Si Si2 0.975990 0.491746 0.114615
Si Si3 0.163671 0.190352 0.600319
Si Si4 0.139446 0.328079 0.814966
Si Si5 0.933976 0.008591 0.766237
Si Si6 0.680400 0.577148 0.632432
Si Si7 0.305500 0.945682 0.147385
Si Si8 0.030385 0.776182 0.899439
O O1 0.445592 0.712532 0.677080
O O2 0.536975 0.805224 0.811840
O O3 0.192384 0.767290 0.446051
O O4 0.500000 0.755125 0.000000
O O5 0.202958 0.490513 0.472793
O O6 0.834267 0.468513 0.038073
O O7 0.000000 0.466519 0.000000
O O8 0.868367 0.544649 0.937882
O O9 0.236713 0.134102 0.678305
O O10 0.000000 0.190220 0.500000
O O11 0.340278 0.227988 0.882027
O O12 0.180349 0.386662 0.859303
O O13 0.000000 0.315200 0.500000
O O14 0.347300 0.301688 0.055657
O O15 0.909277 0.050131 0.618516
O O16 0.000000 0.027467 0.000000
O O17 0.099489 0.967556 0.938251
O O18 0.500000 0.576629 0.500000
O O19 0.500000 0.958821 0.500000
O O20 0.000000 0.806263 0.000000
#
# Coordination Sequence:
#
# PCOD9122000 Si02
#       8
#     4   4   4   4   4   4   4   4
#     4  11  23  38  60  91 129 154 192 254 306 352
#     4  10  22  39  59  87 119 155 202 252 297 358
#     4  10  19  40  66  89 116 162 208 241 292 373
#     4  11  21  40  61  89 118 160 209 247 291 365
#     4  11  22  38  58  88 121 159 198 249 307 358
#     4  10  21  38  67  88 118 162 204 249 302 360
#     4  11  23  38  62  87 123 158 206 256 302 352
#     4  10  19  37  65  86 116 158 203 241 292 359
#
# _framework density 18.039587999999998
#
# number of rings (size 3 to 8) (size 9 to 14) (size 15 to 20)
#    0.000    1.500    6.250    0.000    0.000    7.500 
#    0.000    3.750    0.000    3.000    0.000    0.000 
#    0.000    0.000    0.000    0.000    0.000    0.000 
#
# Total GULP energy -89100.057768 kJ/mol
# GULP energy per Si atom -5568.753610 kJ/mol
# Density = 1.799853 g / cm^3
# Si number density = 18.039588 Si / 1000 Ang^3
#
#
#
# Elastic Constant Matrix: (Units=GPa)
#
#
# Indices 1 2 3 4 5 6 
#
# 1 107.5322 44.0703 42.2212 0.0000 -0.8209 0.0000
# 2 44.0703 96.7578 32.5256 0.0000 -1.5047 0.0000
# 3 42.2212 32.5256 111.4155 0.0000 -5.9615 0.0000
# 4 0.0000 0.0000 0.0000 15.8954 0.0000 -4.1158
# 5 -0.8209 -1.5047 -5.9615 0.0000 38.5696 0.0000
# 6 0.0000 0.0000 0.0000 -4.1158 0.0000 0.1038
#
#
#
# Elastic Compliance Matrix: (Units=1/GPa)
#
#
# Indices 1 2 3 4 5 6 
#
# 1 0.012510 -0.004550 -0.003436 0.000000 -0.000442 0.000000
# 2 -0.004550 0.013115 -0.002100 0.000000 0.000090 0.000000
# 3 -0.003436 -0.002100 0.010973 0.000000 0.001541 0.000000
# 4 0.000000 0.000000 0.000000 -0.006791 0.000000 -0.269191
# 5 -0.000442 0.000090 0.001541 0.000000 0.026159 0.000000
# 6 0.000000 0.000000 0.000000 -0.269191 0.000000 -1.039630
#
#
# Mechanical properties :
#
#
# Convention : Reuss Voigt Hill
#
# Bulk Modulus (GPa) = 60.87708 61.48217 61.17962
# Shear Modulus (GPa) = -5.21911 24.03967 9.41028
#
# Velocity S-wave (km/s) = -1.70277 3.65445 2.28643
# Velocity P-wave (km/s) = 5.47300 7.20850 6.39985
#
# Compressibility (1/GPa) = 0.01642654
#
# Stress axis : x y z
#
# Youngs Moduli (GPa) = 79.93638 76.25135 91.13331
#
# Poissons Ratio (x) = 0.34692 0.31315
# Poissons Ratio (y) = 0.36369 0.19134
# Poissons Ratio (z) = 0.27467 0.16010
#
# Static dielectric constant tensor:
#      x y z
#    x 1.649030 0.000000 0.010580 
#    y 0.000000 1.640690 0.000000 
#    z 0.010580 0.000000 1.673960 
# 
# From -- ./inp_files/25708.got.cif
#   From: 2010.05.17/outbox.cif.g08.bks.cpg/sg5_13_cif.got.tgz:25708.got - 2010.06.03 18:56:24.
