data_PCOD9122350
_publ_section_title
;
Structure prediction by ZEFSAII (Michael W. Deem and Ramdas Pophale) SiO2 
 PCOD9122350
Probable space group: C 2
;
_chemical_formula_sum "Si O2"
_cell_formula_units_Z 20
_cell_length_a 23.235129
_cell_length_b 7.203415
_cell_length_c 8.103500
_cell_angle_alpha 90.000000
_cell_angle_beta 35.113415
_cell_angle_gamma 90.000000
_cell_volume 780.140128
_symmetry_space_group_name_H-M "C 2"
_symmetry_group_IT_number 5
_symmetry_cell_setting 'monoclinic'
loop_
_space_group_symop_operation_xyz
x,y,z
-x,y,-z
1/2+x,1/2+y,z
1/2-x,1/2+y,-z
loop_
_atom_site_type_symbol
_atom_site_label
_atom_site_fract_x
_atom_site_fract_y
_atom_site_fract_z
Si Si1 0.561914 0.125000 0.707062
Si Si2 0.885371 0.005369 0.236565
Si Si3 0.081415 0.878089 0.181444
Si Si4 0.888869 0.340198 0.686092
Si Si5 0.752184 0.107726 0.822387
O O1 0.617400 0.298849 0.668335
O O2 0.482209 0.225921 0.774251
O O3 0.615345 0.977243 0.464529
O O4 0.500000 0.029388 0.000000
O O5 0.799159 0.116222 0.530828
O O6 0.876409 0.008344 0.060947
O O7 0.000000 0.067879 0.000000
O O8 0.189121 0.423693 0.000735
O O9 0.000000 0.947692 0.500000
O O10 0.173132 0.769435 0.044049
O O11 0.000000 0.343710 0.500000
O O12 0.655092 0.645651 0.274185
#
# Coordination Sequence:
#
# PCOD9122350 Si02
#       5
#     4   4   4   4   4
#     4   9  18  40  71  93 144 190 216 291 358 407
#     4   9  23  42  67 103 141 182 237 287 358 423
#     4  10  19  41  73  97 136 190 226 290 354 420
#     4  12  25  46  70 106 145 181 246 295 348 427
#     4  12  24  43  73 104 139 192 234 291 365 416
#
# _framework density 25.636419
#
# number of rings (size 3 to 8) (size 9 to 14) (size 15 to 20)
#    0.000    2.000    4.000    1.200    2.800    4.000 
#   10.800    0.000    0.000    0.000    0.000    0.000 
#    0.000    0.000    0.000    0.000    0.000    0.000 
#
# Total GULP energy -55927.072513 kJ/mol
# GULP energy per Si atom -5592.707251 kJ/mol
# Density = 2.557807 g / cm^3
# Si number density = 25.636419 Si / 1000 Ang^3
#
#
#
# Elastic Constant Matrix: (Units=GPa)
#
#
# Indices 1 2 3 4 5 6 
#
# 1 106.9413 19.2932 49.8396 0.0000 -11.0139 0.0000
# 2 19.2932 65.9442 36.8765 0.0000 -1.8222 0.0000
# 3 49.8396 36.8765 201.3519 0.0000 16.9356 0.0000
# 4 0.0000 0.0000 0.0000 29.2043 0.0000 3.6806
# 5 -11.0139 -1.8222 16.9356 0.0000 32.0376 0.0000
# 6 0.0000 0.0000 0.0000 3.6806 0.0000 26.2938
#
#
#
# Elastic Compliance Matrix: (Units=1/GPa)
#
#
# Indices 1 2 3 4 5 6 
#
# 1 0.011624 -0.001537 -0.003061 0.000000 0.005526 0.000000
# 2 -0.001537 0.017327 -0.002963 0.000000 0.002024 0.000000
# 3 -0.003061 -0.002963 0.006666 0.000000 -0.004744 0.000000
# 4 0.000000 0.000000 0.000000 0.034856 0.000000 -0.004879
# 5 0.005526 0.002024 -0.004744 0.000000 0.035736 0.000000
# 6 0.000000 0.000000 0.000000 -0.004879 0.000000 0.038715
#
#
# Mechanical properties :
#
#
# Convention : Reuss Voigt Hill
#
# Bulk Modulus (GPa) = 48.79080 65.13954 56.96517
# Shear Modulus (GPa) = 29.96232 35.38901 32.67566
#
# Velocity S-wave (km/s) = 3.42239 3.71943 3.57400
# Velocity P-wave (km/s) = 5.88984 6.62644 6.26897
#
# Compressibility (1/GPa) = 0.02049567
#
# Stress axis : x y z
#
# Youngs Moduli (GPa) = 86.03134 57.71399 150.02098
#
# Poissons Ratio (x) = 0.08868 0.45915
# Poissons Ratio (y) = 0.13219 0.44454
# Poissons Ratio (z) = 0.26331 0.17102
#
# Static dielectric constant tensor:
#      x y z
#    x 2.069780 0.000000 0.057830 
#    y 0.000000 2.069550 0.000000 
#    z 0.057830 0.000000 1.968250 
# 
# From -- ./inp_files/31551.got.cif
#   From: 2010.05.17/outbox.cif.g08.bks.cpg/sg5_16_cif.got.tgz:31551.got - 2010.06.03 18:56:24.
