data_PCOD9122537
_publ_section_title
;
Structure prediction by ZEFSAII (Michael W. Deem and Ramdas Pophale) SiO2 
 PCOD9122537
Probable space group: C 2
;
_chemical_formula_sum "Si O2"
_cell_formula_units_Z 30
_cell_length_a 7.682979
_cell_length_b 14.563746
_cell_length_c 12.847608
_cell_angle_alpha 90.000000
_cell_angle_beta 98.158111
_cell_angle_gamma 90.000000
_cell_volume 1423.009093
_symmetry_space_group_name_H-M "C 2"
_symmetry_group_IT_number 5
_symmetry_cell_setting 'monoclinic'
loop_
_space_group_symop_operation_xyz
x,y,z
-x,y,-z
1/2+x,1/2+y,z
1/2-x,1/2+y,-z
loop_
_atom_site_type_symbol
_atom_site_label
_atom_site_fract_x
_atom_site_fract_y
_atom_site_fract_z
Si Si1 0.803496 0.494020 0.469750
Si Si2 0.227249 0.109328 0.651214
Si Si3 0.961366 0.728279 0.258159
Si Si4 0.232077 0.535700 0.775600
Si Si5 0.546104 0.409013 0.884448
Si Si6 0.000000 0.205719 0.500000
Si Si7 0.268227 0.328671 0.412830
Si Si8 0.634148 0.941785 0.214844
O O1 0.801542 0.582561 0.543601
O O2 0.768717 0.513438 0.347642
O O3 0.685068 0.419297 0.517868
O O4 0.000000 0.455679 0.500000
O O5 0.349498 0.181828 0.717185
O O6 0.037945 0.145966 0.605672
O O7 0.245120 0.019029 0.719788
O O8 0.823263 0.644560 0.218951
O O9 0.977149 0.814675 0.182552
O O10 0.914951 0.770470 0.366849
O O11 0.412062 0.490871 0.835552
O O12 0.063039 0.480106 0.808190
O O13 0.754656 0.426498 0.880442
O O14 0.500000 0.394043 0.000000
O O15 0.163711 0.267687 0.485561
O O16 0.148050 0.360278 0.301953
#
# Coordination Sequence:
#
# PCOD9122537 Si02
#       8
#     4   4   4   4   4   2   4   4
#     4  11  18  38  58  91 135 175 212 249 332 417
#     4  10  23  36  58  93 133 173 215 268 323 422
#     4  10  23  44  66  96 131 179 235 284 341 422
#     4  11  22  44  73  93 141 186 215 285 353 402
#     4  11  27  48  70  98 131 171 242 303 354 408
#     4  12  22  28  54  92 134 172 212 254 320 402
#     4  10  20  34  56  89 134 167 216 260 315 412
#     4   9  21  44  62  92 125 171 225 270 344 417
#
# _framework density 21.082084999999999
#
# number of rings (size 3 to 8) (size 9 to 14) (size 15 to 20)
#    0.000    1.600    4.667    0.800    7.467    0.533 
#    7.200    0.000    0.000    0.000    0.000    0.000 
#    0.000    0.000    0.000    0.000    0.000    0.000 
#
# Total GULP energy -83613.974672 kJ/mol
# GULP energy per Si atom -5574.264978 kJ/mol
# Density = 2.103410 g / cm^3
# Si number density = 21.082085 Si / 1000 Ang^3
#
#
#
# Elastic Constant Matrix: (Units=GPa)
#
#
# Indices 1 2 3 4 5 6 
#
# 1 81.0399 17.0280 16.3167 0.0000 -14.6751 0.0000
# 2 17.0280 82.3707 10.5990 0.0000 -0.1736 0.0000
# 3 16.3167 10.5990 84.5031 0.0000 -29.7464 0.0000
# 4 0.0000 0.0000 0.0000 13.5052 0.0000 -5.5537
# 5 -14.6751 -0.1736 -29.7464 0.0000 29.0411 0.0000
# 6 0.0000 0.0000 0.0000 -5.5537 0.0000 8.9232
#
#
#
# Elastic Compliance Matrix: (Units=1/GPa)
#
#
# Indices 1 2 3 4 5 6 
#
# 1 0.014260 -0.002962 0.000232 0.000000 0.007426 0.000000
# 2 -0.002962 0.013059 -0.002448 0.000000 -0.003926 0.000000
# 3 0.000232 -0.002448 0.018973 0.000000 0.019537 0.000000
# 4 0.000000 0.000000 0.000000 0.099516 0.000000 0.061937
# 5 0.007426 -0.003926 0.019537 0.000000 0.058174 0.000000
# 6 0.000000 0.000000 0.000000 0.061937 0.000000 0.150616
#
#
# Mechanical properties :
#
#
# Convention : Reuss Voigt Hill
#
# Bulk Modulus (GPa) = 27.82698 37.31124 32.56911
# Shear Modulus (GPa) = 13.26490 23.89189 18.57839
#
# Velocity S-wave (km/s) = 2.51111 3.37007 2.97179
# Velocity P-wave (km/s) = 4.65141 5.73408 5.22088
#
# Compressibility (1/GPa) = 0.03593635
#
# Stress axis : x y z
#
# Youngs Moduli (GPa) = 70.12629 76.57356 52.70518
#
# Poissons Ratio (x) = 0.22682 -0.01223
# Poissons Ratio (y) = 0.20772 0.12903
# Poissons Ratio (z) = -0.01628 0.18747
#
# Static dielectric constant tensor:
#      x y z
#    x 1.896970 0.000000 0.009130 
#    y 0.000000 1.852000 0.000000 
#    z 0.009130 0.000000 1.736930 
# 
# From -- ./inp_files/36150.got.cif
#   From: 2010.05.17/outbox.cif.g08.bks.cpg/sg5_19_cif.got.tgz:36150.got - 2010.06.03 18:56:24.
