data_PCOD9122079
_publ_section_title
;
Structure prediction by ZEFSAII (Michael W. Deem and Ramdas Pophale) SiO2 
 PCOD9122079
Probable space group: C 2
;
_chemical_formula_sum "Si O2"
_cell_formula_units_Z 30
_cell_length_a 28.600096
_cell_length_b 8.917148
_cell_length_c 6.197760
_cell_angle_alpha 90.000000
_cell_angle_beta 112.000573
_cell_angle_gamma 90.000000
_cell_volume 1465.521945
_symmetry_space_group_name_H-M "C 2"
_symmetry_group_IT_number 5
_symmetry_cell_setting 'monoclinic'
loop_
_space_group_symop_operation_xyz
x,y,z
-x,y,-z
1/2+x,1/2+y,z
1/2-x,1/2+y,-z
loop_
_atom_site_type_symbol
_atom_site_label
_atom_site_fract_x
_atom_site_fract_y
_atom_site_fract_z
Si Si1 0.665109 0.036100 0.694097
Si Si2 0.751564 0.404547 0.460064
Si Si3 0.647553 0.535826 0.273533
Si Si4 0.750724 0.107306 0.174754
Si Si5 0.637742 0.713393 0.651976
Si Si6 0.067140 0.006165 0.762746
Si Si7 0.500000 0.391739 0.000000
Si Si8 0.909975 0.789865 0.567139
O O1 0.620341 0.140902 0.536728
O O2 0.698881 0.976496 0.555514
O O3 0.642014 0.881598 0.743867
O O4 0.704987 0.112754 0.926558
O O5 0.704028 0.503671 0.303843
O O6 0.744212 0.240142 0.343615
O O7 0.752141 0.443359 0.715375
O O8 0.639172 0.687780 0.393874
O O9 0.631436 0.407473 0.415980
O O10 0.611913 0.513619 0.012121
O O11 0.808199 0.134980 0.191952
O O12 0.585216 0.640779 0.640035
O O13 0.068630 0.859032 0.617298
O O14 0.018559 0.995065 0.832132
O O15 0.545696 0.293666 0.177328
#
# Coordination Sequence:
#
# PCOD9122079 Si02
#       8
#     4   4   4   4   4   4   2   4
#     4  11  22  35  56  87 124 161 193 234 290 344
#     4  10  20  34  52  82 121 159 200 232 270 333
#     4   9  18  34  56  82 114 155 196 235 273 328
#     4  10  21  34  53  83 122 168 201 232 273 332
#     4   9  21  35  54  86 123 156 193 234 285 342
#     4  10  19  38  63  84 107 142 194 244 290 349
#     4  10  22  40  68  88 106 142 196 256 302 348
#     4  10  21  37  62  90 113 148 196 245 296 345
#
# _framework density 20.470524000000001
#
# number of rings (size 3 to 8) (size 9 to 14) (size 15 to 20)
#    0.000    2.133    0.000    2.800    0.000   11.733 
#    0.000    0.000    0.000   19.200    0.000    0.000 
#    0.000    0.000    0.000    0.000    0.000    0.000 
#
# Total GULP energy -83544.659646 kJ/mol
# GULP energy per Si atom -5569.643976 kJ/mol
# Density = 2.042393 g / cm^3
# Si number density = 20.470524 Si / 1000 Ang^3
#
#
#
# Elastic Constant Matrix: (Units=GPa)
#
#
# Indices 1 2 3 4 5 6 
#
# 1 87.4328 42.7492 23.8887 0.0000 8.9576 0.0000
# 2 42.7492 93.8630 36.2083 0.0000 4.0858 0.0000
# 3 23.8887 36.2083 79.8944 0.0000 23.6201 0.0000
# 4 0.0000 0.0000 0.0000 19.6687 0.0000 4.9356
# 5 8.9576 4.0858 23.6201 0.0000 39.1258 0.0000
# 6 0.0000 0.0000 0.0000 4.9356 0.0000 22.0675
#
#
#
# Elastic Compliance Matrix: (Units=1/GPa)
#
#
# Indices 1 2 3 4 5 6 
#
# 1 0.015048 -0.006390 -0.000952 0.000000 -0.002203 0.000000
# 2 -0.006390 0.015856 -0.006352 0.000000 0.003642 0.000000
# 3 -0.000952 -0.006352 0.018769 0.000000 -0.010450 0.000000
# 4 0.000000 0.000000 0.000000 0.053865 0.000000 -0.012047
# 5 -0.002203 0.003642 -0.010450 0.000000 0.031991 0.000000
# 6 0.000000 0.000000 0.000000 -0.012047 0.000000 0.048010
#
#
# Mechanical properties :
#
#
# Convention : Reuss Voigt Hill
#
# Bulk Modulus (GPa) = 44.87395 51.87587 48.37491
# Shear Modulus (GPa) = 22.89843 26.72865 24.81354
#
# Velocity S-wave (km/s) = 3.34818 3.61739 3.48539
# Velocity P-wave (km/s) = 6.07585 6.54554 6.31506
#
# Compressibility (1/GPa) = 0.02228465
#
# Stress axis : x y z
#
# Youngs Moduli (GPa) = 66.45595 63.06764 53.27869
#
# Poissons Ratio (x) = 0.40302 0.05072
# Poissons Ratio (y) = 0.42467 0.33842
# Poissons Ratio (z) = 0.06326 0.40060
#
# Static dielectric constant tensor:
#      x y z
#    x 1.774500 0.000000 -0.044990 
#    y 0.000000 1.779310 0.000000 
#    z -0.044990 0.000000 1.789080 
# 
# From -- ./inp_files/11260.got.cif
#   From: 2010.05.17/outbox.cif.g08.bks.cpg/sg5_6_cif.got.tgz:11260.got - 2010.06.03 18:56:24.
