data_PCOD9122388
_publ_section_title
;
Structure prediction by ZEFSAII (Michael W. Deem and Ramdas Pophale) SiO2 
 PCOD9122388
Probable space group: C 2
;
_chemical_formula_sum "Si O2"
_cell_formula_units_Z 30
_cell_length_a 9.708555
_cell_length_b 12.931454
_cell_length_c 19.057634
_cell_angle_alpha 90.000000
_cell_angle_beta 145.636709
_cell_angle_gamma 90.000000
_cell_volume 1350.477547
_symmetry_space_group_name_H-M "C 2"
_symmetry_group_IT_number 5
_symmetry_cell_setting 'monoclinic'
loop_
_space_group_symop_operation_xyz
x,y,z
-x,y,-z
1/2+x,1/2+y,z
1/2-x,1/2+y,-z
loop_
_atom_site_type_symbol
_atom_site_label
_atom_site_fract_x
_atom_site_fract_y
_atom_site_fract_z
Si Si1 0.744353 0.852080 0.360192
Si Si2 0.398425 0.163042 0.336619
Si Si3 0.935699 0.192303 0.597083
Si Si4 0.383261 0.515991 0.675464
Si Si5 0.769808 0.888181 0.083897
Si Si6 0.000000 0.339089 0.500000
Si Si7 0.283810 0.955227 0.093234
Si Si8 0.215486 0.669806 0.869844
O O1 0.823541 0.779117 0.328068
O O2 0.644337 0.774058 0.377204
O O3 0.505446 0.915303 0.235475
O O4 0.000000 0.898615 0.500000
O O5 0.687185 0.154635 0.456377
O O6 0.311792 0.138628 0.222476
O O7 0.298087 0.088666 0.355286
O O8 0.061342 0.262203 0.590450
O O9 0.014482 0.088121 0.671919
O O10 0.570589 0.475392 0.812190
O O11 0.226506 0.418176 0.580641
O O12 0.893082 0.779772 0.157059
O O13 0.500000 0.898550 0.000000
O O14 0.736135 0.893633 0.986905
O O15 0.355394 0.074767 0.111266
O O16 0.000000 0.954543 0.000000
O O17 0.500000 0.686471 0.000000
#
# Coordination Sequence:
#
# PCOD9122388 Si02
#       8
#     4   4   4   4   4   2   4   4
#     4   9  20  40  70 100 139 183 235 290 369 437
#     4  10  19  43  69  96 135 190 231 291 370 442
#     4  10  23  41  68 106 139 190 241 292 365 448
#     4  11  22  45  74  97 144 187 235 308 372 424
#     4  11  25  46  69  96 140 190 239 298 374 442
#     4  12  24  40  78 104 142 190 248 304 360 444
#     4  11  24  42  71 105 135 183 244 303 365 442
#     4  10  21  39  65  93 132 183 234 285 360 449
#
# _framework density 22.214364
#
# number of rings (size 3 to 8) (size 9 to 14) (size 15 to 20)
#    0.000    1.600    1.333    4.800    3.733    2.133 
#    4.800    3.333   14.667    0.000    0.000    0.000 
#    0.000    0.000    0.000    0.000    0.000    0.000 
#
# Total GULP energy -83652.002225 kJ/mol
# GULP energy per Si atom -5576.800148 kJ/mol
# Density = 2.216380 g / cm^3
# Si number density = 22.214364 Si / 1000 Ang^3
#
#
#
# Elastic Constant Matrix: (Units=GPa)
#
#
# Indices 1 2 3 4 5 6 
#
# 1 66.2986 29.7818 17.6995 0.0000 -4.8486 0.0000
# 2 29.7818 95.8966 42.4870 0.0001 5.8088 0.0000
# 3 17.6995 42.4870 140.2649 0.0003 11.4520 0.0000
# 4 0.0000 0.0001 0.0003 21.6765 0.0000 -10.5848
# 5 -4.8486 5.8088 11.4520 0.0000 33.4508 0.0000
# 6 0.0000 0.0000 0.0000 -10.5848 0.0000 19.4473
#
#
#
# Elastic Compliance Matrix: (Units=1/GPa)
#
#
# Indices 1 2 3 4 5 6 
#
# 1 0.018057 -0.005421 -0.000954 0.000000 0.003885 0.000000
# 2 -0.005421 0.013696 -0.003298 0.000000 -0.002035 0.000000
# 3 -0.000954 -0.003298 0.008450 0.000000 -0.002458 0.000000
# 4 0.000000 0.000000 0.000000 0.062832 0.000000 0.034199
# 5 0.003885 -0.002035 -0.002458 0.000000 0.031653 0.000000
# 6 0.000000 0.000000 0.000000 0.034199 0.000000 0.070035
#
#
# Mechanical properties :
#
#
# Convention : Reuss Voigt Hill
#
# Bulk Modulus (GPa) = 47.94593 53.59962 50.77278
# Shear Modulus (GPa) = 21.64311 29.08103 25.36207
#
# Velocity S-wave (km/s) = 3.12474 3.62209 3.38257
# Velocity P-wave (km/s) = 5.88632 6.45550 6.17747
#
# Compressibility (1/GPa) = 0.02085683
#
# Stress axis : x y z
#
# Youngs Moduli (GPa) = 55.38018 73.01427 118.34958
#
# Poissons Ratio (x) = 0.39578 0.11289
# Poissons Ratio (y) = 0.30019 0.39037
# Poissons Ratio (z) = 0.05282 0.24083
#
# Static dielectric constant tensor:
#      x y z
#    x 1.854630 0.000000 0.032060 
#    y 0.000000 1.892190 0.000000 
#    z 0.032060 0.000000 1.797710 
# 
# From -- ./inp_files/65361.got.cif
#   From: 2010.05.17/outbox.cif.g08.bks.cpg/sg5_33_cif.got.tgz:65361.got - 2010.06.03 18:56:24.
