data_PCOD9122656
_publ_section_title
;
Structure prediction by ZEFSAII (Michael W. Deem and Ramdas Pophale) SiO2 
 PCOD9122656
Probable space group: C 2
;
_chemical_formula_sum "Si O2"
_cell_formula_units_Z 32
_cell_length_a 11.057326
_cell_length_b 19.509428
_cell_length_c 10.175479
_cell_angle_alpha 90.000000
_cell_angle_beta 142.693983
_cell_angle_gamma 90.000000
_cell_volume 1330.373809
_symmetry_space_group_name_H-M "C 2"
_symmetry_group_IT_number 5
_symmetry_cell_setting 'monoclinic'
loop_
_space_group_symop_operation_xyz
x,y,z
-x,y,-z
1/2+x,1/2+y,z
1/2-x,1/2+y,-z
loop_
_atom_site_type_symbol
_atom_site_label
_atom_site_fract_x
_atom_site_fract_y
_atom_site_fract_z
Si Si1 0.761211 0.109880 0.541428
Si Si2 0.771124 0.963621 0.467473
Si Si3 0.256261 0.686204 0.796709
Si Si4 0.752085 0.112406 0.044671
Si Si5 0.753772 0.965661 0.149805
Si Si6 0.756768 0.197152 0.294414
Si Si7 0.130276 0.327399 0.485928
Si Si8 0.861499 0.318323 0.007895
O O1 0.695810 0.161780 0.600083
O O2 0.699347 0.138891 0.347248
O O3 0.004595 0.111786 0.749644
O O4 0.704610 0.029902 0.493716
O O5 0.689869 0.960269 0.247569
O O6 0.726237 0.893402 0.502739
O O7 0.006641 0.970857 0.648872
O O8 0.500000 0.686296 0.000000
O O9 0.191707 0.629693 0.845458
O O10 0.209470 0.760039 0.822742
O O11 0.693658 0.172544 0.096297
O O12 0.684134 0.037993 0.032041
O O13 0.713443 0.895515 0.035774
O O14 0.715848 0.271061 0.323279
O O15 0.000000 0.198247 0.500000
O O16 0.000000 0.347919 0.500000
O O17 0.987469 0.296509 0.245952
O O18 0.000000 0.325677 0.000000
#
# Coordination Sequence:
#
# PCOD9122656 Si02
#       8
#     4   4   4   4   4   4   4   4
#     4   9  16  28  50  76 104 133 179 230 263 307
#     4  10  20  36  55  83 111 146 187 225 278 330
#     4   9  17  28  48  79 108 134 176 234 272 305
#     4   9  16  30  51  78 102 138 183 227 265 312
#     4  10  20  35  58  82 109 148 186 227 271 334
#     4   9  15  28  50  76 102 134 180 223 264 309
#     4  11  22  35  56  85 116 146 177 231 284 330
#     4  11  20  35  56  85 114 146 184 225 278 335
#
# _framework density 24.05339
#
# number of rings (size 3 to 8) (size 9 to 14) (size 15 to 20)
#    0.000    2.250    2.500    3.750    0.000    1.000 
#    0.000    1.875    0.000    4.500    0.000    0.000 
#    0.000    0.000    0.000    0.000    0.000    0.000 
#
# Total GULP energy -89404.699894 kJ/mol
# GULP energy per Si atom -5587.793743 kJ/mol
# Density = 2.399864 g / cm^3
# Si number density = 24.053390 Si / 1000 Ang^3
#
#
#
# Elastic Constant Matrix: (Units=GPa)
#
#
# Indices 1 2 3 4 5 6 
#
# 1 71.2248 34.2341 20.1867 0.0000 -20.1629 0.0000
# 2 34.2341 204.8181 38.7957 0.0000 -24.1241 0.0000
# 3 20.1867 38.7957 117.7370 0.0000 -18.8359 0.0000
# 4 0.0000 0.0000 0.0000 29.0950 0.0000 -5.2244
# 5 -20.1629 -24.1241 -18.8359 0.0000 40.4576 0.0000
# 6 0.0000 0.0000 0.0000 -5.2244 0.0000 37.6643
#
#
#
# Elastic Compliance Matrix: (Units=1/GPa)
#
#
# Indices 1 2 3 4 5 6 
#
# 1 0.017230 -0.001829 -0.001245 0.000000 0.006917 0.000000
# 2 -0.001829 0.005645 -0.001247 0.000000 0.001874 0.000000
# 3 -0.001245 -0.001247 0.009616 0.000000 0.003113 0.000000
# 4 0.000000 0.000000 0.000000 0.035248 0.000000 0.004889
# 5 0.006917 0.001874 0.003113 0.000000 0.030731 0.000000
# 6 0.000000 0.000000 0.000000 0.004889 0.000000 0.027229
#
#
# Mechanical properties :
#
#
# Convention : Reuss Voigt Hill
#
# Bulk Modulus (GPa) = 41.93036 64.46809 53.19923
# Shear Modulus (GPa) = 35.13944 41.48093 38.31018
#
# Velocity S-wave (km/s) = 3.82631 4.15726 3.99521
# Velocity P-wave (km/s) = 6.08202 7.06428 6.59147
#
# Compressibility (1/GPa) = 0.02384907
#
# Stress axis : x y z
#
# Youngs Moduli (GPa) = 58.03757 177.14781 103.99588
#
# Poissons Ratio (x) = 0.32409 0.12946
# Poissons Ratio (y) = 0.10618 0.12964
# Poissons Ratio (z) = 0.07225 0.22084
#
# Static dielectric constant tensor:
#      x y z
#    x 1.950460 0.000000 0.111760 
#    y 0.000000 1.928950 0.000000 
#    z 0.111760 0.000000 1.952820 
# 
# From -- ./inp_files/21996.got.cif
#   From: 2010.05.17/outbox.cif.g08.bks.cpg/sg5_11_cif.got.tgz:21996.got - 2010.06.03 18:56:24.
