data_PCOD9122843
_publ_section_title
;
Structure prediction by ZEFSAII (Michael W. Deem and Ramdas Pophale) SiO2 
 PCOD9122843
Probable space group: C 2
;
_chemical_formula_sum "Si O2"
_cell_formula_units_Z 32
_cell_length_a 8.611067
_cell_length_b 24.423050
_cell_length_c 15.515927
_cell_angle_alpha 90.000000
_cell_angle_beta 148.856254
_cell_angle_gamma 90.000000
_cell_volume 1687.649096
_symmetry_space_group_name_H-M "C 2"
_symmetry_group_IT_number 5
_symmetry_cell_setting 'monoclinic'
loop_
_space_group_symop_operation_xyz
x,y,z
-x,y,-z
1/2+x,1/2+y,z
1/2-x,1/2+y,-z
loop_
_atom_site_type_symbol
_atom_site_label
_atom_site_fract_x
_atom_site_fract_y
_atom_site_fract_z
Si Si1 0.088497 0.037690 0.185212
Si Si2 0.292566 0.655286 0.323830
Si Si3 0.785128 0.847722 0.980778
Si Si4 0.340120 0.649272 0.679802
Si Si5 0.792337 0.922109 0.321080
Si Si6 0.197783 0.721366 0.005803
Si Si7 0.134909 0.929450 0.832316
Si Si8 0.492572 0.039421 0.212272
O O1 0.148327 0.088267 0.276196
O O2 0.352927 0.032348 0.240961
O O3 0.027983 0.982773 0.209216
O O4 0.784193 0.046885 0.985441
O O5 0.500000 0.676874 0.500000
O O6 0.481680 0.651524 0.325502
O O7 0.185924 0.594336 0.298511
O O8 0.001934 0.692023 0.162230
O O9 0.914014 0.880639 0.123656
O O10 0.483630 0.880095 0.813263
O O11 0.734389 0.784568 0.980545
O O12 0.000000 0.850558 0.000000
O O13 0.506976 0.687361 0.828936
O O14 0.000000 0.665933 0.500000
O O15 0.960557 0.917212 0.310015
O O16 0.000000 0.910387 0.500000
O O17 0.667891 0.984260 0.270615
O O18 0.000000 0.720427 0.000000
O O19 0.500000 0.938766 0.000000
#
# Coordination Sequence:
#
# PCOD9122843 Si02
#       8
#     4   4   4   4   4   4   4   4
#     4  11  21  35  60  90 120 159 203 244 300 363
#     4  11  22  40  62  89 124 160 200 250 304 360
#     4  10  20  41  64  85 113 158 207 246 297 366
#     4  11  23  39  60  91 125 159 204 247 299 365
#     4  11  23  38  59  91 122 154 196 247 309 358
#     4   9  21  40  64  85 115 164 203 246 308 355
#     4  10  20  36  60  85 118 158 194 241 304 361
#     4  11  21  36  60  91 122 159 199 246 301 365
#
# _framework density 18.961288
#
# number of rings (size 3 to 8) (size 9 to 14) (size 15 to 20)
#    0.000    1.500    3.750    2.625    0.000    1.500 
#    0.000   13.125    0.000    0.000    0.000    0.000 
#    0.000    0.000    0.000    0.000    0.000    0.000 
#
# Total GULP energy -89391.621793 kJ/mol
# GULP energy per Si atom -5586.976362 kJ/mol
# Density = 1.891813 g / cm^3
# Si number density = 18.961288 Si / 1000 Ang^3
#
#
#
# Elastic Constant Matrix: (Units=GPa)
#
#
# Indices 1 2 3 4 5 6 
#
# 1 89.0425 35.4697 43.6220 -0.0001 -22.2858 0.0000
# 2 35.4697 147.3453 65.4366 0.0000 -7.0882 0.0000
# 3 43.6220 65.4366 127.7891 0.0000 -25.2761 -0.0001
# 4 -0.0001 0.0000 0.0000 4.3319 0.0000 -0.3617
# 5 -22.2858 -7.0882 -25.2761 0.0000 30.1621 0.0000
# 6 0.0000 0.0000 -0.0001 -0.3617 0.0000 25.5672
#
#
#
# Elastic Compliance Matrix: (Units=1/GPa)
#
#
# Indices 1 2 3 4 5 6 
#
# 1 0.015534 -0.002253 -0.002378 0.000000 0.008956 0.000000
# 2 -0.002253 0.009218 -0.004617 0.000000 -0.003367 0.000000
# 3 -0.002378 -0.004617 0.012513 0.000000 0.007644 0.000000
# 4 0.000000 0.000000 0.000000 0.231120 0.000000 0.003270
# 5 0.008956 -0.003367 0.007644 0.000000 0.045386 0.000000
# 6 0.000000 0.000000 0.000000 0.003270 0.000000 0.039159
#
#
# Mechanical properties :
#
#
# Convention : Reuss Voigt Hill
#
# Bulk Modulus (GPa) = 53.27643 72.58149 62.92896
# Shear Modulus (GPa) = 13.23865 26.65547 19.94706
#
# Velocity S-wave (km/s) = 2.64520 3.75345 3.24696
# Velocity P-wave (km/s) = 6.12274 7.55952 6.87875
#
# Compressibility (1/GPa) = 0.01877003
#
# Stress axis : x y z
#
# Youngs Moduli (GPa) = 64.37354 108.48895 79.91443
#
# Poissons Ratio (x) = 0.24439 0.19002
# Poissons Ratio (y) = 0.14501 0.36897
# Poissons Ratio (z) = 0.15307 0.50090
#
# Static dielectric constant tensor:
#      x y z
#    x 1.658100 0.000000 0.001860 
#    y 0.000000 1.625840 0.000000 
#    z 0.001860 0.000000 1.673550 
# 
# From -- ./inp_files/25640.got.cif
#   From: 2010.05.17/outbox.cif.g08.bks.cpg/sg5_13_cif.got.tgz:25640.got - 2010.06.03 18:56:24.
