data_PCOD9122902
_publ_section_title
;
Structure prediction by ZEFSAII (Michael W. Deem and Ramdas Pophale) SiO2 
 PCOD9122902
Probable space group: C 2
;
_chemical_formula_sum "Si O2"
_cell_formula_units_Z 30
_cell_length_a 14.390877
_cell_length_b 16.997517
_cell_length_c 6.051390
_cell_angle_alpha 90.000000
_cell_angle_beta 106.297594
_cell_angle_gamma 90.000000
_cell_volume 1420.745736
_symmetry_space_group_name_H-M "C 2"
_symmetry_group_IT_number 5
_symmetry_cell_setting 'monoclinic'
loop_
_space_group_symop_operation_xyz
x,y,z
-x,y,-z
1/2+x,1/2+y,z
1/2-x,1/2+y,-z
loop_
_atom_site_type_symbol
_atom_site_label
_atom_site_fract_x
_atom_site_fract_y
_atom_site_fract_z
Si Si1 0.843244 0.285180 0.106425
Si Si2 0.271723 0.904284 0.411555
Si Si3 0.761533 0.034867 0.951386
Si Si4 0.597273 0.322848 0.444281
Si Si5 0.392768 0.942255 0.872434
Si Si6 0.451666 0.623826 0.219043
Si Si7 0.838721 0.690805 0.209250
Si Si8 0.500000 0.245464 0.000000
O O1 0.809203 0.328327 0.306001
O O2 0.919797 0.215704 0.197861
O O3 0.880005 0.354980 0.971070
O O4 0.748486 0.243549 0.944432
O O5 0.188786 0.878710 0.527708
O O6 0.364602 0.938295 0.597870
O O7 0.222411 0.965366 0.212266
O O8 0.707250 0.106065 0.790623
O O9 0.856129 0.069316 0.133089
O O10 0.685585 0.999357 0.072135
O O11 0.500000 0.351066 0.500000
O O12 0.624611 0.237069 0.554009
O O13 0.569830 0.305090 0.176440
O O14 0.500000 0.968985 0.000000
O O15 0.500000 0.609290 0.500000
O O16 0.500000 0.612462 0.000000
O O17 0.930441 0.693878 0.106863
#
# Coordination Sequence:
#
# PCOD9122902 Si02
#       8
#     4   4   4   4   4   4   4   2
#     4  10  22  40  71 102 133 184 239 303 359 428
#     4  11  23  45  69  96 145 183 238 304 370 439
#     4  10  27  45  66 103 141 189 234 300 376 441
#     4  10  21  38  68  99 128 175 234 291 348 429
#     4  11  25  44  67  99 140 184 243 299 374 436
#     4  11  27  49  78 113 149 194 252 305 373 447
#     4  10  20  41  63  95 129 172 231 281 352 422
#     4  10  20  36  62  98 124 166 222 278 346 404
#
# _framework density 21.115670000000001
#
# number of rings (size 3 to 8) (size 9 to 14) (size 15 to 20)
#    0.000    1.600    2.667    0.400    6.533    2.667 
#    8.400    0.000    0.000    0.000    0.000    0.000 
#    0.000    0.000    0.000    0.000    0.000    0.000 
#
# Total GULP energy -83672.303528 kJ/mol
# GULP energy per Si atom -5578.153569 kJ/mol
# Density = 2.106761 g / cm^3
# Si number density = 21.115670 Si / 1000 Ang^3
#
#
#
# Elastic Constant Matrix: (Units=GPa)
#
#
# Indices 1 2 3 4 5 6 
#
# 1 93.5578 48.3440 35.3101 0.0000 13.5125 0.0000
# 2 48.3440 70.3610 21.7489 0.0000 -0.6066 0.0000
# 3 35.3101 21.7489 95.9284 0.0000 20.5968 0.0000
# 4 0.0000 0.0000 0.0000 5.9845 0.0000 12.8887
# 5 13.5125 -0.6066 20.5968 0.0000 27.2566 0.0000
# 6 0.0000 0.0000 0.0000 12.8887 0.0000 16.7386
#
#
#
# Elastic Compliance Matrix: (Units=1/GPa)
#
#
# Indices 1 2 3 4 5 6 
#
# 1 0.019258 -0.012509 -0.002558 0.000000 -0.007893 0.000000
# 2 -0.012509 0.023699 -0.002642 0.000000 0.008725 0.000000
# 3 -0.002558 -0.002642 0.013972 0.000000 -0.009349 0.000000
# 4 0.000000 0.000000 0.000000 -0.253823 0.000000 0.195443
# 5 -0.007893 0.008725 -0.009349 0.000000 0.047860 0.000000
# 6 0.000000 0.000000 0.000000 0.195443 0.000000 -0.090748
#
#
# Mechanical properties :
#
#
# Convention : Reuss Voigt Hill
#
# Bulk Modulus (GPa) = 46.48748 52.29480 49.39114
# Shear Modulus (GPa) = -25.35578 20.29222 -2.53178
#
# Velocity S-wave (km/s) = -3.46902 3.10337 -1.09618
# Velocity P-wave (km/s) = 2.45315 6.13684 4.67326
#
# Compressibility (1/GPa) = 0.02151117
#
# Stress axis : x y z
#
# Youngs Moduli (GPa) = 51.92745 42.19572 71.57014
#
# Poissons Ratio (x) = 0.52783 0.18307
# Poissons Ratio (y) = 0.64956 0.18909
# Poissons Ratio (z) = 0.13282 0.11148
#
# Static dielectric constant tensor:
#      x y z
#    x 1.771930 0.000000 -0.024890 
#    y 0.000000 1.739850 0.000000 
#    z -0.024890 0.000000 1.776800 
# 
# From -- ./inp_files/7326.got.cif
#   From: 2010.05.17/outbox.cif.g08.bks.cpg/sg5_4_cif.got.tgz:7326.got - 2010.06.03 18:56:24.
