data_PCOD9122582
_publ_section_title
;
Structure prediction by ZEFSAII (Michael W. Deem and Ramdas Pophale) SiO2 
 PCOD9122582
Probable space group: C 2
;
_chemical_formula_sum "Si O2"
_cell_formula_units_Z 26
_cell_length_a 22.097899
_cell_length_b 11.076593
_cell_length_c 9.397437
_cell_angle_alpha 90.000000
_cell_angle_beta 152.488060
_cell_angle_gamma 90.000000
_cell_volume 1062.541782
_symmetry_space_group_name_H-M "C 2"
_symmetry_group_IT_number 5
_symmetry_cell_setting 'monoclinic'
loop_
_space_group_symop_operation_xyz
x,y,z
-x,y,-z
1/2+x,1/2+y,z
1/2-x,1/2+y,-z
loop_
_atom_site_type_symbol
_atom_site_label
_atom_site_fract_x
_atom_site_fract_y
_atom_site_fract_z
Si Si1 0.598900 0.925550 0.537580
Si Si2 0.860688 0.051087 0.421952
Si Si3 0.500000 0.143843 0.500000
Si Si4 0.622553 0.761553 0.341589
Si Si5 0.222050 0.221687 0.984355
Si Si6 0.844619 0.908456 0.650050
Si Si7 0.665968 0.564676 0.106787
O O1 0.549285 0.856079 0.295258
O O2 0.635914 0.831450 0.742050
O O3 0.514308 0.043278 0.403449
O O4 0.737458 0.971593 0.767612
O O5 0.817230 0.166026 0.424590
O O6 0.819023 0.095343 0.180713
O O7 0.016573 0.045179 0.753149
O O8 0.818639 0.938472 0.430119
O O9 0.626331 0.227914 0.744944
O O10 0.739009 0.816046 0.491699
O O11 0.500000 0.710392 0.000000
O O12 0.203947 0.191670 0.112713
O O13 0.000000 0.876502 0.000000
O O14 0.821475 0.028169 0.701309
#
# Coordination Sequence:
#
# PCOD9122582 Si02
#       7
#     4   4   2   4   4   4   4
#     4   9  21  37  59  84 121 156 196 247 303 355
#     4  10  20  36  61  82 113 151 199 236 292 361
#     4  10  22  40  56  88 128 150 200 256 294 358
#     4  10  20  34  60  87 114 149 201 240 296 359
#     4  10  21  37  60  86 120 154 196 247 302 350
#     4   9  19  37  58  81 120 153 191 242 292 357
#     4   9  18  37  59  83 113 154 193 246 288 357
#
# _framework density 24.469625000000001
#
# number of rings (size 3 to 8) (size 9 to 14) (size 15 to 20)
#    0.000    2.462    0.000    1.846    6.462    0.000 
#    5.538    0.769   47.385    0.000    0.000    0.000 
#    0.000    0.000    0.000    0.000    0.000    0.000 
#
# Total GULP energy -72493.391816 kJ/mol
# GULP energy per Si atom -5576.414755 kJ/mol
# Density = 2.441393 g / cm^3
# Si number density = 24.469625 Si / 1000 Ang^3
#
#
#
# Elastic Constant Matrix: (Units=GPa)
#
#
# Indices 1 2 3 4 5 6 
#
# 1 99.9942 38.5105 22.8352 0.0000 23.2181 0.0000
# 2 38.5105 65.7012 14.8217 0.0000 8.8394 0.0000
# 3 22.8352 14.8217 44.7967 0.0000 9.3406 0.0000
# 4 0.0000 0.0000 0.0000 24.9347 0.0000 13.8273
# 5 23.2181 8.8394 9.3406 0.0000 42.7259 0.0000
# 6 0.0000 0.0000 0.0000 13.8273 0.0000 13.3461
#
#
#
# Elastic Compliance Matrix: (Units=1/GPa)
#
#
# Indices 1 2 3 4 5 6 
#
# 1 0.015015 -0.007097 -0.004097 0.000000 -0.005796 0.000000
# 2 -0.007097 0.020025 -0.003089 0.000000 0.000389 0.000000
# 3 -0.004097 -0.003089 0.026022 0.000000 -0.002823 0.000000
# 4 0.000000 0.000000 0.000000 0.094262 0.000000 -0.097661
# 5 -0.005796 0.000389 -0.002823 0.000000 0.027091 0.000000
# 6 0.000000 0.000000 0.000000 -0.097661 0.000000 0.176111
#
#
# Mechanical properties :
#
#
# Convention : Reuss Voigt Hill
#
# Bulk Modulus (GPa) = 30.77331 40.31409 35.54370
# Shear Modulus (GPa) = 12.56518 25.15631 18.86075
#
# Velocity S-wave (km/s) = 2.26852 3.20982 2.77931
# Velocity P-wave (km/s) = 4.41191 5.49983 4.98564
#
# Compressibility (1/GPa) = 0.03249569
#
# Stress axis : x y z
#
# Youngs Moduli (GPa) = 66.59897 49.93809 38.42831
#
# Poissons Ratio (x) = 0.35441 0.15746
# Poissons Ratio (y) = 0.47266 0.11870
# Poissons Ratio (z) = 0.27289 0.15426
#
# Static dielectric constant tensor:
#      x y z
#    x 2.027930 0.000000 -0.053070 
#    y 0.000000 2.007840 0.000000 
#    z -0.053070 0.000000 1.922170 
# 
# From -- ./inp_files/29875.got.cif
#   From: 2010.05.17/outbox.cif.g08.bks.cpg/sg5_15_cif.got.tgz:29875.got - 2010.06.03 18:56:24.
