data_PCOD9122069
_publ_section_title
;
Structure prediction by ZEFSAII (Michael W. Deem and Ramdas Pophale) SiO2 
 PCOD9122069
Probable space group: C 2
;
_chemical_formula_sum "Si O2"
_cell_formula_units_Z 24
_cell_length_a 17.730746
_cell_length_b 15.026185
_cell_length_c 9.456258
_cell_angle_alpha 90.000000
_cell_angle_beta 32.178000
_cell_angle_gamma 90.000000
_cell_volume 1341.703398
_symmetry_space_group_name_H-M "C 2"
_symmetry_group_IT_number 5
_symmetry_cell_setting 'monoclinic'
loop_
_space_group_symop_operation_xyz
x,y,z
-x,y,-z
1/2+x,1/2+y,z
1/2-x,1/2+y,-z
loop_
_atom_site_type_symbol
_atom_site_label
_atom_site_fract_x
_atom_site_fract_y
_atom_site_fract_z
Si Si1 0.333008 0.493800 0.739819
Si Si2 0.416462 0.314745 0.492869
Si Si3 0.846203 0.478136 0.689753
Si Si4 0.118806 0.632206 0.589751
Si Si5 0.128427 0.845819 0.908698
Si Si6 0.806328 0.641737 0.223301
O O1 0.500000 0.495931 0.500000
O O2 0.314317 0.397194 0.693043
O O3 0.294225 0.578968 0.707625
O O4 0.245044 0.495939 0.024351
O O5 0.500000 0.283069 0.500000
O O6 0.349920 0.230897 0.518498
O O7 0.541784 0.347246 0.192138
O O8 0.869124 0.565852 0.559520
O O9 0.755870 0.414229 0.729683
O O10 0.000000 0.444747 0.500000
O O11 0.207120 0.613285 0.591471
O O12 0.960283 0.627532 0.906004
O O13 0.198762 0.749087 0.771346
O O14 0.000000 0.860901 0.000000
#
# Coordination Sequence:
#
# PCOD9122069 Si02
#       6
#     4   4   4   4   4   4
#     4  11  23  39  62  93 128 164 207 258 314 368
#     4  10  19  38  62  88 117 169 208 244 301 386
#     4  12  24  38  63  99 126 161 212 263 310 363
#     4  10  21  37  64  89 119 165 207 251 306 378
#     4  11  22  41  64  90 125 171 211 248 313 382
#     4  10  21  40  62  91 122 163 211 254 311 371
#
# _framework density 17.887708
#
# number of rings (size 3 to 8) (size 9 to 14) (size 15 to 20)
#    0.000    1.333    8.333    0.500    4.667    0.667 
#    0.000    0.000    0.000    0.000    0.000    0.000 
#    0.000    0.000    0.000    0.000    0.000    0.000 
#
# Total GULP energy -66815.526225 kJ/mol
# GULP energy per Si atom -5567.960519 kJ/mol
# Density = 1.784699 g / cm^3
# Si number density = 17.887708 Si / 1000 Ang^3
#
#
#
# Elastic Constant Matrix: (Units=GPa)
#
#
# Indices 1 2 3 4 5 6 
#
# 1 113.2401 55.2186 38.6540 0.0000 3.0797 0.0000
# 2 55.2186 92.4089 23.2329 0.0000 -9.4655 0.0000
# 3 38.6540 23.2329 68.2026 0.0000 10.8417 0.0000
# 4 0.0000 0.0000 0.0000 14.2929 0.0000 -5.4510
# 5 3.0797 -9.4655 10.8417 0.0000 30.5842 0.0000
# 6 0.0000 0.0000 0.0000 -5.4510 0.0000 29.9460
#
#
#
# Elastic Compliance Matrix: (Units=1/GPa)
#
#
# Indices 1 2 3 4 5 6 
#
# 1 0.014295 -0.007404 -0.005285 0.000000 -0.001858 0.000000
# 2 -0.007404 0.016574 -0.002526 0.000000 0.006771 0.000000
# 3 -0.005285 -0.002526 0.019666 0.000000 -0.007221 0.000000
# 4 0.000000 0.000000 0.000000 0.075184 0.000000 0.013686
# 5 -0.001858 0.006771 -0.007221 0.000000 0.037539 0.000000
# 6 0.000000 0.000000 0.000000 0.013686 0.000000 0.035885
#
#
# Mechanical properties :
#
#
# Convention : Reuss Voigt Hill
#
# Bulk Modulus (GPa) = 49.73575 56.45139 53.09357
# Shear Modulus (GPa) = 21.16188 25.41438 23.28813
#
# Velocity S-wave (km/s) = 3.44327 3.77340 3.61211
# Velocity P-wave (km/s) = 6.60855 7.11421 6.86604
#
# Compressibility (1/GPa) = 0.02010626
#
# Stress axis : x y z
#
# Youngs Moduli (GPa) = 69.95214 60.33471 50.85023
#
# Poissons Ratio (x) = 0.44671 0.26872
# Poissons Ratio (y) = 0.51792 0.12845
# Poissons Ratio (z) = 0.36967 0.15241
#
# Static dielectric constant tensor:
#      x y z
#    x 1.731340 0.000000 0.007680 
#    y 0.000000 1.640200 0.000000 
#    z 0.007680 0.000000 1.584490 
# 
# From -- ./inp_files/19806.got.cif
#   From: 2010.05.17/outbox.cif.g08.bks.cpg/sg5_10_cif.got.tgz:19806.got - 2010.06.03 18:56:24.
