data_PCOD9122456
_publ_section_title
;
Structure prediction by ZEFSAII (Michael W. Deem and Ramdas Pophale) SiO2 
 PCOD9122456
Probable space group: C 2
;
_chemical_formula_sum "Si O2"
_cell_formula_units_Z 30
_cell_length_a 7.989988
_cell_length_b 20.855622
_cell_length_c 8.500849
_cell_angle_alpha 90.000000
_cell_angle_beta 122.717233
_cell_angle_gamma 90.000000
_cell_volume 1191.810957
_symmetry_space_group_name_H-M "C 2"
_symmetry_group_IT_number 5
_symmetry_cell_setting 'monoclinic'
loop_
_space_group_symop_operation_xyz
x,y,z
-x,y,-z
1/2+x,1/2+y,z
1/2-x,1/2+y,-z
loop_
_atom_site_type_symbol
_atom_site_label
_atom_site_fract_x
_atom_site_fract_y
_atom_site_fract_z
Si Si1 0.847711 0.669330 0.146165
Si Si2 0.494889 0.037312 0.749155
Si Si3 0.000000 0.089084 0.000000
Si Si4 0.805476 0.756028 0.567933
Si Si5 0.584967 0.760305 0.792555
Si Si6 0.327515 0.527569 0.640695
Si Si7 0.564125 0.393185 0.285834
Si Si8 0.167822 0.402071 0.900044
O O1 0.936783 0.601758 0.126648
O O2 0.015694 0.706478 0.324726
O O3 0.665885 0.637786 0.145088
O O4 0.735329 0.718406 0.973766
O O5 0.654163 0.029273 0.685689
O O6 0.281388 0.057283 0.566107
O O7 0.530395 0.965887 0.838223
O O8 0.016534 0.047057 0.848418
O O9 0.693373 0.757904 0.678976
O O10 0.640533 0.739533 0.355866
O O11 0.888337 0.828169 0.600204
O O12 0.563457 0.832941 0.844055
O O13 0.371371 0.457338 0.596716
O O14 0.701787 0.398470 0.196801
O O15 0.336398 0.398654 0.118536
#
# Coordination Sequence:
#
# PCOD9122456 Si02
#       8
#     4   4   2   4   4   4   4   4
#     4  11  21  35  49  77 109 144 176 210 260 314
#     4   9  18  28  47  72 107 135 171 209 262 314
#     4  10  22  34  50  74 110 146 172 210 260 310
#     4  10  20  33  52  82 105 140 169 216 263 319
#     4  10  20  34  55  77 110 134 178 214 266 309
#     4   9  16  30  46  72 102 136 169 212 260 316
#     4   9  14  25  49  73 105 127 160 210 272 313
#     4   9  15  28  46  75 102 134 161 214 263 314
#
# _framework density 25.171778
#
# number of rings (size 3 to 8) (size 9 to 14) (size 15 to 20)
#    0.000    2.400    1.333    3.600    1.867    3.200 
#    0.000    0.000    0.000    0.000    3.467    0.000 
#    0.000    2.667    0.000    0.000    0.000    0.000 
#
# Total GULP energy -83547.362670 kJ/mol
# GULP energy per Si atom -5569.824178 kJ/mol
# Density = 2.511449 g / cm^3
# Si number density = 25.171778 Si / 1000 Ang^3
#
#
#
# Elastic Constant Matrix: (Units=GPa)
#
#
# Indices 1 2 3 4 5 6 
#
# 1 39.8581 25.1632 23.7035 0.0000 6.4832 0.0000
# 2 25.1632 202.2209 101.2390 0.0000 19.0216 0.0000
# 3 23.7035 101.2390 170.0221 0.0000 44.0037 0.0000
# 4 0.0000 0.0000 0.0000 38.4313 0.0000 17.7829
# 5 6.4832 19.0216 44.0037 0.0000 33.1544 0.0000
# 6 0.0000 0.0000 0.0000 17.7829 0.0000 13.6385
#
#
#
# Elastic Compliance Matrix: (Units=1/GPa)
#
#
# Indices 1 2 3 4 5 6 
#
# 1 0.028047 -0.002243 -0.002267 0.000000 -0.001189 0.000000
# 2 -0.002243 0.007344 -0.004697 0.000000 0.002459 0.000000
# 3 -0.002267 -0.004697 0.012463 0.000000 -0.013404 0.000000
# 4 0.000000 0.000000 0.000000 0.065597 0.000000 -0.085530
# 5 -0.001189 0.002459 -0.013404 0.000000 0.046774 0.000000
# 6 0.000000 0.000000 0.000000 -0.085530 0.000000 0.184843
#
#
# Mechanical properties :
#
#
# Convention : Reuss Voigt Hill
#
# Bulk Modulus (GPa) = 33.96635 79.14585 56.55610
# Shear Modulus (GPa) = 13.39424 34.51119 23.95272
#
# Velocity S-wave (km/s) = 2.30926 3.70676 3.08810
# Velocity P-wave (km/s) = 4.54240 7.05908 5.93565
#
# Compressibility (1/GPa) = 0.02944090
#
# Stress axis : x y z
#
# Youngs Moduli (GPa) = 35.65496 136.15962 80.23545
#
# Poissons Ratio (x) = 0.30546 0.18186
# Poissons Ratio (y) = 0.07999 0.37684
# Poissons Ratio (z) = 0.08081 0.63951
#
# Static dielectric constant tensor:
#      x y z
#    x 2.110100 0.000000 0.015970 
#    y 0.000000 2.044820 0.000000 
#    z 0.015970 0.000000 2.157520 
# 
# From -- ./inp_files/40470.got.cif
#   From: 2010.05.17/outbox.cif.g08.bks.cpg/sg5_21_cif.got.tgz:40470.got - 2010.06.03 18:56:24.
