data_PCOD9122208
_publ_section_title
;
Structure prediction by ZEFSAII (Michael W. Deem and Ramdas Pophale) SiO2 
 PCOD9122208
Probable space group: C 2
;
_chemical_formula_sum "Si O2"
_cell_formula_units_Z 28
_cell_length_a 8.760806
_cell_length_b 17.584111
_cell_length_c 14.005971
_cell_angle_alpha 90.000000
_cell_angle_beta 42.152138
_cell_angle_gamma 90.000000
_cell_volume 1447.991218
_symmetry_space_group_name_H-M "C 2"
_symmetry_group_IT_number 5
_symmetry_cell_setting 'monoclinic'
loop_
_space_group_symop_operation_xyz
x,y,z
-x,y,-z
1/2+x,1/2+y,z
1/2-x,1/2+y,-z
loop_
_atom_site_type_symbol
_atom_site_label
_atom_site_fract_x
_atom_site_fract_y
_atom_site_fract_z
Si Si1 0.546660 0.007480 0.586450
Si Si2 0.986028 0.636016 0.122249
Si Si3 0.771727 0.762226 0.862238
Si Si4 0.515631 0.569884 0.315674
Si Si5 0.243685 0.495393 0.100022
Si Si6 0.313594 0.167215 0.655074
Si Si7 0.233245 0.929130 0.101539
O O1 0.500000 0.975509 0.500000
O O2 0.413235 0.970620 0.737392
O O3 0.425582 0.089509 0.640869
O O4 0.813884 0.028822 0.469549
O O5 0.726173 0.612046 0.268132
O O6 0.093468 0.710164 0.123413
O O7 0.124897 0.564256 0.098734
O O8 0.000000 0.641072 0.000000
O O9 0.784040 0.721437 0.755824
O O10 0.858986 0.848725 0.819413
O O11 0.500000 0.767020 0.000000
O O12 0.399661 0.635528 0.304778
O O13 0.610232 0.501752 0.204973
O O14 0.500000 0.522861 0.000000
O O15 0.279763 0.428986 0.006740
O O16 0.500000 0.203366 0.500000
O O17 0.500000 0.936586 0.000000
#
# Coordination Sequence:
#
# PCOD9122208 Si02
#       7
#     4   4   4   4   4   4   4
#     4   9  20  34  62  98 118 154 213 251 299 361
#     4  12  22  35  63  92 122 156 211 253 305 347
#     4  11  24  39  62  89 126 167 204 248 316 367
#     4  10  19  39  65  91 127 151 210 263 291 366
#     4  12  21  37  66  88 123 164 207 248 304 364
#     4   9  19  39  64  90 118 164 209 246 300 376
#     4  11  23  41  58  93 128 159 201 264 307 360
#
# _framework density 19.337133999999999
#
# number of rings (size 3 to 8) (size 9 to 14) (size 15 to 20)
#    0.000    1.714    4.286    3.000    0.000    1.143 
#    0.000    2.857    0.000   18.857    0.000    0.000 
#    0.000    0.000    0.000    0.000    0.000    0.000 
#
# Total GULP energy -77996.035205 kJ/mol
# GULP energy per Si atom -5571.145372 kJ/mol
# Density = 1.929312 g / cm^3
# Si number density = 19.337134 Si / 1000 Ang^3
#
#
#
# Elastic Constant Matrix: (Units=GPa)
#
#
# Indices 1 2 3 4 5 6 
#
# 1 94.8923 39.4956 48.5210 0.0000 -20.2608 0.0001
# 2 39.4956 57.3880 16.1868 0.0000 5.4565 0.0000
# 3 48.5210 16.1868 75.1959 -0.0002 -5.9198 0.0005
# 4 0.0000 0.0000 -0.0002 24.4374 0.0001 19.4514
# 5 -20.2608 5.4565 -5.9198 0.0001 39.7132 -0.0002
# 6 0.0001 0.0000 0.0005 19.4514 -0.0002 6.7540
#
#
#
# Elastic Compliance Matrix: (Units=1/GPa)
#
#
# Indices 1 2 3 4 5 6 
#
# 1 0.026709 -0.016137 -0.012662 0.000001 0.013956 -0.000001
# 2 -0.016137 0.028708 0.003313 0.000000 -0.011683 0.000000
# 3 -0.012662 0.003313 0.020451 -0.000001 -0.003866 0.000001
# 4 0.000001 0.000000 -0.000001 -0.031664 0.000001 0.091190
# 5 0.013956 -0.011683 -0.003866 0.000001 0.033330 -0.000001
# 6 -0.000001 0.000000 0.000001 0.091190 -0.000001 -0.114566
#
#
# Mechanical properties :
#
#
# Convention : Reuss Voigt Hill
#
# Bulk Modulus (GPa) = 40.16679 48.43143 44.29911
# Shear Modulus (GPa) = 224.84144 22.39912 123.62028
#
# Velocity S-wave (km/s) = 10.79476 3.40714 8.00423
# Velocity P-wave (km/s) = 13.27351 6.37011 10.41068
#
# Compressibility (1/GPa) = 0.02489619
#
# Stress axis : x y z
#
# Youngs Moduli (GPa) = 37.44062 34.83407 48.89699
#
# Poissons Ratio (x) = 0.56213 0.61913
# Poissons Ratio (y) = 0.60419 -0.16201
# Poissons Ratio (z) = 0.47407 -0.11542
#
# Static dielectric constant tensor:
#      x y z
#    x 1.788110 0.000000 -0.026640 
#    y 0.000000 1.671430 0.000000 
#    z -0.026640 0.000000 1.612410 
# 
# From -- ./inp_files/51352.got.cif
#   From: 2010.05.17/outbox.cif.g08.bks.cpg/sg5_26_cif.got.tgz:51352.got - 2010.06.03 18:56:24.
