data_PCOD9122433
_publ_section_title
;
Structure prediction by ZEFSAII (Michael W. Deem and Ramdas Pophale) SiO2 
 PCOD9122433
Probable space group: C 2
;
_chemical_formula_sum "Si O2"
_cell_formula_units_Z 28
_cell_length_a 21.003556
_cell_length_b 6.942429
_cell_length_c 10.843001
_cell_angle_alpha 90.000000
_cell_angle_beta 106.969726
_cell_angle_gamma 90.000000
_cell_volume 1512.238115
_symmetry_space_group_name_H-M "C 2"
_symmetry_group_IT_number 5
_symmetry_cell_setting 'monoclinic'
loop_
_space_group_symop_operation_xyz
x,y,z
-x,y,-z
1/2+x,1/2+y,z
1/2-x,1/2+y,-z
loop_
_atom_site_type_symbol
_atom_site_label
_atom_site_fract_x
_atom_site_fract_y
_atom_site_fract_z
Si Si1 0.938093 0.948770 0.306209
Si Si2 0.309674 0.253611 0.535139
Si Si3 0.584108 0.569217 0.422196
Si Si4 0.168707 0.366066 0.354876
Si Si5 0.674246 0.704567 0.844798
Si Si6 0.229451 0.350867 0.130898
Si Si7 0.349519 0.103044 0.288489
O O1 0.916592 0.724013 0.296305
O O2 0.922047 0.037605 0.433818
O O3 0.889557 0.064056 0.187623
O O4 0.015382 0.988782 0.329009
O O5 0.352805 0.442063 0.581655
O O6 0.232716 0.304184 0.473611
O O7 0.333274 0.157784 0.419935
O O8 0.327112 0.095885 0.644998
O O9 0.603474 0.778918 0.382261
O O10 0.183299 0.306749 0.222860
O O11 0.735679 0.562663 0.843113
O O12 0.655744 0.877440 0.740818
O O13 0.692018 0.806759 0.983287
O O14 0.291351 0.204500 0.177088
#
# Coordination Sequence:
#
# PCOD9122433 Si02
#       7
#     4   4   4   4   4   4   4
#     4   9  21  36  60  83 111 153 193 228 279 342
#     4  10  20  32  54  82 115 143 181 228 290 341
#     4  10  20  39  55  85 119 145 186 235 282 344
#     4  11  21  33  54  85 113 152 178 233 290 338
#     4  11  19  37  57  82 112 150 192 238 275 335
#     4  10  22  33  54  85 113 146 192 233 283 330
#     4   9  19  34  55  81 111 145 187 232 280 331
#
# _framework density 18.515602000000001
#
# number of rings (size 3 to 8) (size 9 to 14) (size 15 to 20)
#    0.000    2.000    2.857    1.714    2.000    1.143 
#    0.000    3.571    0.000    0.000    0.000    0.000 
#    0.000    0.000    0.000    0.000    0.000    0.000 
#
# Total GULP energy -78021.712850 kJ/mol
# GULP energy per Si atom -5572.979489 kJ/mol
# Density = 1.847346 g / cm^3
# Si number density = 18.515602 Si / 1000 Ang^3
#
#
#
# Elastic Constant Matrix: (Units=GPa)
#
#
# Indices 1 2 3 4 5 6 
#
# 1 67.7217 10.9950 14.1730 0.0000 12.2651 0.0000
# 2 10.9950 77.4717 4.4687 0.0000 3.8199 0.0000
# 3 14.1730 4.4687 47.1910 0.0000 12.8704 0.0000
# 4 0.0000 0.0000 0.0000 27.1620 0.0000 2.5436
# 5 12.2651 3.8199 12.8704 0.0000 16.0207 0.0000
# 6 0.0000 0.0000 0.0000 2.5436 0.0000 24.6348
#
#
#
# Elastic Compliance Matrix: (Units=1/GPa)
#
#
# Indices 1 2 3 4 5 6 
#
# 1 0.017541 -0.001813 -0.001987 0.000000 -0.011400 0.000000
# 2 -0.001813 0.013258 -0.000291 0.000000 -0.001539 0.000000
# 3 -0.001987 -0.000291 0.027380 0.000000 -0.020405 0.000000
# 4 0.000000 0.000000 0.000000 0.037176 0.000000 -0.003838
# 5 -0.011400 -0.001539 -0.020405 0.000000 0.087907 0.000000
# 6 0.000000 0.000000 0.000000 -0.003838 0.000000 0.040989
#
#
# Mechanical properties :
#
#
# Convention : Reuss Voigt Hill
#
# Bulk Modulus (GPa) = 20.00131 27.96197 23.98164
# Shear Modulus (GPa) = 20.07233 24.41334 22.24284
#
# Velocity S-wave (km/s) = 3.29610 3.63509 3.46974
# Velocity P-wave (km/s) = 5.03106 5.72304 5.38817
#
# Compressibility (1/GPa) = 0.04999673
#
# Stress axis : x y z
#
# Youngs Moduli (GPa) = 57.00835 75.42663 36.52303
#
# Poissons Ratio (x) = 0.13673 0.07258
# Poissons Ratio (y) = 0.10334 0.01063
# Poissons Ratio (z) = 0.11329 0.02196
#
# Static dielectric constant tensor:
#      x y z
#    x 1.624590 0.000000 -0.000960 
#    y 0.000000 1.694280 0.000000 
#    z -0.000960 0.000000 1.637260 
# 
# From -- ./inp_files/45708.got.cif
#   From: 2010.05.17/outbox.cif.g08.bks.cpg/sg5_23_cif.got.tgz:45708.got - 2010.06.03 18:56:24.
