data_PCOD9122431
_publ_section_title
;
Structure prediction by ZEFSAII (Michael W. Deem and Ramdas Pophale) SiO2 
 PCOD9122431
Probable space group: C 2
;
_chemical_formula_sum "Si O2"
_cell_formula_units_Z 26
_cell_length_a 21.536467
_cell_length_b 11.797450
_cell_length_c 5.260568
_cell_angle_alpha 90.000000
_cell_angle_beta 109.556604
_cell_angle_gamma 90.000000
_cell_volume 1259.475206
_symmetry_space_group_name_H-M "C 2"
_symmetry_group_IT_number 5
_symmetry_cell_setting 'monoclinic'
loop_
_space_group_symop_operation_xyz
x,y,z
-x,y,-z
1/2+x,1/2+y,z
1/2-x,1/2+y,-z
loop_
_atom_site_type_symbol
_atom_site_label
_atom_site_fract_x
_atom_site_fract_y
_atom_site_fract_z
Si Si1 0.905322 0.064460 0.036624
Si Si2 0.254818 0.375077 0.456623
Si Si3 0.126329 0.260444 0.406986
Si Si4 0.686117 0.255069 0.960688
Si Si5 0.000000 0.223848 0.500000
Si Si6 0.213458 0.087453 0.788561
Si Si7 0.960129 0.820934 0.179718
O O1 0.956942 0.139230 0.268715
O O2 0.838365 0.031973 0.092536
O O3 0.938264 0.943710 0.037260
O O4 0.887985 0.150662 0.788086
O O5 0.175802 0.352058 0.355558
O O6 0.289414 0.321251 0.751202
O O7 0.273165 0.505691 0.430365
O O8 0.283563 0.311369 0.249386
O O9 0.173311 0.203396 0.681705
O O10 0.055253 0.293876 0.420785
O O11 0.717031 0.128994 0.012215
O O12 0.607603 0.257277 0.850007
O O13 0.000000 0.835051 0.500000
O O14 0.000000 0.766184 0.000000
#
# Coordination Sequence:
#
# PCOD9122431 Si02
#       7
#     4   4   4   4   2   4   4
#     4  11  19  34  56  87 124 157 194 246 313 366
#     4  11  22  39  62  92 123 162 204 257 309 364
#     4  10  21  35  57  89 125 162 202 249 316 371
#     4  11  23  40  61  91 126 160 206 255 308 369
#     4  10  20  32  52  84 124 156 194 246 308 366
#     4  10  22  37  61  90 120 159 208 255 303 363
#     4  12  24  37  58  90 123 162 198 244 312 371
#
# _framework density 20.643521
#
# number of rings (size 3 to 8) (size 9 to 14) (size 15 to 20)
#    0.000    1.231    3.846    3.231    2.154    0.000 
#    0.000    0.000    0.000    1.846    4.000    0.000 
#    0.000    0.000    0.000    0.000    0.000    0.000 
#
# Total GULP energy -72473.296916 kJ/mol
# GULP energy per Si atom -5574.868994 kJ/mol
# Density = 2.059654 g / cm^3
# Si number density = 20.643521 Si / 1000 Ang^3
#
#
#
# Elastic Constant Matrix: (Units=GPa)
#
#
# Indices 1 2 3 4 5 6 
#
# 1 214.3936 38.7327 31.3425 0.0000 -1.0493 0.0000
# 2 38.7327 19.5772 0.6408 0.0000 3.9200 0.0000
# 3 31.3425 0.6408 70.3806 0.0000 2.2401 0.0000
# 4 0.0000 0.0000 0.0000 14.9701 0.0000 5.2909
# 5 -1.0493 3.9200 2.2401 0.0000 31.6528 0.0000
# 6 0.0000 0.0000 0.0000 5.2909 0.0000 29.0557
#
#
#
# Elastic Compliance Matrix: (Units=1/GPa)
#
#
# Indices 1 2 3 4 5 6 
#
# 1 0.008207 -0.016637 -0.003586 0.000000 0.002586 0.000000
# 2 -0.016637 0.086112 0.006998 0.000000 -0.011711 0.000000
# 3 -0.003586 0.006998 0.015808 0.000000 -0.002104 0.000000
# 4 0.000000 0.000000 0.000000 0.071395 0.000000 -0.013001
# 5 0.002586 -0.011711 -0.002104 0.000000 0.033278 0.000000
# 6 0.000000 0.000000 0.000000 -0.013001 0.000000 0.036784
#
#
# Mechanical properties :
#
#
# Convention : Reuss Voigt Hill
#
# Bulk Modulus (GPa) = 11.95071 49.53148 30.74109
# Shear Modulus (GPa) = 16.34377 30.71140 23.52759
#
# Velocity S-wave (km/s) = 2.81679 3.86126 3.37962
# Velocity P-wave (km/s) = 4.04732 6.62759 5.49116
#
# Compressibility (1/GPa) = 0.08367705
#
# Stress axis : x y z
#
# Youngs Moduli (GPa) = 121.84845 11.61276 63.25716
#
# Poissons Ratio (x) = 0.19321 0.22681
# Poissons Ratio (y) = 2.02725 -0.44266
# Poissons Ratio (z) = 0.43690 -0.08126
#
# Static dielectric constant tensor:
#      x y z
#    x 1.809330 0.000000 -0.009440 
#    y 0.000000 1.773200 0.000000 
#    z -0.009440 0.000000 1.847680 
# 
# From -- ./inp_files/8440.got.cif
#   From: 2010.05.17/outbox.cif.g08.bks.cpg/sg5_5_cif.got.tgz:8440.got - 2010.06.03 18:56:24.
