data_PCOD9122153
_publ_section_title
;
Structure prediction by ZEFSAII (Michael W. Deem and Ramdas Pophale) SiO2 
 PCOD9122153
Probable space group: C 2
;
_chemical_formula_sum "Si O2"
_cell_formula_units_Z 22
_cell_length_a 7.209363
_cell_length_b 17.761853
_cell_length_c 7.105028
_cell_angle_alpha 90.000000
_cell_angle_beta 60.763191
_cell_angle_gamma 90.000000
_cell_volume 793.908381
_symmetry_space_group_name_H-M "C 2"
_symmetry_group_IT_number 5
_symmetry_cell_setting 'monoclinic'
loop_
_space_group_symop_operation_xyz
x,y,z
-x,y,-z
1/2+x,1/2+y,z
1/2-x,1/2+y,-z
loop_
_atom_site_type_symbol
_atom_site_label
_atom_site_fract_x
_atom_site_fract_y
_atom_site_fract_z
Si Si1 0.197289 0.842020 0.038351
Si Si2 0.305735 0.498114 0.876822
Si Si3 0.000000 0.792873 0.500000
Si Si4 0.328524 0.673023 0.463111
Si Si5 0.211801 0.507233 0.489917
Si Si6 0.351182 0.669137 0.944799
O O1 0.124698 0.841162 0.289514
O O2 0.290847 0.925795 0.968559
O O3 0.291940 0.758682 0.968635
O O4 0.000000 0.841160 0.000000
O O5 0.239951 0.488348 0.693607
O O6 0.566491 0.494436 0.734637
O O7 0.254078 0.582782 0.978701
O O8 0.171742 0.743656 0.529976
O O9 0.197939 0.597037 0.519357
O O10 0.400952 0.671051 0.672078
O O11 0.380861 0.668311 0.179863
O O12 0.000000 0.476342 0.500000
#
# Coordination Sequence:
#
# PCOD9122153 Si02
#       6
#     4   4   2   4   4   4
#     4  12  27  47  73 108 147 194 247 302 367 434
#     4  10  23  46  69 106 151 190 242 309 361 432
#     4  12  24  42  74 104 150 192 240 306 366 434
#     4  11  20  39  70 106 143 188 241 295 361 436
#     4  10  19  38  74 108 141 191 247 297 368 438
#     4  11  22  45  72 100 147 192 235 300 369 426
#
# _framework density 27.711008
#
# number of rings (size 3 to 8) (size 9 to 14) (size 15 to 20)
#    0.000    1.091    6.364    2.727    0.000    0.000 
#    3.273    2.727    0.000    0.000    2.364    0.000 
#    0.000    0.000    0.000    0.000    0.000    0.000 
#
# Total GULP energy -61344.379009 kJ/mol
# GULP energy per Si atom -5576.761728 kJ/mol
# Density = 2.764794 g / cm^3
# Si number density = 27.711008 Si / 1000 Ang^3
#
#
#
# Elastic Constant Matrix: (Units=GPa)
#
#
# Indices 1 2 3 4 5 6 
#
# 1 165.7297 49.8489 30.2441 0.0000 22.3686 0.0000
# 2 49.8489 272.3298 70.5970 0.0000 7.8427 0.0000
# 3 30.2441 70.5970 136.8966 0.0000 19.4311 0.0000
# 4 0.0000 0.0000 0.0000 -9.1039 0.0000 -68.6499
# 5 22.3686 7.8427 19.4311 0.0000 43.4656 0.0000
# 6 0.0000 0.0000 0.0000 -68.6499 0.0000 -106.2029
#
#
#
# Elastic Compliance Matrix: (Units=1/GPa)
#
#
# Indices 1 2 3 4 5 6 
#
# 1 0.006861 -0.001025 -0.000547 0.000000 -0.003101 0.000000
# 2 -0.001025 0.004394 -0.002137 0.000000 0.000690 0.000000
# 3 -0.000547 -0.002137 0.009005 0.000000 -0.003358 0.000000
# 4 0.000000 0.000000 0.000000 0.028351 0.000000 -0.018326
# 5 -0.003101 0.000690 -0.003358 0.000000 0.025979 0.000000
# 6 0.000000 0.000000 0.000000 -0.018326 0.000000 0.002430
#
#
# Mechanical properties :
#
#
# Convention : Reuss Voigt Hill
#
# Bulk Modulus (GPa) = 77.87822 97.37068 87.62445
# Shear Modulus (GPa) = 56.35791 13.91617 35.13704
#
# Velocity S-wave (km/s) = 4.51463 2.24339 3.56474
# Velocity P-wave (km/s) = 7.43912 6.47492 6.97371
#
# Compressibility (1/GPa) = 0.01284056
#
# Stress axis : x y z
#
# Youngs Moduli (GPa) = 145.76143 227.59337 111.05454
#
# Poissons Ratio (x) = 0.23321 0.06076
# Poissons Ratio (y) = 0.14936 0.23737
# Poissons Ratio (z) = 0.07974 0.48647
#
# Static dielectric constant tensor:
#      x y z
#    x 2.231170 0.000000 0.243860 
#    y 0.000000 2.025800 0.000000 
#    z 0.243860 0.000000 3.203040 
# 
# From -- ./inp_files/15335.got.cif
#   From: 2010.05.17/outbox.cif.g08.bks.cpg/sg5_8_cif.got.tgz:15335.got - 2010.06.03 18:56:24.
