data_PCOD9122451
_publ_section_title
;
Structure prediction by ZEFSAII (Michael W. Deem and Ramdas Pophale) SiO2 
 PCOD9122451
Probable space group: C 2
;
_chemical_formula_sum "Si O2"
_cell_formula_units_Z 32
_cell_length_a 12.609321
_cell_length_b 9.604967
_cell_length_c 12.796736
_cell_angle_alpha 90.000000
_cell_angle_beta 136.396350
_cell_angle_gamma 90.000000
_cell_volume 1068.871261
_symmetry_space_group_name_H-M "C 2"
_symmetry_group_IT_number 5
_symmetry_cell_setting 'monoclinic'
loop_
_space_group_symop_operation_xyz
x,y,z
-x,y,-z
1/2+x,1/2+y,z
1/2-x,1/2+y,-z
loop_
_atom_site_type_symbol
_atom_site_label
_atom_site_fract_x
_atom_site_fract_y
_atom_site_fract_z
Si Si1 0.669302 0.093320 0.108683
Si Si2 0.666881 0.336541 0.281657
Si Si3 0.996386 0.324779 0.795153
Si Si4 0.666348 0.649577 0.461273
Si Si5 0.669407 0.328224 0.939135
Si Si6 0.169762 0.072048 0.115822
Si Si7 0.500613 0.066223 0.622475
Si Si8 0.662235 0.407695 0.630508
O O1 0.667168 0.213422 0.196342
O O2 0.675763 0.181243 0.007987
O O3 0.803353 0.988055 0.236548
O O4 0.500000 0.028682 0.000000
O O5 0.803221 0.293113 0.454308
O O6 0.680477 0.476671 0.227394
O O7 0.505005 0.332642 0.226645
O O8 0.973615 0.180939 0.715272
O O9 0.015762 0.445073 0.721285
O O10 0.827906 0.340893 0.725038
O O11 0.153611 0.332137 0.972656
O O12 0.831298 0.625697 0.525039
O O13 0.643349 0.527048 0.527352
O O14 0.662251 0.457875 0.017235
O O15 0.335716 0.148346 0.237004
O O16 0.000000 0.139303 0.000000
O O17 0.500000 0.025278 0.500000
O O18 0.500000 0.328665 0.500000
#
# Coordination Sequence:
#
# PCOD9122451 Si02
#       8
#     4   4   4   4   4   4   4   4
#     4   8  14  27  49  74  97 123 158 201 246 289
#     4   8  14  27  49  74  97 123 158 201 246 289
#     4  10  20  33  50  73 100 131 166 202 242 288
#     4  10  20  33  50  73 100 131 166 202 242 288
#     4   8  14  27  49  74  97 123 158 201 246 289
#     4   8  14  27  49  74  97 123 158 201 246 289
#     4  10  20  33  50  73 100 131 166 202 242 288
#     4  10  20  33  50  73 100 131 166 202 242 288
#
# _framework density 29.938123000000001
#
# number of rings (size 3 to 8) (size 9 to 14) (size 15 to 20)
#    0.000    3.000    0.000    3.000    0.000    3.000 
#    0.000    2.500    0.000    9.000    0.000    0.000 
#    0.000    0.000    0.000    0.000    0.000    0.000 
#
# Total GULP energy -89625.830390 kJ/mol
# GULP energy per Si atom -5601.614399 kJ/mol
# Density = 2.986998 g / cm^3
# Si number density = 29.938123 Si / 1000 Ang^3
#
#
#
# Elastic Constant Matrix: (Units=GPa)
#
#
# Indices 1 2 3 4 5 6 
#
# 1 78.7175 25.1749 7.1277 0.0000 17.3766 0.0000
# 2 25.1749 62.0748 22.6676 0.0000 0.5171 0.0000
# 3 7.1277 22.6676 195.5367 0.0000 21.7189 0.0000
# 4 0.0000 0.0000 0.0000 49.7300 0.0000 5.6398
# 5 17.3766 0.5171 21.7189 0.0000 47.8414 0.0000
# 6 0.0000 0.0000 0.0000 5.6398 0.0000 56.7339
#
#
#
# Elastic Compliance Matrix: (Units=1/GPa)
#
#
# Indices 1 2 3 4 5 6 
#
# 1 0.016179 -0.006836 0.000892 0.000000 -0.006208 0.000000
# 2 -0.006836 0.019735 -0.002412 0.000000 0.003365 0.000000
# 3 0.000892 -0.002412 0.005681 0.000000 -0.002877 0.000000
# 4 0.000000 0.000000 0.000000 0.020338 0.000000 -0.002022
# 5 -0.006208 0.003365 -0.002877 0.000000 0.024427 0.000000
# 6 0.000000 0.000000 0.000000 -0.002022 0.000000 0.017827
#
#
# Mechanical properties :
#
#
# Convention : Reuss Voigt Hill
#
# Bulk Modulus (GPa) = 40.18779 49.58550 44.88665
# Shear Modulus (GPa) = 38.70186 49.61832 44.16009
#
# Velocity S-wave (km/s) = 3.59935 4.07549 3.84480
# Velocity P-wave (km/s) = 5.54315 6.22453 5.89370
#
# Compressibility (1/GPa) = 0.02488318
#
# Stress axis : x y z
#
# Youngs Moduli (GPa) = 61.80718 50.67212 176.03149
#
# Poissons Ratio (x) = 0.34638 -0.15705
# Poissons Ratio (y) = 0.42250 0.42464
# Poissons Ratio (z) = -0.05514 0.12224
#
# Static dielectric constant tensor:
#      x y z
#    x 2.404200 0.000000 -0.037070 
#    y 0.000000 2.368020 0.000000 
#    z -0.037070 0.000000 2.230370 
# 
# From -- ./inp_files/24386.got.cif
#   From: 2010.05.17/outbox.cif.g08.bks.cpg/sg5_13_cif.got.tgz:24386.got - 2010.06.03 18:56:24.
