data_PCOD9122316
_publ_section_title
;
Structure prediction by ZEFSAII (Michael W. Deem and Ramdas Pophale) SiO2 
 PCOD9122316
Probable space group: C 2
;
_chemical_formula_sum "Si O2"
_cell_formula_units_Z 32
_cell_length_a 13.276140
_cell_length_b 5.366789
_cell_length_c 22.986044
_cell_angle_alpha 90.000000
_cell_angle_beta 53.883548
_cell_angle_gamma 90.000000
_cell_volume 1323.017347
_symmetry_space_group_name_H-M "C 2"
_symmetry_group_IT_number 5
_symmetry_cell_setting 'monoclinic'
loop_
_space_group_symop_operation_xyz
x,y,z
-x,y,-z
1/2+x,1/2+y,z
1/2-x,1/2+y,-z
loop_
_atom_site_type_symbol
_atom_site_label
_atom_site_fract_x
_atom_site_fract_y
_atom_site_fract_z
Si Si1 0.819956 0.153450 0.960448
Si Si2 0.129116 0.609877 0.692857
Si Si3 0.629899 0.606766 0.737136
Si Si4 0.263430 0.052410 0.134072
Si Si5 0.363611 0.632719 0.700739
Si Si6 0.320103 0.033128 0.460415
Si Si7 0.399059 0.554831 0.113900
Si Si8 0.580455 0.132740 0.366530
O O1 0.825424 0.104189 0.889652
O O2 0.773110 0.435102 0.986167
O O3 0.954742 0.104583 0.941294
O O4 0.066521 0.365336 0.741064
O O5 0.251788 0.640731 0.691724
O O6 0.164658 0.578126 0.613991
O O7 0.065429 0.872584 0.728625
O O8 0.633723 0.572085 0.805425
O O9 0.774180 0.635176 0.663292
O O10 0.360922 0.282911 0.104021
O O11 0.194801 0.062227 0.218681
O O12 0.326242 0.781372 0.108218
O O13 0.418064 0.909090 0.681198
O O14 0.446606 0.407269 0.648851
O O15 0.265779 0.758684 0.488305
O O16 0.456910 0.060253 0.443943
#
# Coordination Sequence:
#
# PCOD9122316 Si02
#       8
#     4   4   4   4   4   4   4   4
#     4  12  30  48  66 106 146 198 244 268 346 432
#     4  10  20  38  65  86 131 156 209 277 324 407
#     4  10  19  41  62 100 117 155 220 277 354 377
#     4  12  23  45  75 105 144 179 237 301 350 418
#     4  10  19  41  62 100 117 155 220 277 354 377
#     4  12  26  42  56  92 132 178 220 256 332 414
#     4  12  23  45  75 105 144 179 237 301 350 418
#     4  10  20  38  65  86 131 156 209 277 324 407
#
# _framework density 24.187138000000001
#
# number of rings (size 3 to 8) (size 9 to 14) (size 15 to 20)
#    0.000    1.000    5.000    3.000    0.000    5.000 
#    0.000   15.000    0.000    0.000    0.000    0.000 
#    0.000    0.000    0.000    0.000    0.000    0.000 
#
# Total GULP energy -89455.192896 kJ/mol
# GULP energy per Si atom -5590.949556 kJ/mol
# Density = 2.413209 g / cm^3
# Si number density = 24.187138 Si / 1000 Ang^3
#
#
#
# Elastic Constant Matrix: (Units=GPa)
#
#
# Indices 1 2 3 4 5 6 
#
# 1 75.1591 -17.6226 6.9768 0.0020 4.1998 0.0035
# 2 -17.6226 135.5147 0.5709 0.0046 -3.1392 0.0157
# 3 6.9768 0.5709 50.0846 0.0002 -7.7971 0.0033
# 4 0.0020 0.0046 0.0002 41.1309 -0.0013 2.7984
# 5 4.1998 -3.1392 -7.7971 -0.0013 49.5718 0.0008
# 6 0.0035 0.0157 0.0033 2.7984 0.0008 17.0598
#
#
#
# Elastic Compliance Matrix: (Units=1/GPa)
#
#
# Indices 1 2 3 4 5 6 
#
# 1 0.014010 0.001798 -0.002193 -0.000001 -0.001418 -0.000004
# 2 0.001798 0.007621 -0.000293 0.000000 0.000284 -0.000007
# 3 -0.002193 -0.000293 0.020811 0.000000 0.003441 -0.000003
# 4 -0.000001 0.000000 0.000000 0.024587 0.000001 -0.004033
# 5 -0.001418 0.000284 0.003441 0.000001 0.020852 -0.000002
# 6 -0.000004 -0.000007 -0.000003 -0.004033 -0.000002 0.059279
#
#
# Mechanical properties :
#
#
# Convention : Reuss Voigt Hill
#
# Bulk Modulus (GPa) = 24.35122 26.73430 25.54276
# Shear Modulus (GPa) = 30.82178 39.60805 35.21492
#
# Velocity S-wave (km/s) = 3.57361 4.05108 3.81981
# Velocity P-wave (km/s) = 5.20743 5.74097 5.48069
#
# Compressibility (1/GPa) = 0.04106571
#
# Stress axis : x y z
#
# Youngs Moduli (GPa) = 71.38004 131.21747 48.05236
#
# Poissons Ratio (x) = -0.23596 0.10537
# Poissons Ratio (y) = -0.12836 0.01409
# Poissons Ratio (z) = 0.15652 0.03846
#
# Static dielectric constant tensor:
#      x y z
#    x 1.971150 0.000000 -0.042790 
#    y 0.000000 2.016540 0.000000 
#    z -0.042790 0.000000 1.946400 
# 
# From -- ./inp_files/71840.got.cif
#   From: 2010.05.17/outbox.cif.g08.bks.cpg/sg5_36_cif.got.tgz:71840.got - 2010.06.03 18:56:24.
