data_PCOD9122983
_publ_section_title
;
Structure prediction by ZEFSAII (Michael W. Deem and Ramdas Pophale) SiO2 
 PCOD9122983
Probable space group: C 2
;
_chemical_formula_sum "Si O2"
_cell_formula_units_Z 20
_cell_length_a 8.226426
_cell_length_b 17.629292
_cell_length_c 7.609251
_cell_angle_alpha 90.000000
_cell_angle_beta 122.866708
_cell_angle_gamma 90.000000
_cell_volume 926.902022
_symmetry_space_group_name_H-M "C 2"
_symmetry_group_IT_number 5
_symmetry_cell_setting 'monoclinic'
loop_
_space_group_symop_operation_xyz
x,y,z
-x,y,-z
1/2+x,1/2+y,z
1/2-x,1/2+y,-z
loop_
_atom_site_type_symbol
_atom_site_label
_atom_site_fract_x
_atom_site_fract_y
_atom_site_fract_z
Si Si1 0.500000 0.977890 0.000000
Si Si2 0.801938 0.240564 0.077647
Si Si3 0.414020 0.261985 0.680292
Si Si4 0.098813 0.363554 0.366569
Si Si5 0.798835 0.069393 0.952339
Si Si6 0.000000 0.624880 0.500000
O O1 0.428087 0.929136 0.790913
O O2 0.680863 0.026306 0.033976
O O3 0.692657 0.246257 0.199313
O O4 0.987786 0.291980 0.213651
O O5 0.642158 0.272091 0.847781
O O6 0.842185 0.154355 0.048129
O O7 0.313154 0.333928 0.533917
O O8 0.387806 0.184160 0.558509
O O9 0.000000 0.380089 0.500000
O O10 0.649094 0.077708 0.703012
O O11 0.000000 0.035055 0.000000
#
# Coordination Sequence:
#
# PCOD9122983 Si02
#       6
#     2   4   4   4   4   2
#     4  12  28  46  68 102 150 184 224 284 354 416
#     4   9  19  40  69  99 127 172 239 285 329 405
#     4   9  18  35  64 104 128 167 226 291 334 392
#     4  10  23  43  67  95 139 181 225 283 344 404
#     4  11  24  45  69  99 142 185 229 285 345 411
#     4  10  20  36  72 102 134 174 240 286 336 406
#
# _framework density 21.577252999999999
#
# number of rings (size 3 to 8) (size 9 to 14) (size 15 to 20)
#    0.000    2.000    0.000    3.600    8.400    0.000 
#    7.200    5.000    0.000    0.000    0.000    0.000 
#    0.000    0.000    0.000    0.000    0.000    0.000 
#
# Total GULP energy -55895.342354 kJ/mol
# GULP energy per Si atom -5589.534235 kJ/mol
# Density = 2.152814 g / cm^3
# Si number density = 21.577253 Si / 1000 Ang^3
#
#
#
# Elastic Constant Matrix: (Units=GPa)
#
#
# Indices 1 2 3 4 5 6 
#
# 1 137.9904 55.5951 56.9457 0.0000 -1.3439 0.0000
# 2 55.5951 82.5298 56.8114 0.0000 0.3867 0.0000
# 3 56.9457 56.8114 106.9131 0.0000 -19.9116 0.0000
# 4 0.0000 0.0000 0.0000 5.7138 0.0000 -26.7694
# 5 -1.3439 0.3867 -19.9116 0.0000 24.6607 0.0000
# 6 0.0000 0.0000 0.0000 -26.7694 0.0000 21.8165
#
#
#
# Elastic Compliance Matrix: (Units=1/GPa)
#
#
# Indices 1 2 3 4 5 6 
#
# 1 0.010576 -0.004649 -0.003580 0.000000 -0.002241 0.000000
# 2 -0.004649 0.023503 -0.011921 0.000000 -0.010247 0.000000
# 3 -0.003580 -0.011921 0.020707 0.000000 0.016711 0.000000
# 4 0.000000 0.000000 0.000000 -0.036856 0.000000 -0.045223
# 5 -0.002241 -0.010247 0.016711 0.000000 0.054082 0.000000
# 6 0.000000 0.000000 0.000000 -0.045223 0.000000 -0.009653
#
#
# Mechanical properties :
#
#
# Convention : Reuss Voigt Hill
#
# Bulk Modulus (GPa) = 69.03584 74.01530 71.52557
# Shear Modulus (GPa) = 46.51702 20.97695 33.74698
#
# Velocity S-wave (km/s) = 4.64814 3.12136 3.95904
# Velocity P-wave (km/s) = 7.80199 6.88240 7.35658
#
# Compressibility (1/GPa) = 0.01448523
#
# Stress axis : x y z
#
# Youngs Moduli (GPa) = 94.55812 42.54773 48.29303
#
# Poissons Ratio (x) = 0.19782 0.17287
# Poissons Ratio (y) = 0.43964 0.57570
# Poissons Ratio (z) = 0.33849 0.50721
#
# Static dielectric constant tensor:
#      x y z
#    x 1.837910 0.000000 -0.026370 
#    y 0.000000 1.763460 0.000000 
#    z -0.026370 0.000000 1.811890 
# 
# From -- ./inp_files/16218.got.cif
#   From: 2010.05.17/outbox.cif.g08.bks.cpg/sg5_9_cif.got.tgz:16218.got - 2010.06.03 18:56:24.
