data_PCOD9122570
_publ_section_title
;
Structure prediction by ZEFSAII (Michael W. Deem and Ramdas Pophale) SiO2 
 PCOD9122570
Probable space group: C 2
;
_chemical_formula_sum "Si O2"
_cell_formula_units_Z 26
_cell_length_a 8.139296
_cell_length_b 20.439058
_cell_length_c 9.862637
_cell_angle_alpha 90.000000
_cell_angle_beta 132.421170
_cell_angle_gamma 90.000000
_cell_volume 1211.207144
_symmetry_space_group_name_H-M "C 2"
_symmetry_group_IT_number 5
_symmetry_cell_setting 'monoclinic'
loop_
_space_group_symop_operation_xyz
x,y,z
-x,y,-z
1/2+x,1/2+y,z
1/2-x,1/2+y,-z
loop_
_atom_site_type_symbol
_atom_site_label
_atom_site_fract_x
_atom_site_fract_y
_atom_site_fract_z
Si Si1 0.500000 0.630461 0.000000
Si Si2 0.124395 0.790922 0.253830
Si Si3 0.833811 0.243319 0.085802
Si Si4 0.747832 0.818605 0.383823
Si Si5 0.609141 0.445302 0.240945
Si Si6 0.794999 0.513646 0.094876
Si Si7 0.255985 0.472836 0.393767
O O1 0.446773 0.675404 0.100868
O O2 0.708889 0.580770 0.113561
O O3 0.242017 0.758737 0.187388
O O4 0.276504 0.795193 0.472777
O O5 0.062272 0.868171 0.207480
O O6 0.884557 0.755164 0.128184
O O7 0.040836 0.291870 0.186131
O O8 0.751275 0.895943 0.354347
O O9 0.000000 0.795254 0.500000
O O10 0.748479 0.460164 0.184929
O O11 0.752200 0.467808 0.448194
O O12 0.382131 0.488383 0.114586
O O13 0.054704 0.510937 0.212491
O O14 0.500000 0.500038 0.500000
#
# Coordination Sequence:
#
# PCOD9122570 Si02
#       7
#     2   4   4   4   4   4   4
#     4  10  24  40  58  78 110 166 212 234 276 334
#     4  10  20  34  61  92 115 145 188 241 300 348
#     4  11  20  37  56  80 118 155 194 238 277 335
#     4  10  20  34  58  92 125 149 179 231 298 360
#     4   9  18  35  61  89 112 146 187 231 296 354
#     4  10  20  39  58  78 113 157 197 237 278 335
#     4  10  20  34  58  93 120 143 181 237 298 348
#
# _framework density 21.466187000000001
#
# number of rings (size 3 to 8) (size 9 to 14) (size 15 to 20)
#    0.000    2.154    0.000    5.538    0.000    3.077 
#    0.000   20.000    0.000    0.000    0.000    0.000 
#    0.000    0.000    0.000    0.000    0.000    0.000 
#
# Total GULP energy -72380.160858 kJ/mol
# GULP energy per Si atom -5567.704681 kJ/mol
# Density = 2.141733 g / cm^3
# Si number density = 21.466187 Si / 1000 Ang^3
#
#
#
# Elastic Constant Matrix: (Units=GPa)
#
#
# Indices 1 2 3 4 5 6 
#
# 1 86.1243 22.8028 28.0109 0.0000 25.5332 0.0000
# 2 22.8028 65.1455 29.6128 0.0000 12.3840 0.0000
# 3 28.0109 29.6128 96.2779 0.0000 37.2111 0.0000
# 4 0.0000 0.0000 0.0000 -0.4171 0.0000 5.4769
# 5 25.5332 12.3840 37.2111 0.0000 44.8340 0.0000
# 6 0.0000 0.0000 0.0000 5.4769 0.0000 53.3629
#
#
#
# Elastic Compliance Matrix: (Units=1/GPa)
#
#
# Indices 1 2 3 4 5 6 
#
# 1 0.014814 -0.003633 -0.000471 0.000000 -0.007043 0.000000
# 2 -0.003633 0.018745 -0.005163 0.000000 0.001177 0.000000
# 3 -0.000471 -0.005163 0.016868 0.000000 -0.012306 0.000000
# 4 0.000000 0.000000 0.000000 -1.021254 0.000000 0.104816
# 5 -0.007043 0.001177 -0.012306 0.000000 0.036204 0.000000
# 6 0.000000 0.000000 0.000000 0.104816 0.000000 0.007982
#
#
# Mechanical properties :
#
#
# Convention : Reuss Voigt Hill
#
# Bulk Modulus (GPa) = 31.35445 45.37788 38.36617
# Shear Modulus (GPa) = -5.57118 30.69736 12.56309
#
# Velocity S-wave (km/s) = -1.61275 3.78568 2.42182
# Velocity P-wave (km/s) = 3.34218 6.34773 5.07266
#
# Compressibility (1/GPa) = 0.03189340
#
# Stress axis : x y z
#
# Youngs Moduli (GPa) = 67.50423 53.34692 59.28473
#
# Poissons Ratio (x) = 0.19379 0.02791
# Poissons Ratio (y) = 0.24521 0.30611
# Poissons Ratio (z) = 0.03178 0.27545
#
# Static dielectric constant tensor:
#      x y z
#    x 1.793440 0.000000 0.048640 
#    y 0.000000 1.767770 0.000000 
#    z 0.048640 0.000000 1.791270 
# 
# From -- ./inp_files/37410.got.cif
#   From: 2010.05.17/outbox.cif.g08.bks.cpg/sg5_19_cif.got.tgz:37410.got - 2010.06.03 18:56:24.
