data_PCOD9122188
_publ_section_title
;
Structure prediction by ZEFSAII (Michael W. Deem and Ramdas Pophale) SiO2 
 PCOD9122188
Probable space group: C 2
;
_chemical_formula_sum "Si O2"
_cell_formula_units_Z 24
_cell_length_a 10.707123
_cell_length_b 14.510462
_cell_length_c 17.764770
_cell_angle_alpha 90.000000
_cell_angle_beta 155.053971
_cell_angle_gamma 90.000000
_cell_volume 1164.081795
_symmetry_space_group_name_H-M "C 2"
_symmetry_group_IT_number 5
_symmetry_cell_setting 'monoclinic'
loop_
_space_group_symop_operation_xyz
x,y,z
-x,y,-z
1/2+x,1/2+y,z
1/2-x,1/2+y,-z
loop_
_atom_site_type_symbol
_atom_site_label
_atom_site_fract_x
_atom_site_fract_y
_atom_site_fract_z
Si Si1 0.225151 0.497690 0.683201
Si Si2 0.803347 0.310177 0.258401
Si Si3 0.898906 0.130070 0.524385
Si Si4 0.783366 0.172193 0.811757
Si Si5 0.127437 0.251577 0.865525
Si Si6 0.667112 0.545013 0.818279
O O1 0.108201 0.406095 0.656654
O O2 0.328732 0.570191 0.801424
O O3 0.493507 0.474297 0.775280
O O4 0.000000 0.543846 0.500000
O O5 0.945404 0.302719 0.252519
O O6 0.915188 0.223366 0.365631
O O7 0.446004 0.295806 0.060595
O O8 0.559049 0.163125 0.349525
O O9 0.000000 0.088489 0.500000
O O10 0.004190 0.064256 0.650361
O O11 0.887382 0.241863 0.801364
O O12 0.000000 0.187885 0.000000
O O13 0.175291 0.145627 0.863835
O O14 0.000000 0.513293 0.000000
#
# Coordination Sequence:
#
# PCOD9122188 Si02
#       6
#     4   4   4   4   4   4
#     4  11  23  39  61  96 132 162 206 266 329 365
#     4  10  20  38  65  91 128 164 206 264 322 373
#     4  11  21  38  65  91 123 165 223 257 301 380
#     4  11  24  38  65  95 127 168 217 261 305 383
#     4   9  19  38  64  93 121 163 218 249 316 374
#     4  10  19  39  63  89 123 170 208 256 306 382
#
# _framework density 20.617108999999999
#
# number of rings (size 3 to 8) (size 9 to 14) (size 15 to 20)
#    0.000    1.667    5.000    1.500    4.667    0.000 
#    0.000    4.167    3.667    0.000    0.000    0.000 
#    0.000    0.000    0.000    0.000    0.000    0.000 
#
# Total GULP energy -66858.872025 kJ/mol
# GULP energy per Si atom -5571.572669 kJ/mol
# Density = 2.057018 g / cm^3
# Si number density = 20.617109 Si / 1000 Ang^3
#
#
#
# Elastic Constant Matrix: (Units=GPa)
#
#
# Indices 1 2 3 4 5 6 
#
# 1 124.2749 17.6609 30.7767 0.0039 9.8312 -0.0016
# 2 17.6609 33.7859 -20.1066 0.0287 -10.0090 -0.0059
# 3 30.7767 -20.1066 71.3821 0.1217 9.2512 -0.0181
# 4 0.0039 0.0287 0.1217 109.2144 0.0369 -9.6698
# 5 9.8312 -10.0090 9.2512 0.0369 33.7722 -0.0103
# 6 -0.0016 -0.0059 -0.0181 -9.6698 -0.0103 25.1731
#
#
#
# Elastic Compliance Matrix: (Units=1/GPa)
#
#
# Indices 1 2 3 4 5 6 
#
# 1 0.012342 -0.012910 -0.008291 0.000013 -0.005148 -0.000005
# 2 -0.012910 0.051327 0.018212 -0.000037 0.013981 0.000016
# 3 -0.008291 0.018212 0.022500 -0.000029 0.001648 0.000009
# 4 0.000013 -0.000037 -0.000029 0.009479 -0.000016 0.003641
# 5 -0.005148 0.013981 0.001648 -0.000016 0.034801 0.000012
# 6 -0.000005 0.000016 0.000009 0.003641 0.000012 0.041124
#
#
# Mechanical properties :
#
#
# Convention : Reuss Voigt Hill
#
# Bulk Modulus (GPa) = 12.47022 31.78943 22.12983
# Shear Modulus (GPa) = 24.47611 47.03940 35.75776
#
# Velocity S-wave (km/s) = 3.44928 4.78176 4.16910
# Velocity P-wave (km/s) = 4.68241 6.77786 5.82513
#
# Compressibility (1/GPa) = 0.08019104
#
# Stress axis : x y z
#
# Youngs Moduli (GPa) = 81.02518 19.48288 44.44422
#
# Poissons Ratio (x) = 0.25153 0.36847
# Poissons Ratio (y) = 1.04607 -0.80942
# Poissons Ratio (z) = 0.67175 -0.35482
#
# Static dielectric constant tensor:
#      x y z
#    x 1.785580 0.000000 -0.019180 
#    y 0.000000 1.692390 0.000000 
#    z -0.019180 0.000000 1.635810 
# 
# From -- ./inp_files/65432.got.cif
#   From: 2010.05.17/outbox.cif.g08.bks.cpg/sg5_33_cif.got.tgz:65432.got - 2010.06.03 18:56:24.
