data_PCOD9122176
_publ_section_title
;
Structure prediction by ZEFSAII (Michael W. Deem and Ramdas Pophale) SiO2 
 PCOD9122176
Probable space group: C 2
;
_chemical_formula_sum "Si O2"
_cell_formula_units_Z 30
_cell_length_a 5.507222
_cell_length_b 31.329354
_cell_length_c 8.463672
_cell_angle_alpha 90.000000
_cell_angle_beta 70.003554
_cell_angle_gamma 90.000000
_cell_volume 1372.266522
_symmetry_space_group_name_H-M "C 2"
_symmetry_group_IT_number 5
_symmetry_cell_setting 'monoclinic'
loop_
_space_group_symop_operation_xyz
x,y,z
-x,y,-z
1/2+x,1/2+y,z
1/2-x,1/2+y,-z
loop_
_atom_site_type_symbol
_atom_site_label
_atom_site_fract_x
_atom_site_fract_y
_atom_site_fract_z
Si Si1 0.386875 0.365010 0.701674
Si Si2 0.112532 0.316776 0.294448
Si Si3 0.500000 0.024225 0.000000
Si Si4 0.352251 0.720904 0.812292
Si Si5 0.234533 0.091861 0.834721
Si Si6 0.301343 0.524623 0.401190
Si Si7 0.564457 0.456110 0.164443
Si Si8 0.136652 0.686447 0.200970
O O1 0.500000 0.365777 0.500000
O O2 0.610604 0.340614 0.751557
O O3 0.357931 0.413443 0.765031
O O4 0.107737 0.342789 0.751112
O O5 0.146117 0.271787 0.199292
O O6 0.000000 0.310654 0.500000
O O7 0.395800 0.055419 0.887997
O O8 0.719337 0.992848 0.887284
O O9 0.643425 0.703880 0.731570
O O10 0.147946 0.705595 0.727335
O O11 0.245471 0.701749 0.003244
O O12 0.120366 0.067415 0.710293
O O13 0.383361 0.135609 0.776523
O O14 0.000000 0.104426 0.000000
O O15 0.500000 0.519579 0.500000
O O16 0.326350 0.481006 0.295760
O O17 0.000000 0.530804 0.500000
O O18 0.500000 0.444863 0.000000
#
# Coordination Sequence:
#
# PCOD9122176 Si02
#       8
#     4   4   2   4   4   4   4   4
#     4  10  24  44  67  95 133 179 219 272 340 409
#     4  10  22  43  67  91 130 177 215 264 342 412
#     4  12  22  42  70 102 138 178 236 276 352 380
#     4  10  19  39  61  97 119 160 220 263 326 403
#     4  12  23  43  71  96 139 186 229 284 336 414
#     4  12  27  45  68 101 140 189 235 280 341 407
#     4  12  26  45  68 104 136 180 232 289 338 405
#     4  10  22  37  65  93 127 166 213 270 339 383
#
# _framework density 21.861640999999999
#
# number of rings (size 3 to 8) (size 9 to 14) (size 15 to 20)
#    0.000    1.067    4.000    2.800    1.867    1.600 
#    7.200    2.000    0.000    0.000    0.000    0.000 
#    0.000    0.000    0.000    0.000    0.000    0.000 
#
# Total GULP energy -83839.606184 kJ/mol
# GULP energy per Si atom -5589.307079 kJ/mol
# Density = 2.181188 g / cm^3
# Si number density = 21.861641 Si / 1000 Ang^3
#
#
#
# Elastic Constant Matrix: (Units=GPa)
#
#
# Indices 1 2 3 4 5 6 
#
# 1 167.1717 67.1772 10.4954 0.0000 6.5095 0.0000
# 2 67.1772 196.8252 16.8286 0.0000 10.4658 0.0000
# 3 10.4954 16.8286 29.4468 0.0000 7.6592 0.0000
# 4 0.0000 0.0000 0.0000 134.9033 0.0000 -7.9820
# 5 6.5095 10.4658 7.6592 0.0000 9.3809 0.0000
# 6 0.0000 0.0000 0.0000 -7.9820 0.0000 47.7923
#
#
#
# Elastic Compliance Matrix: (Units=1/GPa)
#
#
# Indices 1 2 3 4 5 6 
#
# 1 0.006993 -0.002229 -0.000766 0.000000 -0.001741 0.000000
# 2 -0.002229 0.006199 -0.001716 0.000000 -0.003968 0.000000
# 3 -0.000766 -0.001716 0.043900 0.000000 -0.033396 0.000000
# 4 0.000000 0.000000 0.000000 0.007487 0.000000 0.001250
# 5 -0.001741 -0.003968 -0.033396 0.000000 0.139501 0.000000
# 6 0.000000 0.000000 0.000000 0.001250 0.000000 0.021133
#
#
# Mechanical properties :
#
#
# Convention : Reuss Voigt Hill
#
# Bulk Modulus (GPa) = 20.97751 64.71623 42.84687
# Shear Modulus (GPa) = 19.95810 58.34480 39.15145
#
# Velocity S-wave (km/s) = 3.02475 5.17167 4.23646
# Velocity P-wave (km/s) = 4.67068 8.08260 6.60090
#
# Compressibility (1/GPa) = 0.04767009
#
# Stress axis : x y z
#
# Youngs Moduli (GPa) = 142.99214 161.31410 22.77917
#
# Poissons Ratio (x) = 0.35954 0.01745
# Poissons Ratio (y) = 0.31870 0.03909
# Poissons Ratio (z) = 0.10954 0.27685
#
# Static dielectric constant tensor:
#      x y z
#    x 1.773540 0.000000 -0.029900 
#    y 0.000000 1.761540 0.000000 
#    z -0.029900 0.000000 1.869010 
# 
# From -- ./inp_files/13345.got.cif
#   From: 2010.05.17/outbox.cif.g08.bks.cpg/sg5_7_cif.got.tgz:13345.got - 2010.06.03 18:56:24.
