data_PCOD9122536
_publ_section_title
;
Structure prediction by ZEFSAII (Michael W. Deem and Ramdas Pophale) SiO2 
 PCOD9122536
Probable space group: C 2
;
_chemical_formula_sum "Si O2"
_cell_formula_units_Z 20
_cell_length_a 21.475233
_cell_length_b 5.107132
_cell_length_c 17.893861
_cell_angle_alpha 90.000000
_cell_angle_beta 156.513327
_cell_angle_gamma 90.000000
_cell_volume 782.143268
_symmetry_space_group_name_H-M "C 2"
_symmetry_group_IT_number 5
_symmetry_cell_setting 'monoclinic'
loop_
_space_group_symop_operation_xyz
x,y,z
-x,y,-z
1/2+x,1/2+y,z
1/2-x,1/2+y,-z
loop_
_atom_site_type_symbol
_atom_site_label
_atom_site_fract_x
_atom_site_fract_y
_atom_site_fract_z
Si Si1 0.050420 0.993070 0.399120
Si Si2 0.156906 0.496224 0.785954
Si Si3 0.509692 0.043041 0.922786
Si Si4 0.177040 0.889085 0.685624
Si Si5 0.017451 0.028495 0.198717
O O1 0.932846 0.749104 0.279200
O O2 0.102764 0.006643 0.371184
O O3 0.190432 0.929604 0.611543
O O4 0.956254 0.257666 0.316531
O O5 0.178895 0.596186 0.722837
O O6 0.331866 0.483329 0.010733
O O7 0.701148 0.051436 0.131574
O O8 0.500000 0.982397 0.000000
O O9 0.467468 0.809388 0.821775
O O10 0.440547 0.312138 0.816986
O O11 0.000000 0.982279 0.500000
#
# Coordination Sequence:
#
# PCOD9122536 Si02
#       5
#     4   4   4   4   4
#     4  11  21  35  57  91 119 148 190 245 288 333
#     4  10  20  34  56  88 124 153 183 232 295 349
#     4  11  24  42  60  82 116 159 196 233 288 353
#     4   9  21  37  60  87 117 149 190 235 284 339
#     4  11  21  38  60  84 115 155 196 237 286 344
#
# _framework density 25.570761999999998
#
# number of rings (size 3 to 8) (size 9 to 14) (size 15 to 20)
#    0.000    1.600    0.000    6.600    0.000   15.200 
#    0.000    2.000    0.000    0.000    0.000    0.000 
#    0.000    0.000    0.000    0.000    0.000    0.000 
#
# Total GULP energy -55904.487341 kJ/mol
# GULP energy per Si atom -5590.448734 kJ/mol
# Density = 2.551256 g / cm^3
# Si number density = 25.570762 Si / 1000 Ang^3
#
#
#
# Elastic Constant Matrix: (Units=GPa)
#
#
# Indices 1 2 3 4 5 6 
#
# 1 67.5223 9.6695 34.2278 0.0000 -39.5045 -0.0002
# 2 9.6695 132.1038 26.1786 0.0000 -12.7135 0.0000
# 3 34.2278 26.1786 110.1006 0.0000 -41.5057 0.0000
# 4 0.0000 0.0000 0.0000 19.3968 0.0000 -7.4072
# 5 -39.5045 -12.7135 -41.5057 0.0000 51.5276 0.0000
# 6 -0.0002 0.0000 0.0000 -7.4072 0.0000 32.1275
#
#
#
# Elastic Compliance Matrix: (Units=1/GPa)
#
#
# Indices 1 2 3 4 5 6 
#
# 1 0.026913 0.000124 -0.000871 0.000000 0.019962 0.000000
# 2 0.000124 0.007959 -0.001658 0.000000 0.000723 0.000000
# 3 -0.000871 -0.001658 0.013415 0.000000 0.009730 0.000000
# 4 0.000000 0.000000 0.000000 0.056532 0.000000 0.013034
# 5 0.019962 0.000723 0.009730 0.000000 0.042727 0.000000
# 6 0.000000 0.000000 0.000000 0.013034 0.000000 0.034131
#
#
# Mechanical properties :
#
#
# Convention : Reuss Voigt Hill
#
# Bulk Modulus (GPa) = 23.00089 49.98648 36.49369
# Shear Modulus (GPa) = 24.87809 36.58709 30.73259
#
# Velocity S-wave (km/s) = 3.12254 3.78672 3.47055
# Velocity P-wave (km/s) = 4.69200 6.22171 5.51020
#
# Compressibility (1/GPa) = 0.04347658
#
# Stress axis : x y z
#
# Youngs Moduli (GPa) = 37.15729 125.64484 74.54114
#
# Poissons Ratio (x) = -0.01555 0.06489
# Poissons Ratio (y) = -0.00460 0.12362
# Poissons Ratio (z) = 0.03235 0.20837
#
# Static dielectric constant tensor:
#      x y z
#    x 2.267380 0.000000 0.024780 
#    y 0.000000 1.945870 0.000000 
#    z 0.024780 0.000000 2.037160 
# 
# From -- ./inp_files/63117.got.cif
#   From: 2010.05.17/outbox.cif.g08.bks.cpg/sg5_32_cif.got.tgz:63117.got - 2010.06.03 18:56:24.
