data_PCOD9122476
_publ_section_title
;
Structure prediction by ZEFSAII (Michael W. Deem and Ramdas Pophale) SiO2 
 PCOD9122476
Probable space group: C 2
;
_chemical_formula_sum "Si O2"
_cell_formula_units_Z 28
_cell_length_a 13.116804
_cell_length_b 9.496581
_cell_length_c 9.358583
_cell_angle_alpha 90.000000
_cell_angle_beta 71.401896
_cell_angle_gamma 90.000000
_cell_volume 1104.873272
_symmetry_space_group_name_H-M "C 2"
_symmetry_group_IT_number 5
_symmetry_cell_setting 'monoclinic'
loop_
_space_group_symop_operation_xyz
x,y,z
-x,y,-z
1/2+x,1/2+y,z
1/2-x,1/2+y,-z
loop_
_atom_site_type_symbol
_atom_site_label
_atom_site_fract_x
_atom_site_fract_y
_atom_site_fract_z
Si Si1 0.679451 0.476030 0.666202
Si Si2 0.562939 0.707779 0.822690
Si Si3 0.128084 0.854718 0.972993
Si Si4 0.015338 0.496080 0.164659
Si Si5 0.801768 0.661459 0.285441
Si Si6 0.206866 0.880182 0.254938
Si Si7 0.608694 0.114426 0.379384
O O1 0.582143 0.586893 0.693135
O O2 0.696032 0.309935 0.630313
O O3 0.678203 0.793170 0.796464
O O4 0.790394 0.550632 0.583730
O O5 0.490208 0.833340 0.790970
O O6 0.500000 0.670426 0.000000
O O7 0.664231 0.473856 0.846412
O O8 0.163052 0.892393 0.114375
O O9 0.190137 0.718791 0.882462
O O10 0.000000 0.832418 0.000000
O O11 0.915449 0.588687 0.260583
O O12 0.110329 0.565475 0.212451
O O13 0.000000 0.497888 0.000000
O O14 0.719081 0.532506 0.322158
O O15 0.121300 0.781181 0.370610
O O16 0.500000 0.065183 0.500000
#
# Coordination Sequence:
#
# PCOD9122476 Si02
#       7
#     4   4   4   4   4   4   4
#     4   9  22  36  56  93 129 167 205 267 330 384
#     4   9  19  33  58  92 128 159 212 265 329 388
#     4  10  20  33  58  93 133 161 207 271 337 380
#     4  10  20  36  63  92 119 166 216 266 318 380
#     4   9  20  34  56  90 121 157 211 272 317 378
#     4  10  21  36  60  93 124 174 218 265 325 389
#     4  11  24  44  62  87 133 180 216 262 329 392
#
# _framework density 25.342271
#
# number of rings (size 3 to 8) (size 9 to 14) (size 15 to 20)
#    0.857    1.429    0.000    2.571   10.000    0.571 
#    2.571    5.000    0.000    0.000    0.000    0.000 
#    0.000    0.000    0.000    0.000    0.000    0.000 
#
# Total GULP energy -78010.194818 kJ/mol
# GULP energy per Si atom -5572.156773 kJ/mol
# Density = 2.528459 g / cm^3
# Si number density = 25.342271 Si / 1000 Ang^3
#
#
#
# Elastic Constant Matrix: (Units=GPa)
#
#
# Indices 1 2 3 4 5 6 
#
# 1 45.1545 13.9991 14.7794 0.0000 -1.8930 0.0000
# 2 13.9991 142.7675 -1.9842 0.0000 -8.4430 0.0000
# 3 14.7794 -1.9842 70.5835 0.0000 20.6586 0.0000
# 4 0.0000 0.0000 0.0000 7.2804 0.0000 -11.3509
# 5 -1.8930 -8.4430 20.6586 0.0000 54.1562 0.0000
# 6 0.0000 0.0000 0.0000 -11.3509 0.0000 33.4462
#
#
#
# Elastic Compliance Matrix: (Units=1/GPa)
#
#
# Indices 1 2 3 4 5 6 
#
# 1 0.025008 -0.002369 -0.006136 0.000000 0.002845 0.000000
# 2 -0.002369 0.007295 0.000442 0.000000 0.000886 0.000000
# 3 -0.006136 0.000442 0.017456 0.000000 -0.006805 0.000000
# 4 0.000000 0.000000 0.000000 0.291703 0.000000 0.098997
# 5 0.002845 0.000886 -0.006805 0.000000 0.021298 0.000000
# 6 0.000000 0.000000 0.000000 0.098997 0.000000 0.063496
#
#
# Mechanical properties :
#
#
# Convention : Reuss Voigt Hill
#
# Bulk Modulus (GPa) = 29.73223 34.67712 32.20468
# Shear Modulus (GPa) = 11.02305 34.42395 22.72350
#
# Velocity S-wave (km/s) = 2.08785 3.68959 2.99768
# Velocity P-wave (km/s) = 4.19164 5.64482 4.97161
#
# Compressibility (1/GPa) = 0.03363354
#
# Stress axis : x y z
#
# Youngs Moduli (GPa) = 39.98668 137.07556 57.28551
#
# Poissons Ratio (x) = 0.32476 0.35150
# Poissons Ratio (y) = 0.09474 -0.02531
# Poissons Ratio (z) = 0.24535 -0.06057
#
# Static dielectric constant tensor:
#      x y z
#    x 2.027450 0.000000 -0.007330 
#    y 0.000000 2.129240 0.000000 
#    z -0.007330 0.000000 2.086770 
# 
# From -- ./inp_files/41486.got.cif
#   From: 2010.05.17/outbox.cif.g08.bks.cpg/sg5_21_cif.got.tgz:41486.got - 2010.06.03 18:56:24.
