data_PCOD9122765
_publ_section_title
;
Structure prediction by ZEFSAII (Michael W. Deem and Ramdas Pophale) SiO2 
 PCOD9122765
Probable space group: C 2
;
_chemical_formula_sum "Si O2"
_cell_formula_units_Z 28
_cell_length_a 15.504286
_cell_length_b 8.282019
_cell_length_c 19.382810
_cell_angle_alpha 90.000000
_cell_angle_beta 32.826032
_cell_angle_gamma 90.000000
_cell_volume 1349.199516
_symmetry_space_group_name_H-M "C 2"
_symmetry_group_IT_number 5
_symmetry_cell_setting 'monoclinic'
loop_
_space_group_symop_operation_xyz
x,y,z
-x,y,-z
1/2+x,1/2+y,z
1/2-x,1/2+y,-z
loop_
_atom_site_type_symbol
_atom_site_label
_atom_site_fract_x
_atom_site_fract_y
_atom_site_fract_z
Si Si1 0.127388 0.469240 0.127442
Si Si2 0.000000 0.358784 0.000000
Si Si3 0.577801 0.585953 0.165559
Si Si4 0.419071 0.096788 0.159011
Si Si5 0.000000 0.191667 0.500000
Si Si6 0.800697 0.916474 0.270001
Si Si7 0.584719 0.483814 0.320712
Si Si8 0.314107 0.147735 0.769646
O O1 0.092221 0.279053 0.147949
O O2 0.150498 0.536021 0.188859
O O3 0.976164 0.564395 0.197601
O O4 0.282908 0.511743 0.976703
O O5 0.962808 0.484998 0.964043
O O6 0.150167 0.243158 0.893670
O O7 0.412933 0.510502 0.247794
O O8 0.588486 0.548116 0.239977
O O9 0.411657 0.287821 0.153530
O O10 0.253990 0.021095 0.244303
O O11 0.157207 0.303372 0.392640
O O12 0.977110 0.080495 0.447233
O O13 0.717737 0.040964 0.275198
O O14 0.561943 0.291654 0.329523
#
# Coordination Sequence:
#
# PCOD9122765 Si02
#       8
#     4   2   4   4   2   4   4   4
#     4  12  22  37  63 100 138 171 196 245 315 390
#     4  10  20  36  56  90 132 172 202 248 308 374
#     4  12  24  39  64  98 133 168 209 252 312 386
#     4  10  20  36  59  88 127 165 203 247 305 374
#     4  10  24  48  68  84 118 166 220 280 322 346
#     4  11  24  43  64  92 125 168 217 265 310 368
#     4  10  22  43  65  90 121 163 214 266 311 365
#     4  11  22  38  63  95 131 166 206 251 312 385
#
# _framework density 20.753046000000001
#
# number of rings (size 3 to 8) (size 9 to 14) (size 15 to 20)
#    0.000    1.143    0.000    9.429    0.000    2.286 
#    0.000    8.571    0.000    0.000    0.000    0.000 
#    0.000    0.000    0.000    0.000    0.000    0.000 
#
# Total GULP energy -78109.056389 kJ/mol
# GULP energy per Si atom -5579.218314 kJ/mol
# Density = 2.070581 g / cm^3
# Si number density = 20.753046 Si / 1000 Ang^3
#
#
#
# Elastic Constant Matrix: (Units=GPa)
#
#
# Indices 1 2 3 4 5 6 
#
# 1 124.4489 31.0553 39.6805 -0.0001 9.4365 0.0000
# 2 31.0553 154.5937 47.3161 -0.0001 8.2959 0.0000
# 3 39.6805 47.3161 70.1082 -0.0001 12.8290 0.0000
# 4 -0.0001 -0.0001 -0.0001 19.1438 0.0000 -12.6249
# 5 9.4365 8.2959 12.8290 0.0000 15.3052 0.0000
# 6 0.0000 0.0000 0.0000 -12.6249 0.0000 30.5825
#
#
#
# Elastic Compliance Matrix: (Units=1/GPa)
#
#
# Indices 1 2 3 4 5 6 
#
# 1 0.009855 -0.000348 -0.005038 0.000000 -0.001664 0.000000
# 2 -0.000348 0.008166 -0.005366 0.000000 0.000287 0.000000
# 3 -0.005038 -0.005366 0.023194 0.000000 -0.013426 0.000000
# 4 0.000000 0.000000 0.000000 0.071777 0.000000 0.029631
# 5 -0.001664 0.000287 -0.013426 0.000000 0.077462 0.000000
# 6 0.000000 0.000000 0.000000 0.029631 0.000000 0.044931
#
#
# Mechanical properties :
#
#
# Convention : Reuss Voigt Hill
#
# Bulk Modulus (GPa) = 50.73900 65.02832 57.88366
# Shear Modulus (GPa) = 18.97827 28.41289 23.69558
#
# Velocity S-wave (km/s) = 3.02732 3.70414 3.38270
# Velocity P-wave (km/s) = 6.05983 7.04958 6.57336
#
# Compressibility (1/GPa) = 0.01970870
#
# Stress axis : x y z
#
# Youngs Moduli (GPa) = 101.47167 122.46488 43.11502
#
# Poissons Ratio (x) = 0.04266 0.21722
# Poissons Ratio (y) = 0.03535 0.23137
# Poissons Ratio (z) = 0.51123 0.65718
#
# Static dielectric constant tensor:
#      x y z
#    x 1.799850 0.000000 0.038030 
#    y 0.000000 1.755310 0.000000 
#    z 0.038030 0.000000 1.957980 
# 
# From -- ./inp_files/61447.got.cif
#   From: 2010.05.17/outbox.cif.g08.bks.cpg/sg5_31_cif.got.tgz:61447.got - 2010.06.03 18:56:24.
