data_PCOD9122878
_publ_section_title
;
Structure prediction by ZEFSAII (Michael W. Deem and Ramdas Pophale) SiO2 
 PCOD9122878
Probable space group: C 2
;
_chemical_formula_sum "Si O2"
_cell_formula_units_Z 30
_cell_length_a 13.768723
_cell_length_b 17.531280
_cell_length_c 10.928586
_cell_angle_alpha 90.000000
_cell_angle_beta 149.679244
_cell_angle_gamma 90.000000
_cell_volume 1331.758064
_symmetry_space_group_name_H-M "C 2"
_symmetry_group_IT_number 5
_symmetry_cell_setting 'monoclinic'
loop_
_space_group_symop_operation_xyz
x,y,z
-x,y,-z
1/2+x,1/2+y,z
1/2-x,1/2+y,-z
loop_
_atom_site_type_symbol
_atom_site_label
_atom_site_fract_x
_atom_site_fract_y
_atom_site_fract_z
Si Si1 0.774729 0.342950 0.264698
Si Si2 0.663324 0.501399 0.260425
Si Si3 0.497245 0.115727 0.354074
Si Si4 0.825839 0.748640 0.601670
Si Si5 0.968028 0.883370 0.225977
Si Si6 0.594588 0.647878 0.481006
Si Si7 0.000000 0.579413 0.000000
Si Si8 0.772953 0.021010 0.092386
O O1 0.746008 0.431178 0.271612
O O2 0.684757 0.289949 0.274130
O O3 0.000000 0.333607 0.500000
O O4 0.666713 0.337663 0.017538
O O5 0.818934 0.561915 0.466850
O O6 0.571031 0.454481 0.270851
O O7 0.500000 0.538909 0.000000
O O8 0.500000 0.138733 0.500000
O O9 0.521309 0.186913 0.287114
O O10 0.319107 0.059880 0.128949
O O11 0.623075 0.702617 0.394592
O O12 0.869206 0.822146 0.563141
O O13 0.830255 0.932428 0.161856
O O14 0.500000 0.683508 0.500000
O O15 0.458708 0.574607 0.317531
O O16 0.816430 0.626943 0.752029
O O17 0.102118 0.533052 0.003953
#
# Coordination Sequence:
#
# PCOD9122878 Si02
#       8
#     4   4   4   4   4   4   2   4
#     4  10  20  36  61  95 130 169 219 286 347 391
#     4   9  18  37  63  95 129 169 220 276 331 398
#     4  12  24  40  67  96 139 182 226 281 335 407
#     4  11  23  38  60  94 137 174 222 279 340 401
#     4  10  22  37  65  96 133 174 218 285 343 398
#     4  10  22  40  71 103 135 178 221 281 342 408
#     4  10  22  42  70 102 134 178 226 278 342 398
#     4  11  23  43  70 105 135 179 237 280 338 405
#
# _framework density 22.526615
#
# number of rings (size 3 to 8) (size 9 to 14) (size 15 to 20)
#    0.000    1.600    1.333    5.200    1.867    1.067 
#    0.000    2.000    0.000    0.000    1.733    0.000 
#    0.000    0.000    0.000    0.000    0.000    0.000 
#
# Total GULP energy -83522.142962 kJ/mol
# GULP energy per Si atom -5568.142864 kJ/mol
# Density = 2.247534 g / cm^3
# Si number density = 22.526615 Si / 1000 Ang^3
#
#
#
# Elastic Constant Matrix: (Units=GPa)
#
#
# Indices 1 2 3 4 5 6 
#
# 1 110.8345 44.4390 24.5540 0.0000 22.7810 0.0000
# 2 44.4390 111.9839 28.2601 0.0000 7.8013 0.0000
# 3 24.5540 28.2601 93.3601 0.0000 23.7789 0.0000
# 4 0.0000 0.0000 0.0000 3.3202 0.0000 -5.8679
# 5 22.7810 7.8013 23.7789 0.0000 32.6210 0.0000
# 6 0.0000 0.0000 0.0000 -5.8679 0.0000 35.6856
#
#
#
# Elastic Compliance Matrix: (Units=1/GPa)
#
#
# Indices 1 2 3 4 5 6 
#
# 1 0.012328 -0.004367 0.000008 0.000000 -0.007570 0.000000
# 2 -0.004367 0.011216 -0.002874 0.000000 0.002462 0.000000
# 3 0.000008 -0.002874 0.014006 0.000000 -0.009528 0.000000
# 4 0.000000 0.000000 0.000000 0.424577 0.000000 0.069815
# 5 -0.007570 0.002462 -0.009528 0.000000 0.042298 0.000000
# 6 0.000000 0.000000 0.000000 0.069815 0.000000 0.039502
#
#
# Mechanical properties :
#
#
# Convention : Reuss Voigt Hill
#
# Bulk Modulus (GPa) = 43.31923 56.74276 50.03100
# Shear Modulus (GPa) = 8.83256 28.92037 18.87646
#
# Velocity S-wave (km/s) = 1.98229 3.58695 2.89790
# Velocity P-wave (km/s) = 4.95089 6.51144 5.78403
#
# Compressibility (1/GPa) = 0.02308443
#
# Stress axis : x y z
#
# Youngs Moduli (GPa) = 81.11927 89.15530 71.39919
#
# Poissons Ratio (x) = 0.38930 -0.00055
# Poissons Ratio (y) = 0.35421 0.20519
# Poissons Ratio (z) = -0.00063 0.25622
#
# Static dielectric constant tensor:
#      x y z
#    x 1.966710 0.000000 -0.044990 
#    y 0.000000 1.908910 0.000000 
#    z -0.044990 0.000000 1.918590 
# 
# From -- ./inp_files/43313.got.cif
#   From: 2010.05.17/outbox.cif.g08.bks.cpg/sg5_22_cif.got.tgz:43313.got - 2010.06.03 18:56:24.
