data_PCOD9122058
_publ_section_title
;
Structure prediction by ZEFSAII (Michael W. Deem and Ramdas Pophale) SiO2 
 PCOD9122058
Probable space group: C 2
;
_chemical_formula_sum "Si O2"
_cell_formula_units_Z 28
_cell_length_a 15.789437
_cell_length_b 5.173738
_cell_length_c 14.819880
_cell_angle_alpha 90.000000
_cell_angle_beta 114.732045
_cell_angle_gamma 90.000000
_cell_volume 1099.595116
_symmetry_space_group_name_H-M "C 2"
_symmetry_group_IT_number 5
_symmetry_cell_setting 'monoclinic'
loop_
_space_group_symop_operation_xyz
x,y,z
-x,y,-z
1/2+x,1/2+y,z
1/2-x,1/2+y,-z
loop_
_atom_site_type_symbol
_atom_site_label
_atom_site_fract_x
_atom_site_fract_y
_atom_site_fract_z
Si Si1 0.592137 0.881590 0.573869
Si Si2 0.344330 0.556368 0.249228
Si Si3 0.040922 0.143200 0.923219
Si Si4 0.773500 0.195963 0.708842
Si Si5 0.765706 0.972954 0.905756
Si Si6 0.570682 0.160619 0.843232
Si Si7 0.188127 0.109136 0.459548
O O1 0.500000 0.025255 0.500000
O O2 0.585322 0.741139 0.667143
O O3 0.614054 0.678821 0.503440
O O4 0.681888 0.055422 0.629230
O O5 0.264840 0.480303 0.286630
O O6 0.403315 0.312925 0.237967
O O7 0.283668 0.702940 0.146124
O O8 0.031487 0.375922 0.847684
O O9 0.007668 0.868497 0.868316
O O10 0.144145 0.049923 0.998119
O O11 0.000000 0.232186 0.000000
O O12 0.790995 0.086344 0.816513
O O13 0.844079 0.162457 0.658032
O O14 0.679515 0.110668 0.918529
O O15 0.270621 0.322339 0.512265
#
# Coordination Sequence:
#
# PCOD9122058 Si02
#       7
#     4   4   4   4   4   4   4
#     4  10  21  38  65  98 134 177 228 282 335 398
#     4  10  20  42  70  96 135 177 240 282 330 406
#     4  12  26  44  68 102 139 173 224 287 354 415
#     4   9  20  37  62  93 129 173 222 280 329 398
#     4  10  22  41  71  95 127 178 236 273 336 415
#     4  11  23  44  70  97 131 183 228 276 338 418
#     4  10  19  38  61  87 125 171 218 263 327 394
#
# _framework density 25.463920000000002
#
# number of rings (size 3 to 8) (size 9 to 14) (size 15 to 20)
#    0.000    1.714    2.857    1.286    4.000    0.571 
#    2.571    0.000    0.000    0.000    0.000    0.000 
#    0.000    0.000    0.000    0.000    0.000    0.000 
#
# Total GULP energy -77978.065327 kJ/mol
# GULP energy per Si atom -5569.861809 kJ/mol
# Density = 2.540596 g / cm^3
# Si number density = 25.463920 Si / 1000 Ang^3
#
#
#
# Elastic Constant Matrix: (Units=GPa)
#
#
# Indices 1 2 3 4 5 6 
#
# 1 40.4396 14.8347 25.5401 0.0000 -19.9251 0.0000
# 2 14.8347 140.6552 42.1800 0.0000 -11.1961 0.0001
# 3 25.5401 42.1800 107.4239 0.0000 -14.7321 0.0000
# 4 0.0000 0.0000 0.0000 24.0917 0.0000 -24.5249
# 5 -19.9251 -11.1961 -14.7321 0.0000 51.1492 0.0000
# 6 0.0000 0.0001 0.0000 -24.5249 0.0000 26.8325
#
#
#
# Elastic Compliance Matrix: (Units=1/GPa)
#
#
# Indices 1 2 3 4 5 6 
#
# 1 0.034716 -0.000843 -0.006344 0.000000 0.011512 0.000000
# 2 -0.000843 0.008118 -0.002903 0.000000 0.000613 0.000000
# 3 -0.006344 -0.002903 0.012005 0.000000 0.000351 0.000000
# 4 0.000000 0.000000 0.000000 0.596679 0.000000 0.545365
# 5 0.011512 0.000613 0.000351 0.000000 0.024270 0.000000
# 6 0.000000 0.000000 0.000000 0.545365 0.000000 0.535732
#
#
# Mechanical properties :
#
#
# Convention : Reuss Voigt Hill
#
# Bulk Modulus (GPa) = 28.85221 50.40313 39.62767
# Shear Modulus (GPa) = 4.02171 34.14562 19.08366
#
# Velocity S-wave (km/s) = 1.25810 3.66586 2.74056
# Velocity P-wave (km/s) = 3.66955 6.14451 5.06066
#
# Compressibility (1/GPa) = 0.03465939
#
# Stress axis : x y z
#
# Youngs Moduli (GPa) = 28.80500 123.18605 83.29655
#
# Poissons Ratio (x) = 0.10380 0.52845
# Poissons Ratio (y) = 0.02427 0.24182
# Poissons Ratio (z) = 0.18275 0.35762
#
# Static dielectric constant tensor:
#      x y z
#    x 2.092820 0.000000 -0.066810 
#    y 0.000000 2.092310 0.000000 
#    z -0.066810 0.000000 2.091890 
# 
# From -- ./inp_files/55506.got.cif
#   From: 2010.05.17/outbox.cif.g08.bks.cpg/sg5_28_cif.got.tgz:55506.got - 2010.06.03 18:56:24.
