data_PCOD9122782
_publ_section_title
;
Structure prediction by ZEFSAII (Michael W. Deem and Ramdas Pophale) SiO2 
 PCOD9122782
Probable space group: C 2
;
_chemical_formula_sum "Si O2"
_cell_formula_units_Z 26
_cell_length_a 13.146097
_cell_length_b 9.613081
_cell_length_c 10.994126
_cell_angle_alpha 90.000000
_cell_angle_beta 113.720594
_cell_angle_gamma 90.000000
_cell_volume 1271.999851
_symmetry_space_group_name_H-M "C 2"
_symmetry_group_IT_number 5
_symmetry_cell_setting 'monoclinic'
loop_
_space_group_symop_operation_xyz
x,y,z
-x,y,-z
1/2+x,1/2+y,z
1/2-x,1/2+y,-z
loop_
_atom_site_type_symbol
_atom_site_label
_atom_site_fract_x
_atom_site_fract_y
_atom_site_fract_z
Si Si1 0.997318 0.170040 0.645326
Si Si2 0.944190 0.490126 0.602823
Si Si3 0.500000 0.417483 0.000000
Si Si4 0.088693 0.722050 0.235050
Si Si5 0.732647 0.677057 0.878452
Si Si6 0.256721 0.504151 0.882608
Si Si7 0.286900 0.490269 0.623643
O O1 0.979384 0.335022 0.656167
O O2 0.891354 0.087571 0.645159
O O3 0.000000 0.148686 0.500000
O O4 0.113234 0.129542 0.766652
O O5 0.970762 0.608094 0.712753
O O6 0.811109 0.496299 0.520568
O O7 0.000000 0.519020 0.500000
O O8 0.495492 0.317709 0.881200
O O9 0.390761 0.507165 0.946243
O O10 0.172909 0.654971 0.178078
O O11 0.165339 0.833092 0.344369
O O12 0.725036 0.843931 0.893387
O O13 0.772122 0.604182 0.021097
O O14 0.231813 0.528259 0.728326
#
# Coordination Sequence:
#
# PCOD9122782 Si02
#       7
#     4   4   2   4   4   4   4
#     4  11  22  38  60  83 114 149 187 230 279 332
#     4  11  22  37  58  83 112 145 186 234 279 326
#     4   8  18  36  56  78 112 148 184 228 274 328
#     4  10  21  37  57  82 112 145 186 230 277 327
#     4  10  21  38  59  84 114 149 185 229 278 332
#     4  10  20  36  58  82 112 148 188 229 276 327
#     4  10  21  39  58  80 113 148 186 229 277 335
#
# _framework density 20.440252999999998
#
# number of rings (size 3 to 8) (size 9 to 14) (size 15 to 20)
#    0.000    2.154    0.000    7.385    0.000    6.769 
#    0.000    4.615    0.000    0.000    0.000    0.000 
#    0.000    0.000    0.000    0.000    0.000    0.000 
#
# Total GULP energy -72579.838165 kJ/mol
# GULP energy per Si atom -5583.064474 kJ/mol
# Density = 2.039373 g / cm^3
# Si number density = 20.440253 Si / 1000 Ang^3
#
#
#
# Elastic Constant Matrix: (Units=GPa)
#
#
# Indices 1 2 3 4 5 6 
#
# 1 61.9626 27.0456 -0.0470 0.0000 -12.5140 0.0000
# 2 27.0456 52.3025 7.8057 0.0000 -41.0307 0.0000
# 3 -0.0470 7.8057 40.6084 0.0000 -2.8487 0.0000
# 4 0.0000 0.0000 0.0000 33.8747 0.0000 -6.6447
# 5 -12.5140 -41.0307 -2.8487 0.0000 42.4195 0.0000
# 6 0.0000 0.0000 0.0000 -6.6447 0.0000 21.0815
#
#
#
# Elastic Compliance Matrix: (Units=1/GPa)
#
#
# Indices 1 2 3 4 5 6 
#
# 1 0.025416 -0.031922 0.004547 0.000000 -0.023074 0.000000
# 2 -0.031922 0.123538 -0.016137 0.000000 0.108992 0.000000
# 3 0.004547 -0.016137 0.026858 0.000000 -0.012464 0.000000
# 4 0.000000 0.000000 0.000000 0.031466 0.000000 0.009918
# 5 -0.023074 0.108992 -0.012464 0.000000 0.121354 0.000000
# 6 0.000000 0.000000 0.000000 0.009918 0.000000 0.050561
#
#
# Mechanical properties :
#
#
# Convention : Reuss Voigt Hill
#
# Bulk Modulus (GPa) = 11.26304 24.94246 18.10275
# Shear Modulus (GPa) = 10.08445 27.47977 18.78211
#
# Velocity S-wave (km/s) = 2.22359 3.67058 3.03459
# Velocity P-wave (km/s) = 3.48061 5.49484 4.59934
#
# Compressibility (1/GPa) = 0.08878599
#
# Stress axis : x y z
#
# Youngs Moduli (GPa) = 39.34585 8.09470 37.23249
#
# Poissons Ratio (x) = 0.25840 -0.16929
# Poissons Ratio (y) = 1.25600 0.60084
# Poissons Ratio (z) = -0.17890 0.13063
#
# Static dielectric constant tensor:
#      x y z
#    x 1.734050 0.000000 0.018310 
#    y 0.000000 1.704000 0.000000 
#    z 0.018310 0.000000 1.756870 
# 
# From -- ./inp_files/41820.got.cif
#   From: 2010.05.17/outbox.cif.g08.bks.cpg/sg5_21_cif.got.tgz:41820.got - 2010.06.03 18:56:24.
