data_PCOD9122437
_publ_section_title
;
Structure prediction by ZEFSAII (Michael W. Deem and Ramdas Pophale) SiO2 
 PCOD9122437
Probable space group: C 2
;
_chemical_formula_sum "Si O2"
_cell_formula_units_Z 24
_cell_length_a 21.897514
_cell_length_b 5.375278
_cell_length_c 11.818899
_cell_angle_alpha 90.000000
_cell_angle_beta 48.815557
_cell_angle_gamma 90.000000
_cell_volume 1046.967883
_symmetry_space_group_name_H-M "C 2"
_symmetry_group_IT_number 5
_symmetry_cell_setting 'monoclinic'
loop_
_space_group_symop_operation_xyz
x,y,z
-x,y,-z
1/2+x,1/2+y,z
1/2-x,1/2+y,-z
loop_
_atom_site_type_symbol
_atom_site_label
_atom_site_fract_x
_atom_site_fract_y
_atom_site_fract_z
Si Si1 0.764429 0.094250 0.357987
Si Si2 0.597932 0.863531 0.379738
Si Si3 0.699388 0.973819 0.042925
Si Si4 0.675260 0.099489 0.819319
Si Si5 0.427595 0.359133 0.497641
Si Si6 0.114312 0.773258 0.683028
O O1 0.780063 0.352990 0.277799
O O2 0.688435 0.118093 0.535204
O O3 0.773414 0.853973 0.264342
O O4 0.843464 0.036728 0.340868
O O5 0.500000 0.871111 0.500000
O O6 0.632475 0.874275 0.212350
O O7 0.624225 0.119611 0.405044
O O8 0.617700 0.615651 0.424233
O O9 0.740813 0.231832 0.037637
O O10 0.662371 0.051929 0.967138
O O11 0.600634 0.148909 0.822046
O O12 0.500000 0.365741 0.500000
O O13 0.449705 0.316087 0.339332
#
# Coordination Sequence:
#
# PCOD9122437 Si02
#       6
#     4   4   4   4   4   4
#     4  10  20  32  55  89 124 173 203 256 343 398
#     4  10  24  44  63  91 128 178 221 266 328 403
#     4  12  26  40  64 100 137 172 216 283 341 391
#     4  10  22  37  51  94 129 167 206 260 350 392
#     4  10  23  39  65  94 121 171 233 271 310 383
#     4  10  21  34  61  87 132 165 218 264 329 399
#
# _framework density 22.923338999999999
#
# number of rings (size 3 to 8) (size 9 to 14) (size 15 to 20)
#    1.000    0.667    1.667    2.000    9.333    0.000 
#    0.000    0.000    0.000    4.000    0.000    0.000 
#    0.000    0.000    0.000    0.000    0.000    0.000 
#
# Total GULP energy -66836.033888 kJ/mol
# GULP energy per Si atom -5569.669491 kJ/mol
# Density = 2.287116 g / cm^3
# Si number density = 22.923339 Si / 1000 Ang^3
#
#
#
# Elastic Constant Matrix: (Units=GPa)
#
#
# Indices 1 2 3 4 5 6 
#
# 1 106.5950 6.7715 36.4192 0.0000 37.3164 -0.0001
# 2 6.7715 164.0069 27.7318 0.0001 0.1681 0.0001
# 3 36.4192 27.7318 103.1043 0.0005 32.8796 -0.0001
# 4 0.0000 0.0001 0.0005 24.5504 -0.0001 20.0959
# 5 37.3164 0.1681 32.8796 -0.0001 39.3137 -0.0003
# 6 -0.0001 0.0001 -0.0001 20.0959 -0.0003 24.1213
#
#
#
# Elastic Compliance Matrix: (Units=1/GPa)
#
#
# Indices 1 2 3 4 5 6 
#
# 1 0.014150 -0.000433 -0.000817 0.000000 -0.012746 0.000000
# 2 -0.000433 0.006509 -0.002346 0.000000 0.002345 0.000000
# 3 -0.000817 -0.002346 0.014139 -0.000001 -0.011039 0.000001
# 4 0.000000 0.000000 -0.000001 0.128072 0.000000 -0.106699
# 5 -0.012746 0.002345 -0.011039 0.000000 0.046757 0.000000
# 6 0.000000 0.000000 0.000001 -0.106699 0.000000 0.130350
#
#
# Mechanical properties :
#
#
# Convention : Reuss Voigt Hill
#
# Bulk Modulus (GPa) = 36.22301 57.28347 46.75324
# Shear Modulus (GPa) = 14.03029 37.78265 25.90647
#
# Velocity S-wave (km/s) = 2.47665 4.06423 3.36540
# Velocity P-wave (km/s) = 4.90046 6.86056 5.96162
#
# Compressibility (1/GPa) = 0.02760676
#
# Stress axis : x y z
#
# Youngs Moduli (GPa) = 70.67127 153.62380 70.72718
#
# Poissons Ratio (x) = 0.06652 0.05779
# Poissons Ratio (y) = 0.03060 0.16590
# Poissons Ratio (z) = 0.05774 0.36035
#
# Static dielectric constant tensor:
#      x y z
#    x 1.877430 0.000000 0.017470 
#    y 0.000000 1.894210 0.000000 
#    z 0.017470 0.000000 1.843260 
# 
# From -- ./inp_files/47692.got.cif
#   From: 2010.05.17/outbox.cif.g08.bks.cpg/sg5_24_cif.got.tgz:47692.got - 2010.06.03 18:56:24.
