data_PCOD9122791
_publ_section_title
;
Structure prediction by ZEFSAII (Michael W. Deem and Ramdas Pophale) SiO2 
 PCOD9122791
Probable space group: C 2
;
_chemical_formula_sum "Si O2"
_cell_formula_units_Z 22
_cell_length_a 24.121705
_cell_length_b 8.546878
_cell_length_c 6.783301
_cell_angle_alpha 90.000000
_cell_angle_beta 57.009631
_cell_angle_gamma 90.000000
_cell_volume 1172.992936
_symmetry_space_group_name_H-M "C 2"
_symmetry_group_IT_number 5
_symmetry_cell_setting 'monoclinic'
loop_
_space_group_symop_operation_xyz
x,y,z
-x,y,-z
1/2+x,1/2+y,z
1/2-x,1/2+y,-z
loop_
_atom_site_type_symbol
_atom_site_label
_atom_site_fract_x
_atom_site_fract_y
_atom_site_fract_z
Si Si1 0.315690 0.609280 0.977726
Si Si2 0.560823 0.821079 0.234543
Si Si3 0.500000 0.625381 0.000000
Si Si4 0.685182 0.312288 0.293061
Si Si5 0.568162 0.185133 0.247064
Si Si6 0.615175 0.409372 0.815724
O O1 0.375366 0.727917 0.812294
O O2 0.304461 0.482713 0.826906
O O3 0.250718 0.709140 0.147288
O O4 0.340199 0.514621 0.124118
O O5 0.500000 0.810796 0.500000
O O6 0.574702 0.003668 0.176275
O O7 0.534505 0.733767 0.093072
O O8 0.559695 0.513861 0.813364
O O9 0.627236 0.232020 0.278610
O O10 0.660334 0.328962 0.564741
O O11 0.500000 0.209309 0.500000
O O12 0.576375 0.291746 0.037195
#
# Coordination Sequence:
#
# PCOD9122791 Si02
#       6
#     4   4   2   4   4   4
#     4  10  23  38  58  86 114 152 197 238 286 344
#     4  10  21  38  58  85 116 149 191 236 284 341
#     4  10  20  36  58  84 114 148 188 236 286 334
#     4  11  22  40  60  82 118 155 190 242 292 335
#     4  10  22  38  60  89 117 149 195 238 283 345
#     4  10  22  38  60  86 114 153 194 236 289 346
#
# _framework density 18.755441999999999
#
# number of rings (size 3 to 8) (size 9 to 14) (size 15 to 20)
#    0.000    1.818    0.000    3.273    0.000   13.091 
#    0.000    5.455    0.000    0.000    0.000    0.000 
#    0.000    0.000    0.000    0.000    0.000    0.000 
#
# Total GULP energy -61423.479286 kJ/mol
# GULP energy per Si atom -5583.952662 kJ/mol
# Density = 1.871275 g / cm^3
# Si number density = 18.755442 Si / 1000 Ang^3
#
#
#
# Elastic Constant Matrix: (Units=GPa)
#
#
# Indices 1 2 3 4 5 6 
#
# 1 82.7361 68.7642 42.6660 0.0000 -23.3239 0.0000
# 2 68.7642 145.0906 70.9117 0.0000 -20.2180 0.0000
# 3 42.6660 70.9117 90.8178 0.0000 -12.1136 0.0000
# 4 0.0000 0.0000 0.0000 23.9083 0.0000 -11.9391
# 5 -23.3239 -20.2180 -12.1136 0.0000 25.9777 0.0000
# 6 0.0000 0.0000 0.0000 -11.9391 0.0000 33.5093
#
#
#
# Elastic Compliance Matrix: (Units=1/GPa)
#
#
# Indices 1 2 3 4 5 6 
#
# 1 0.024436 -0.007955 -0.003378 0.000000 0.014173 0.000000
# 2 -0.007955 0.014359 -0.007396 0.000000 0.000584 0.000000
# 3 -0.003378 -0.007396 0.018342 0.000000 -0.000236 0.000000
# 4 0.000000 0.000000 0.000000 0.050879 0.000000 0.018128
# 5 0.014173 0.000584 -0.000236 0.000000 0.051564 0.000000
# 6 0.000000 0.000000 0.000000 0.018128 0.000000 0.036301
#
#
# Mechanical properties :
#
#
# Convention : Reuss Voigt Hill
#
# Bulk Modulus (GPa) = 50.81999 75.92536 63.37268
# Shear Modulus (GPa) = 20.84220 25.76590 23.30405
#
# Velocity S-wave (km/s) = 3.33718 3.71048 3.52877
# Velocity P-wave (km/s) = 6.48104 7.67636 7.10389
#
# Compressibility (1/GPa) = 0.01967730
#
# Stress axis : x y z
#
# Youngs Moduli (GPa) = 40.92349 69.64392 54.52092
#
# Poissons Ratio (x) = 0.55403 0.18417
# Poissons Ratio (y) = 0.32556 0.40325
# Poissons Ratio (z) = 0.13824 0.51511
#
# Static dielectric constant tensor:
#      x y z
#    x 1.642950 0.000000 0.046570 
#    y 0.000000 1.661300 0.000000 
#    z 0.046570 0.000000 1.765330 
# 
# From -- ./inp_files/9236.got.cif
#   From: 2010.05.17/outbox.cif.g08.bks.cpg/sg5_5_cif.got.tgz:9236.got - 2010.06.03 18:56:24.
