data_PCOD9122624
_publ_section_title
;
Structure prediction by ZEFSAII (Michael W. Deem and Ramdas Pophale) SiO2 
 PCOD9122624
Probable space group: C 2
;
_chemical_formula_sum "Si O2"
_cell_formula_units_Z 24
_cell_length_a 27.654711
_cell_length_b 5.022532
_cell_length_c 12.713707
_cell_angle_alpha 90.000000
_cell_angle_beta 39.724994
_cell_angle_gamma 90.000000
_cell_volume 1128.587294
_symmetry_space_group_name_H-M "C 2"
_symmetry_group_IT_number 5
_symmetry_cell_setting 'monoclinic'
loop_
_space_group_symop_operation_xyz
x,y,z
-x,y,-z
1/2+x,1/2+y,z
1/2-x,1/2+y,-z
loop_
_atom_site_type_symbol
_atom_site_label
_atom_site_fract_x
_atom_site_fract_y
_atom_site_fract_z
Si Si1 0.845644 0.611960 0.146858
Si Si2 0.910721 0.211623 0.663021
Si Si3 0.182942 0.731297 0.216721
Si Si4 0.089083 0.113722 0.851128
Si Si5 0.673187 0.457170 0.015021
Si Si6 0.217948 0.233849 0.498488
O O1 0.875237 0.319297 0.123526
O O2 0.757052 0.645297 0.325440
O O3 0.888639 0.814632 0.154275
O O4 0.858202 0.742592 0.013131
O O5 0.862971 0.994257 0.675980
O O6 0.888302 0.135146 0.821127
O O7 0.000000 0.192179 0.500000
O O8 0.877803 0.496302 0.687867
O O9 0.208859 0.791340 0.052692
O O10 0.259214 0.636330 0.145245
O O11 0.130652 0.185778 0.671698
O O12 0.000000 0.146375 0.000000
O O13 0.239721 0.537022 0.488584
#
# Coordination Sequence:
#
# PCOD9122624 Si02
#       6
#     4   4   4   4   4   4
#     4  10  21  33  59  80 105 142 184 228 251 337
#     4  10  20  35  54  77 108 151 184 222 282 327
#     4  10  20  35  57  76 112 148 181 231 275 321
#     4  10  20  36  56  78 113 141 173 218 289 321
#     4  10  21  36  57  83 107 144 197 220 275 314
#     4   8  16  33  51  76 100 136 170 212 270 314
#
# _framework density 21.265522000000001
#
# number of rings (size 3 to 8) (size 9 to 14) (size 15 to 20)
#    1.000    1.333    1.667    1.000    2.333    0.000 
#    0.000    3.333    0.000    0.000    0.000    0.000 
#    0.000    0.000    0.000    0.000    0.000    0.000 
#
# Total GULP energy -66893.694576 kJ/mol
# GULP energy per Si atom -5574.474548 kJ/mol
# Density = 2.121712 g / cm^3
# Si number density = 21.265522 Si / 1000 Ang^3
#
#
#
# Elastic Constant Matrix: (Units=GPa)
#
#
# Indices 1 2 3 4 5 6 
#
# 1 32.4175 6.8557 23.0893 0.0019 -10.1841 0.0065
# 2 6.8557 102.0364 15.8770 0.0028 -10.4058 0.0163
# 3 23.0893 15.8770 138.2718 0.0025 -36.1423 0.0073
# 4 0.0019 0.0028 0.0025 25.5061 -0.0006 -3.7294
# 5 -10.1841 -10.4058 -36.1423 -0.0006 22.8364 -0.0013
# 6 0.0065 0.0163 0.0073 -3.7294 -0.0013 21.2846
#
#
#
# Elastic Compliance Matrix: (Units=1/GPa)
#
#
# Indices 1 2 3 4 5 6 
#
# 1 0.036733 -0.000856 -0.003165 -0.000003 0.010983 -0.000009
# 2 -0.000856 0.010298 0.000149 -0.000002 0.004547 -0.000008
# 3 -0.003165 0.000149 0.012608 -0.000001 0.018611 -0.000002
# 4 -0.000003 -0.000002 -0.000001 0.040237 -0.000002 0.007050
# 5 0.010983 0.004547 0.018611 -0.000002 0.080214 -0.000009
# 6 -0.000009 -0.000008 -0.000002 0.007050 -0.000009 0.048218
#
#
# Mechanical properties :
#
#
# Convention : Reuss Voigt Hill
#
# Bulk Modulus (GPa) = 19.26931 40.48554 29.87742
# Shear Modulus (GPa) = 19.73552 29.05235 24.39394
#
# Velocity S-wave (km/s) = 3.04970 3.70019 3.39058
# Velocity P-wave (km/s) = 4.63485 6.11020 5.42294
#
# Compressibility (1/GPa) = 0.05189599
#
# Stress axis : x y z
#
# Youngs Moduli (GPa) = 27.22360 97.10227 79.31372
#
# Poissons Ratio (x) = 0.08308 0.25102
# Poissons Ratio (y) = 0.02329 -0.01180
# Poissons Ratio (z) = 0.08616 -0.01444
#
# Static dielectric constant tensor:
#      x y z
#    x 1.800950 0.000000 0.047450 
#    y 0.000000 1.798800 0.000000 
#    z 0.047450 0.000000 1.790310 
# 
# From -- ./inp_files/43750.got.cif
#   From: 2010.05.17/outbox.cif.g08.bks.cpg/sg5_22_cif.got.tgz:43750.got - 2010.06.03 18:56:24.
