data_PCOD9122879
_publ_section_title
;
Structure prediction by ZEFSAII (Michael W. Deem and Ramdas Pophale) SiO2 
 PCOD9122879
Probable space group: C 2
;
_chemical_formula_sum "Si O2"
_cell_formula_units_Z 20
_cell_length_a 10.980014
_cell_length_b 8.709457
_cell_length_c 14.934753
_cell_angle_alpha 90.000000
_cell_angle_beta 29.453430
_cell_angle_gamma 90.000000
_cell_volume 702.273585
_symmetry_space_group_name_H-M "C 2"
_symmetry_group_IT_number 5
_symmetry_cell_setting 'monoclinic'
loop_
_space_group_symop_operation_xyz
x,y,z
-x,y,-z
1/2+x,1/2+y,z
1/2-x,1/2+y,-z
loop_
_atom_site_type_symbol
_atom_site_label
_atom_site_fract_x
_atom_site_fract_y
_atom_site_fract_z
Si Si1 0.029771 0.598250 0.838785
Si Si2 0.788497 0.919555 0.319433
Si Si3 0.866802 0.498297 0.754477
Si Si4 0.475177 0.687085 0.753203
Si Si5 0.287885 0.798346 0.211852
O O1 0.880272 0.519456 0.852809
O O2 0.164995 0.741134 0.708900
O O3 0.222865 0.480647 0.760572
O O4 0.815099 0.660715 0.040933
O O5 0.500000 0.959038 0.500000
O O6 0.857121 0.966690 0.172241
O O7 0.914580 0.014071 0.318737
O O8 0.920138 0.677079 0.687244
O O9 0.998207 0.327004 0.668784
O O10 0.611741 0.741097 0.756802
O O11 0.500000 0.786342 0.000000
#
# Coordination Sequence:
#
# PCOD9122879 Si02
#       5
#     4   4   4   4   4
#     4  11  23  38  66 101 131 179 230 279 346 411
#     4  11  26  44  65  99 140 181 227 277 347 414
#     4  10  23  41  63  94 139 176 227 288 334 407
#     4  10  22  40  68  98 130 179 229 280 346 407
#     4  10  20  36  61  97 134 171 220 284 338 399
#
# _framework density 28.478930999999999
#
# number of rings (size 3 to 8) (size 9 to 14) (size 15 to 20)
#    0.000    1.600    2.000    2.400    5.600    1.600 
#    0.000    9.000    0.000    0.000    0.000    0.000 
#    0.000    0.000    0.000    0.000    0.000    0.000 
#
# Total GULP energy -55740.790217 kJ/mol
# GULP energy per Si atom -5574.079022 kJ/mol
# Density = 2.841411 g / cm^3
# Si number density = 28.478931 Si / 1000 Ang^3
#
#
#
# Elastic Constant Matrix: (Units=GPa)
#
#
# Indices 1 2 3 4 5 6 
#
# 1 184.2350 67.2693 20.5781 -0.0068 -14.6606 0.0018
# 2 67.2693 280.4799 71.7210 -0.0150 -8.0043 0.0021
# 3 20.5781 71.7210 88.7286 -0.0282 -8.9563 0.0101
# 4 -0.0068 -0.0150 -0.0282 40.2438 0.0083 -1.5531
# 5 -14.6606 -8.0043 -8.9563 0.0083 30.1979 -0.0025
# 6 0.0018 0.0021 0.0101 -1.5531 -0.0025 84.0819
#
#
#
# Elastic Compliance Matrix: (Units=1/GPa)
#
#
# Indices 1 2 3 4 5 6 
#
# 1 0.006147 -0.001390 -0.000039 0.000000 0.002604 0.000000
# 2 -0.001390 0.004809 -0.003612 -0.000001 -0.000472 0.000000
# 3 -0.000039 -0.003612 0.014536 0.000008 0.003335 -0.000001
# 4 0.000000 -0.000001 0.000008 0.024866 -0.000005 0.000459
# 5 0.002604 -0.000472 0.003335 -0.000005 0.035243 0.000001
# 6 0.000000 0.000000 -0.000001 0.000459 0.000001 0.011902
#
#
# Mechanical properties :
#
#
# Convention : Reuss Voigt Hill
#
# Bulk Modulus (GPa) = 64.89816 96.95337 80.92576
# Shear Modulus (GPa) = 44.35674 57.16304 50.75989
#
# Velocity S-wave (km/s) = 3.95083 4.48504 4.22639
# Velocity P-wave (km/s) = 6.60679 7.80632 7.23147
#
# Compressibility (1/GPa) = 0.01540876
#
# Stress axis : x y z
#
# Youngs Moduli (GPa) = 162.68206 207.94641 68.79477
#
# Poissons Ratio (x) = 0.28903 0.00270
# Poissons Ratio (y) = 0.22611 0.24851
# Poissons Ratio (z) = 0.00639 0.75118
#
# Static dielectric constant tensor:
#      x y z
#    x 2.276340 0.000000 0.239970 
#    y 0.000000 2.392260 0.000000 
#    z 0.239970 0.000000 2.550120 
# 
# From -- ./inp_files/38492.got.cif
#   From: 2010.05.17/outbox.cif.g08.bks.cpg/sg5_20_cif.got.tgz:38492.got - 2010.06.03 18:56:24.
