data_PCOD9122681
_publ_section_title
;
Structure prediction by ZEFSAII (Michael W. Deem and Ramdas Pophale) SiO2 
 PCOD9122681
Probable space group: C 2
;
_chemical_formula_sum "Si O2"
_cell_formula_units_Z 20
_cell_length_a 28.011873
_cell_length_b 5.266251
_cell_length_c 7.109100
_cell_angle_alpha 90.000000
_cell_angle_beta 131.764935
_cell_angle_gamma 90.000000
_cell_volume 782.221031
_symmetry_space_group_name_H-M "C 2"
_symmetry_group_IT_number 5
_symmetry_cell_setting 'monoclinic'
loop_
_space_group_symop_operation_xyz
x,y,z
-x,y,-z
1/2+x,1/2+y,z
1/2-x,1/2+y,-z
loop_
_atom_site_type_symbol
_atom_site_label
_atom_site_fract_x
_atom_site_fract_y
_atom_site_fract_z
Si Si1 0.837516 0.919750 0.918553
Si Si2 0.474948 0.475718 0.147122
Si Si3 0.265352 0.906663 0.799556
Si Si4 0.528655 0.971358 0.284142
Si Si5 0.342414 0.677055 0.317077
O O1 0.900474 0.916764 0.958425
O O2 0.806397 0.644302 0.837072
O O3 0.861319 0.999003 0.190920
O O4 0.786087 0.147827 0.748816
O O5 0.485752 0.751730 0.263341
O O6 0.516841 0.246653 0.339674
O O7 0.500000 0.510257 0.000000
O O8 0.192458 0.999581 0.622304
O O9 0.288059 0.853820 0.076189
O O10 0.599791 0.855634 0.467751
O O11 0.500000 0.008874 0.000000
#
# Coordination Sequence:
#
# PCOD9122681 Si02
#       5
#     4   4   4   4   4
#     4  10  20  36  59  94 125 159 211 265 317 372
#     4  10  22  41  59  84 129 173 214 254 313 385
#     4  10  20  35  59  96 123 159 204 271 323 364
#     4  10  23  39  61  86 128 176 207 253 316 387
#     4  10  21  37  62  95 130 158 211 261 324 380
#
# _framework density 25.568218999999999
#
# number of rings (size 3 to 8) (size 9 to 14) (size 15 to 20)
#    1.200    0.800    2.000    1.200    2.800    0.800 
#    0.000    0.000    0.000   19.200    0.000    0.000 
#    0.000    0.000    0.000    0.000    0.000    0.000 
#
# Total GULP energy -55870.142807 kJ/mol
# GULP energy per Si atom -5587.014281 kJ/mol
# Density = 2.551002 g / cm^3
# Si number density = 25.568219 Si / 1000 Ang^3
#
#
#
# Elastic Constant Matrix: (Units=GPa)
#
#
# Indices 1 2 3 4 5 6 
#
# 1 121.5875 -3.4887 20.8040 0.0000 1.5701 0.0000
# 2 -3.4887 165.9779 5.0495 0.0000 5.4476 0.0000
# 3 20.8040 5.0495 109.4322 0.0000 6.8250 0.0000
# 4 0.0000 0.0000 0.0000 36.8987 0.0000 26.2046
# 5 1.5701 5.4476 6.8250 0.0000 31.7196 0.0000
# 6 0.0000 0.0000 0.0000 26.2046 0.0000 27.9261
#
#
#
# Elastic Compliance Matrix: (Units=1/GPa)
#
#
# Indices 1 2 3 4 5 6 
#
# 1 0.008510 0.000232 -0.001622 0.000000 -0.000112 0.000000
# 2 0.000232 0.006070 -0.000262 0.000000 -0.000998 0.000000
# 3 -0.001622 -0.000262 0.009579 0.000000 -0.001936 0.000000
# 4 0.000000 0.000000 0.000000 0.081238 0.000000 -0.076230
# 5 -0.000112 -0.000998 -0.001936 0.000000 0.032120 0.000000
# 6 0.000000 0.000000 0.000000 -0.076230 0.000000 0.107340
#
#
# Mechanical properties :
#
#
# Convention : Reuss Voigt Hill
#
# Bulk Modulus (GPa) = 47.94671 49.08079 48.51375
# Shear Modulus (GPa) = 19.59917 44.28439 31.94178
#
# Velocity S-wave (km/s) = 2.77166 4.16626 3.53835
# Velocity P-wave (km/s) = 5.38850 6.51009 5.97567
#
# Compressibility (1/GPa) = 0.02085649
#
# Stress axis : x y z
#
# Youngs Moduli (GPa) = 117.50763 164.73145 104.39317
#
# Poissons Ratio (x) = -0.03820 0.16928
# Poissons Ratio (y) = -0.02725 0.02735
# Poissons Ratio (z) = 0.19054 0.04315
#
# Static dielectric constant tensor:
#      x y z
#    x 1.951480 0.000000 0.035210 
#    y 0.000000 2.058120 0.000000 
#    z 0.035210 0.000000 1.946050 
# 
# From -- ./inp_files/32086.got.cif
#   From: 2010.05.17/outbox.cif.g08.bks.cpg/sg5_17_cif.got.tgz:32086.got - 2010.06.03 18:56:24.
