data_PCOD9122817
_publ_section_title
;
Structure prediction by ZEFSAII (Michael W. Deem and Ramdas Pophale) SiO2 
 PCOD9122817
Probable space group: C 2
;
_chemical_formula_sum "Si O2"
_cell_formula_units_Z 28
_cell_length_a 5.577131
_cell_length_b 14.034075
_cell_length_c 13.734253
_cell_angle_alpha 90.000000
_cell_angle_beta 88.396756
_cell_angle_gamma 90.000000
_cell_volume 1074.557443
_symmetry_space_group_name_H-M "C 2"
_symmetry_group_IT_number 5
_symmetry_cell_setting 'monoclinic'
loop_
_space_group_symop_operation_xyz
x,y,z
-x,y,-z
1/2+x,1/2+y,z
1/2-x,1/2+y,-z
loop_
_atom_site_type_symbol
_atom_site_label
_atom_site_fract_x
_atom_site_fract_y
_atom_site_fract_z
Si Si1 0.873749 0.967740 0.145879
Si Si2 0.120839 0.997610 0.623239
Si Si3 0.438141 0.195814 0.305480
Si Si4 0.571086 0.721132 0.605561
Si Si5 0.930441 0.765037 0.894902
Si Si6 0.372345 0.936656 0.125047
Si Si7 0.614467 0.972796 0.646795
O O1 0.623712 0.983417 0.095702
O O2 0.896452 0.852658 0.140104
O O3 0.132850 0.996108 0.101372
O O4 0.874912 0.999959 0.257592
O O5 0.111453 0.107233 0.593563
O O6 0.869038 0.953263 0.596340
O O7 0.368702 0.946471 0.597808
O O8 0.167515 0.236168 0.324604
O O9 0.533396 0.192830 0.193321
O O10 0.406619 0.087707 0.342997
O O11 0.663559 0.247792 0.356595
O O12 0.500000 0.756740 0.500000
O O13 0.684549 0.827412 0.904900
O O14 0.000000 0.729635 0.000000
O O15 0.378786 0.933278 0.243302
#
# Coordination Sequence:
#
# PCOD9122817 Si02
#       7
#     4   4   4   4   4   4   4
#     4   8  16  30  50  75 100 141 178 231 267 330
#     4   8  14  28  52  76  99 129 173 226 285 324
#     4  10  21  34  56  84 115 154 184 243 287 336
#     4  10  20  36  59  83 110 147 195 238 294 351
#     4  10  22  35  55  82 119 158 200 225 280 346
#     4   8  16  30  51  71  99 140 185 227 268 325
#     4   8  14  29  50  72 102 134 176 222 280 321
#
# _framework density 26.057241000000001
#
# number of rings (size 3 to 8) (size 9 to 14) (size 15 to 20)
#    0.857    2.286    0.000    0.429    2.000    0.571 
#    0.000    0.000    9.429    1.714    0.000    0.000 
#    0.000    0.000    0.000    0.000    0.000    0.000 
#
# Total GULP energy -78065.390143 kJ/mol
# GULP energy per Si atom -5576.099296 kJ/mol
# Density = 2.599793 g / cm^3
# Si number density = 26.057241 Si / 1000 Ang^3
#
#
#
# Elastic Constant Matrix: (Units=GPa)
#
#
# Indices 1 2 3 4 5 6 
#
# 1 244.7344 16.2829 75.7338 0.0000 38.9645 0.0000
# 2 16.2829 85.5988 13.9419 0.0000 0.7960 0.0000
# 3 75.7338 13.9419 120.6330 0.0000 9.0133 0.0000
# 4 0.0000 0.0000 0.0000 14.0054 0.0000 -10.7661
# 5 38.9645 0.7960 9.0133 0.0000 51.8454 0.0000
# 6 0.0000 0.0000 0.0000 -10.7661 0.0000 -5.6099
#
#
#
# Elastic Compliance Matrix: (Units=1/GPa)
#
#
# Indices 1 2 3 4 5 6 
#
# 1 0.005721 -0.000524 -0.003252 0.000000 -0.003726 0.000000
# 2 -0.000524 0.011955 -0.001083 0.000000 0.000398 0.000000
# 3 -0.003252 -0.001083 0.010408 0.000000 0.000652 0.000000
# 4 0.000000 0.000000 0.000000 0.028846 0.000000 -0.055359
# 5 -0.003726 0.000398 0.000652 0.000000 0.021969 0.000000
# 6 0.000000 0.000000 0.000000 -0.055359 0.000000 -0.072015
#
#
# Mechanical properties :
#
#
# Convention : Reuss Voigt Hill
#
# Bulk Modulus (GPa) = 54.44981 73.65370 64.05176
# Shear Modulus (GPa) = 220.04916 35.04869 127.54892
#
# Velocity S-wave (km/s) = 9.19955 3.67149 7.00398
# Velocity P-wave (km/s) = 11.56650 6.80446 9.48906
#
# Compressibility (1/GPa) = 0.01836554
#
# Stress axis : x y z
#
# Youngs Moduli (GPa) = 174.80684 83.64942 96.08036
#
# Poissons Ratio (x) = 0.04381 0.31250
# Poissons Ratio (y) = 0.09156 0.10401
# Poissons Ratio (z) = 0.56856 0.09055
#
# Static dielectric constant tensor:
#      x y z
#    x 2.171720 0.000000 0.015900 
#    y 0.000000 1.997480 0.000000 
#    z 0.015900 0.000000 2.040210 
# 
# From -- ./inp_files/49477.got.cif
#   From: 2010.05.17/outbox.cif.g08.bks.cpg/sg5_25_cif.got.tgz:49477.got - 2010.06.03 18:56:24.
