data_PCOD9122501
_publ_section_title
;
Structure prediction by ZEFSAII (Michael W. Deem and Ramdas Pophale) SiO2 
 PCOD9122501
Probable space group: C 2
;
_chemical_formula_sum "Si O2"
_cell_formula_units_Z 32
_cell_length_a 16.715765
_cell_length_b 11.946392
_cell_length_c 7.403059
_cell_angle_alpha 90.000000
_cell_angle_beta 82.256204
_cell_angle_gamma 90.000000
_cell_volume 1464.857934
_symmetry_space_group_name_H-M "C 2"
_symmetry_group_IT_number 5
_symmetry_cell_setting 'monoclinic'
loop_
_space_group_symop_operation_xyz
x,y,z
-x,y,-z
1/2+x,1/2+y,z
1/2-x,1/2+y,-z
loop_
_atom_site_type_symbol
_atom_site_label
_atom_site_fract_x
_atom_site_fract_y
_atom_site_fract_z
Si Si1 0.612703 0.768580 0.771703
Si Si2 0.601302 0.812870 0.357005
Si Si3 0.591440 0.615791 0.083203
Si Si4 0.793741 0.801427 0.291746
Si Si5 0.230935 0.570090 0.868795
Si Si6 0.083932 0.861477 0.048922
Si Si7 0.791926 0.833526 0.696630
Si Si8 0.577242 0.972665 0.062497
O O1 0.413075 0.794554 0.426012
O O2 0.710329 0.760219 0.733902
O O3 0.574007 0.663000 0.887363
O O4 0.591929 0.869104 0.917017
O O5 0.575821 0.703564 0.249593
O O6 0.698455 0.828657 0.302903
O O7 0.564721 0.919180 0.262954
O O8 0.689281 0.611457 0.057493
O O9 0.565036 0.488430 0.118609
O O10 0.798341 0.668420 0.254015
O O11 0.849822 0.863182 0.130839
O O12 0.820387 0.831352 0.483496
O O13 0.259283 0.457550 0.758224
O O14 0.158366 0.542594 0.024600
O O15 0.134646 0.803741 0.193501
O O16 0.000000 0.813005 0.000000
O O17 0.500000 0.032418 0.000000
#
# Coordination Sequence:
#
# PCOD9122501 Si02
#       8
#     4   4   4   4   4   4   4   4
#     4   9  18  35  60  83 104 136 182 231 275 314
#     4   9  18  35  59  84 105 134 180 231 275 315
#     4   9  18  33  55  81 107 138 181 228 270 316
#     4  10  20  36  59  79 104 141 183 227 268 311
#     4   9  18  36  58  82 108 139 184 227 269 320
#     4  11  23  36  51  77 114 150 180 214 266 327
#     4   9  19  37  59  82 105 133 180 233 270 313
#     4  10  20  34  53  81 117 146 172 215 271 330
#
# _framework density 21.845120999999999
#
# number of rings (size 3 to 8) (size 9 to 14) (size 15 to 20)
#    0.000    2.500    0.000    3.750    0.000    7.500 
#    0.000    7.500    0.000    4.500    0.000    0.000 
#    0.000    0.000    0.000    0.000    0.000    0.000 
#
# Total GULP energy -89314.010515 kJ/mol
# GULP energy per Si atom -5582.125657 kJ/mol
# Density = 2.179540 g / cm^3
# Si number density = 21.845121 Si / 1000 Ang^3
#
#
#
# Elastic Constant Matrix: (Units=GPa)
#
#
# Indices 1 2 3 4 5 6 
#
# 1 100.7064 -5.4977 32.7838 0.0000 17.0192 0.0000
# 2 -5.4977 45.2452 17.3886 0.0000 1.9426 0.0000
# 3 32.7838 17.3886 142.6164 0.0000 23.9980 0.0000
# 4 0.0000 0.0000 0.0000 18.3695 0.0000 -0.6824
# 5 17.0192 1.9426 23.9980 0.0000 34.5152 0.0000
# 6 0.0000 0.0000 0.0000 -0.6824 0.0000 16.0417
#
#
#
# Elastic Compliance Matrix: (Units=1/GPa)
#
#
# Indices 1 2 3 4 5 6 
#
# 1 0.011508 0.002436 -0.002225 0.000000 -0.004265 0.000000
# 2 0.002436 0.023721 -0.003426 0.000000 -0.000154 0.000000
# 3 -0.002225 -0.003426 0.008747 0.000000 -0.004792 0.000000
# 4 0.000000 0.000000 0.000000 0.054524 0.000000 0.002319
# 5 -0.004265 -0.000154 -0.004792 0.000000 0.034416 0.000000
# 6 0.000000 0.000000 0.000000 0.002319 0.000000 0.062436
#
#
# Mechanical properties :
#
#
# Convention : Reuss Voigt Hill
#
# Bulk Modulus (GPa) = 26.63327 41.99083 34.31205
# Shear Modulus (GPa) = 23.33196 30.04482 26.68839
#
# Velocity S-wave (km/s) = 3.27167 3.71260 3.49909
# Velocity P-wave (km/s) = 5.14685 6.13528 5.66267
#
# Compressibility (1/GPa) = 0.03754702
#
# Stress axis : x y z
#
# Youngs Moduli (GPa) = 86.89722 42.15623 114.32027
#
# Poissons Ratio (x) = -0.10271 0.25434
# Poissons Ratio (y) = -0.21172 0.39170
# Poissons Ratio (z) = 0.19333 0.14444
#
# Static dielectric constant tensor:
#      x y z
#    x 1.882490 0.000000 0.019700 
#    y 0.000000 1.847070 0.000000 
#    z 0.019700 0.000000 1.760580 
# 
# From -- ./inp_files/23872.got.cif
#   From: 2010.05.17/outbox.cif.g08.bks.cpg/sg5_12_cif.got.tgz:23872.got - 2010.06.03 18:56:24.
