data_PCOD9122829
_publ_section_title
;
Structure prediction by ZEFSAII (Michael W. Deem and Ramdas Pophale) SiO2 
 PCOD9122829
Probable space group: C 2
;
_chemical_formula_sum "Si O2"
_cell_formula_units_Z 30
_cell_length_a 25.305550
_cell_length_b 13.499887
_cell_length_c 8.249443
_cell_angle_alpha 90.000000
_cell_angle_beta 148.864353
_cell_angle_gamma 90.000000
_cell_volume 1457.191031
_symmetry_space_group_name_H-M "C 2"
_symmetry_group_IT_number 5
_symmetry_cell_setting 'monoclinic'
loop_
_space_group_symop_operation_xyz
x,y,z
-x,y,-z
1/2+x,1/2+y,z
1/2-x,1/2+y,-z
loop_
_atom_site_type_symbol
_atom_site_label
_atom_site_fract_x
_atom_site_fract_y
_atom_site_fract_z
Si Si1 0.753819 0.545900 0.354211
Si Si2 0.063056 0.454349 0.336474
Si Si3 0.702607 0.769618 0.706359
Si Si4 0.146429 0.237162 0.185624
Si Si5 0.360583 0.958990 0.954493
Si Si6 0.818408 0.045365 0.321482
Si Si7 0.116536 0.909727 0.797767
Si Si8 0.500000 0.611607 0.000000
O O1 0.843513 0.527943 0.457929
O O2 0.713095 0.656386 0.266210
O O3 0.804159 0.509352 0.652866
O O4 0.661250 0.472184 0.066425
O O5 0.116489 0.350698 0.523062
O O6 0.000000 0.439596 0.000000
O O7 0.979549 0.487570 0.247836
O O8 0.695473 0.759172 0.491365
O O9 0.693212 0.660633 0.752651
O O10 0.810169 0.816882 0.032150
O O11 0.138856 0.340134 0.070694
O O12 0.040902 0.182504 0.962271
O O13 0.289671 0.996507 0.913606
O O14 0.902237 0.049236 0.686833
O O15 0.867994 0.983959 0.309703
O O16 0.000000 0.881074 0.500000
#
# Coordination Sequence:
#
# PCOD9122829 Si02
#       8
#     4   4   4   4   4   4   4   2
#     4  10  20  36  59  87 117 154 203 239 290 362
#     4   9  17  33  61  88 113 153 193 246 302 342
#     4  10  20  39  60  86 121 160 199 239 310 356
#     4  11  18  33  63  88 116 147 201 256 284 352
#     4  11  19  35  62  93 112 148 204 255 289 344
#     4  11  24  37  64  90 122 151 209 253 294 350
#     4  11  24  42  60  84 129 169 187 240 317 367
#     4  10  20  36  62  94 114 160 200 252 304 348
#
# _framework density 20.587554999999998
#
# number of rings (size 3 to 8) (size 9 to 14) (size 15 to 20)
#    0.000    1.600    6.667    2.400    0.933    1.067 
#    0.000    6.667    4.400    0.000    0.000    0.000 
#    0.000    0.000    0.000    0.000    0.000    0.000 
#
# Total GULP energy -83758.121049 kJ/mol
# GULP energy per Si atom -5583.874737 kJ/mol
# Density = 2.054070 g / cm^3
# Si number density = 20.587555 Si / 1000 Ang^3
#
#
#
# Elastic Constant Matrix: (Units=GPa)
#
#
# Indices 1 2 3 4 5 6 
#
# 1 44.5719 23.7984 20.2753 0.0000 20.0977 0.0000
# 2 23.7984 74.3456 20.6112 0.0000 21.6370 0.0000
# 3 20.2753 20.6112 105.6796 0.0000 35.6756 0.0000
# 4 0.0000 0.0000 0.0000 20.0496 0.0000 8.0514
# 5 20.0977 21.6370 35.6756 0.0000 31.9355 0.0000
# 6 0.0000 0.0000 0.0000 8.0514 0.0000 20.9438
#
#
#
# Elastic Compliance Matrix: (Units=1/GPa)
#
#
# Indices 1 2 3 4 5 6 
#
# 1 0.033168 -0.005611 0.000793 0.000000 -0.017958 0.000000
# 2 -0.005611 0.017758 0.000775 0.000000 -0.009366 0.000000
# 3 0.000793 0.000775 0.015260 0.000000 -0.018071 0.000000
# 4 0.000000 0.000000 0.000000 0.058981 0.000000 -0.022674
# 5 -0.017958 -0.009366 -0.018071 0.000000 0.069147 0.000000
# 6 0.000000 0.000000 0.000000 -0.022674 0.000000 0.056463
#
#
# Mechanical properties :
#
#
# Convention : Reuss Voigt Hill
#
# Bulk Modulus (GPa) = 17.21186 39.32967 28.27077
# Shear Modulus (GPa) = 17.97078 25.24660 21.60869
#
# Velocity S-wave (km/s) = 2.95769 3.50566 3.24327
# Velocity P-wave (km/s) = 4.47687 5.96081 5.27132
#
# Compressibility (1/GPa) = 0.05809947
#
# Stress axis : x y z
#
# Youngs Moduli (GPa) = 30.14955 56.31368 65.53204
#
# Poissons Ratio (x) = 0.31597 -0.05197
# Poissons Ratio (y) = 0.16916 -0.05078
# Poissons Ratio (z) = -0.02391 -0.04363
#
# Static dielectric constant tensor:
#      x y z
#    x 1.796490 0.000000 -0.020450 
#    y 0.000000 1.710100 0.000000 
#    z -0.020450 0.000000 1.765020 
# 
# From -- ./inp_files/31022.got.cif
#   From: 2010.05.17/outbox.cif.g08.bks.cpg/sg5_16_cif.got.tgz:31022.got - 2010.06.03 18:56:24.
