data_PCOD9122280
_publ_section_title
;
Structure prediction by ZEFSAII (Michael W. Deem and Ramdas Pophale) SiO2 
 PCOD9122280
Probable space group: C 2
;
_chemical_formula_sum "Si O2"
_cell_formula_units_Z 20
_cell_length_a 7.109992
_cell_length_b 21.491549
_cell_length_c 5.835476
_cell_angle_alpha 90.000000
_cell_angle_beta 74.339235
_cell_angle_gamma 90.000000
_cell_volume 858.586095
_symmetry_space_group_name_H-M "C 2"
_symmetry_group_IT_number 5
_symmetry_cell_setting 'monoclinic'
loop_
_space_group_symop_operation_xyz
x,y,z
-x,y,-z
1/2+x,1/2+y,z
1/2-x,1/2+y,-z
loop_
_atom_site_type_symbol
_atom_site_label
_atom_site_fract_x
_atom_site_fract_y
_atom_site_fract_z
Si Si1 0.192959 0.185870 0.827790
Si Si2 0.278180 0.383367 0.548794
Si Si3 0.000000 0.110386 0.500000
Si Si4 0.000000 0.762619 0.500000
Si Si5 0.270653 0.057065 0.057915
Si Si6 0.721050 0.419652 0.944364
O O1 0.128105 0.157917 0.606904
O O2 0.396561 0.221766 0.729950
O O3 0.223311 0.122732 0.958480
O O4 0.000000 0.218817 0.000000
O O5 0.500000 0.411626 0.500000
O O6 0.323885 0.309932 0.499107
O O7 0.189511 0.403824 0.334207
O O8 0.197499 0.397959 0.831679
O O9 0.152833 0.064508 0.329676
O O10 0.500000 0.052294 0.000000
O O11 0.209566 0.994220 0.954129
O O12 0.500000 0.392534 0.000000
#
# Coordination Sequence:
#
# PCOD9122280 Si02
#       6
#     4   4   2   2   4   4
#     4  10  22  42  63 102 132 172 222 282 349 400
#     4   8  20  37  65  94 123 183 222 270 332 392
#     4  10  22  41  62  96 139 170 214 280 356 400
#     4  10  20  43  70  92 133 174 238 268 330 422
#     4  11  24  39  66 101 132 176 225 281 346 413
#     4  10  19  40  65  93 133 177 228 269 341 399
#
# _framework density 23.294108999999999
#
# number of rings (size 3 to 8) (size 9 to 14) (size 15 to 20)
#    0.600    1.600    0.000    3.000    7.000    0.000 
#   18.000    1.000    0.000    0.000    0.000    0.000 
#    0.000    0.000    0.000    0.000    0.000    0.000 
#
# Total GULP energy -55682.518857 kJ/mol
# GULP energy per Si atom -5568.251886 kJ/mol
# Density = 2.324109 g / cm^3
# Si number density = 23.294109 Si / 1000 Ang^3
#
#
#
# Elastic Constant Matrix: (Units=GPa)
#
#
# Indices 1 2 3 4 5 6 
#
# 1 77.3998 11.7957 60.3320 0.0000 -12.5190 0.0000
# 2 11.7957 76.5372 46.7165 0.0000 -24.4724 0.0000
# 3 60.3320 46.7165 183.5335 0.0000 -15.6985 0.0000
# 4 0.0000 0.0000 0.0000 17.8607 0.0000 -15.3736
# 5 -12.5190 -24.4724 -15.6985 0.0000 43.9759 0.0000
# 6 0.0000 0.0000 0.0000 -15.3736 0.0000 84.2646
#
#
#
# Elastic Compliance Matrix: (Units=1/GPa)
#
#
# Indices 1 2 3 4 5 6 
#
# 1 0.018058 0.002338 -0.006168 0.000000 0.004239 0.000000
# 2 0.002338 0.018547 -0.004693 0.000000 0.009312 0.000000
# 3 -0.006168 -0.004693 0.008559 0.000000 -0.001312 0.000000
# 4 0.000000 0.000000 0.000000 0.066419 0.000000 0.012118
# 5 0.004239 0.009312 -0.001312 0.000000 0.028660 0.000000
# 6 0.000000 0.000000 0.000000 0.012118 0.000000 0.014078
#
#
# Mechanical properties :
#
#
# Convention : Reuss Voigt Hill
#
# Bulk Modulus (GPa) = 35.56718 63.90653 49.73686
# Shear Modulus (GPa) = 27.66404 43.79532 35.72968
#
# Velocity S-wave (km/s) = 3.44989 4.34072 3.92069
# Velocity P-wave (km/s) = 5.58309 7.25373 6.47254
#
# Compressibility (1/GPa) = 0.02811581
#
# Stress axis : x y z
#
# Youngs Moduli (GPa) = 55.37860 53.91694 116.84204
#
# Poissons Ratio (x) = -0.12604 0.72072
# Poissons Ratio (y) = -0.12945 0.54833
# Poissons Ratio (z) = 0.34159 0.25303
#
# Static dielectric constant tensor:
#      x y z
#    x 1.918950 0.000000 0.013430 
#    y 0.000000 1.869320 0.000000 
#    z 0.013430 0.000000 1.925190 
# 
# From -- ./inp_files/2889.got.cif
#   From: 2010.05.17/outbox.cif.g08.bks.cpg/sg5_2_cif.got.tgz:2889.got - 2010.06.03 18:56:24.
