data_PCOD9122044
_publ_section_title
;
Structure prediction by ZEFSAII (Michael W. Deem and Ramdas Pophale) SiO2 
 PCOD9122044
Probable space group: C 2
;
_chemical_formula_sum "Si O2"
_cell_formula_units_Z 30
_cell_length_a 18.353091
_cell_length_b 8.548466
_cell_length_c 11.806877
_cell_angle_alpha 90.000000
_cell_angle_beta 120.863352
_cell_angle_gamma 90.000000
_cell_volume 1590.079055
_symmetry_space_group_name_H-M "C 2"
_symmetry_group_IT_number 5
_symmetry_cell_setting 'monoclinic'
loop_
_space_group_symop_operation_xyz
x,y,z
-x,y,-z
1/2+x,1/2+y,z
1/2-x,1/2+y,-z
loop_
_atom_site_type_symbol
_atom_site_label
_atom_site_fract_x
_atom_site_fract_y
_atom_site_fract_z
Si Si1 0.362387 0.830130 0.022403
Si Si2 0.818040 0.464212 0.757587
Si Si3 0.230233 0.555313 0.877150
Si Si4 0.500000 0.493994 0.500000
Si Si5 0.463433 0.760637 0.311028
Si Si6 0.620104 0.968064 0.445197
Si Si7 0.847937 0.754369 0.369893
Si Si8 0.782278 0.287047 0.294436
O O1 0.442396 0.779275 0.161887
O O2 0.311005 0.963310 0.051516
O O3 0.373994 0.902217 0.907256
O O4 0.302248 0.677472 0.968399
O O5 0.865292 0.474811 0.676480
O O6 0.742236 0.338012 0.686085
O O7 0.772595 0.630636 0.745872
O O8 0.159769 0.653461 0.751363
O O9 0.262192 0.424670 0.813186
O O10 0.507033 0.605216 0.395341
O O11 0.418703 0.385980 0.420402
O O12 0.526812 0.899613 0.393731
O O13 0.371990 0.763375 0.300176
O O14 0.688901 0.853552 0.560732
O O15 0.631856 0.134306 0.514004
#
# Coordination Sequence:
#
# PCOD9122044 Si02
#       8
#     4   4   4   2   4   4   4   4
#     4  10  21  35  57  87 116 159 199 240 302 358
#     4  11  21  40  58  87 125 159 198 242 302 370
#     4   9  20  34  58  85 116 148 204 257 284 347
#     4  12  22  36  62  88 120 146 202 264 306 344
#     4  11  21  38  60  85 117 158 196 248 304 354
#     4  11  22  36  62  87 123 158 197 249 303 363
#     4  10  23  35  59  95 113 151 204 254 302 351
#     4  10  19  38  60  86 117 156 203 249 299 345
#
# _framework density 18.866986000000001
#
# number of rings (size 3 to 8) (size 9 to 14) (size 15 to 20)
#    0.000    1.600    2.667    2.400    7.467    0.533 
#    0.000    1.333    0.000    0.000    0.000    0.000 
#    0.000    0.000    0.000    0.000    0.000    0.000 
#
# Total GULP energy -83722.422785 kJ/mol
# GULP energy per Si atom -5581.494852 kJ/mol
# Density = 1.882404 g / cm^3
# Si number density = 18.866986 Si / 1000 Ang^3
#
#
#
# Elastic Constant Matrix: (Units=GPa)
#
#
# Indices 1 2 3 4 5 6 
#
# 1 40.9530 22.5027 22.7063 0.0000 -9.8312 0.0000
# 2 22.5027 123.1684 55.9135 0.0000 -1.8891 0.0000
# 3 22.7063 55.9135 137.4123 0.0000 -16.8382 0.0000
# 4 0.0000 0.0000 0.0000 36.0671 0.0000 8.3611
# 5 -9.8312 -1.8891 -16.8382 0.0000 24.2894 0.0000
# 6 0.0000 0.0000 0.0000 8.3611 0.0000 15.0986
#
#
#
# Elastic Compliance Matrix: (Units=1/GPa)
#
#
# Indices 1 2 3 4 5 6 
#
# 1 0.030535 -0.004562 -0.001878 0.000000 0.010703 0.000000
# 2 -0.004562 0.010751 -0.004092 0.000000 -0.003847 0.000000
# 3 -0.001878 -0.004092 0.009967 0.000000 0.005831 0.000000
# 4 0.000000 0.000000 0.000000 0.031810 0.000000 -0.017615
# 5 0.010703 -0.003847 0.005831 0.000000 0.049245 0.000000
# 6 0.000000 0.000000 0.000000 -0.017615 0.000000 0.075986
#
#
# Mechanical properties :
#
#
# Convention : Reuss Voigt Hill
#
# Bulk Modulus (GPa) = 33.12421 55.97542 44.54982
# Shear Modulus (GPa) = 20.88356 28.45177 24.66766
#
# Velocity S-wave (km/s) = 3.33060 3.88753 3.61979
# Velocity P-wave (km/s) = 5.69081 7.06282 6.41361
#
# Compressibility (1/GPa) = 0.03018939
#
# Stress axis : x y z
#
# Youngs Moduli (GPa) = 32.74881 93.01304 100.32713
#
# Poissons Ratio (x) = 0.42434 0.18841
# Poissons Ratio (y) = 0.14940 0.41057
# Poissons Ratio (z) = 0.06150 0.38063
#
# Static dielectric constant tensor:
#      x y z
#    x 1.634150 0.000000 -0.009850 
#    y 0.000000 1.659420 0.000000 
#    z -0.009850 0.000000 1.696080 
# 
# From -- ./inp_files/44331.got.cif
#   From: 2010.05.17/outbox.cif.g08.bks.cpg/sg5_23_cif.got.tgz:44331.got - 2010.06.03 18:56:24.
