data_PCOD9122461
_publ_section_title
;
Structure prediction by ZEFSAII (Michael W. Deem and Ramdas Pophale) SiO2 
 PCOD9122461
Probable space group: C 2
;
_chemical_formula_sum "Si O2"
_cell_formula_units_Z 32
_cell_length_a 5.076044
_cell_length_b 29.335185
_cell_length_c 11.936868
_cell_angle_alpha 90.000000
_cell_angle_beta 122.564515
_cell_angle_gamma 90.000000
_cell_volume 1498.034683
_symmetry_space_group_name_H-M "C 2"
_symmetry_group_IT_number 5
_symmetry_cell_setting 'monoclinic'
loop_
_space_group_symop_operation_xyz
x,y,z
-x,y,-z
1/2+x,1/2+y,z
1/2-x,1/2+y,-z
loop_
_atom_site_type_symbol
_atom_site_label
_atom_site_fract_x
_atom_site_fract_y
_atom_site_fract_z
Si Si1 0.840494 0.465570 0.130287
Si Si2 0.845313 0.027583 0.628932
Si Si3 0.760684 0.247474 0.839540
Si Si4 0.868421 0.654851 0.094765
Si Si5 0.739971 0.298958 0.160753
Si Si6 0.999012 0.559474 0.764888
Si Si7 0.137793 0.374732 0.150918
Si Si8 0.274456 0.426347 0.649863
O O1 0.841762 0.448283 0.259527
O O2 0.956208 0.516769 0.141288
O O3 0.046133 0.427282 0.122544
O O4 0.500000 0.461514 0.000000
O O5 0.500000 0.032648 0.500000
O O6 0.772042 0.048904 0.736261
O O7 0.142055 0.052622 0.644348
O O8 0.924130 0.973473 0.635544
O O9 0.597502 0.198610 0.816012
O O10 0.994182 0.260055 0.792982
O O11 0.495321 0.286019 0.793518
O O12 0.000000 0.248644 0.000000
O O13 0.988852 0.608324 0.175364
O O14 0.500000 0.647894 0.000000
O O15 0.000000 0.664304 0.000000
O O16 0.936010 0.345603 0.193750
O O17 0.500000 0.298167 0.000000
O O18 0.495471 0.383989 0.270459
O O19 0.000000 0.355896 0.000000
O O20 0.000000 0.413594 0.500000
#
# Coordination Sequence:
#
# PCOD9122461 Si02
#       8
#     4   4   4   4   4   4   4   4
#     4  11  22  36  56  83 123 158 197 240 297 350
#     4  10  21  39  58  78 110 152 201 247 291 338
#     4   9  18  34  53  78 116 154 187 236 294 352
#     4  11  21  34  54  83 120 155 188 231 292 360
#     4  10  20  33  54  83 116 151 191 238 295 360
#     4  11  22  36  56  84 115 153 193 238 293 359
#     4  12  22  34  58  86 119 155 198 244 299 355
#     4  10  23  40  56  81 118 164 204 248 291 350
#
# _framework density 21.361321
#
# number of rings (size 3 to 8) (size 9 to 14) (size 15 to 20)
#    0.000    1.500    2.500    4.875    1.750    2.000 
#    0.000    0.000    0.000    0.000    0.000    3.500 
#    0.000    0.000    0.000    0.000    0.000    0.000 
#
# Total GULP energy -89107.302114 kJ/mol
# GULP energy per Si atom -5569.206382 kJ/mol
# Density = 2.131270 g / cm^3
# Si number density = 21.361321 Si / 1000 Ang^3
#
#
#
# Elastic Constant Matrix: (Units=GPa)
#
#
# Indices 1 2 3 4 5 6 
#
# 1 99.4718 25.2100 33.1475 0.0000 26.1579 0.0000
# 2 25.2100 141.2293 37.7625 0.0000 13.0514 0.0000
# 3 33.1475 37.7625 97.3842 0.0000 17.0230 0.0000
# 4 0.0000 0.0000 0.0000 22.7033 0.0000 19.6392
# 5 26.1579 13.0514 17.0230 0.0000 26.1375 0.0000
# 6 0.0000 0.0000 0.0000 19.6392 0.0000 43.7793
#
#
#
# Elastic Compliance Matrix: (Units=1/GPa)
#
#
# Indices 1 2 3 4 5 6 
#
# 1 0.014301 -0.000766 -0.002410 0.000000 -0.012360 0.000000
# 2 -0.000766 0.008055 -0.002588 0.000000 -0.001570 0.000000
# 3 -0.002410 -0.002588 0.012915 0.000000 -0.004707 0.000000
# 4 0.000000 0.000000 0.000000 0.071977 0.000000 -0.032289
# 5 -0.012360 -0.001570 -0.004707 0.000000 0.054478 0.000000
# 6 0.000000 0.000000 0.000000 -0.032289 0.000000 0.037326
#
#
# Mechanical properties :
#
#
# Convention : Reuss Voigt Hill
#
# Bulk Modulus (GPa) = 42.11978 58.92505 50.52241
# Shear Modulus (GPa) = 22.88388 34.65505 28.76947
#
# Velocity S-wave (km/s) = 3.27659 4.03218 3.67386
# Velocity P-wave (km/s) = 5.83740 7.02302 6.45748
#
# Compressibility (1/GPa) = 0.02374182
#
# Stress axis : x y z
#
# Youngs Moduli (GPa) = 69.92744 124.15387 77.42696
#
# Poissons Ratio (x) = 0.09512 0.18660
# Poissons Ratio (y) = 0.05357 0.20039
# Poissons Ratio (z) = 0.16853 0.32133
#
# Static dielectric constant tensor:
#      x y z
#    x 1.867590 0.000000 -0.122680 
#    y 0.000000 1.840200 0.000000 
#    z -0.122680 0.000000 0.718180 
# 
# From -- ./inp_files/49675.got.cif
#   From: 2010.05.17/outbox.cif.g08.bks.cpg/sg5_25_cif.got.tgz:49675.got - 2010.06.03 18:56:24.
