data_PCOD9122544
_publ_section_title
;
Structure prediction by ZEFSAII (Michael W. Deem and Ramdas Pophale) SiO2 
 PCOD9122544
Probable space group: C 2
;
_chemical_formula_sum "Si O2"
_cell_formula_units_Z 30
_cell_length_a 16.861428
_cell_length_b 12.702495
_cell_length_c 22.243260
_cell_angle_alpha 90.000000
_cell_angle_beta 165.742834
_cell_angle_gamma 90.000000
_cell_volume 1173.278986
_symmetry_space_group_name_H-M "C 2"
_symmetry_group_IT_number 5
_symmetry_cell_setting 'monoclinic'
loop_
_space_group_symop_operation_xyz
x,y,z
-x,y,-z
1/2+x,1/2+y,z
1/2-x,1/2+y,-z
loop_
_atom_site_type_symbol
_atom_site_label
_atom_site_fract_x
_atom_site_fract_y
_atom_site_fract_z
Si Si1 0.113087 0.539940 0.221010
Si Si2 0.355635 0.975130 0.266201
Si Si3 0.493765 0.806538 0.894622
Si Si4 0.027551 0.239637 0.372790
Si Si5 0.026406 0.760979 0.851929
Si Si6 0.979260 0.787117 0.358023
Si Si7 0.181819 0.023496 0.500220
Si Si8 0.000000 0.423234 0.500000
O O1 0.500000 0.544457 0.500000
O O2 0.980348 0.656606 0.112114
O O3 0.071296 0.527361 0.262270
O O4 0.999256 0.435007 0.104193
O O5 0.342231 0.849155 0.242448
O O6 0.492077 0.987553 0.433106
O O7 0.601971 0.023301 0.400136
O O8 0.000000 0.020097 0.000000
O O9 0.157155 0.766450 0.675821
O O10 0.731211 0.765998 0.121380
O O11 0.633677 0.776809 0.932051
O O12 0.287416 0.249745 0.618429
O O13 0.191381 0.244172 0.427599
O O14 0.929068 0.119577 0.312302
O O15 0.830630 0.853090 0.742599
O O16 0.011641 0.913004 0.380786
#
# Coordination Sequence:
#
# PCOD9122544 Si02
#       8
#     4   4   4   4   4   4   4   2
#     4  11  20  36  60  85 113 149 192 244 291 347
#     4  10  22  39  62  91 114 157 208 242 293 356
#     4  10  20  34  57  84 110 148 197 238 280 355
#     4   8  18  38  60  79 119 156 188 244 303 344
#     4   9  19  36  58  83 110 156 194 235 296 354
#     4   9  18  37  57  81 113 154 190 235 300 349
#     4  10  20  39  57  86 119 149 192 246 299 345
#     4  10  20  40  64  76 128 162 186 246 312 344
#
# _framework density 25.569365999999999
#
# number of rings (size 3 to 8) (size 9 to 14) (size 15 to 20)
#    0.000    2.400    2.000    0.800    1.867    0.000 
#   12.000    0.000    0.000    3.200    0.000    0.000 
#    0.000    0.000    0.000    0.000    0.000    0.000 
#
# Total GULP energy -83707.663832 kJ/mol
# GULP energy per Si atom -5580.510922 kJ/mol
# Density = 2.551117 g / cm^3
# Si number density = 25.569366 Si / 1000 Ang^3
#
#
#
# Elastic Constant Matrix: (Units=GPa)
#
#
# Indices 1 2 3 4 5 6 
#
# 1 131.3730 -12.8585 34.7616 14.6603 7.4149 -16.6844
# 2 -12.8585 82.1600 3.1309 6.1688 0.6853 -6.5340
# 3 34.7616 3.1309 47.6474 -5.6100 5.6588 6.9941
# 4 14.6603 6.1688 -5.6100 -77.9666 10.3980 91.7792
# 5 7.4149 0.6853 5.6588 10.3980 38.5977 -12.3630
# 6 -16.6844 -6.5340 6.9941 91.7792 -12.3630 -103.5116
#
#
#
# Elastic Compliance Matrix: (Units=1/GPa)
#
#
# Indices 1 2 3 4 5 6 
#
# 1 0.009324 0.001565 -0.006472 0.001074 -0.001452 -0.000914
# 2 0.001565 0.012406 -0.001710 -0.001112 -0.000631 -0.002062
# 3 -0.006472 -0.001710 0.025616 -0.004766 -0.001568 -0.001156
# 4 0.001074 -0.001112 -0.004766 0.294991 0.004512 0.260592
# 5 -0.001452 -0.000631 -0.001568 0.004512 0.025570 0.001114
# 6 -0.000914 -0.002062 -0.001156 0.260592 0.001114 0.221461
#
#
# Mechanical properties :
#
#
# Convention : Reuss Voigt Hill
#
# Bulk Modulus (GPa) = 29.31571 34.58315 31.94943
# Shear Modulus (GPa) = 8.14367 -12.83298 -2.34466
#
# Velocity S-wave (km/s) = 1.78657 -2.24272 -0.95863
# Velocity P-wave (km/s) = 3.96810 2.61691 3.36111
#
# Compressibility (1/GPa) = 0.03411140
#
# Stress axis : x y z
#
# Youngs Moduli (GPa) = 107.25354 80.60467 39.03738
#
# Poissons Ratio (x) = -0.12612 0.25265
# Poissons Ratio (y) = -0.16782 0.06676
# Poissons Ratio (z) = 0.69415 0.13784
#
# Static dielectric constant tensor:
#      x y z
#    x 2.489030 -0.014690 1.391390 
#    y -0.014690 2.036750 -0.049180 
#    z 1.391390 -0.049180 6.572320 
# 
# From -- ./inp_files/66207.got.cif
#   From: 2010.05.17/outbox.cif.g08.bks.cpg/sg5_34_cif.got.tgz:66207.got - 2010.06.03 18:56:24.
