data_PCOD9122880
_publ_section_title
;
Structure prediction by ZEFSAII (Michael W. Deem and Ramdas Pophale) SiO2 
 PCOD9122880
Probable space group: C 2
;
_chemical_formula_sum "Si O2"
_cell_formula_units_Z 24
_cell_length_a 10.374688
_cell_length_b 8.919530
_cell_length_c 24.724393
_cell_angle_alpha 90.000000
_cell_angle_beta 23.936958
_cell_angle_gamma 90.000000
_cell_volume 928.284488
_symmetry_space_group_name_H-M "C 2"
_symmetry_group_IT_number 5
_symmetry_cell_setting 'monoclinic'
loop_
_space_group_symop_operation_xyz
x,y,z
-x,y,-z
1/2+x,1/2+y,z
1/2-x,1/2+y,-z
loop_
_atom_site_type_symbol
_atom_site_label
_atom_site_fract_x
_atom_site_fract_y
_atom_site_fract_z
Si Si1 0.465531 0.757060 0.684523
Si Si2 0.902286 0.369213 0.598733
Si Si3 0.905436 0.996000 0.906455
Si Si4 0.685000 0.686751 0.712732
Si Si5 0.129262 0.461739 0.803440
Si Si6 0.230553 0.678263 0.140941
O O1 0.595693 0.799015 0.575565
O O2 0.632985 0.779990 0.677428
O O3 0.400391 0.580849 0.711016
O O4 0.134713 0.850945 0.813501
O O5 0.897133 0.545120 0.615178
O O6 0.556197 0.288399 0.734733
O O7 0.000000 0.343291 0.500000
O O8 0.896813 0.094218 0.854451
O O9 0.098839 0.102468 0.873908
O O10 0.588390 0.951304 0.059918
O O11 0.763305 0.810701 0.727227
O O12 0.913325 0.543070 0.840482
O O13 0.500000 0.752411 0.000000
#
# Coordination Sequence:
#
# PCOD9122880 Si02
#       6
#     4   4   4   4   4   4
#     4  10  22  42  60  95 132 174 223 275 338 399
#     4  10  24  48  65  94 136 176 230 285 330 399
#     4  10  20  36  61  97 138 172 217 271 330 405
#     4  11  23  40  64  96 130 177 227 277 330 403
#     4  10  20  36  62  94 136 177 217 271 333 398
#     4   9  19  40  67  98 133 173 217 276 339 396
#
# _framework density 25.854143000000001
#
# number of rings (size 3 to 8) (size 9 to 14) (size 15 to 20)
#    0.000    2.000    1.667    1.000    2.333    3.333 
#    9.000    3.333    0.000    0.000    0.000    0.000 
#    0.000    0.000    0.000    0.000    0.000    0.000 
#
# Total GULP energy -67116.618944 kJ/mol
# GULP energy per Si atom -5593.051579 kJ/mol
# Density = 2.579530 g / cm^3
# Si number density = 25.854143 Si / 1000 Ang^3
#
#
#
# Elastic Constant Matrix: (Units=GPa)
#
#
# Indices 1 2 3 4 5 6 
#
# 1 115.4149 23.5225 39.4743 -0.0981 39.0630 -0.0494
# 2 23.5225 134.6031 70.1325 -0.0452 21.1942 -0.0023
# 3 39.4743 70.1325 176.9897 -0.3216 35.8942 -0.1205
# 4 -0.0981 -0.0452 -0.3216 28.6597 0.0440 9.4083
# 5 39.0630 21.1942 35.8942 0.0440 46.8549 0.0165
# 6 -0.0494 -0.0023 -0.1205 9.4083 0.0165 37.9875
#
#
#
# Elastic Compliance Matrix: (Units=1/GPa)
#
#
# Indices 1 2 3 4 5 6 
#
# 1 0.012168 -0.000278 -0.000677 0.000046 -0.009500 0.000006
# 2 -0.000278 0.009477 -0.003399 -0.000020 -0.001451 -0.000005
# 3 -0.000677 -0.003399 0.007958 0.000086 -0.003995 0.000005
# 4 0.000046 -0.000020 0.000086 0.037981 -0.000128 -0.009406
# 5 -0.009500 -0.001451 -0.003995 -0.000128 0.032980 -0.000008
# 6 0.000006 -0.000005 0.000005 -0.009406 -0.000008 0.028654
#
#
# Mechanical properties :
#
#
# Convention : Reuss Voigt Hill
#
# Bulk Modulus (GPa) = 47.85662 77.02961 62.44312
# Shear Modulus (GPa) = 34.50840 42.29229 38.40035
#
# Velocity S-wave (km/s) = 3.65736 4.04889 3.85810
# Velocity P-wave (km/s) = 6.03204 7.19143 6.63710
#
# Compressibility (1/GPa) = 0.02089575
#
# Stress axis : x y z
#
# Youngs Moduli (GPa) = 82.18256 105.51419 125.65537
#
# Poissons Ratio (x) = 0.02931 0.08507
# Poissons Ratio (y) = 0.02283 0.42713
# Poissons Ratio (z) = 0.05564 0.35866
#
# Static dielectric constant tensor:
#      x y z
#    x 2.074960 0.000000 -0.005350 
#    y 0.000000 1.994970 0.000000 
#    z -0.005350 0.000000 2.061780 
# 
# From -- ./inp_files/65074.got.cif
#   From: 2010.05.17/outbox.cif.g08.bks.cpg/sg5_33_cif.got.tgz:65074.got - 2010.06.03 18:56:24.
