data_PCOD9122853
_publ_section_title
;
Structure prediction by ZEFSAII (Michael W. Deem and Ramdas Pophale) SiO2 
 PCOD9122853
Probable space group: C 2
;
_chemical_formula_sum "Si O2"
_cell_formula_units_Z 30
_cell_length_a 7.637726
_cell_length_b 12.233982
_cell_length_c 17.929254
_cell_angle_alpha 90.000000
_cell_angle_beta 51.837101
_cell_angle_gamma 90.000000
_cell_volume 1317.221315
_symmetry_space_group_name_H-M "C 2"
_symmetry_group_IT_number 5
_symmetry_cell_setting 'monoclinic'
loop_
_space_group_symop_operation_xyz
x,y,z
-x,y,-z
1/2+x,1/2+y,z
1/2-x,1/2+y,-z
loop_
_atom_site_type_symbol
_atom_site_label
_atom_site_fract_x
_atom_site_fract_y
_atom_site_fract_z
Si Si1 0.500000 0.262501 0.500000
Si Si2 0.506223 0.576656 0.791160
Si Si3 0.849089 0.390974 0.712977
Si Si4 0.174020 0.943134 0.353988
Si Si5 0.754812 0.430180 0.906293
Si Si6 0.298345 0.898923 0.148736
Si Si7 0.199784 0.170545 0.889438
Si Si8 0.487822 0.672172 0.370024
O O1 0.525306 0.344627 0.423591
O O2 0.726060 0.194343 0.449097
O O3 0.688065 0.483487 0.723674
O O4 0.288780 0.506406 0.870070
O O5 0.598469 0.645280 0.835011
O O6 0.474459 0.649625 0.727801
O O7 0.771050 0.376089 0.820156
O O8 0.098978 0.436007 0.658513
O O9 0.872718 0.283494 0.656069
O O10 0.230298 0.919295 0.252788
O O11 0.069714 0.063017 0.388403
O O12 0.825192 0.558448 0.876959
O O13 0.935362 0.383996 0.916537
O O14 0.500000 0.425640 0.000000
O O15 0.188198 0.788625 0.146109
O O16 0.000000 0.178416 0.000000
#
# Coordination Sequence:
#
# PCOD9122853 Si02
#       8
#     2   4   4   4   4   4   4   4
#     4  10  20  36  60  90 120 142 182 238 284 336
#     4  10  21  37  59  83 110 151 197 234 279 342
#     4   9  19  36  57  81 114 153 189 229 283 336
#     4   9  20  39  60  84 117 151 187 231 282 345
#     4   9  19  37  56  81 116 147 190 244 283 328
#     4  10  21  39  60  81 113 155 195 232 283 342
#     4  10  21  36  54  81 113 147 188 238 287 325
#     4  10  21  39  62  85 114 153 187 229 287 340
#
# _framework density 22.775216
#
# number of rings (size 3 to 8) (size 9 to 14) (size 15 to 20)
#    0.000    2.400    0.000    2.400    0.000    9.600 
#    0.000   10.667    0.000    3.200    0.000    0.000 
#    0.000    0.000    0.000    0.000    0.000    0.000 
#
# Total GULP energy -83806.722306 kJ/mol
# GULP energy per Si atom -5587.114820 kJ/mol
# Density = 2.272338 g / cm^3
# Si number density = 22.775216 Si / 1000 Ang^3
#
#
#
# Elastic Constant Matrix: (Units=GPa)
#
#
# Indices 1 2 3 4 5 6 
#
# 1 35.4289 18.9729 0.1220 -0.0001 -12.8377 -0.0001
# 2 18.9729 105.1567 36.1684 0.0001 -20.8609 0.0000
# 3 0.1220 36.1684 71.4935 0.0001 -21.4380 -0.0001
# 4 -0.0001 0.0001 0.0001 31.9588 0.0000 -12.3109
# 5 -12.8377 -20.8609 -21.4380 0.0000 24.0889 0.0001
# 6 -0.0001 0.0000 -0.0001 -12.3109 0.0001 14.2215
#
#
#
# Elastic Compliance Matrix: (Units=1/GPa)
#
#
# Indices 1 2 3 4 5 6 
#
# 1 0.040854 -0.005864 0.010779 0.000000 0.026287 0.000000
# 2 -0.005864 0.013160 -0.005684 0.000000 0.003213 0.000000
# 3 0.010779 -0.005684 0.023312 0.000000 0.021569 0.000000
# 4 0.000000 0.000000 0.000000 0.046944 0.000000 0.040638
# 5 0.026287 0.003213 0.021569 0.000000 0.077500 0.000000
# 6 0.000000 0.000000 0.000000 0.040638 0.000000 0.105495
#
#
# Mechanical properties :
#
#
# Convention : Reuss Voigt Hill
#
# Bulk Modulus (GPa) = 13.19456 35.84510 24.51983
# Shear Modulus (GPa) = 14.96714 24.50821 19.73767
#
# Velocity S-wave (km/s) = 2.56631 3.28394 2.94705
# Velocity P-wave (km/s) = 3.81932 5.49107 4.72964
#
# Compressibility (1/GPa) = 0.07578880
#
# Stress axis : x y z
#
# Youngs Moduli (GPa) = 24.47746 75.98773 42.89610
#
# Poissons Ratio (x) = 0.44557 -0.46239
# Poissons Ratio (y) = 0.14353 0.24383
# Poissons Ratio (z) = -0.26385 0.43193
#
# Static dielectric constant tensor:
#      x y z
#    x 1.839930 0.000000 -0.019270 
#    y 0.000000 1.857060 0.000000 
#    z -0.019270 0.000000 1.864310 
# 
# From -- ./inp_files/67955.got.cif
#   From: 2010.05.17/outbox.cif.g08.bks.cpg/sg5_34_cif.got.tgz:67955.got - 2010.06.03 18:56:24.
