data_PCOD9122465
_publ_section_title
;
Structure prediction by ZEFSAII (Michael W. Deem and Ramdas Pophale) SiO2 
 PCOD9122465
Probable space group: C 2
;
_chemical_formula_sum "Si O2"
_cell_formula_units_Z 18
_cell_length_a 19.268024
_cell_length_b 6.813020
_cell_length_c 7.520638
_cell_angle_alpha 90.000000
_cell_angle_beta 43.514365
_cell_angle_gamma 90.000000
_cell_volume 679.764441
_symmetry_space_group_name_H-M "C 2"
_symmetry_group_IT_number 5
_symmetry_cell_setting 'monoclinic'
loop_
_space_group_symop_operation_xyz
x,y,z
-x,y,-z
1/2+x,1/2+y,z
1/2-x,1/2+y,-z
loop_
_atom_site_type_symbol
_atom_site_label
_atom_site_fract_x
_atom_site_fract_y
_atom_site_fract_z
Si Si1 0.899055 0.632470 0.601343
Si Si2 0.309411 0.108804 0.116698
Si Si3 0.302877 0.923105 0.480991
Si Si4 0.916679 0.997367 0.004974
Si Si5 0.500000 0.517677 0.500000
O O1 0.881151 0.557785 0.438740
O O2 0.915617 0.867238 0.575137
O O3 0.000000 0.545613 0.500000
O O4 0.811276 0.571737 0.903520
O O5 0.323601 0.936245 0.232820
O O6 0.213130 0.231348 0.366944
O O7 0.401234 0.266953 0.975305
O O8 0.194394 0.027662 0.712411
O O9 0.000000 0.023493 0.000000
O O10 0.949010 0.111499 0.766450
#
# Coordination Sequence:
#
# PCOD9122465 Si02
#       5
#     4   4   4   4   2
#     4   9  18  33  54  78 103 135 179 215 251 301
#     4   9  21  33  58  78 105 135 174 217 261 300
#     4  10  20  33  55  82 105 134 173 215 262 305
#     4   9  18  32  55  77 100 135 177 213 251 301
#     4   8  16  32  54  76  98 132 184 218 242 292
#
# _framework density 26.479762999999998
#
# number of rings (size 3 to 8) (size 9 to 14) (size 15 to 20)
#    2.000    0.889    0.000    1.333    0.000    3.556 
#    0.000    0.000    9.778    0.000    0.000    0.000 
#    0.000    0.000    0.000    0.000    0.000    0.000 
#
# Total GULP energy -50181.213598 kJ/mol
# GULP energy per Si atom -5575.690400 kJ/mol
# Density = 2.641949 g / cm^3
# Si number density = 26.479763 Si / 1000 Ang^3
#
#
#
# Elastic Constant Matrix: (Units=GPa)
#
#
# Indices 1 2 3 4 5 6 
#
# 1 66.1544 -11.1127 -22.0994 0.0000 -9.7845 0.0000
# 2 -11.1127 52.3645 4.2305 0.0000 2.7121 0.0000
# 3 -22.0994 4.2305 142.3549 0.0000 4.4563 0.0000
# 4 0.0000 0.0000 0.0000 34.1494 0.0000 1.7594
# 5 -9.7845 2.7121 4.4563 0.0000 32.0724 0.0000
# 6 0.0000 0.0000 0.0000 1.7594 0.0000 1.0739
#
#
#
# Elastic Compliance Matrix: (Units=1/GPa)
#
#
# Indices 1 2 3 4 5 6 
#
# 1 0.017147 0.003204 0.002422 0.000000 0.004624 0.000000
# 2 0.003204 0.019818 -0.000070 0.000000 -0.000689 0.000000
# 3 0.002422 -0.000070 0.007412 0.000000 -0.000285 0.000000
# 4 0.000000 0.000000 0.000000 0.031982 0.000000 -0.052395
# 5 0.004624 -0.000689 -0.000285 0.000000 0.032688 0.000000
# 6 0.000000 0.000000 0.000000 -0.052395 0.000000 1.016993
#
#
# Mechanical properties :
#
#
# Convention : Reuss Voigt Hill
#
# Bulk Modulus (GPa) = 18.02167 22.54562 20.28364
# Shear Modulus (GPa) = 4.41141 32.78285 18.59713
#
# Velocity S-wave (km/s) = 1.29212 3.52239 2.65300
# Velocity P-wave (km/s) = 3.00777 5.00757 4.13052
#
# Compressibility (1/GPa) = 0.05548875
#
# Stress axis : x y z
#
# Youngs Moduli (GPa) = 58.31820 50.45885 134.92181
#
# Poissons Ratio (x) = -0.16166 -0.32678
# Poissons Ratio (y) = -0.18684 0.00945
# Poissons Ratio (z) = -0.14125 0.00353
#
# Static dielectric constant tensor:
#      x y z
#    x 2.028880 0.000000 -0.027200 
#    y 0.000000 2.160790 0.000000 
#    z -0.027200 0.000000 2.106710 
# 
# From -- ./inp_files/9103.got.cif
#   From: 2010.05.17/outbox.cif.g08.bks.cpg/sg5_5_cif.got.tgz:9103.got - 2010.06.03 18:56:24.
