data_PCOD9122062
_publ_section_title
;
Structure prediction by ZEFSAII (Michael W. Deem and Ramdas Pophale) SiO2 
 PCOD9122062
Probable space group: C 2
;
_chemical_formula_sum "Si O2"
_cell_formula_units_Z 32
_cell_length_a 13.491171
_cell_length_b 18.229093
_cell_length_c 11.055756
_cell_angle_alpha 90.000000
_cell_angle_beta 143.361281
_cell_angle_gamma 90.000000
_cell_volume 1622.587564
_symmetry_space_group_name_H-M "C 2"
_symmetry_group_IT_number 5
_symmetry_cell_setting 'monoclinic'
loop_
_space_group_symop_operation_xyz
x,y,z
-x,y,-z
1/2+x,1/2+y,z
1/2-x,1/2+y,-z
loop_
_atom_site_type_symbol
_atom_site_label
_atom_site_fract_x
_atom_site_fract_y
_atom_site_fract_z
Si Si1 0.232333 0.495860 0.320337
Si Si2 0.720925 0.575481 0.118266
Si Si3 0.657450 0.565126 0.317474
Si Si4 0.976472 0.717678 0.842743
Si Si5 0.846898 0.233167 0.614894
Si Si6 0.190616 0.832580 0.667509
Si Si7 0.894947 0.550871 0.042177
Si Si8 0.216610 0.243060 0.025617
O O1 0.305522 0.528472 0.516702
O O2 0.307556 0.418066 0.360501
O O3 0.233910 0.543610 0.196361
O O4 0.036669 0.490976 0.159730
O O5 0.760310 0.550483 0.293974
O O6 0.726645 0.664793 0.107806
O O7 0.533331 0.551802 0.903995
O O8 0.826373 0.545444 0.109648
O O9 0.674289 0.651977 0.352078
O O10 0.118201 0.748675 0.893054
O O11 0.788604 0.735105 0.622856
O O12 0.014196 0.630009 0.877179
O O13 0.000000 0.745373 0.000000
O O14 0.782485 0.290682 0.649943
O O15 0.043008 0.241974 0.782839
O O16 0.284940 0.809129 0.881311
O O17 0.000000 0.807333 0.500000
#
# Coordination Sequence:
#
# PCOD9122062 Si02
#       8
#     4   4   4   4   4   4   4   4
#     4  11  24  38  60  93 131 167 215 262 333 389
#     4   9  20  35  65  91 124 158 216 277 327 374
#     4  10  19  38  61  96 122 161 218 276 321 386
#     4  11  20  40  66  95 132 165 223 272 326 391
#     4  11  21  39  66  94 130 168 220 273 326 386
#     4  12  25  41  65  95 129 174 224 274 331 394
#     4  10  21  39  58  95 126 173 207 271 325 391
#     4  10  22  38  63 100 124 167 222 276 327 387
#
# _framework density 19.721585999999999
#
# number of rings (size 3 to 8) (size 9 to 14) (size 15 to 20)
#    0.000    1.500    5.000    0.375    5.250    1.000 
#    0.000    3.750    5.500    1.500    0.000    0.000 
#    0.000    0.000    0.000    0.000    0.000    0.000 
#
# Total GULP energy -89178.878177 kJ/mol
# GULP energy per Si atom -5573.679886 kJ/mol
# Density = 1.967670 g / cm^3
# Si number density = 19.721586 Si / 1000 Ang^3
#
#
#
# Elastic Constant Matrix: (Units=GPa)
#
#
# Indices 1 2 3 4 5 6 
#
# 1 65.4224 9.5191 14.6522 0.0000 -15.0796 0.0000
# 2 9.5191 45.4835 10.9209 0.0000 -4.9586 0.0000
# 3 14.6522 10.9209 102.0228 0.0000 -20.0688 0.0000
# 4 0.0000 0.0000 0.0000 16.1585 0.0000 3.9536
# 5 -15.0796 -4.9586 -20.0688 0.0000 29.3966 0.0000
# 6 0.0000 0.0000 0.0000 3.9536 0.0000 20.9645
#
#
#
# Elastic Compliance Matrix: (Units=1/GPa)
#
#
# Indices 1 2 3 4 5 6 
#
# 1 0.017705 -0.002657 -0.000647 0.000000 0.008192 0.000000
# 2 -0.002657 0.023124 -0.001842 0.000000 0.001280 0.000000
# 3 -0.000647 -0.001842 0.011511 0.000000 0.007216 0.000000
# 4 0.000000 0.000000 0.000000 0.064881 0.000000 -0.012236
# 5 0.008192 0.001280 0.007216 0.000000 0.043362 0.000000
# 6 0.000000 0.000000 0.000000 -0.012236 0.000000 0.050007
#
#
# Mechanical properties :
#
#
# Convention : Reuss Voigt Hill
#
# Bulk Modulus (GPa) = 23.78186 31.45700 27.61943
# Shear Modulus (GPa) = 21.28584 25.15969 23.22277
#
# Velocity S-wave (km/s) = 3.28886 3.57563 3.43524
# Velocity P-wave (km/s) = 5.14851 5.74735 5.45615
#
# Compressibility (1/GPa) = 0.04204886
#
# Stress axis : x y z
#
# Youngs Moduli (GPa) = 56.48102 43.24539 86.87145
#
# Poissons Ratio (x) = 0.11490 0.05619
# Poissons Ratio (y) = 0.15007 0.16000
# Poissons Ratio (z) = 0.03653 0.07965
#
# Static dielectric constant tensor:
#      x y z
#    x 1.729420 0.000000 0.015030 
#    y 0.000000 1.697640 0.000000 
#    z 0.015030 0.000000 1.772600 
# 
# From -- ./inp_files/43395.got.cif
#   From: 2010.05.17/outbox.cif.g08.bks.cpg/sg5_22_cif.got.tgz:43395.got - 2010.06.03 18:56:24.
