data_PCOD9122953
_publ_section_title
;
Structure prediction by ZEFSAII (Michael W. Deem and Ramdas Pophale) SiO2 
 PCOD9122953
Probable space group: C 2
;
_chemical_formula_sum "Si O2"
_cell_formula_units_Z 26
_cell_length_a 7.620506
_cell_length_b 26.400031
_cell_length_c 5.696976
_cell_angle_alpha 90.000000
_cell_angle_beta 96.200000
_cell_angle_gamma 90.000000
_cell_volume 1139.422980
_symmetry_space_group_name_H-M "C 2"
_symmetry_group_IT_number 5
_symmetry_cell_setting 'monoclinic'
loop_
_space_group_symop_operation_xyz
x,y,z
-x,y,-z
1/2+x,1/2+y,z
1/2-x,1/2+y,-z
loop_
_atom_site_type_symbol
_atom_site_label
_atom_site_fract_x
_atom_site_fract_y
_atom_site_fract_z
Si Si1 0.690675 0.500000 0.902631
Si Si2 0.000000 0.185773 0.000000
Si Si3 0.291945 0.848608 0.463049
Si Si4 0.795471 0.386635 0.961776
Si Si5 0.744931 0.102166 0.857141
Si Si6 0.500000 0.558291 0.500000
Si Si7 0.500000 0.158511 0.500000
Si Si8 0.183234 0.231403 0.431695
O O1 0.787347 0.447191 0.939774
O O2 0.641110 0.520719 0.640185
O O3 0.500000 0.493768 0.000000
O O4 0.783324 0.547808 0.034814
O O5 0.844820 0.143582 0.032879
O O6 0.867874 0.225295 0.847707
O O7 0.500000 0.864326 0.500000
O O8 0.215344 0.866835 0.703124
O O9 0.287993 0.787752 0.474179
O O10 0.218699 0.869000 0.203569
O O11 0.000000 0.368936 0.000000
O O12 0.886229 0.091404 0.665943
O O13 0.568367 0.124558 0.722251
O O14 0.339263 0.195645 0.530032
O O15 0.000000 0.209571 0.500000
#
# Coordination Sequence:
#
# PCOD9122953 Si02
#       8
#     4   2   4   4   4   2   2   4
#     4  10  22  39  63  95 129 176 222 266 347 413
#     4  10  20  36  66  90 120 178 226 264 340 402
#     4   9  21  41  69  93 132 172 227 275 350 406
#     4  10  22  41  66  99 128 177 220 282 343 411
#     4  10  21  40  60  95 133 167 226 278 329 418
#     4  10  20  38  65  82 132 185 216 266 348 406
#     4  10  24  40  63 104 128 169 236 276 338 414
#     4  10  23  42  69  90 132 180 221 284 343 408
#
# _framework density 22.818569
#
# number of rings (size 3 to 8) (size 9 to 14) (size 15 to 20)
#    0.000    2.154    2.308    0.000   14.000    1.231 
#    4.154    6.154    0.000    0.000    0.000    0.000 
#    0.000    0.000    0.000    0.000    0.000    0.000 
#
# Total GULP energy -72437.854014 kJ/mol
# GULP energy per Si atom -5572.142616 kJ/mol
# Density = 2.276663 g / cm^3
# Si number density = 22.818569 Si / 1000 Ang^3
#
#
#
# Elastic Constant Matrix: (Units=GPa)
#
#
# Indices 1 2 3 4 5 6 
#
# 1 71.4741 32.4632 32.0053 0.0000 17.6910 0.0000
# 2 32.4632 111.4796 71.2318 0.0000 14.1010 0.0000
# 3 32.0053 71.2318 150.6425 0.0000 12.9820 0.0000
# 4 0.0000 0.0000 0.0000 -9.3939 0.0000 -7.8200
# 5 17.6910 14.1010 12.9820 0.0000 28.2543 0.0000
# 6 0.0000 0.0000 0.0000 -7.8200 0.0000 21.6626
#
#
#
# Elastic Compliance Matrix: (Units=1/GPa)
#
#
# Indices 1 2 3 4 5 6 
#
# 1 0.018438 -0.003164 -0.001627 0.000000 -0.009218 0.000000
# 2 -0.003164 0.013795 -0.005652 0.000000 -0.002307 0.000000
# 3 -0.001627 -0.005652 0.009710 0.000000 -0.000622 0.000000
# 4 0.000000 0.000000 0.000000 -0.081854 0.000000 -0.029549
# 5 -0.009218 -0.002307 -0.000622 0.000000 0.042602 0.000000
# 6 0.000000 0.000000 0.000000 -0.029549 0.000000 0.035496
#
#
# Mechanical properties :
#
#
# Convention : Reuss Voigt Hill
#
# Bulk Modulus (GPa) = 47.48826 67.22186 57.35506
# Shear Modulus (GPa) = 75.65302 21.29764 48.47533
#
# Velocity S-wave (km/s) = 5.76421 3.05839 4.61410
# Velocity P-wave (km/s) = 8.07204 6.48035 7.31959
#
# Compressibility (1/GPa) = 0.02105783
#
# Stress axis : x y z
#
# Youngs Moduli (GPa) = 54.23506 72.49168 102.98621
#
# Poissons Ratio (x) = 0.22934 0.16756
# Poissons Ratio (y) = 0.17158 0.58207
# Poissons Ratio (z) = 0.08824 0.40972
#
# Static dielectric constant tensor:
#      x y z
#    x 1.844680 0.000000 -0.032870 
#    y 0.000000 1.791270 0.000000 
#    z -0.032870 0.000000 2.084020 
# 
# From -- ./inp_files/3664.got.cif
#   From: 2010.05.17/outbox.cif.g08.bks.cpg/sg5_2_cif.got.tgz:3664.got - 2010.06.03 18:56:24.
