data_PCOD9122008
_publ_section_title
;
Structure prediction by ZEFSAII (Michael W. Deem and Ramdas Pophale) SiO2 
 PCOD9122008
Probable space group: C 2
;
_chemical_formula_sum "Si O2"
_cell_formula_units_Z 32
_cell_length_a 18.834080
_cell_length_b 5.543331
_cell_length_c 28.369868
_cell_angle_alpha 90.000000
_cell_angle_beta 146.910457
_cell_angle_gamma 90.000000
_cell_volume 1617.054513
_symmetry_space_group_name_H-M "C 2"
_symmetry_group_IT_number 5
_symmetry_cell_setting 'monoclinic'
loop_
_space_group_symop_operation_xyz
x,y,z
-x,y,-z
1/2+x,1/2+y,z
1/2-x,1/2+y,-z
loop_
_atom_site_type_symbol
_atom_site_label
_atom_site_fract_x
_atom_site_fract_y
_atom_site_fract_z
Si Si1 0.150991 0.594660 0.838435
Si Si2 0.614242 0.688652 0.208538
Si Si3 0.811524 0.158124 0.014507
Si Si4 0.463372 0.715151 0.284511
Si Si5 0.325501 0.324608 0.252284
Si Si6 0.084544 0.606524 0.421932
Si Si7 0.880323 0.692870 0.732994
Si Si8 0.289277 0.377819 0.589553
O O1 0.165788 0.705501 0.794751
O O2 0.099703 0.327863 0.797227
O O3 0.031520 0.707415 0.801143
O O4 0.277180 0.621287 0.940325
O O5 0.463157 0.670967 0.110607
O O6 0.702234 0.734571 0.211607
O O7 0.649696 0.434569 0.253623
O O8 0.635607 0.933748 0.250932
O O9 0.750265 0.416082 0.996340
O O10 0.346470 0.601646 0.250012
O O11 0.580131 0.538752 0.334381
O O12 0.533623 0.898379 0.358839
O O13 0.454938 0.264696 0.354735
O O14 0.156089 0.521484 0.508615
O O15 0.190329 0.744215 0.448868
O O16 0.796386 0.705331 0.638323
#
# Coordination Sequence:
#
# PCOD9122008 Si02
#       8
#     4   4   4   4   4   4   4   4
#     4  11  22  40  71 100 129 177 228 283 331 406
#     4  12  27  47  68  99 139 187 220 281 361 412
#     4  12  25  43  72 105 135 170 230 291 335 408
#     4  10  19  37  65  96 134 167 230 275 339 386
#     4  10  25  42  68  93 142 182 222 284 349 416
#     4  10  20  35  64  98 133 167 234 276 339 377
#     4  12  24  42  71  97 135 179 235 275 343 411
#     4  11  20  34  66 104 126 178 225 298 311 408
#
# _framework density 19.789068
#
# number of rings (size 3 to 8) (size 9 to 14) (size 15 to 20)
#    0.000    1.000    7.500    0.750    5.250    0.500 
#    0.000    0.625    0.000    0.000    0.000    0.000 
#    0.000    0.000    0.000    0.000    0.000    0.000 
#
# Total GULP energy -89207.252294 kJ/mol
# GULP energy per Si atom -5575.453268 kJ/mol
# Density = 1.974403 g / cm^3
# Si number density = 19.789068 Si / 1000 Ang^3
#
#
#
# Elastic Constant Matrix: (Units=GPa)
#
#
# Indices 1 2 3 4 5 6 
#
# 1 68.4795 23.2571 11.3904 -0.0023 10.4860 -0.0062
# 2 23.2571 93.4045 18.8834 -0.0043 0.3557 -0.0170
# 3 11.3904 18.8834 86.9915 -0.0001 -17.7990 -0.0021
# 4 -0.0023 -0.0043 -0.0001 27.6676 0.0011 -8.3583
# 5 10.4860 0.3557 -17.7990 0.0011 23.1169 0.0013
# 6 -0.0062 -0.0170 -0.0021 -8.3583 0.0013 25.0973
#
#
#
# Elastic Compliance Matrix: (Units=1/GPa)
#
#
# Indices 1 2 3 4 5 6 
#
# 1 0.018220 -0.003712 -0.003869 0.000002 -0.011186 0.000003
# 2 -0.003712 0.012070 -0.002169 0.000004 -0.000172 0.000008
# 3 -0.003869 -0.002169 0.015239 -0.000002 0.013522 -0.000002
# 4 0.000002 0.000004 -0.000002 0.040186 -0.000005 0.013383
# 5 -0.011186 -0.000172 0.013522 -0.000005 0.058746 -0.000006
# 6 0.000003 0.000008 -0.000002 0.013383 -0.000006 0.044302
#
#
# Mechanical properties :
#
#
# Convention : Reuss Voigt Hill
#
# Bulk Modulus (GPa) = 38.41804 39.54860 38.98332
# Shear Modulus (GPa) = 23.04786 28.19934 25.62360
#
# Velocity S-wave (km/s) = 3.41644 3.77901 3.60229
# Velocity P-wave (km/s) = 5.91766 6.25057 6.08639
#
# Compressibility (1/GPa) = 0.02602944
#
# Stress axis : x y z
#
# Youngs Moduli (GPa) = 54.88488 82.85310 65.61919
#
# Poissons Ratio (x) = 0.30754 0.25386
# Poissons Ratio (y) = 0.20373 0.14234
# Poissons Ratio (z) = 0.21233 0.17972
#
# Static dielectric constant tensor:
#      x y z
#    x 1.697070 0.000000 -0.002730 
#    y 0.000000 1.854580 0.000000 
#    z -0.002730 0.000000 1.674540 
# 
# From -- ./inp_files/72028.got.cif
#   From: 2010.05.17/outbox.cif.g08.bks.cpg/sg5_37_cif.got.tgz:72028.got - 2010.06.03 18:56:24.
