data_PCOD9122566
_publ_section_title
;
Structure prediction by ZEFSAII (Michael W. Deem and Ramdas Pophale) SiO2 
 PCOD9122566
Probable space group: C 2
;
_chemical_formula_sum "Si O2"
_cell_formula_units_Z 30
_cell_length_a 11.972444
_cell_length_b 9.886927
_cell_length_c 17.113622
_cell_angle_alpha 90.000000
_cell_angle_beta 144.341620
_cell_angle_gamma 90.000000
_cell_volume 1180.913927
_symmetry_space_group_name_H-M "C 2"
_symmetry_group_IT_number 5
_symmetry_cell_setting 'monoclinic'
loop_
_space_group_symop_operation_xyz
x,y,z
-x,y,-z
1/2+x,1/2+y,z
1/2-x,1/2+y,-z
loop_
_atom_site_type_symbol
_atom_site_label
_atom_site_fract_x
_atom_site_fract_y
_atom_site_fract_z
Si Si1 0.355110 0.452520 0.154721
Si Si2 0.027709 0.545101 0.374636
Si Si3 0.102342 0.611599 0.239639
Si Si4 0.173862 0.731562 0.044570
Si Si5 0.512984 0.839361 0.878755
Si Si6 0.632687 0.350925 0.444367
Si Si7 0.000000 0.066265 0.500000
Si Si8 0.091471 0.049253 0.139052
O O1 0.496023 0.379952 0.293217
O O2 0.457423 0.480838 0.128954
O O3 0.274939 0.598066 0.136819
O O4 0.165714 0.365805 0.033185
O O5 0.026743 0.583458 0.282677
O O6 0.160923 0.413375 0.462240
O O7 0.110537 0.691210 0.455905
O O8 0.810533 0.504801 0.270724
O O9 0.320562 0.658092 0.371644
O O10 0.940573 0.686809 0.098567
O O11 0.119650 0.466556 0.207425
O O12 0.350841 0.823629 0.120261
O O13 0.000000 0.778565 0.000000
O O14 0.401398 0.704774 0.830354
O O15 0.571775 0.461458 0.474783
O O16 0.000000 0.047148 0.000000
#
# Coordination Sequence:
#
# PCOD9122566 Si02
#       8
#     4   4   4   4   4   4   2   4
#     4  10  22  39  61  93 129 165 214 271 322 387
#     4  11  25  44  67  94 132 177 223 277 330 397
#     4  10  21  40  60  89 124 165 214 265 324 382
#     4  10  20  34  58  89 122 158 203 257 316 381
#     4  10  21  37  61  92 128 165 211 266 325 390
#     4  11  24  44  66  95 130 173 225 275 333 395
#     4  10  22  40  66  88 122 172 224 270 318 396
#     4  11  22  40  68  97 132 178 224 272 331 397
#
# _framework density 25.404053999999999
#
# number of rings (size 3 to 8) (size 9 to 14) (size 15 to 20)
#    0.000    1.600    0.000    5.600    0.000   10.667 
#    0.000    8.000    0.000    0.000    0.000    0.933 
#    0.000    0.000    0.000    0.000    0.000    0.000 
#
# Total GULP energy -83937.399254 kJ/mol
# GULP energy per Si atom -5595.826617 kJ/mol
# Density = 2.534623 g / cm^3
# Si number density = 25.404054 Si / 1000 Ang^3
#
#
#
# Elastic Constant Matrix: (Units=GPa)
#
#
# Indices 1 2 3 4 5 6 
#
# 1 100.6868 -5.2431 21.0973 0.0000 17.6889 0.0000
# 2 -5.2431 85.0312 10.1105 0.0000 10.1747 0.0000
# 3 21.0973 10.1105 97.4935 0.0001 23.6634 0.0001
# 4 0.0000 0.0000 0.0001 3.0353 0.0001 9.8862
# 5 17.6889 10.1747 23.6634 0.0001 50.7838 0.0000
# 6 0.0000 0.0000 0.0001 9.8862 0.0000 23.9185
#
#
#
# Elastic Compliance Matrix: (Units=1/GPa)
#
#
# Indices 1 2 3 4 5 6 
#
# 1 0.010929 0.001267 -0.001703 0.000000 -0.003267 0.000000
# 2 0.001267 0.012245 -0.000949 0.000000 -0.002453 0.000000
# 3 -0.001703 -0.000949 0.011877 0.000001 -0.004751 0.000000
# 4 0.000000 0.000000 0.000001 -0.951540 0.000001 0.393300
# 5 -0.003267 -0.002453 -0.004751 0.000001 0.023534 0.000000
# 6 0.000000 0.000000 0.000000 0.393300 0.000000 -0.120754
#
#
# Mechanical properties :
#
#
# Convention : Reuss Voigt Hill
#
# Bulk Modulus (GPa) = 30.97808 37.23787 34.10798
# Shear Modulus (GPa) = -4.99910 32.69732 13.84911
#
# Velocity S-wave (km/s) = -1.40432 3.59150 2.33738
# Velocity P-wave (km/s) = 3.09696 5.64699 4.55410
#
# Compressibility (1/GPa) = 0.03228089
#
# Stress axis : x y z
#
# Youngs Moduli (GPa) = 91.50280 81.66715 84.19456
#
# Poissons Ratio (x) = -0.10350 0.14342
# Poissons Ratio (y) = -0.11596 0.07988
# Poissons Ratio (z) = 0.15587 0.07748
#
# Static dielectric constant tensor:
#      x y z
#    x 2.062210 0.000000 -0.010050 
#    y 0.000000 2.059420 0.000000 
#    z -0.010050 0.000000 2.000290 
# 
# From -- ./inp_files/60500.got.cif
#   From: 2010.05.17/outbox.cif.g08.bks.cpg/sg5_31_cif.got.tgz:60500.got - 2010.06.03 18:56:24.
