data_PCOD9122423
_publ_section_title
;
Structure prediction by ZEFSAII (Michael W. Deem and Ramdas Pophale) SiO2 
 PCOD9122423
Probable space group: C 2
;
_chemical_formula_sum "Si O2"
_cell_formula_units_Z 30
_cell_length_a 23.530648
_cell_length_b 4.989709
_cell_length_c 14.546195
_cell_angle_alpha 90.000000
_cell_angle_beta 56.746342
_cell_angle_gamma 90.000000
_cell_volume 1428.220420
_symmetry_space_group_name_H-M "C 2"
_symmetry_group_IT_number 5
_symmetry_cell_setting 'monoclinic'
loop_
_space_group_symop_operation_xyz
x,y,z
-x,y,-z
1/2+x,1/2+y,z
1/2-x,1/2+y,-z
loop_
_atom_site_type_symbol
_atom_site_label
_atom_site_fract_x
_atom_site_fract_y
_atom_site_fract_z
Si Si1 0.157648 0.032550 0.102042
Si Si2 0.925423 0.367919 0.297745
Si Si3 0.711895 0.032843 0.146305
Si Si4 0.505853 0.363858 0.192249
Si Si5 0.122511 0.308218 0.870945
Si Si6 0.205501 0.795858 0.779445
Si Si7 0.288352 0.126904 0.436642
Si Si8 0.500000 0.148604 0.000000
O O1 0.162144 0.329930 0.137661
O O2 0.083225 0.953701 0.134061
O O3 0.181835 0.825562 0.159075
O O4 0.215726 0.012521 0.972068
O O5 0.898582 0.356817 0.216108
O O6 0.859707 0.495144 0.404803
O O7 0.955115 0.074197 0.286040
O O8 0.987290 0.574754 0.248962
O O9 0.728484 0.923152 0.232636
O O10 0.488219 0.333222 0.099341
O O11 0.145258 0.004110 0.858482
O O12 0.186075 0.503642 0.835246
O O13 0.059803 0.444239 0.978199
O O14 0.207695 0.761780 0.667920
O O15 0.261995 0.371547 0.522041
#
# Coordination Sequence:
#
# PCOD9122423 Si02
#       8
#     4   4   4   4   4   4   4   2
#     4  10  21  35  53  78 111 158 198 234 260 310
#     4  10  21  35  52  80 114 144 178 226 282 353
#     4  10  21  36  53  78 112 151 204 236 266 308
#     4  11  21  35  53  79 116 154 193 228 279 329
#     4  10  20  32  49  78 114 149 187 218 269 330
#     4  11  21  36  56  80 113 149 181 241 290 332
#     4  11  22  39  62  88 115 142 181 236 307 372
#     4  10  22  32  52  82 116 162 194 222 262 344
#
# _framework density 21.005161999999999
#
# number of rings (size 3 to 8) (size 9 to 14) (size 15 to 20)
#    0.000    1.600    0.000    7.200    0.000    9.067 
#    0.000    2.667    0.000    0.000    0.000   14.000 
#    0.000    0.000    0.000    0.000    0.000    0.000 
#
# Total GULP energy -83761.400914 kJ/mol
# GULP energy per Si atom -5584.093394 kJ/mol
# Density = 2.095735 g / cm^3
# Si number density = 21.005162 Si / 1000 Ang^3
#
#
#
# Elastic Constant Matrix: (Units=GPa)
#
#
# Indices 1 2 3 4 5 6 
#
# 1 79.0464 10.7663 14.0436 -0.0001 -10.0321 -0.0011
# 2 10.7663 102.1579 19.4739 0.0002 -6.5641 0.0054
# 3 14.0436 19.4739 32.5430 -0.0001 -12.9655 0.0000
# 4 -0.0001 0.0002 -0.0001 32.2946 -0.0005 -11.5270
# 5 -10.0321 -6.5641 -12.9655 -0.0005 16.1141 0.0002
# 6 -0.0011 0.0054 0.0000 -11.5270 0.0002 30.6659
#
#
#
# Elastic Compliance Matrix: (Units=1/GPa)
#
#
# Indices 1 2 3 4 5 6 
#
# 1 0.014065 -0.000443 -0.003514 0.000000 0.005748 0.000001
# 2 -0.000443 0.011079 -0.006992 -0.000001 -0.001388 -0.000002
# 3 -0.003514 -0.006992 0.050664 0.000001 0.035728 0.000001
# 4 0.000000 -0.000001 0.000001 0.035763 0.000002 0.013443
# 5 0.005748 -0.001388 0.035728 0.000002 0.093818 0.000001
# 6 0.000001 -0.000002 0.000001 0.013443 0.000001 0.037663
#
#
# Mechanical properties :
#
#
# Convention : Reuss Voigt Hill
#
# Bulk Modulus (GPa) = 18.54954 33.59055 26.07005
# Shear Modulus (GPa) = 17.67285 27.11248 22.39266
#
# Velocity S-wave (km/s) = 2.90376 3.59660 3.26859
# Velocity P-wave (km/s) = 4.48247 5.76833 5.16557
#
# Compressibility (1/GPa) = 0.05390968
#
# Stress axis : x y z
#
# Youngs Moduli (GPa) = 71.09821 90.26037 19.73795
#
# Poissons Ratio (x) = 0.03999 0.06937
# Poissons Ratio (y) = 0.03150 0.13800
# Poissons Ratio (z) = 0.24987 0.63108
#
# Static dielectric constant tensor:
#      x y z
#    x 1.786230 0.000000 -0.038880 
#    y 0.000000 1.770950 0.000000 
#    z -0.038880 0.000000 1.797920 
# 
# From -- ./inp_files/56531.got.cif
#   From: 2010.05.17/outbox.cif.g08.bks.cpg/sg5_29_cif.got.tgz:56531.got - 2010.06.03 18:56:24.
