data_PCOD9122727
_publ_section_title
;
Structure prediction by ZEFSAII (Michael W. Deem and Ramdas Pophale) SiO2 
 PCOD9122727
Probable space group: C 2
;
_chemical_formula_sum "Si O2"
_cell_formula_units_Z 24
_cell_length_a 25.652926
_cell_length_b 5.089004
_cell_length_c 6.930532
_cell_angle_alpha 90.000000
_cell_angle_beta 88.396780
_cell_angle_gamma 90.000000
_cell_volume 904.411828
_symmetry_space_group_name_H-M "C 2"
_symmetry_group_IT_number 5
_symmetry_cell_setting 'monoclinic'
loop_
_space_group_symop_operation_xyz
x,y,z
-x,y,-z
1/2+x,1/2+y,z
1/2-x,1/2+y,-z
loop_
_atom_site_type_symbol
_atom_site_label
_atom_site_fract_x
_atom_site_fract_y
_atom_site_fract_z
Si Si1 0.443667 0.142890 0.991195
Si Si2 0.445949 0.868121 0.610040
Si Si3 0.854084 0.388547 0.178511
Si Si4 0.116145 0.865914 0.328629
Si Si5 0.694381 0.386926 0.614620
Si Si6 0.226286 0.473272 0.103358
O O1 0.401576 0.336264 0.891773
O O2 0.456344 0.916302 0.834670
O O3 0.500000 0.279131 0.000000
O O4 0.413077 0.993810 0.162685
O O5 0.500000 0.907383 0.500000
O O6 0.420275 0.589786 0.579861
O O7 0.403490 0.093505 0.578087
O O8 0.839971 0.107403 0.268023
O O9 0.820756 0.604422 0.298039
O O10 0.831999 0.400862 0.957901
O O11 0.174779 0.908062 0.396049
O O12 0.753240 0.443095 0.679881
O O13 0.259685 0.261989 0.975568
#
# Coordination Sequence:
#
# PCOD9122727 Si02
#       6
#     4   4   4   4   4   4
#     4  10  26  39  58  87 122 157 198 246 301 340
#     4  10  23  40  56  79 117 159 200 242 285 357
#     4  10  21  37  62  86 120 149 197 246 294 341
#     4  10  23  38  59  82 120 147 204 237 299 349
#     4  10  20  35  65  87 113 155 197 239 294 354
#     4   8  16  33  56  88 111 145 191 238 286 352
#
# _framework density 26.536586
#
# number of rings (size 3 to 8) (size 9 to 14) (size 15 to 20)
#    1.000    1.333    0.000    1.500    7.000    0.667 
#    0.000    0.000    3.667    0.000    0.000    0.000 
#    0.000    0.000    0.000    0.000    0.000    0.000 
#
# Total GULP energy -67046.281232 kJ/mol
# GULP energy per Si atom -5587.190103 kJ/mol
# Density = 2.647619 g / cm^3
# Si number density = 26.536586 Si / 1000 Ang^3
#
#
#
# Elastic Constant Matrix: (Units=GPa)
#
#
# Indices 1 2 3 4 5 6 
#
# 1 96.8132 19.5339 41.0613 0.0000 22.2058 0.0000
# 2 19.5339 113.3735 21.6621 0.0000 -8.2955 0.0000
# 3 41.0613 21.6621 77.1723 0.0000 19.1299 0.0000
# 4 0.0000 0.0000 0.0000 -48.5369 0.0000 -27.5963
# 5 22.2058 -8.2955 19.1299 0.0000 61.8315 0.0000
# 6 0.0000 0.0000 0.0000 -27.5963 0.0000 20.8220
#
#
#
# Elastic Compliance Matrix: (Units=1/GPa)
#
#
# Indices 1 2 3 4 5 6 
#
# 1 0.014027 -0.001468 -0.006232 0.000000 -0.003306 0.000000
# 2 -0.001468 0.009767 -0.002617 0.000000 0.002647 0.000000
# 3 -0.006232 -0.002617 0.017914 0.000000 -0.003656 0.000000
# 4 0.000000 0.000000 0.000000 -0.011749 0.000000 -0.015572
# 5 -0.003306 0.002647 -0.003656 0.000000 0.018847 0.000000
# 6 0.000000 0.000000 0.000000 -0.015572 0.000000 0.027388
#
#
# Mechanical properties :
#
#
# Convention : Reuss Voigt Hill
#
# Bulk Modulus (GPa) = 47.44836 50.20817 48.82826
# Shear Modulus (GPa) = 48.14582 20.49675 34.32129
#
# Velocity S-wave (km/s) = 4.26410 2.78222 3.60023
# Velocity P-wave (km/s) = 6.49327 5.41132 5.97683
#
# Compressibility (1/GPa) = 0.02107555
#
# Stress axis : x y z
#
# Youngs Moduli (GPa) = 71.29230 102.38555 55.82130
#
# Poissons Ratio (x) = 0.15031 0.34785
# Poissons Ratio (y) = 0.10466 0.14607
# Poissons Ratio (z) = 0.44426 0.26791
#
# Static dielectric constant tensor:
#      x y z
#    x 2.219200 0.000000 0.106960 
#    y 0.000000 2.008530 0.000000 
#    z 0.106960 0.000000 2.182600 
# 
# From -- ./inp_files/31280.got.cif
#   From: 2010.05.17/outbox.cif.g08.bks.cpg/sg5_16_cif.got.tgz:31280.got - 2010.06.03 18:56:24.
