data_PCOD9122205
_publ_section_title
;
Structure prediction by ZEFSAII (Michael W. Deem and Ramdas Pophale) SiO2 
 PCOD9122205
Probable space group: C 2
;
_chemical_formula_sum "Si O2"
_cell_formula_units_Z 24
_cell_length_a 22.262719
_cell_length_b 5.739305
_cell_length_c 15.167192
_cell_angle_alpha 90.000000
_cell_angle_beta 33.609029
_cell_angle_gamma 90.000000
_cell_volume 1072.699820
_symmetry_space_group_name_H-M "C 2"
_symmetry_group_IT_number 5
_symmetry_cell_setting 'monoclinic'
loop_
_space_group_symop_operation_xyz
x,y,z
-x,y,-z
1/2+x,1/2+y,z
1/2-x,1/2+y,-z
loop_
_atom_site_type_symbol
_atom_site_label
_atom_site_fract_x
_atom_site_fract_y
_atom_site_fract_z
Si Si1 0.686140 0.924110 0.590762
Si Si2 0.579480 0.096088 0.551287
Si Si3 0.293236 0.903049 0.241014
Si Si4 0.811552 0.174813 0.039550
Si Si5 0.338245 0.783530 0.693629
Si Si6 0.384891 0.446452 0.788067
O O1 0.738780 0.665220 0.506181
O O2 0.644975 0.916797 0.742010
O O3 0.599563 0.977928 0.620853
O O4 0.683171 0.261044 0.401716
O O5 0.470819 0.241761 0.680835
O O6 0.583501 0.908847 0.469762
O O7 0.346983 0.782543 0.089885
O O8 0.250122 0.148861 0.258512
O O9 0.738375 0.355757 0.073563
O O10 0.728867 0.970161 0.168077
O O11 0.897195 0.076470 0.865919
O O12 0.394404 0.604801 0.690586
#
# Coordination Sequence:
#
# PCOD9122205 Si02
#       6
#     4   4   4   4   4   4
#     4  10  19  39  65 100 132 169 223 283 349 391
#     4  10  22  36  62 101 127 170 221 291 325 397
#     4   9  20  36  63  94 124 169 221 276 340 389
#     4  10  21  37  60  90 127 182 209 268 333 422
#     4  10  20  39  58  88 131 166 217 272 333 397
#     4  11  22  38  60  95 133 174 221 259 349 402
#
# _framework density 22.373455
#
# number of rings (size 3 to 8) (size 9 to 14) (size 15 to 20)
#    0.000    2.000    3.333    0.000    0.000    8.667 
#    0.000    0.000    0.000    1.000   13.000    0.000 
#    0.000    0.000    0.000    0.000    0.000    0.000 
#
# Total GULP energy -67033.903783 kJ/mol
# GULP energy per Si atom -5586.158649 kJ/mol
# Density = 2.232253 g / cm^3
# Si number density = 22.373455 Si / 1000 Ang^3
#
#
#
# Elastic Constant Matrix: (Units=GPa)
#
#
# Indices 1 2 3 4 5 6 
#
# 1 136.8033 42.1319 56.6050 -0.0006 54.1718 -0.0014
# 2 42.1319 94.3816 32.7698 -0.0088 14.0288 0.0173
# 3 56.6050 32.7698 61.8784 -0.0192 37.5655 0.0076
# 4 -0.0006 -0.0088 -0.0192 35.7784 0.0068 11.1202
# 5 54.1718 14.0288 37.5655 0.0068 42.5928 -0.0022
# 6 -0.0014 0.0173 0.0076 11.1202 -0.0022 38.4608
#
#
#
# Elastic Compliance Matrix: (Units=1/GPa)
#
#
# Indices 1 2 3 4 5 6 
#
# 1 0.016426 -0.003933 -0.002253 0.000001 -0.017609 0.000002
# 2 -0.003933 0.014224 -0.008885 -0.000002 0.008153 -0.000004
# 3 -0.002253 -0.008885 0.041783 0.000031 -0.031059 -0.000015
# 4 0.000001 -0.000002 0.000031 0.030710 -0.000033 -0.008879
# 5 -0.017609 0.008153 -0.031059 -0.000033 0.070581 0.000015
# 6 0.000002 -0.000004 -0.000015 -0.008879 0.000015 0.028568
#
#
# Mechanical properties :
#
#
# Convention : Reuss Voigt Hill
#
# Bulk Modulus (GPa) = 23.64591 61.78630 42.71611
# Shear Modulus (GPa) = 20.28150 34.13685 27.20918
#
# Velocity S-wave (km/s) = 3.01408 3.91035 3.49110
# Velocity P-wave (km/s) = 4.76493 6.93280 5.94846
#
# Compressibility (1/GPa) = 0.04229061
#
# Stress axis : x y z
#
# Youngs Moduli (GPa) = 60.87837 70.30433 23.93343
#
# Poissons Ratio (x) = 0.27650 0.05393
# Poissons Ratio (y) = 0.23943 0.21264
# Poissons Ratio (z) = 0.13718 0.62463
#
# Static dielectric constant tensor:
#      x y z
#    x 1.815470 0.000000 0.001540 
#    y 0.000000 1.878470 0.000000 
#    z 0.001540 0.000000 1.837010 
# 
# From -- ./inp_files/56474.got.cif
#   From: 2010.05.17/outbox.cif.g08.bks.cpg/sg5_29_cif.got.tgz:56474.got - 2010.06.03 18:56:24.
