data_PCOD9122482
_publ_section_title
;
Structure prediction by ZEFSAII (Michael W. Deem and Ramdas Pophale) SiO2 
 PCOD9122482
Probable space group: C 2
;
_chemical_formula_sum "Si O2"
_cell_formula_units_Z 32
_cell_length_a 11.707310
_cell_length_b 14.661052
_cell_length_c 15.059662
_cell_angle_alpha 90.000000
_cell_angle_beta 138.950769
_cell_angle_gamma 90.000000
_cell_volume 1697.498106
_symmetry_space_group_name_H-M "C 2"
_symmetry_group_IT_number 5
_symmetry_cell_setting 'monoclinic'
loop_
_space_group_symop_operation_xyz
x,y,z
-x,y,-z
1/2+x,1/2+y,z
1/2-x,1/2+y,-z
loop_
_atom_site_type_symbol
_atom_site_label
_atom_site_fract_x
_atom_site_fract_y
_atom_site_fract_z
Si Si1 0.468058 0.044410 0.626700
Si Si2 0.355206 0.509304 0.674773
Si Si3 0.007213 0.340270 0.289738
Si Si4 0.316784 0.240473 0.569911
Si Si5 0.360867 0.613259 0.840759
Si Si6 0.599420 0.825392 0.148279
Si Si7 0.538374 0.410137 0.626579
Si Si8 0.811140 0.338968 0.344440
O O1 0.393127 0.139960 0.617318
O O2 0.675294 0.061789 0.742052
O O3 0.341062 0.036368 0.467214
O O4 0.439362 0.946467 0.658490
O O5 0.433459 0.582330 0.787520
O O6 0.460680 0.486443 0.647224
O O7 0.326872 0.417363 0.714570
O O8 0.845725 0.325170 0.261373
O O9 0.152949 0.268367 0.410647
O O10 0.988513 0.329723 0.173928
O O11 0.453348 0.315712 0.613663
O O12 0.254253 0.257438 0.633481
O O13 0.331665 0.721611 0.820357
O O14 0.500000 0.593470 0.000000
O O15 0.757002 0.895436 0.248244
O O16 0.500000 0.845484 0.000000
O O17 0.500000 0.423894 0.500000
O O18 0.000000 0.362532 0.500000
#
# Coordination Sequence:
#
# PCOD9122482 Si02
#       8
#     4   4   4   4   4   4   4   4
#     4  12  20  36  66  90 118 159 202 253 307 359
#     4  11  20  35  61  91 115 149 199 256 300 345
#     4  11  20  38  61  90 123 155 203 247 307 367
#     4  10  20  33  60  93 119 149 196 253 306 349
#     4  11  24  38  58  92 122 157 209 250 296 363
#     4  11  24  41  59  85 124 169 200 245 306 360
#     4  11  20  38  58  89 121 150 200 252 297 370
#     4   9  16  34  55  85 122 142 183 249 299 353
#
# _framework density 18.851272999999999
#
# number of rings (size 3 to 8) (size 9 to 14) (size 15 to 20)
#    0.000    1.250    7.500    1.125    0.000    1.000 
#    0.000    8.125    0.000    0.000    0.000    0.000 
#    0.000    0.000    0.000    0.000    0.000    0.000 
#
# Total GULP energy -89083.558541 kJ/mol
# GULP energy per Si atom -5567.722409 kJ/mol
# Density = 1.880837 g / cm^3
# Si number density = 18.851273 Si / 1000 Ang^3
#
#
#
# Elastic Constant Matrix: (Units=GPa)
#
#
# Indices 1 2 3 4 5 6 
#
# 1 141.2780 24.8142 60.9069 0.0001 -29.4526 0.0000
# 2 24.8142 58.9190 32.8013 0.0001 -5.4180 0.0000
# 3 60.9069 32.8013 102.2586 0.0003 -28.5208 0.0001
# 4 0.0001 0.0001 0.0003 5.9870 0.0002 -1.6656
# 5 -29.4526 -5.4180 -28.5208 0.0002 24.7207 0.0000
# 6 0.0000 0.0000 0.0001 -1.6656 0.0000 26.3333
#
#
#
# Elastic Compliance Matrix: (Units=1/GPa)
#
#
# Indices 1 2 3 4 5 6 
#
# 1 0.010597 -0.001793 -0.003428 0.000000 0.008277 0.000000
# 2 -0.001793 0.021326 -0.007468 0.000000 -0.006079 0.000000
# 3 -0.003428 -0.007468 0.018609 -0.000001 0.015749 0.000000
# 4 0.000000 0.000000 -0.000001 0.170020 -0.000003 0.010754
# 5 0.008277 -0.006079 0.015749 -0.000003 0.067151 0.000000
# 6 0.000000 0.000000 0.000000 0.010754 0.000000 0.038655
#
#
# Mechanical properties :
#
#
# Convention : Reuss Voigt Hill
#
# Bulk Modulus (GPa) = 39.75597 59.94448 49.85022
# Shear Modulus (GPa) = 13.88424 23.67042 18.77733
#
# Velocity S-wave (km/s) = 2.71683 3.54735 3.15949
# Velocity P-wave (km/s) = 5.56566 6.97466 6.30961
#
# Compressibility (1/GPa) = 0.02515346
#
# Stress axis : x y z
#
# Youngs Moduli (GPa) = 94.37066 46.89027 53.73859
#
# Poissons Ratio (x) = 0.08410 0.18419
# Poissons Ratio (y) = 0.16925 0.40132
# Poissons Ratio (z) = 0.32346 0.35018
#
# Static dielectric constant tensor:
#      x y z
#    x 1.701960 0.000000 -0.007930 
#    y 0.000000 1.689210 0.000000 
#    z -0.007930 0.000000 1.652530 
# 
# From -- ./inp_files/53204.got.cif
#   From: 2010.05.17/outbox.cif.g08.bks.cpg/sg5_27_cif.got.tgz:53204.got - 2010.06.03 18:56:24.
