data_PCOD9122669
_publ_section_title
;
Structure prediction by ZEFSAII (Michael W. Deem and Ramdas Pophale) SiO2 
 PCOD9122669
Probable space group: C 2
;
_chemical_formula_sum "Si O2"
_cell_formula_units_Z 26
_cell_length_a 23.605011
_cell_length_b 8.930387
_cell_length_c 13.700321
_cell_angle_alpha 90.000000
_cell_angle_beta 151.556429
_cell_angle_gamma 90.000000
_cell_volume 1375.559671
_symmetry_space_group_name_H-M "C 2"
_symmetry_group_IT_number 5
_symmetry_cell_setting 'monoclinic'
loop_
_space_group_symop_operation_xyz
x,y,z
-x,y,-z
1/2+x,1/2+y,z
1/2-x,1/2+y,-z
loop_
_atom_site_type_symbol
_atom_site_label
_atom_site_fract_x
_atom_site_fract_y
_atom_site_fract_z
Si Si1 0.849008 0.470980 0.463400
Si Si2 0.500000 0.017957 0.500000
Si Si3 0.514872 0.731437 0.753348
Si Si4 0.069060 0.996734 0.007158
Si Si5 0.829214 0.514785 0.068877
Si Si6 0.984636 0.730398 0.206802
Si Si7 0.948051 0.969191 0.319413
O O1 0.911649 0.453731 0.451001
O O2 0.896304 0.326515 0.593242
O O3 0.908178 0.615073 0.607316
O O4 0.709315 0.482629 0.239793
O O5 0.399088 0.076178 0.270965
O O6 0.550542 0.622294 0.895415
O O7 0.615172 0.854882 0.878560
O O8 0.497803 0.626176 0.633625
O O9 0.019056 0.836107 0.893030
O O10 0.000000 0.040123 0.000000
O O11 0.865271 0.630296 0.038398
O O12 0.692395 0.495284 0.884440
O O13 0.980683 0.849418 0.287973
O O14 0.000000 0.918739 0.500000
#
# Coordination Sequence:
#
# PCOD9122669 Si02
#       7
#     4   2   4   4   4   4   4
#     4  10  22  39  64  85 127 157 195 245 301 361
#     4   8  16  32  60  82 110 160 176 224 300 344
#     4   9  22  39  55  90 114 155 207 240 297 361
#     4  11  24  43  64  82 117 162 204 262 304 337
#     4  10  20  35  59  82 126 158 199 238 293 372
#     4   9  22  39  55  90 114 155 207 240 297 361
#     4  11  22  29  55  93 126 155 188 240 299 366
#
# _framework density 18.901395999999998
#
# number of rings (size 3 to 8) (size 9 to 14) (size 15 to 20)
#    0.000    2.462    0.000    2.769   12.923    1.231 
#    0.000    3.077    0.000    0.000    0.000    0.000 
#    0.000    0.000    0.000    0.000    0.000    0.000 
#
# Total GULP energy -72367.433129 kJ/mol
# GULP energy per Si atom -5566.725625 kJ/mol
# Density = 1.885838 g / cm^3
# Si number density = 18.901396 Si / 1000 Ang^3
#
#
#
# Elastic Constant Matrix: (Units=GPa)
#
#
# Indices 1 2 3 4 5 6 
#
# 1 42.6326 8.9301 34.9711 0.0000 4.8970 0.0000
# 2 8.9301 87.4600 14.5278 0.0000 1.1197 0.0000
# 3 34.9711 14.5278 107.4763 0.0000 8.8287 0.0000
# 4 0.0000 0.0000 0.0000 11.7596 0.0000 16.0816
# 5 4.8970 1.1197 8.8287 0.0000 18.3504 0.0000
# 6 0.0000 0.0000 0.0000 16.0816 0.0000 -18.0607
#
#
#
# Elastic Compliance Matrix: (Units=1/GPa)
#
#
# Indices 1 2 3 4 5 6 
#
# 1 0.032453 -0.001599 -0.010037 0.000000 -0.003734 0.000000
# 2 -0.001599 0.011775 -0.001091 0.000000 0.000233 0.000000
# 3 -0.010037 -0.001091 0.013006 0.000000 -0.003512 0.000000
# 4 0.000000 0.000000 0.000000 0.038345 0.000000 0.034143
# 5 -0.003734 0.000233 -0.003512 0.000000 0.057167 0.000000
# 6 0.000000 0.000000 0.000000 0.034143 0.000000 -0.024967
#
#
# Mechanical properties :
#
#
# Convention : Reuss Voigt Hill
#
# Bulk Modulus (GPa) = 31.46413 39.38076 35.42245
# Shear Modulus (GPa) = 30.52021 14.35252 22.43637
#
# Velocity S-wave (km/s) = 4.02270 2.75860 3.44906
# Velocity P-wave (km/s) = 6.18537 5.57015 5.88580
#
# Compressibility (1/GPa) = 0.03178222
#
# Stress axis : x y z
#
# Youngs Moduli (GPa) = 30.81366 84.92417 76.88652
#
# Poissons Ratio (x) = 0.13576 0.77170
# Poissons Ratio (y) = 0.04926 0.08386
# Poissons Ratio (z) = 0.30927 0.09262
#
# Static dielectric constant tensor:
#      x y z
#    x 1.662280 0.000000 -0.045580 
#    y 0.000000 1.730030 0.000000 
#    z -0.045580 0.000000 1.668270 
# 
# From -- ./inp_files/57541.got.cif
#   From: 2010.05.17/outbox.cif.g08.bks.cpg/sg5_29_cif.got.tgz:57541.got - 2010.06.03 18:56:24.
