data_PCOD9122785
_publ_section_title
;
Structure prediction by ZEFSAII (Michael W. Deem and Ramdas Pophale) SiO2 
 PCOD9122785
Probable space group: C 2
;
_chemical_formula_sum "Si O2"
_cell_formula_units_Z 22
_cell_length_a 9.089543
_cell_length_b 11.682286
_cell_length_c 12.132940
_cell_angle_alpha 90.000000
_cell_angle_beta 122.528920
_cell_angle_gamma 90.000000
_cell_volume 1086.239008
_symmetry_space_group_name_H-M "C 2"
_symmetry_group_IT_number 5
_symmetry_cell_setting 'monoclinic'
loop_
_space_group_symop_operation_xyz
x,y,z
-x,y,-z
1/2+x,1/2+y,z
1/2-x,1/2+y,-z
loop_
_atom_site_type_symbol
_atom_site_label
_atom_site_fract_x
_atom_site_fract_y
_atom_site_fract_z
Si Si1 0.220569 0.366280 0.537043
Si Si2 0.941483 0.089399 0.852630
Si Si3 0.457941 0.857716 0.857898
Si Si4 0.915282 0.967024 0.304567
Si Si5 0.500000 0.661726 0.500000
Si Si6 0.598492 0.967348 0.702814
O O1 0.418152 0.392279 0.589685
O O2 0.133128 0.242729 0.484302
O O3 0.196740 0.380818 0.659200
O O4 0.095809 0.461948 0.429041
O O5 0.983851 0.222509 0.854067
O O6 0.731265 0.073066 0.755914
O O7 0.037908 0.013908 0.798767
O O8 0.000000 0.056300 0.000000
O O9 0.258419 0.893759 0.758611
O O10 0.574944 0.922903 0.816176
O O11 0.500000 0.889245 0.000000
O O12 0.902405 0.078799 0.376127
#
# Coordination Sequence:
#
# PCOD9122785 Si02
#       6
#     4   4   4   4   2   4
#     4   9  20  37  58  83 111 142 178 226 274 324
#     4  10  21  38  58  79 110 149 182 220 270 321
#     4  11  23  37  55  82 112 143 185 228 264 318
#     4  11  22  36  58  84 108 144 185 220 273 328
#     4  10  20  36  58  82 114 140 174 230 276 318
#     4   9  18  37  57  78 111 143 176 223 272 317
#
# _framework density 20.25337
#
# number of rings (size 3 to 8) (size 9 to 14) (size 15 to 20)
#    0.000    2.182    0.000    4.364    0.000    2.909 
#    0.000    5.455    0.000   10.909    0.000    0.000 
#    0.000    0.000    0.000    0.000    0.000    0.000 
#
# Total GULP energy -61325.883364 kJ/mol
# GULP energy per Si atom -5575.080306 kJ/mol
# Density = 2.020727 g / cm^3
# Si number density = 20.253370 Si / 1000 Ang^3
#
#
#
# Elastic Constant Matrix: (Units=GPa)
#
#
# Indices 1 2 3 4 5 6 
#
# 1 66.1239 0.0219 3.3509 0.0000 -2.4585 0.0000
# 2 0.0219 22.0402 -3.5004 0.0000 -1.5269 0.0000
# 3 3.3509 -3.5004 63.1795 0.0000 -13.6645 0.0000
# 4 0.0000 0.0000 0.0000 21.2820 0.0000 10.4965
# 5 -2.4585 -1.5269 -13.6645 0.0000 44.8543 0.0000
# 6 0.0000 0.0000 0.0000 10.4965 0.0000 16.5547
#
#
#
# Elastic Compliance Matrix: (Units=1/GPa)
#
#
# Indices 1 2 3 4 5 6 
#
# 1 0.015181 -0.000079 -0.000675 0.000000 0.000624 0.000000
# 2 -0.000079 0.046037 0.003097 0.000000 0.002506 0.000000
# 3 -0.000675 0.003097 0.017182 0.000000 0.005303 0.000000
# 4 0.000000 0.000000 0.000000 0.068368 0.000000 -0.043349
# 5 0.000624 0.002506 0.005303 0.000000 0.024029 0.000000
# 6 0.000000 0.000000 0.000000 -0.043349 0.000000 0.087891
#
#
# Mechanical properties :
#
#
# Convention : Reuss Voigt Hill
#
# Bulk Modulus (GPa) = 12.03564 16.78760 14.41162
# Shear Modulus (GPa) = 17.74953 26.63629 22.19291
#
# Velocity S-wave (km/s) = 2.96357 3.63044 3.31382
# Velocity P-wave (km/s) = 4.20307 5.08726 4.66616
#
# Compressibility (1/GPa) = 0.08308659
#
# Stress axis : x y z
#
# Youngs Moduli (GPa) = 65.87382 21.72154 58.19978
#
# Poissons Ratio (x) = 0.00172 0.03926
# Poissons Ratio (y) = 0.00521 -0.18024
# Poissons Ratio (z) = 0.04444 -0.06727
#
# Static dielectric constant tensor:
#      x y z
#    x 1.727370 0.000000 -0.004240 
#    y 0.000000 1.708910 0.000000 
#    z -0.004240 0.000000 1.771950 
# 
# From -- ./inp_files/35163.got.cif
#   From: 2010.05.17/outbox.cif.g08.bks.cpg/sg5_18_cif.got.tgz:35163.got - 2010.06.03 18:56:24.
