data_PCOD9122555
_publ_section_title
;
Structure prediction by ZEFSAII (Michael W. Deem and Ramdas Pophale) SiO2 
 PCOD9122555
Probable space group: C 2
;
_chemical_formula_sum "Si O2"
_cell_formula_units_Z 24
_cell_length_a 18.222437
_cell_length_b 5.374792
_cell_length_c 12.292531
_cell_angle_alpha 90.000000
_cell_angle_beta 60.190766
_cell_angle_gamma 90.000000
_cell_volume 1044.652133
_symmetry_space_group_name_H-M "C 2"
_symmetry_group_IT_number 5
_symmetry_cell_setting 'monoclinic'
loop_
_space_group_symop_operation_xyz
x,y,z
-x,y,-z
1/2+x,1/2+y,z
1/2-x,1/2+y,-z
loop_
_atom_site_type_symbol
_atom_site_label
_atom_site_fract_x
_atom_site_fract_y
_atom_site_fract_z
Si Si1 0.360705 0.063220 0.106308
Si Si2 0.100988 0.943016 0.444034
Si Si3 0.226122 0.067003 0.899213
Si Si4 0.868083 0.917623 0.820927
Si Si5 0.498746 0.120827 0.182332
Si Si6 0.931011 0.433018 0.453608
O O1 0.301648 0.302815 0.128097
O O2 0.313367 0.799151 0.138240
O O3 0.413434 0.122216 0.175669
O O4 0.429521 0.043131 0.957510
O O5 0.118762 0.175078 0.507580
O O6 0.000000 0.914423 0.500000
O O7 0.132938 0.010549 0.300541
O O8 0.124600 0.676009 0.476292
O O9 0.323584 0.144097 0.841676
O O10 0.185643 0.063746 0.050322
O O11 0.961816 0.877176 0.799175
O O12 0.479811 0.967167 0.304719
O O13 0.000000 0.412265 0.500000
#
# Coordination Sequence:
#
# PCOD9122555 Si02
#       6
#     4   4   4   4   4   4
#     4  10  25  41  60  94 135 177 203 264 336 389
#     4  10  21  35  57  98 122 157 204 283 312 353
#     4  11  25  41  61  96 132 176 205 267 335 386
#     4  11  22  42  69  97 131 166 228 269 321 385
#     4  10  21  40  66  93 130 168 224 266 316 389
#     4  10  20  34  57  97 120 157 206 280 310 351
#
# _framework density 22.974156000000001
#
# number of rings (size 3 to 8) (size 9 to 14) (size 15 to 20)
#    0.000    1.667    3.333    2.000    4.667    9.333 
#    0.000    0.000    0.000    4.000    0.000    0.000 
#    0.000    0.000    0.000    0.000    0.000    0.000 
#
# Total GULP energy -66991.223213 kJ/mol
# GULP energy per Si atom -5582.601934 kJ/mol
# Density = 2.292187 g / cm^3
# Si number density = 22.974156 Si / 1000 Ang^3
#
#
#
# Elastic Constant Matrix: (Units=GPa)
#
#
# Indices 1 2 3 4 5 6 
#
# 1 102.7279 36.5386 17.7245 0.0004 16.0207 0.0009
# 2 36.5386 135.8574 2.6376 0.0007 4.1679 0.0019
# 3 17.7245 2.6376 87.3686 0.0001 11.4752 0.0000
# 4 0.0004 0.0007 0.0001 26.2574 0.0000 -5.7741
# 5 16.0207 4.1679 11.4752 0.0000 18.1546 0.0002
# 6 0.0009 0.0019 0.0000 -5.7741 0.0002 14.6062
#
#
#
# Elastic Compliance Matrix: (Units=1/GPa)
#
#
# Indices 1 2 3 4 5 6 
#
# 1 0.012521 -0.003050 -0.001187 0.000000 -0.009599 0.000000
# 2 -0.003050 0.008156 0.000289 0.000000 0.000636 -0.000001
# 3 -0.001187 0.000289 0.012595 0.000000 -0.006979 0.000000
# 4 0.000000 0.000000 0.000000 0.041710 0.000000 0.016489
# 5 -0.009599 0.000636 -0.006979 0.000000 0.067818 0.000000
# 6 0.000000 -0.000001 0.000000 0.016489 0.000000 0.074982
#
#
# Mechanical properties :
#
#
# Convention : Reuss Voigt Hill
#
# Bulk Modulus (GPa) = 39.40946 48.86168 44.13557
# Shear Modulus (GPa) = 21.35500 29.74053 25.54777
#
# Velocity S-wave (km/s) = 3.05212 3.60185 3.33832
# Velocity P-wave (km/s) = 5.44165 6.21386 5.84053
#
# Compressibility (1/GPa) = 0.02537462
#
# Stress axis : x y z
#
# Youngs Moduli (GPa) = 79.86537 122.61189 79.39906
#
# Poissons Ratio (x) = 0.37397 0.09428
# Poissons Ratio (y) = 0.24359 -0.02294
# Poissons Ratio (z) = 0.09483 -0.03543
#
# Static dielectric constant tensor:
#      x y z
#    x 1.862010 0.000000 -0.015720 
#    y 0.000000 1.966220 0.000000 
#    z -0.015720 0.000000 1.879570 
# 
# From -- ./inp_files/45385.got.cif
#   From: 2010.05.17/outbox.cif.g08.bks.cpg/sg5_23_cif.got.tgz:45385.got - 2010.06.03 18:56:24.
