data_PCOD9122733
_publ_section_title
;
Structure prediction by ZEFSAII (Michael W. Deem and Ramdas Pophale) SiO2 
 PCOD9122733
Probable space group: C 2
;
_chemical_formula_sum "Si O2"
_cell_formula_units_Z 20
_cell_length_a 15.695849
_cell_length_b 8.293468
_cell_length_c 16.077640
_cell_angle_alpha 90.000000
_cell_angle_beta 22.560364
_cell_angle_gamma 90.000000
_cell_volume 802.945242
_symmetry_space_group_name_H-M "C 2"
_symmetry_group_IT_number 5
_symmetry_cell_setting 'monoclinic'
loop_
_space_group_symop_operation_xyz
x,y,z
-x,y,-z
1/2+x,1/2+y,z
1/2-x,1/2+y,-z
loop_
_atom_site_type_symbol
_atom_site_label
_atom_site_fract_x
_atom_site_fract_y
_atom_site_fract_z
Si Si1 0.813107 0.074470 0.561120
Si Si2 0.032390 0.576177 0.260212
Si Si3 0.237920 0.233504 0.646009
Si Si4 0.276769 0.391300 0.257633
Si Si5 0.365760 0.728717 0.836334
O O1 0.701021 0.033966 0.572900
O O2 0.715398 0.238666 0.686178
O O3 0.060850 0.119980 0.307759
O O4 0.767112 0.913819 0.655274
O O5 0.152709 0.412473 0.178242
O O6 0.971880 0.693398 0.389276
O O7 0.163095 0.657600 0.068336
O O8 0.046265 0.238097 0.748515
O O9 0.187070 0.076316 0.745569
O O10 0.000000 0.391880 0.500000
O O11 0.500000 0.360612 0.000000
#
# Coordination Sequence:
#
# PCOD9122733 Si02
#       5
#     4   4   4   4   4
#     4  10  23  42  64 100 135 175 237 283 352 409
#     4  10  20  35  66 102 137 173 216 297 358 412
#     4  10  23  42  64 100 135 175 237 283 352 409
#     4  12  30  50  72  96 142 198 236 284 332 414
#     4  10  20  35  66 102 137 173 216 297 358 412
#
# _framework density 24.908299
#
# number of rings (size 3 to 8) (size 9 to 14) (size 15 to 20)
#    0.000    1.600    2.000    1.200   11.200    1.600 
#    0.000    0.000    0.000    0.000    0.000    0.000 
#    0.000    0.000    0.000    0.000    0.000    0.000 
#
# Total GULP energy -55671.772485 kJ/mol
# GULP energy per Si atom -5567.177248 kJ/mol
# Density = 2.485161 g / cm^3
# Si number density = 24.908299 Si / 1000 Ang^3
#
#
#
# Elastic Constant Matrix: (Units=GPa)
#
#
# Indices 1 2 3 4 5 6 
#
# 1 36.2171 13.4968 12.2715 -0.0012 -16.6077 0.0002
# 2 13.4968 142.2033 16.1760 -0.0050 -5.2899 0.0026
# 3 12.2715 16.1760 121.9696 -0.0053 17.4732 0.0034
# 4 -0.0012 -0.0050 -0.0053 19.6838 0.0032 7.3515
# 5 -16.6077 -5.2899 17.4732 0.0032 36.1415 -0.0007
# 6 0.0002 0.0026 0.0034 7.3515 -0.0007 29.4414
#
#
#
# Elastic Compliance Matrix: (Units=1/GPa)
#
#
# Indices 1 2 3 4 5 6 
#
# 1 0.040775 -0.002274 -0.006916 -0.000004 0.021748 0.000002
# 2 -0.002274 0.007356 -0.000807 0.000002 0.000422 -0.000001
# 3 -0.006916 -0.000807 0.010179 0.000004 -0.008217 -0.000002
# 4 -0.000004 0.000002 0.000004 0.056028 -0.000009 -0.013990
# 5 0.021748 0.000422 -0.008217 -0.000009 0.041697 0.000004
# 6 0.000002 -0.000001 -0.000002 -0.013990 0.000004 0.037459
#
#
# Mechanical properties :
#
#
# Convention : Reuss Voigt Hill
#
# Bulk Modulus (GPa) = 26.10020 42.69761 34.39890
# Shear Modulus (GPa) = 22.09840 34.28303 28.19072
#
# Velocity S-wave (km/s) = 2.98181 3.71397 3.36784
# Velocity P-wave (km/s) = 4.72823 5.96411 5.38176
#
# Compressibility (1/GPa) = 0.03831389
#
# Stress axis : x y z
#
# Youngs Moduli (GPa) = 24.52488 135.95184 98.24249
#
# Poissons Ratio (x) = 0.30919 0.67948
# Poissons Ratio (y) = 0.05578 0.07929
# Poissons Ratio (z) = 0.16962 0.10973
#
# Static dielectric constant tensor:
#      x y z
#    x 2.103230 0.000000 -0.068380 
#    y 0.000000 2.020940 0.000000 
#    z -0.068380 0.000000 2.048420 
# 
# From -- ./inp_files/8065.got.cif
#   From: 2010.05.17/outbox.cif.g08.bks.cpg/sg5_5_cif.got.tgz:8065.got - 2010.06.03 18:56:24.
