data_PCOD9122886
_publ_section_title
;
Structure prediction by ZEFSAII (Michael W. Deem and Ramdas Pophale) SiO2 
 PCOD9122886
Probable space group: C 2
;
_chemical_formula_sum "Si O2"
_cell_formula_units_Z 32
_cell_length_a 10.152478
_cell_length_b 11.636813
_cell_length_c 20.765790
_cell_angle_alpha 90.000000
_cell_angle_beta 36.387429
_cell_angle_gamma 90.000000
_cell_volume 1455.414379
_symmetry_space_group_name_H-M "C 2"
_symmetry_group_IT_number 5
_symmetry_cell_setting 'monoclinic'
loop_
_space_group_symop_operation_xyz
x,y,z
-x,y,-z
1/2+x,1/2+y,z
1/2-x,1/2+y,-z
loop_
_atom_site_type_symbol
_atom_site_label
_atom_site_fract_x
_atom_site_fract_y
_atom_site_fract_z
Si Si1 0.182699 0.642610 0.680190
Si Si2 0.383476 0.870647 0.615166
Si Si3 0.752404 0.522271 0.118542
Si Si4 0.211955 0.251823 0.879581
Si Si5 0.846246 0.884890 0.622617
Si Si6 0.627691 0.697647 0.765995
Si Si7 0.954044 0.987435 0.340390
Si Si8 0.102207 0.583922 0.569989
O O1 0.329254 0.741657 0.654623
O O2 0.266342 0.515681 0.658819
O O3 0.931572 0.674133 0.797921
O O4 0.197482 0.642680 0.596023
O O5 0.500000 0.868092 0.500000
O O6 0.159862 0.934138 0.678783
O O7 0.523437 0.949934 0.608270
O O8 0.750671 0.382630 0.109733
O O9 0.571309 0.606467 0.156713
O O10 0.682177 0.536567 0.221442
O O11 0.000000 0.557952 0.000000
O O12 0.149834 0.249697 0.828562
O O13 0.000000 0.203126 0.000000
O O14 0.632869 0.803837 0.714447
O O15 0.000000 0.865035 0.500000
O O16 0.000447 0.885978 0.626308
O O17 0.865575 0.642789 0.651576
O O18 0.781650 0.074605 0.442281
#
# Coordination Sequence:
#
# PCOD9122886 Si02
#       8
#     4   4   4   4   4   4   4   4
#     4  11  21  41  59  93 134 168 214 265 333 401
#     4  10  20  36  62  88 122 167 213 269 323 394
#     4  11  23  43  71  94 125 176 235 278 327 394
#     4  10  22  44  71  93 122 175 227 277 330 395
#     4  12  25  39  58  98 143 177 207 275 346 409
#     4  11  23  43  68  95 134 175 220 280 337 403
#     4  11  20  41  62  97 124 168 223 271 336 398
#     4  10  21  37  65  94 124 168 219 265 334 408
#
# _framework density 21.986865000000002
#
# number of rings (size 3 to 8) (size 9 to 14) (size 15 to 20)
#    0.000    1.250    5.000    1.125    1.750    1.000 
#    2.250    0.625    5.500    0.000    0.000    0.000 
#    0.000    0.000    0.000    0.000    0.000    0.000 
#
# Total GULP energy -89167.726253 kJ/mol
# GULP energy per Si atom -5572.982891 kJ/mol
# Density = 2.193682 g / cm^3
# Si number density = 21.986865 Si / 1000 Ang^3
#
#
#
# Elastic Constant Matrix: (Units=GPa)
#
#
# Indices 1 2 3 4 5 6 
#
# 1 44.2052 20.4082 7.9839 0.0002 -0.9677 -0.0002
# 2 20.4082 104.1180 27.7107 0.0004 -6.7916 -0.0002
# 3 7.9839 27.7107 170.4081 0.0011 -6.1736 -0.0005
# 4 0.0002 0.0004 0.0011 32.4783 -0.0002 -0.9084
# 5 -0.9677 -6.7916 -6.1736 -0.0002 24.1698 0.0001
# 6 -0.0002 -0.0002 -0.0005 -0.9084 0.0001 24.2249
#
#
#
# Elastic Compliance Matrix: (Units=1/GPa)
#
#
# Indices 1 2 3 4 5 6 
#
# 1 0.024902 -0.004804 -0.000402 0.000000 -0.000456 0.000000
# 2 -0.004804 0.011109 -0.001489 0.000000 0.002549 0.000000
# 3 -0.000402 -0.001489 0.006171 0.000000 0.001142 0.000000
# 4 0.000000 0.000000 0.000000 0.030822 0.000000 0.001156
# 5 -0.000456 0.002549 0.001142 0.000000 0.042363 0.000000
# 6 0.000000 0.000000 0.000000 0.001156 0.000000 0.041323
#
#
# Mechanical properties :
#
#
# Convention : Reuss Voigt Hill
#
# Bulk Modulus (GPa) = 34.73223 47.88187 41.30705
# Shear Modulus (GPa) = 27.82769 33.68317 30.75543
#
# Velocity S-wave (km/s) = 3.56146 3.91828 3.74412
# Velocity P-wave (km/s) = 5.72216 6.50349 6.12529
#
# Compressibility (1/GPa) = 0.02879170
#
# Stress axis : x y z
#
# Youngs Moduli (GPa) = 40.15711 90.02005 162.05892
#
# Poissons Ratio (x) = 0.43244 0.06516
# Poissons Ratio (y) = 0.19291 0.24131
# Poissons Ratio (z) = 0.01615 0.13404
#
# Static dielectric constant tensor:
#      x y z
#    x 1.947340 0.000000 -0.037730 
#    y 0.000000 1.931080 0.000000 
#    z -0.037730 0.000000 1.858450 
# 
# From -- ./inp_files/68383.got.cif
#   From: 2010.05.17/outbox.cif.g08.bks.cpg/sg5_35_cif.got.tgz:68383.got - 2010.06.03 18:56:24.
