data_PCOD9122358
_publ_section_title
;
Structure prediction by ZEFSAII (Michael W. Deem and Ramdas Pophale) SiO2 
 PCOD9122358
Probable space group: C 2
;
_chemical_formula_sum "Si O2"
_cell_formula_units_Z 20
_cell_length_a 7.097913
_cell_length_b 12.386489
_cell_length_c 12.381602
_cell_angle_alpha 90.000000
_cell_angle_beta 119.028501
_cell_angle_gamma 90.000000
_cell_volume 951.820758
_symmetry_space_group_name_H-M "C 2"
_symmetry_group_IT_number 5
_symmetry_cell_setting 'monoclinic'
loop_
_space_group_symop_operation_xyz
x,y,z
-x,y,-z
1/2+x,1/2+y,z
1/2-x,1/2+y,-z
loop_
_atom_site_type_symbol
_atom_site_label
_atom_site_fract_x
_atom_site_fract_y
_atom_site_fract_z
Si Si1 0.753740 0.075990 0.473131
Si Si2 0.110901 0.535299 0.199825
Si Si3 0.965689 0.775889 0.111904
Si Si4 0.000000 0.769025 0.500000
Si Si5 0.956079 0.923047 0.680506
Si Si6 0.000000 0.364106 0.000000
O O1 0.611949 0.041400 0.330519
O O2 0.679204 0.188342 0.503344
O O3 0.000000 0.085458 0.500000
O O4 0.764283 0.985712 0.568896
O O5 0.359285 0.508922 0.236727
O O6 0.964601 0.652270 0.859076
O O7 0.983459 0.442462 0.100208
O O8 0.096711 0.848425 0.233457
O O9 0.714786 0.793719 0.070573
O O10 0.000000 0.813353 0.000000
O O11 0.059920 0.846147 0.616454
#
# Coordination Sequence:
#
# PCOD9122358 Si02
#       6
#     4   4   4   2   4   2
#     4  10  22  41  64  98 131 165 207 268 318 381
#     4  10  19  42  65  88 134 163 208 267 310 370
#     4  11  23  45  67  91 130 174 212 261 319 373
#     4  12  20  40  66  92 130 166 208 252 324 380
#     4  10  22  43  65  96 132 163 209 272 316 373
#     4  10  24  42  64  94 126 174 214 264 312 372
#
# _framework density 21.012360999999999
#
# number of rings (size 3 to 8) (size 9 to 14) (size 15 to 20)
#    0.000    1.600    6.000    0.000    0.000    1.600 
#   18.000    0.000    0.000    0.000    0.000    0.000 
#    0.000    0.000    0.000    0.000    0.000    0.000 
#
# Total GULP energy -55822.550893 kJ/mol
# GULP energy per Si atom -5582.255089 kJ/mol
# Density = 2.096454 g / cm^3
# Si number density = 21.012361 Si / 1000 Ang^3
#
#
#
# Elastic Constant Matrix: (Units=GPa)
#
#
# Indices 1 2 3 4 5 6 
#
# 1 48.4406 41.2881 25.1075 0.0000 -5.9130 0.0000
# 2 41.2881 125.2794 51.9550 0.0000 -2.1108 0.0000
# 3 25.1075 51.9550 131.9044 0.0000 -10.5223 0.0000
# 4 0.0000 0.0000 0.0000 243.6345 0.0000 -476.7412
# 5 -5.9130 -2.1108 -10.5223 0.0000 25.1486 0.0000
# 6 0.0000 0.0000 0.0000 -476.7412 0.0000 1182.0999
#
#
#
# Elastic Compliance Matrix: (Units=1/GPa)
#
#
# Indices 1 2 3 4 5 6 
#
# 1 0.029927 -0.009073 -0.001678 0.000000 0.005573 0.000000
# 2 -0.009073 0.012307 -0.003319 0.000000 -0.002489 0.000000
# 3 -0.001678 -0.003319 0.009470 0.000000 0.003289 0.000000
# 4 0.000000 0.000000 0.000000 0.019469 0.000000 0.007852
# 5 0.005573 -0.002489 0.003289 0.000000 0.042241 0.000000
# 6 0.000000 0.000000 0.000000 0.007852 0.000000 0.004013
#
#
# Mechanical properties :
#
#
# Convention : Reuss Voigt Hill
#
# Bulk Modulus (GPa) = 42.43790 60.25840 51.34815
# Shear Modulus (GPa) = 32.58970 302.66153 167.62562
#
# Velocity S-wave (km/s) = 3.94252 12.01468 8.94136
# Velocity P-wave (km/s) = 6.40040 14.87312 11.44934
#
# Compressibility (1/GPa) = 0.02356384
#
# Stress axis : x y z
#
# Youngs Moduli (GPa) = 33.41412 81.25524 105.59246
#
# Poissons Ratio (x) = 0.73725 0.17721
# Poissons Ratio (y) = 0.30318 0.35046
# Poissons Ratio (z) = 0.05608 0.26968
#
# Static dielectric constant tensor:
#      x y z
#    x -0.777500 0.000000 -2.675430 
#    y 0.000000 1.739390 0.000000 
#    z -2.675430 0.000000 -1.018280 
# 
# From -- ./inp_files/34972.got.cif
#   From: 2010.05.17/outbox.cif.g08.bks.cpg/sg5_18_cif.got.tgz:34972.got - 2010.06.03 18:56:24.
