data_PCOD9122576
_publ_section_title
;
Structure prediction by ZEFSAII (Michael W. Deem and Ramdas Pophale) SiO2 
 PCOD9122576
Probable space group: C 2
;
_chemical_formula_sum "Si O2"
_cell_formula_units_Z 32
_cell_length_a 16.701572
_cell_length_b 6.834321
_cell_length_c 20.188810
_cell_angle_alpha 90.000000
_cell_angle_beta 32.800854
_cell_angle_gamma 90.000000
_cell_volume 1248.357303
_symmetry_space_group_name_H-M "C 2"
_symmetry_group_IT_number 5
_symmetry_cell_setting 'monoclinic'
loop_
_space_group_symop_operation_xyz
x,y,z
-x,y,-z
1/2+x,1/2+y,z
1/2-x,1/2+y,-z
loop_
_atom_site_type_symbol
_atom_site_label
_atom_site_fract_x
_atom_site_fract_y
_atom_site_fract_z
Si Si1 0.692563 0.791590 0.293179
Si Si2 0.389908 0.330235 0.639452
Si Si3 0.865494 0.666369 0.051320
Si Si4 0.327218 0.366860 0.499454
Si Si5 0.407597 0.775290 0.435759
Si Si6 0.383574 0.769128 0.241635
Si Si7 0.949486 0.731364 0.199984
Si Si8 0.069344 0.033353 0.204270
O O1 0.654102 0.559377 0.325380
O O2 0.787330 0.805976 0.159824
O O3 0.530492 0.881293 0.394667
O O4 0.796133 0.832234 0.283362
O O5 0.500000 0.304169 0.500000
O O6 0.504107 0.293423 0.620136
O O7 0.228733 0.232473 0.742196
O O8 0.739189 0.528718 0.108449
O O9 0.000000 0.570597 0.000000
O O10 0.936763 0.772456 0.939100
O O11 0.339312 0.587361 0.519473
O O12 0.226591 0.387913 0.504443
O O13 0.232258 0.246078 0.617369
O O14 0.494389 0.666301 0.314301
O O15 0.431695 0.996962 0.209684
O O16 0.525735 0.647586 0.166181
O O17 0.006811 0.821167 0.228088
#
# Coordination Sequence:
#
# PCOD9122576 Si02
#       8
#     4   4   4   4   4   4   4   4
#     4   8  16  34  53  75 108 146 175 219 277 323
#     4   8  14  29  53  75 105 146 177 213 268 322
#     4   9  19  36  58  78 109 148 175 222 289 324
#     4   9  17  30  51  73 104 146 175 216 269 319
#     4   9  18  32  51  75 110 142 179 222 268 322
#     4   9  19  34  53  78 110 137 178 227 273 311
#     4  10  20  34  59  79 103 144 184 226 274 328
#     4  10  21  35  55  84 108 135 185 231 266 326
#
# _framework density 25.633687999999999
#
# number of rings (size 3 to 8) (size 9 to 14) (size 15 to 20)
#    0.000    3.000    0.000    0.000    3.500    0.000 
#    2.250    0.000    0.000   12.000    0.000    0.000 
#    0.000    0.000    0.000    0.000    0.000    0.000 
#
# Total GULP energy -89200.023839 kJ/mol
# GULP energy per Si atom -5575.001490 kJ/mol
# Density = 2.557534 g / cm^3
# Si number density = 25.633688 Si / 1000 Ang^3
#
#
#
# Elastic Constant Matrix: (Units=GPa)
#
#
# Indices 1 2 3 4 5 6 
#
# 1 207.6656 17.2155 68.8428 0.0000 -48.3434 0.0000
# 2 17.2155 61.7390 20.4445 0.0000 -5.1977 0.0000
# 3 68.8428 20.4445 87.5312 0.0000 -17.0144 0.0000
# 4 0.0000 0.0000 0.0000 11.8774 0.0000 -3.8651
# 5 -48.3434 -5.1977 -17.0144 0.0000 61.7717 0.0000
# 6 0.0000 0.0000 0.0000 -3.8651 0.0000 33.5656
#
#
#
# Elastic Compliance Matrix: (Units=1/GPa)
#
#
# Indices 1 2 3 4 5 6 
#
# 1 0.007541 -0.000054 -0.005042 0.000000 0.004508 0.000000
# 2 -0.000054 0.017563 -0.003995 0.000000 0.000336 0.000000
# 3 -0.005042 -0.003995 0.016367 0.000000 0.000226 0.000000
# 4 0.000000 0.000000 0.000000 0.087471 0.000000 0.010072
# 5 0.004508 0.000336 0.000226 0.000000 0.019807 0.000000
# 6 0.000000 0.000000 0.000000 0.010072 0.000000 0.030952
#
#
# Mechanical properties :
#
#
# Convention : Reuss Voigt Hill
#
# Bulk Modulus (GPa) = 42.93633 63.32682 53.13157
# Shear Modulus (GPa) = 24.31360 38.13847 31.22604
#
# Velocity S-wave (km/s) = 3.08312 3.86142 3.49401
# Velocity P-wave (km/s) = 5.42775 6.68124 6.08685
#
# Compressibility (1/GPa) = 0.02329030
#
# Stress axis : x y z
#
# Youngs Moduli (GPa) = 132.61122 56.93691 61.09852
#
# Poissons Ratio (x) = 0.00305 0.30806
# Poissons Ratio (y) = 0.00710 0.24408
# Poissons Ratio (z) = 0.66863 0.22746
#
# Static dielectric constant tensor:
#      x y z
#    x 2.122110 0.000000 -0.018430 
#    y 0.000000 2.125370 0.000000 
#    z -0.018430 0.000000 2.067900 
# 
# From -- ./inp_files/69092.got.cif
#   From: 2010.05.17/outbox.cif.g08.bks.cpg/sg5_35_cif.got.tgz:69092.got - 2010.06.03 18:56:24.
