data_PCOD9122043
_publ_section_title
;
Structure prediction by ZEFSAII (Michael W. Deem and Ramdas Pophale) SiO2 
 PCOD9122043
Probable space group: C 2
;
_chemical_formula_sum "Si O2"
_cell_formula_units_Z 32
_cell_length_a 30.708831
_cell_length_b 10.322451
_cell_length_c 5.088113
_cell_angle_alpha 90.000000
_cell_angle_beta 97.396468
_cell_angle_gamma 90.000000
_cell_volume 1599.462354
_symmetry_space_group_name_H-M "C 2"
_symmetry_group_IT_number 5
_symmetry_cell_setting 'monoclinic'
loop_
_space_group_symop_operation_xyz
x,y,z
-x,y,-z
1/2+x,1/2+y,z
1/2-x,1/2+y,-z
loop_
_atom_site_type_symbol
_atom_site_label
_atom_site_fract_x
_atom_site_fract_y
_atom_site_fract_z
Si Si1 0.180180 0.231930 0.668429
Si Si2 0.106984 0.697821 0.784794
Si Si3 0.947762 0.465162 0.467334
Si Si4 0.633399 0.622881 0.134945
Si Si5 0.947114 0.296733 0.969731
Si Si6 0.722870 0.143874 0.397288
Si Si7 0.636908 0.327300 0.310743
Si Si8 0.307450 0.018895 0.124763
O O1 0.156098 0.212331 0.373299
O O2 0.230765 0.195584 0.661527
O O3 0.180276 0.377365 0.773638
O O4 0.156341 0.146527 0.872472
O O5 0.070483 0.603337 0.637724
O O6 0.117052 0.810738 0.584798
O O7 0.149452 0.606037 0.821495
O O8 0.105265 0.754735 0.075827
O O9 0.934896 0.359339 0.239128
O O10 0.000000 0.473698 0.500000
O O11 0.935591 0.405632 0.740600
O O12 0.640174 0.475327 0.228452
O O13 0.582759 0.670203 0.088908
O O14 0.000000 0.273753 0.000000
O O15 0.684212 0.252636 0.347864
O O16 0.725249 0.085757 0.691351
O O17 0.709497 0.030243 0.184267
#
# Coordination Sequence:
#
# PCOD9122043 Si02
#       8
#     4   4   4   4   4   4   4   4
#     4  12  25  37  63  85 115 153 201 254 286 356
#     4  10  19  38  60  81 115 154 189 238 289 353
#     4  10  20  36  64  94 120 148 193 253 300 347
#     4  12  24  41  59  90 117 163 202 242 293 366
#     4  10  21  38  62  91 124 154 192 251 304 346
#     4  10  23  38  57  81 114 151 190 249 298 340
#     4  10  23  39  58  81 121 158 193 238 294 352
#     4  10  21  39  56  83 108 147 195 237 296 340
#
# _framework density 20.006722
#
# number of rings (size 3 to 8) (size 9 to 14) (size 15 to 20)
#    0.000    1.500    0.000    5.250    3.500    2.000 
#    0.000    1.250    0.000    0.000    0.000    0.000 
#    0.000    0.000    0.000    0.000    0.000    0.000 
#
# Total GULP energy -89392.275663 kJ/mol
# GULP energy per Si atom -5587.017229 kJ/mol
# Density = 1.996119 g / cm^3
# Si number density = 20.006722 Si / 1000 Ang^3
#
#
#
# Elastic Constant Matrix: (Units=GPa)
#
#
# Indices 1 2 3 4 5 6 
#
# 1 46.3762 8.0831 14.1034 0.0000 9.7191 0.0000
# 2 8.0831 48.0846 -25.3167 0.0000 1.7786 0.0000
# 3 14.1034 -25.3167 43.5213 0.0000 9.3345 0.0000
# 4 0.0000 0.0000 0.0000 24.0847 0.0000 -4.6302
# 5 9.7191 1.7786 9.3345 0.0000 15.8238 0.0000
# 6 0.0000 0.0000 0.0000 -4.6302 0.0000 -0.9448
#
#
#
# Elastic Compliance Matrix: (Units=1/GPa)
#
#
# Indices 1 2 3 4 5 6 
#
# 1 0.030274 -0.013088 -0.015743 0.000000 -0.007837 0.000000
# 2 -0.013088 0.039444 0.030239 0.000000 -0.014233 0.000000
# 3 -0.015743 0.030239 0.050745 0.000000 -0.023664 0.000000
# 4 0.000000 0.000000 0.000000 0.021379 0.000000 -0.104771
# 5 -0.007837 -0.014233 -0.023664 0.000000 0.083568 0.000000
# 6 0.000000 0.000000 0.000000 -0.104771 0.000000 -0.544984
#
#
# Mechanical properties :
#
#
# Convention : Reuss Voigt Hill
#
# Bulk Modulus (GPa) = 8.11172 14.63573 11.37372
# Shear Modulus (GPa) = -17.77479 17.20022 -0.28728
#
# Velocity S-wave (km/s) = -2.98391 2.93528 -0.37935
# Velocity P-wave (km/s) = 2.79433 4.33810 2.34636
#
# Compressibility (1/GPa) = 0.12327849
#
# Stress axis : x y z
#
# Youngs Moduli (GPa) = 33.03182 25.35225 19.70656
#
# Poissons Ratio (x) = 0.33181 0.31024
# Poissons Ratio (y) = 0.43232 -0.59591
# Poissons Ratio (z) = 0.52002 -0.76663
#
# Static dielectric constant tensor:
#      x y z
#    x 1.710170 0.000000 0.008510 
#    y 0.000000 1.705930 0.000000 
#    z 0.008510 0.000000 1.720410 
# 
# From -- ./inp_files/11238.got.cif
#   From: 2010.05.17/outbox.cif.g08.bks.cpg/sg5_6_cif.got.tgz:11238.got - 2010.06.03 18:56:24.
