data_PCOD9122410
_publ_section_title
;
Structure prediction by ZEFSAII (Michael W. Deem and Ramdas Pophale) SiO2 
 PCOD9122410
Probable space group: C 2
;
_chemical_formula_sum "Si O2"
_cell_formula_units_Z 26
_cell_length_a 9.908296
_cell_length_b 20.867212
_cell_length_c 9.715996
_cell_angle_alpha 90.000000
_cell_angle_beta 136.638852
_cell_angle_gamma 90.000000
_cell_volume 1379.275916
_symmetry_space_group_name_H-M "C 2"
_symmetry_group_IT_number 5
_symmetry_cell_setting 'monoclinic'
loop_
_space_group_symop_operation_xyz
x,y,z
-x,y,-z
1/2+x,1/2+y,z
1/2-x,1/2+y,-z
loop_
_atom_site_type_symbol
_atom_site_label
_atom_site_fract_x
_atom_site_fract_y
_atom_site_fract_z
Si Si1 0.500000 0.623590 0.000000
Si Si2 0.933274 0.676099 0.792246
Si Si3 0.985099 0.044178 0.260908
Si Si4 0.325940 0.230802 0.261135
Si Si5 0.000000 0.149376 0.500000
Si Si6 0.941810 0.547661 0.615197
Si Si7 0.500000 0.836433 0.000000
Si Si8 0.870673 0.460782 0.030160
O O1 0.452889 0.578254 0.091695
O O2 0.682252 0.669609 0.170907
O O3 0.697357 0.688192 0.609764
O O4 0.961269 0.610516 0.725513
O O5 0.070053 0.726044 0.811092
O O6 0.000000 0.670803 0.000000
O O7 0.935905 0.100200 0.332669
O O8 0.213145 0.028790 0.448603
O O9 0.849034 0.982184 0.168629
O O10 0.500000 0.229496 0.500000
O O11 0.182634 0.291329 0.172990
O O12 0.000000 0.559150 0.500000
O O13 0.066823 0.492475 0.780957
O O14 0.576780 0.885968 0.940613
O O15 0.000000 0.489943 0.000000
#
# Coordination Sequence:
#
# PCOD9122410 Si02
#       8
#     2   4   4   4   2   4   2   4
#     4  11  22  34  56  98 124 145 188 238 304 373
#     4  11  21  35  60  91 128 154 184 241 310 365
#     4  11  20  32  56  88 125 151 180 235 302 359
#     4  11  22  41  64  84 116 161 207 252 294 349
#     4  10  20  30  50  96 118 146 184 222 302 372
#     4  11  21  34  59  98 126 156 189 236 304 370
#     4   9  26  42  64  82 110 163 224 250 286 345
#     4  10  21  39  58  81 118 156 204 249 287 348
#
# _framework density 18.850470999999999
#
# number of rings (size 3 to 8) (size 9 to 14) (size 15 to 20)
#    0.462    0.923    0.000    9.231    0.000    2.462 
#    0.000    0.000    8.462    0.000    0.000    0.000 
#    0.000    0.000    0.000    0.000    0.000    0.000 
#
# Total GULP energy -72557.174851 kJ/mol
# GULP energy per Si atom -5581.321142 kJ/mol
# Density = 1.880757 g / cm^3
# Si number density = 18.850471 Si / 1000 Ang^3
#
#
#
# Elastic Constant Matrix: (Units=GPa)
#
#
# Indices 1 2 3 4 5 6 
#
# 1 99.6013 30.5958 46.2139 0.0000 7.1662 0.0000
# 2 30.5958 57.1878 37.9623 0.0000 11.1232 0.0000
# 3 46.2139 37.9623 116.8123 0.0000 5.9310 0.0000
# 4 0.0000 0.0000 0.0000 8.8885 0.0000 3.9043
# 5 7.1662 11.1232 5.9310 0.0000 57.0134 0.0000
# 6 0.0000 0.0000 0.0000 3.9043 0.0000 31.7593
#
#
#
# Elastic Compliance Matrix: (Units=1/GPa)
#
#
# Indices 1 2 3 4 5 6 
#
# 1 0.013182 -0.004498 -0.003734 0.000000 -0.000391 0.000000
# 2 -0.004498 0.024598 -0.006031 0.000000 -0.003606 0.000000
# 3 -0.003734 -0.006031 0.011978 0.000000 0.000400 0.000000
# 4 0.000000 0.000000 0.000000 0.118928 0.000000 -0.014620
# 5 -0.000391 -0.003606 0.000400 0.000000 0.018251 0.000000
# 6 0.000000 0.000000 0.000000 -0.014620 0.000000 0.033284
#
#
# Mechanical properties :
#
#
# Convention : Reuss Voigt Hill
#
# Bulk Modulus (GPa) = 47.09923 55.90505 51.50214
# Shear Modulus (GPa) = 19.54473 30.12085 24.83279
#
# Velocity S-wave (km/s) = 3.22348 4.00169 3.63348
# Velocity P-wave (km/s) = 6.23653 7.14653 6.70698
#
# Compressibility (1/GPa) = 0.02123177
#
# Stress axis : x y z
#
# Youngs Moduli (GPa) = 75.85971 40.65395 83.48919
#
# Poissons Ratio (x) = 0.18287 0.31171
# Poissons Ratio (y) = 0.34123 0.50355
# Poissons Ratio (z) = 0.28323 0.24520
#
# Static dielectric constant tensor:
#      x y z
#    x 1.707470 0.000000 0.030260 
#    y 0.000000 1.643910 0.000000 
#    z 0.030260 0.000000 1.665300 
# 
# From -- ./inp_files/17098.got.cif
#   From: 2010.05.17/outbox.cif.g08.bks.cpg/sg5_9_cif.got.tgz:17098.got - 2010.06.03 18:56:24.
