data_PCOD9122097
_publ_section_title
;
Structure prediction by ZEFSAII (Michael W. Deem and Ramdas Pophale) SiO2 
 PCOD9122097
Probable space group: C 2
;
_chemical_formula_sum "Si O2"
_cell_formula_units_Z 26
_cell_length_a 11.733773
_cell_length_b 8.787975
_cell_length_c 20.532989
_cell_angle_alpha 90.000000
_cell_angle_beta 148.997595
_cell_angle_gamma 90.000000
_cell_volume 1090.556933
_symmetry_space_group_name_H-M "C 2"
_symmetry_group_IT_number 5
_symmetry_cell_setting 'monoclinic'
loop_
_space_group_symop_operation_xyz
x,y,z
-x,y,-z
1/2+x,1/2+y,z
1/2-x,1/2+y,-z
loop_
_atom_site_type_symbol
_atom_site_label
_atom_site_fract_x
_atom_site_fract_y
_atom_site_fract_z
Si Si1 0.338232 0.493550 0.686771
Si Si2 0.898637 0.192774 0.279261
Si Si3 0.500000 0.720356 0.500000
Si Si4 0.315409 0.367633 0.046589
Si Si5 0.500000 0.304195 0.000000
Si Si6 0.478332 0.052972 0.824115
Si Si7 0.000000 0.723445 0.500000
Si Si8 0.314478 0.964089 0.603217
O O1 0.428236 0.568249 0.663568
O O2 0.197693 0.340517 0.612402
O O3 0.541879 0.465449 0.833620
O O4 0.163174 0.621060 0.622433
O O5 0.751663 0.120995 0.263771
O O6 0.999150 0.362080 0.344336
O O7 0.715218 0.214769 0.131671
O O8 0.649165 0.611927 0.523475
O O9 0.351050 0.193372 0.085210
O O10 0.419209 0.388670 0.025248
O O11 0.066381 0.423315 0.915722
O O12 0.442009 0.991319 0.734206
O O13 0.865281 0.831975 0.480239
#
# Coordination Sequence:
#
# PCOD9122097 Si02
#       8
#     4   4   2   4   2   4   2   4
#     4  10  19  38  63  96 132 175 219 286 329 398
#     4  10  21  39  66  94 133 173 220 268 350 401
#     4  10  20  38  64  92 132 172 226 272 328 390
#     4  11  22  38  67  94 137 173 226 280 349 402
#     4  10  20  38  62  96 128 180 214 278 338 422
#     4  11  23  40  66  99 130 182 219 279 344 409
#     4   8  20  34  68  88 126 186 214 264 350 380
#     4  10  19  41  65  88 131 177 221 272 331 402
#
# _framework density 23.841031000000001
#
# number of rings (size 3 to 8) (size 9 to 14) (size 15 to 20)
#    0.000    1.846    3.077    1.846    2.154    0.000 
#    0.000    9.231   10.154    0.000    0.000    0.000 
#    0.000    0.000    0.000    0.000    0.000    0.000 
#
# Total GULP energy -72402.904825 kJ/mol
# GULP energy per Si atom -5569.454217 kJ/mol
# Density = 2.378677 g / cm^3
# Si number density = 23.841031 Si / 1000 Ang^3
#
#
#
# Elastic Constant Matrix: (Units=GPa)
#
#
# Indices 1 2 3 4 5 6 
#
# 1 71.8086 46.3391 -2.6445 0.0000 7.2773 0.0000
# 2 46.3391 128.7154 43.0346 -0.0001 15.5255 0.0000
# 3 -2.6445 43.0346 90.8091 -0.0001 16.6764 0.0001
# 4 0.0000 -0.0001 -0.0001 57.4702 0.0000 4.1886
# 5 7.2773 15.5255 16.6764 0.0000 27.1229 0.0000
# 6 0.0000 0.0000 0.0001 4.1886 0.0000 26.5097
#
#
#
# Elastic Compliance Matrix: (Units=1/GPa)
#
#
# Indices 1 2 3 4 5 6 
#
# 1 0.020003 -0.008524 0.005311 0.000000 -0.003753 0.000000
# 2 -0.008524 0.013075 -0.006189 0.000000 -0.001392 0.000000
# 3 0.005311 -0.006189 0.015456 0.000000 -0.007386 0.000000
# 4 0.000000 0.000000 0.000000 0.017603 0.000000 -0.002781
# 5 -0.003753 -0.001392 -0.007386 0.000000 0.043214 0.000000
# 6 0.000000 0.000000 0.000000 -0.002781 0.000000 0.038161
#
#
# Mechanical properties :
#
#
# Convention : Reuss Voigt Hill
#
# Bulk Modulus (GPa) = 33.63582 51.64352 42.63967
# Shear Modulus (GPa) = 28.37266 35.86083 32.11674
#
# Velocity S-wave (km/s) = 3.45349 3.88256 3.67430
# Velocity P-wave (km/s) = 5.48098 6.46589 5.99370
#
# Compressibility (1/GPa) = 0.02973021
#
# Stress axis : x y z
#
# Youngs Moduli (GPa) = 49.99310 76.48162 64.69966
#
# Poissons Ratio (x) = 0.65196 -0.34365
# Poissons Ratio (y) = 0.42616 0.40042
# Poissons Ratio (z) = -0.26554 0.47334
#
# Static dielectric constant tensor:
#      x y z
#    x 2.023350 0.000000 -0.006110 
#    y 0.000000 1.916750 0.000000 
#    z -0.006110 0.000000 2.016720 
# 
# From -- ./inp_files/68329.got.cif
#   From: 2010.05.17/outbox.cif.g08.bks.cpg/sg5_35_cif.got.tgz:68329.got - 2010.06.03 18:56:24.
