data_PCOD9122467
_publ_section_title
;
Structure prediction by ZEFSAII (Michael W. Deem and Ramdas Pophale) SiO2 
 PCOD9122467
Probable space group: C 2
;
_chemical_formula_sum "Si O2"
_cell_formula_units_Z 32
_cell_length_a 12.061338
_cell_length_b 12.750625
_cell_length_c 11.823092
_cell_angle_alpha 90.000000
_cell_angle_beta 66.060456
_cell_angle_gamma 90.000000
_cell_volume 1661.850410
_symmetry_space_group_name_H-M "C 2"
_symmetry_group_IT_number 5
_symmetry_cell_setting 'monoclinic'
loop_
_space_group_symop_operation_xyz
x,y,z
-x,y,-z
1/2+x,1/2+y,z
1/2-x,1/2+y,-z
loop_
_atom_site_type_symbol
_atom_site_label
_atom_site_fract_x
_atom_site_fract_y
_atom_site_fract_z
Si Si1 0.697408 0.329800 0.651012
Si Si2 0.120304 0.368093 0.215025
Si Si3 0.806454 0.942046 0.850377
Si Si4 0.308054 0.083470 0.912150
Si Si5 0.519639 0.264596 0.118539
Si Si6 0.141109 0.272683 0.958060
Si Si7 0.583479 0.749281 0.578238
Si Si8 0.026884 0.012950 0.620939
O O1 0.787103 0.351530 0.719380
O O2 0.596108 0.256602 0.751895
O O3 0.782670 0.283764 0.516734
O O4 0.620922 0.428846 0.634802
O O5 0.131902 0.491556 0.185468
O O6 0.988467 0.325836 0.307022
O O7 0.158270 0.305886 0.084119
O O8 0.687930 0.873803 0.867685
O O9 0.891950 0.849904 0.862963
O O10 0.892553 0.001436 0.728693
O O11 0.767009 0.024083 0.960907
O O12 0.414076 0.154273 0.918574
O O13 0.217083 0.168912 0.895389
O O14 0.500000 0.304152 0.000000
O O15 0.000000 0.254546 0.000000
O O16 0.500000 0.750130 0.500000
O O17 0.577880 0.629399 0.621712
O O18 0.000000 0.995608 0.500000
#
# Coordination Sequence:
#
# PCOD9122467 Si02
#       8
#     4   4   4   4   4   4   4   4
#     4  10  21  39  60  81 108 147 187 223 272 330
#     4  10  21  38  56  80 113 147 183 223 269 331
#     4   9  20  37  52  78 113 145 182 223 274 334
#     4  10  20  33  55  83 111 140 180 231 274 320
#     4  10  20  35  57  82 110 145 182 223 273 329
#     4  10  21  35  54  83 114 145 182 229 278 323
#     4   9  20  38  58  81 111 147 187 225 270 330
#     4  10  21  37  59  82 108 146 186 229 276 323
#
# _framework density 19.255642999999999
#
# number of rings (size 3 to 8) (size 9 to 14) (size 15 to 20)
#    0.000    2.250    0.000    3.000    0.000    9.500 
#    0.000    2.500    0.000    3.000    0.000    0.000 
#    0.000    0.000    0.000    0.000    0.000    0.000 
#
# Total GULP energy -89151.547272 kJ/mol
# GULP energy per Si atom -5571.971705 kJ/mol
# Density = 1.921182 g / cm^3
# Si number density = 19.255643 Si / 1000 Ang^3
#
#
#
# Elastic Constant Matrix: (Units=GPa)
#
#
# Indices 1 2 3 4 5 6 
#
# 1 66.9649 21.7873 26.2177 0.0000 -16.8272 0.0000
# 2 21.7873 85.9999 31.3619 0.0000 -16.4463 0.0000
# 3 26.2177 31.3619 96.2446 0.0000 -33.1618 0.0000
# 4 0.0000 0.0000 0.0000 24.2530 0.0000 -3.7065
# 5 -16.8272 -16.4463 -33.1618 0.0000 40.8629 0.0000
# 6 0.0000 0.0000 0.0000 -3.7065 0.0000 6.7100
#
#
#
# Elastic Compliance Matrix: (Units=1/GPa)
#
#
# Indices 1 2 3 4 5 6 
#
# 1 0.017886 -0.002814 -0.002509 0.000000 0.004196 0.000000
# 2 -0.002814 0.013830 -0.003084 0.000000 0.001905 0.000000
# 3 -0.002509 -0.003084 0.015679 0.000000 0.010450 0.000000
# 4 0.000000 0.000000 0.000000 0.045034 0.000000 0.024876
# 5 0.004196 0.001905 0.010450 0.000000 0.035447 0.000000
# 6 0.000000 0.000000 0.000000 0.024876 0.000000 0.162772
#
#
# Mechanical properties :
#
#
# Convention : Reuss Voigt Hill
#
# Bulk Modulus (GPa) = 32.70015 45.32702 39.01359
# Shear Modulus (GPa) = 15.74038 25.68802 20.71420
#
# Velocity S-wave (km/s) = 2.86220 3.65643 3.28342
# Velocity P-wave (km/s) = 5.28601 6.43558 5.88891
#
# Compressibility (1/GPa) = 0.03058090
#
# Stress axis : x y z
#
# Youngs Moduli (GPa) = 55.91112 72.30904 63.77893
#
# Poissons Ratio (x) = 0.20344 0.16005
# Poissons Ratio (y) = 0.15731 0.19667
# Poissons Ratio (z) = 0.14031 0.22298
#
# Static dielectric constant tensor:
#      x y z
#    x 1.703630 0.000000 -0.014550 
#    y 0.000000 1.666200 0.000000 
#    z -0.014550 0.000000 1.698840 
# 
# From -- ./inp_files/39391.got.cif
#   From: 2010.05.17/outbox.cif.g08.bks.cpg/sg5_20_cif.got.tgz:39391.got - 2010.06.03 18:56:24.
