data_PCOD9122740
_publ_section_title
;
Structure prediction by ZEFSAII (Michael W. Deem and Ramdas Pophale) SiO2 
 PCOD9122740
Probable space group: C 2
;
_chemical_formula_sum "Si O2"
_cell_formula_units_Z 30
_cell_length_a 13.925794
_cell_length_b 14.636462
_cell_length_c 5.671014
_cell_angle_alpha 90.000000
_cell_angle_beta 71.825723
_cell_angle_gamma 90.000000
_cell_volume 1098.225897
_symmetry_space_group_name_H-M "C 2"
_symmetry_group_IT_number 5
_symmetry_cell_setting 'monoclinic'
loop_
_space_group_symop_operation_xyz
x,y,z
-x,y,-z
1/2+x,1/2+y,z
1/2-x,1/2+y,-z
loop_
_atom_site_type_symbol
_atom_site_label
_atom_site_fract_x
_atom_site_fract_y
_atom_site_fract_z
Si Si1 0.167324 0.123190 0.027591
Si Si2 0.500000 0.806636 0.500000
Si Si3 0.844543 0.875774 0.481925
Si Si4 0.491430 0.120497 0.254477
Si Si5 0.760375 0.574493 0.450930
Si Si6 0.856113 0.286878 0.237357
Si Si7 0.870919 0.441620 0.894572
Si Si8 0.874509 0.928144 0.955599
O O1 0.226545 0.112267 0.731198
O O2 0.133719 0.225927 0.004002
O O3 0.093496 0.034966 0.086810
O O4 0.223912 0.121158 0.234764
O O5 0.435249 0.749619 0.364475
O O6 0.417700 0.877079 0.662962
O O7 0.756240 0.800238 0.572538
O O8 0.897576 0.879213 0.186013
O O9 0.789577 0.974878 0.521211
O O10 0.899374 0.876624 0.694020
O O11 0.500000 0.169948 0.500000
O O12 0.380463 0.076906 0.351664
O O13 0.574461 0.039054 0.170347
O O14 0.500000 0.172886 0.000000
O O15 0.889516 0.387928 0.125383
O O16 0.749580 0.439386 0.956356
#
# Coordination Sequence:
#
# PCOD9122740 Si02
#       8
#     4   2   4   4   4   4   4   4
#     4  10  22  34  50  65 108 153 187 211 270 315
#     4  12  20  32  50  74 108 140 180 216 270 326
#     4   9  16  30  48  67  93 129 181 207 246 297
#     4  12  20  30  53  82 108 137 185 228 262 313
#     4  10  20  36  50  73 104 154 184 221 251 328
#     4  11  23  33  48  77 108 153 177 225 272 331
#     4  11  21  32  52  80 111 140 184 218 267 324
#     4   9  17  32  49  70  99 142 178 215 245 313
#
# _framework density 27.316783999999998
#
# number of rings (size 3 to 8) (size 9 to 14) (size 15 to 20)
#    0.000    1.600    2.000    6.800    1.867    0.000 
#    0.000    0.000    0.000    0.000    0.000    0.000 
#    0.000    0.000  201.733    2.667    0.000    0.000 
#
# Total GULP energy -83891.245879 kJ/mol
# GULP energy per Si atom -5592.749725 kJ/mol
# Density = 2.725461 g / cm^3
# Si number density = 27.316784 Si / 1000 Ang^3
#
#
#
# Elastic Constant Matrix: (Units=GPa)
#
#
# Indices 1 2 3 4 5 6 
#
# 1 104.1851 16.2659 58.2338 0.0000 30.5683 0.0000
# 2 16.2659 89.6719 39.6367 0.0000 11.0213 0.0000
# 3 58.2338 39.6367 240.1369 0.0000 40.9985 0.0000
# 4 0.0000 0.0000 0.0000 45.9726 0.0000 2.3873
# 5 30.5683 11.0213 40.9985 0.0000 63.0008 0.0000
# 6 0.0000 0.0000 0.0000 2.3873 0.0000 6.4249
#
#
#
# Elastic Compliance Matrix: (Units=1/GPa)
#
#
# Indices 1 2 3 4 5 6 
#
# 1 0.012172 -0.000748 -0.002073 0.000000 -0.004426 0.000000
# 2 -0.000748 0.012122 -0.001709 0.000000 -0.000645 0.000000
# 3 -0.002073 -0.001709 0.005317 0.000000 -0.002155 0.000000
# 4 0.000000 0.000000 0.000000 0.022180 0.000000 -0.008241
# 5 -0.004426 -0.000645 -0.002155 0.000000 0.019536 0.000000
# 6 0.000000 0.000000 0.000000 -0.008241 0.000000 0.158706
#
#
# Mechanical properties :
#
#
# Convention : Reuss Voigt Hill
#
# Bulk Modulus (GPa) = 48.65693 73.58521 61.12107
# Shear Modulus (GPa) = 20.32982 44.40351 32.36666
#
# Velocity S-wave (km/s) = 2.73101 4.03613 3.44592
# Velocity P-wave (km/s) = 5.27212 6.97973 6.18514
#
# Compressibility (1/GPa) = 0.02055206
#
# Stress axis : x y z
#
# Youngs Moduli (GPa) = 82.15386 82.49254 188.07400
#
# Poissons Ratio (x) = 0.06169 0.38981
# Poissons Ratio (y) = 0.06143 0.32149
# Poissons Ratio (z) = 0.17028 0.14101
#
# Static dielectric constant tensor:
#      x y z
#    x 2.196610 0.000000 -0.001830 
#    y 0.000000 2.178530 0.000000 
#    z -0.001830 0.000000 2.191410 
# 
# From -- ./inp_files/8539.got.cif
#   From: 2010.05.17/outbox.cif.g08.bks.cpg/sg5_5_cif.got.tgz:8539.got - 2010.06.03 18:56:24.
