data_PCOD9122458
_publ_section_title
;
Structure prediction by ZEFSAII (Michael W. Deem and Ramdas Pophale) SiO2 
 PCOD9122458
Probable space group: C 2
;
_chemical_formula_sum "Si O2"
_cell_formula_units_Z 20
_cell_length_a 29.390967
_cell_length_b 5.240021
_cell_length_c 9.553483
_cell_angle_alpha 90.000000
_cell_angle_beta 143.432758
_cell_angle_gamma 90.000000
_cell_volume 876.565132
_symmetry_space_group_name_H-M "C 2"
_symmetry_group_IT_number 5
_symmetry_cell_setting 'monoclinic'
loop_
_space_group_symop_operation_xyz
x,y,z
-x,y,-z
1/2+x,1/2+y,z
1/2-x,1/2+y,-z
loop_
_atom_site_type_symbol
_atom_site_label
_atom_site_fract_x
_atom_site_fract_y
_atom_site_fract_z
Si Si1 0.337072 0.336640 0.310503
Si Si2 0.140889 0.831165 0.164803
Si Si3 0.496251 0.137236 0.328399
Si Si4 0.929697 0.331296 0.930152
Si Si5 0.255983 0.837062 0.207263
O O1 0.425264 0.259567 0.530128
O O2 0.316397 0.614137 0.320270
O O3 0.291280 0.117635 0.280095
O O4 0.305767 0.320910 0.072908
O O5 0.118742 0.592111 0.207922
O O6 0.072922 0.823861 0.881377
O O7 0.127456 0.095847 0.208499
O O8 0.216135 0.800169 0.258659
O O9 0.500000 0.083955 0.500000
O O10 0.471659 0.886780 0.181816
O O11 0.000000 0.297701 0.000000
#
# Coordination Sequence:
#
# PCOD9122458 Si02
#       5
#     4   4   4   4   4
#     4  10  20  33  53  83 126 149 188 230 304 343
#     4  10  21  37  60  84 115 152 202 234 288 343
#     4  10  22  37  61  94 118 147 195 254 287 341
#     4  10  22  38  62  88 114 157 196 244 288 348
#     4  10  20  34  53  84 120 160 179 236 294 359
#
# _framework density 22.816330000000001
#
# number of rings (size 3 to 8) (size 9 to 14) (size 15 to 20)
#    1.200    0.800    2.000    1.800    2.800    2.400 
#    0.000    0.000    0.000    4.800    0.000    0.000 
#    0.000    0.000    0.000    0.000    0.000    0.000 
#
# Total GULP energy -55862.082903 kJ/mol
# GULP energy per Si atom -5586.208290 kJ/mol
# Density = 2.276440 g / cm^3
# Si number density = 22.816330 Si / 1000 Ang^3
#
#
#
# Elastic Constant Matrix: (Units=GPa)
#
#
# Indices 1 2 3 4 5 6 
#
# 1 99.0202 33.1167 16.6778 0.0000 22.4598 0.0000
# 2 33.1167 119.4858 -17.5926 0.0000 -4.2521 0.0000
# 3 16.6778 -17.5926 67.9207 0.0000 -9.4216 0.0000
# 4 0.0000 0.0000 0.0000 -8.3935 0.0000 9.7337
# 5 22.4598 -4.2521 -9.4216 0.0000 30.5568 0.0000
# 6 0.0000 0.0000 0.0000 9.7337 0.0000 23.9243
#
#
#
# Elastic Compliance Matrix: (Units=1/GPa)
#
#
# Indices 1 2 3 4 5 6 
#
# 1 0.017374 -0.006604 -0.008227 0.000000 -0.016226 0.000000
# 2 -0.006604 0.011329 0.005691 0.000000 0.008185 0.000000
# 3 -0.008227 0.005691 0.020023 0.000000 0.013013 0.000000
# 4 0.000000 0.000000 0.000000 -0.080947 0.000000 0.032934
# 5 -0.016226 0.008185 0.013013 0.000000 0.049803 0.000000
# 6 0.000000 0.000000 0.000000 0.032934 0.000000 0.028399
#
#
# Mechanical properties :
#
#
# Convention : Reuss Voigt Hill
#
# Bulk Modulus (GPa) = 32.84616 38.98116 35.91366
# Shear Modulus (GPa) = 67.19643 26.16586 46.68114
#
# Velocity S-wave (km/s) = 5.43277 3.39012 4.52813
# Velocity P-wave (km/s) = 7.33351 5.69612 6.56606
#
# Compressibility (1/GPa) = 0.03044496
#
# Stress axis : x y z
#
# Youngs Moduli (GPa) = 57.55827 88.27021 49.94379
#
# Poissons Ratio (x) = 0.58294 0.41091
# Poissons Ratio (y) = 0.38012 -0.28425
# Poissons Ratio (z) = 0.47355 -0.50238
#
# Static dielectric constant tensor:
#      x y z
#    x 1.820600 0.000000 -0.044940 
#    y 0.000000 1.835940 0.000000 
#    z -0.044940 0.000000 1.866080 
# 
# From -- ./inp_files/47653.got.cif
#   From: 2010.05.17/outbox.cif.g08.bks.cpg/sg5_24_cif.got.tgz:47653.got - 2010.06.03 18:56:24.
