data_PCOD9122926
_publ_section_title
;
Structure prediction by ZEFSAII (Michael W. Deem and Ramdas Pophale) SiO2 
 PCOD9122926
Probable space group: C 2
;
_chemical_formula_sum "Si O2"
_cell_formula_units_Z 30
_cell_length_a 16.945589
_cell_length_b 8.479304
_cell_length_c 10.972484
_cell_angle_alpha 90.000000
_cell_angle_beta 118.723467
_cell_angle_gamma 90.000000
_cell_volume 1382.599410
_symmetry_space_group_name_H-M "C 2"
_symmetry_group_IT_number 5
_symmetry_cell_setting 'monoclinic'
loop_
_space_group_symop_operation_xyz
x,y,z
-x,y,-z
1/2+x,1/2+y,z
1/2-x,1/2+y,-z
loop_
_atom_site_type_symbol
_atom_site_label
_atom_site_fract_x
_atom_site_fract_y
_atom_site_fract_z
Si Si1 0.333110 0.544060 0.554886
Si Si2 0.975956 0.483474 0.721006
Si Si3 0.000000 0.040644 0.000000
Si Si4 0.202581 0.827257 0.858391
Si Si5 0.679745 0.954708 0.837418
Si Si6 0.861055 0.276355 0.805788
Si Si7 0.822743 0.357583 0.439203
Si Si8 0.002957 0.860721 0.745490
O O1 0.339731 0.661893 0.676348
O O2 0.252196 0.427348 0.524946
O O3 0.319728 0.668684 0.438233
O O4 0.424863 0.447711 0.613337
O O5 0.925563 0.411865 0.800827
O O6 0.916973 0.425225 0.561331
O O7 0.983205 0.673122 0.729930
O O8 0.076172 0.412856 0.789528
O O9 0.998346 0.932211 0.878847
O O10 0.914579 0.159126 0.936210
O O11 0.187515 0.641207 0.856323
O O12 0.273277 0.849534 0.802039
O O13 0.102795 0.895957 0.770117
O O14 0.250192 0.880960 0.017480
O O15 0.697678 0.914186 0.711005
#
# Coordination Sequence:
#
# PCOD9122926 Si02
#       8
#     4   4   2   4   4   4   4   4
#     4  10  22  42  72  96 130 176 228 277 343 395
#     4  10  23  41  69  97 133 177 232 275 341 399
#     4  10  20  36  64  88 138 178 224 274 338 396
#     4  11  23  42  66 100 138 178 223 274 342 396
#     4  11  24  43  67 100 137 182 220 283 334 400
#     4  10  20  40  66  92 132 182 218 278 333 403
#     4  11  22  44  71  95 133 180 230 283 334 406
#     4  10  23  40  65 101 131 173 225 282 339 397
#
# _framework density 21.698257999999999
#
# number of rings (size 3 to 8) (size 9 to 14) (size 15 to 20)
#    0.000    1.600    1.333    2.800    1.867    4.800 
#    4.800    0.000    5.867    0.000    0.000    0.000 
#    0.000    0.000    0.000    0.000    0.000    0.000 
#
# Total GULP energy -83890.702600 kJ/mol
# GULP energy per Si atom -5592.713507 kJ/mol
# Density = 2.164887 g / cm^3
# Si number density = 21.698258 Si / 1000 Ang^3
#
#
#
# Elastic Constant Matrix: (Units=GPa)
#
#
# Indices 1 2 3 4 5 6 
#
# 1 131.6165 37.8801 17.1364 0.0000 26.1226 0.0000
# 2 37.8801 89.6439 25.4306 0.0000 11.6902 0.0000
# 3 17.1364 25.4306 28.4129 0.0000 16.0914 0.0000
# 4 0.0000 0.0000 0.0000 12.0104 0.0000 16.7998
# 5 26.1226 11.6902 16.0914 0.0000 31.3321 0.0000
# 6 0.0000 0.0000 0.0000 16.7998 0.0000 27.7497
#
#
#
# Elastic Compliance Matrix: (Units=1/GPa)
#
#
# Indices 1 2 3 4 5 6 
#
# 1 0.009990 -0.003685 0.001708 0.000000 -0.007832 0.000000
# 2 -0.003685 0.016385 -0.015118 0.000000 0.004723 0.000000
# 3 0.001708 -0.015118 0.063892 0.000000 -0.028597 0.000000
# 4 0.000000 0.000000 0.000000 0.543548 0.000000 -0.329066
# 5 -0.007832 0.004723 -0.028597 0.000000 0.051370 0.000000
# 6 0.000000 0.000000 0.000000 -0.329066 0.000000 0.235254
#
#
# Mechanical properties :
#
#
# Convention : Reuss Voigt Hill
#
# Bulk Modulus (GPa) = 17.83221 45.61861 31.72541
# Shear Modulus (GPa) = 5.13705 25.50019 15.31862
#
# Velocity S-wave (km/s) = 1.54034 3.43186 2.65992
# Velocity P-wave (km/s) = 3.37633 6.06410 4.90780
#
# Compressibility (1/GPa) = 0.05607831
#
# Stress axis : x y z
#
# Youngs Moduli (GPa) = 100.09674 61.03136 15.65152
#
# Poissons Ratio (x) = 0.22489 -0.02673
# Poissons Ratio (y) = 0.36883 0.23661
# Poissons Ratio (z) = -0.17097 0.92265
#
# Static dielectric constant tensor:
#      x y z
#    x 1.810070 0.000000 0.018300 
#    y 0.000000 1.779640 0.000000 
#    z 0.018300 0.000000 1.796020 
# 
# From -- ./inp_files/44325.got.cif
#   From: 2010.05.17/outbox.cif.g08.bks.cpg/sg5_23_cif.got.tgz:44325.got - 2010.06.03 18:56:24.
