data_PCOD9122919
_publ_section_title
;
Structure prediction by ZEFSAII (Michael W. Deem and Ramdas Pophale) SiO2 
 PCOD9122919
Probable space group: C 2
;
_chemical_formula_sum "Si O2"
_cell_formula_units_Z 22
_cell_length_a 5.460936
_cell_length_b 24.617123
_cell_length_c 7.268455
_cell_angle_alpha 90.000000
_cell_angle_beta 106.708701
_cell_angle_gamma 90.000000
_cell_volume 935.861817
_symmetry_space_group_name_H-M "C 2"
_symmetry_group_IT_number 5
_symmetry_cell_setting 'monoclinic'
loop_
_space_group_symop_operation_xyz
x,y,z
-x,y,-z
1/2+x,1/2+y,z
1/2-x,1/2+y,-z
loop_
_atom_site_type_symbol
_atom_site_label
_atom_site_fract_x
_atom_site_fract_y
_atom_site_fract_z
Si Si1 0.301718 0.129380 0.625578
Si Si2 0.465118 0.905089 0.213374
Si Si3 0.522287 0.242432 0.728739
Si Si4 0.000000 0.956395 0.000000
Si Si5 0.276742 0.510152 0.299493
Si Si6 0.978579 0.284466 0.287567
O O1 0.500000 0.125422 0.500000
O O2 0.411401 0.182664 0.750403
O O3 0.000000 0.136123 0.500000
O O4 0.327956 0.071170 0.727426
O O5 0.599692 0.959244 0.314610
O O6 0.554791 0.847770 0.307449
O O7 0.500000 0.901713 0.000000
O O8 0.166632 0.917745 0.166750
O O9 0.500000 0.250385 0.500000
O O10 0.327489 0.280438 0.799533
O O11 0.824577 0.254371 0.805822
O O12 0.145359 0.994936 0.890532
O O13 0.500000 0.511437 0.500000
O O14 0.000000 0.261621 0.500000
#
# Coordination Sequence:
#
# PCOD9122919 Si02
#       6
#     4   4   4   2   4   4
#     4  10  20  36  63  96 130 166 215 271 329 394
#     4  10  24  41  60  89 130 175 211 275 329 391
#     4   9  18  35  56  93 124 156 204 267 318 378
#     4  10  24  44  60  94 142 170 220 274 336 388
#     4  10  24  39  68  98 126 177 220 271 330 399
#     4  10  21  34  63  91 121 159 212 262 318 383
#
# _framework density 23.507745
#
# number of rings (size 3 to 8) (size 9 to 14) (size 15 to 20)
#    0.000    2.182    0.000    2.727   12.727    0.727 
#    0.000    0.000    2.000    0.000    0.000    0.000 
#    0.000    0.000    0.000    0.000    0.000    0.000 
#
# Total GULP energy -61304.059038 kJ/mol
# GULP energy per Si atom -5573.096276 kJ/mol
# Density = 2.345424 g / cm^3
# Si number density = 23.507745 Si / 1000 Ang^3
#
#
#
# Elastic Constant Matrix: (Units=GPa)
#
#
# Indices 1 2 3 4 5 6 
#
# 1 160.7341 55.6411 19.0628 0.0000 1.3163 0.0000
# 2 55.6411 182.1128 0.7818 0.0000 8.1887 0.0000
# 3 19.0628 0.7818 59.0825 0.0000 6.2159 0.0000
# 4 0.0000 0.0000 0.0000 67.0150 0.0000 24.1518
# 5 1.3163 8.1887 6.2159 0.0000 28.0644 0.0000
# 6 0.0000 0.0000 0.0000 24.1518 0.0000 28.3284
#
#
#
# Elastic Compliance Matrix: (Units=1/GPa)
#
#
# Indices 1 2 3 4 5 6 
#
# 1 0.007280 -0.002252 -0.002408 0.000000 0.000849 0.000000
# 2 -0.002252 0.006261 0.000845 0.000000 -0.001908 0.000000
# 3 -0.002408 0.000845 0.018128 0.000000 -0.004149 0.000000
# 4 0.000000 0.000000 0.000000 0.021541 0.000000 -0.018365
# 5 0.000849 -0.001908 -0.004149 0.000000 0.037068 0.000000
# 6 0.000000 0.000000 0.000000 -0.018365 0.000000 0.050957
#
#
# Mechanical properties :
#
#
# Convention : Reuss Voigt Hill
#
# Bulk Modulus (GPa) = 41.60207 61.43343 51.51775
# Shear Modulus (GPa) = 31.87174 46.44449 39.15812
#
# Velocity S-wave (km/s) = 3.68611 4.44972 4.08579
# Velocity P-wave (km/s) = 5.98767 7.25190 6.64989
#
# Compressibility (1/GPa) = 0.02403727
#
# Stress axis : x y z
#
# Youngs Moduli (GPa) = 137.36836 159.71008 55.16391
#
# Poissons Ratio (x) = 0.35967 0.13285
# Poissons Ratio (y) = 0.30936 -0.04659
# Poissons Ratio (z) = 0.33082 -0.13488
#
# Static dielectric constant tensor:
#      x y z
#    x 2.114410 0.000000 0.076750 
#    y 0.000000 1.921400 0.000000 
#    z 0.076750 0.000000 1.945060 
# 
# From -- ./inp_files/12780.got.cif
#   From: 2010.05.17/outbox.cif.g08.bks.cpg/sg5_7_cif.got.tgz:12780.got - 2010.06.03 18:56:24.
