data_PCOD9122598
_publ_section_title
;
Structure prediction by ZEFSAII (Michael W. Deem and Ramdas Pophale) SiO2 
 PCOD9122598
Probable space group: C 2
;
_chemical_formula_sum "Si O2"
_cell_formula_units_Z 28
_cell_length_a 12.474252
_cell_length_b 9.161578
_cell_length_c 13.700734
_cell_angle_alpha 90.000000
_cell_angle_beta 132.117976
_cell_angle_gamma 90.000000
_cell_volume 1161.435886
_symmetry_space_group_name_H-M "C 2"
_symmetry_group_IT_number 5
_symmetry_cell_setting 'monoclinic'
loop_
_space_group_symop_operation_xyz
x,y,z
-x,y,-z
1/2+x,1/2+y,z
1/2-x,1/2+y,-z
loop_
_atom_site_type_symbol
_atom_site_label
_atom_site_fract_x
_atom_site_fract_y
_atom_site_fract_z
Si Si1 0.134504 0.251640 0.738722
Si Si2 0.000000 0.035653 0.500000
Si Si3 0.038713 0.542060 0.628631
Si Si4 0.611054 0.171471 0.982931
Si Si5 0.188611 0.802380 0.508386
Si Si6 0.850043 0.165507 0.767524
Si Si7 0.106849 0.851810 0.246504
Si Si8 0.500000 0.888937 0.000000
O O1 0.054328 0.404768 0.707830
O O2 0.266242 0.289580 0.744205
O O3 0.047031 0.131688 0.622573
O O4 0.223762 0.205127 0.889610
O O5 0.873005 0.926791 0.457310
O O6 0.192352 0.619513 0.710373
O O7 0.000000 0.472854 0.500000
O O8 0.920924 0.666098 0.570927
O O9 0.533717 0.245918 0.843121
O O10 0.589668 0.999147 0.985184
O O11 0.500000 0.231357 0.000000
O O12 0.325154 0.732317 0.645123
O O13 0.186198 0.866960 0.399216
O O14 0.909264 0.285841 0.875309
O O15 0.936679 0.014157 0.813912
#
# Coordination Sequence:
#
# PCOD9122598 Si02
#       8
#     4   2   4   4   4   4   4   2
#     4  10  20  38  63  82 113 161 203 237 291 362
#     4  12  22  36  60  86 122 160 196 238 302 364
#     4   9  18  37  57  84 109 157 194 232 295 357
#     4   8  19  36  57  88 112 154 199 243 287 341
#     4  11  23  39  58  92 124 150 197 253 296 348
#     4  10  21  36  61  88 116 159 195 240 298 352
#     4  10  23  38  62  88 121 150 204 252 292 341
#     4  10  20  34  62  88 118 154 204 238 288 358
#
# _framework density 24.108089
#
# number of rings (size 3 to 8) (size 9 to 14) (size 15 to 20)
#    0.429    1.714    2.857    0.857    7.000    0.000 
#    0.000    2.857    0.000    0.000    0.000    0.000 
#    0.000    0.000    0.000    0.000    0.000    0.000 
#
# Total GULP energy -78182.908246 kJ/mol
# GULP energy per Si atom -5584.493446 kJ/mol
# Density = 2.405322 g / cm^3
# Si number density = 24.108089 Si / 1000 Ang^3
#
#
#
# Elastic Constant Matrix: (Units=GPa)
#
#
# Indices 1 2 3 4 5 6 
#
# 1 34.8672 25.2924 3.7961 0.0000 -2.2493 0.0000
# 2 25.2924 172.4563 78.0707 0.0000 23.4338 0.0000
# 3 3.7961 78.0707 141.0185 0.0000 13.8539 0.0000
# 4 0.0000 0.0000 0.0000 49.4471 0.0000 13.2533
# 5 -2.2493 23.4338 13.8539 0.0000 21.3471 0.0000
# 6 0.0000 0.0000 0.0000 13.2533 0.0000 16.1484
#
#
#
# Elastic Compliance Matrix: (Units=1/GPa)
#
#
# Indices 1 2 3 4 5 6 
#
# 1 0.034532 -0.007468 0.002181 0.000000 0.010421 0.000000
# 2 -0.007468 0.010177 -0.004548 0.000000 -0.009007 0.000000
# 3 0.002181 -0.004548 0.009653 0.000000 -0.001042 0.000000
# 4 0.000000 0.000000 0.000000 0.025927 0.000000 -0.021279
# 5 0.010421 -0.009007 -0.001042 0.000000 0.058506 0.000000
# 6 0.000000 0.000000 0.000000 -0.021279 0.000000 0.079390
#
#
# Mechanical properties :
#
#
# Convention : Reuss Voigt Hill
#
# Bulk Modulus (GPa) = 28.82536 62.51783 45.67160
# Shear Modulus (GPa) = 20.04667 33.46737 26.75702
#
# Velocity S-wave (km/s) = 2.88676 3.72993 3.33510
# Velocity P-wave (km/s) = 4.80561 6.67371 5.81516
#
# Compressibility (1/GPa) = 0.03469167
#
# Stress axis : x y z
#
# Youngs Moduli (GPa) = 28.95849 98.26505 103.59641
#
# Poissons Ratio (x) = 0.73383 -0.22594
# Poissons Ratio (y) = 0.21626 0.47117
# Poissons Ratio (z) = -0.06316 0.44692
#
# Static dielectric constant tensor:
#      x y z
#    x 1.975160 0.000000 -0.005080 
#    y 0.000000 1.902390 0.000000 
#    z -0.005080 0.000000 1.990870 
# 
# From -- ./inp_files/56943.got.cif
#   From: 2010.05.17/outbox.cif.g08.bks.cpg/sg5_29_cif.got.tgz:56943.got - 2010.06.03 18:56:24.
