data_PCOD9122718
_publ_section_title
;
Structure prediction by ZEFSAII (Michael W. Deem and Ramdas Pophale) SiO2 
 PCOD9122718
Probable space group: C 2
;
_chemical_formula_sum "Si O2"
_cell_formula_units_Z 22
_cell_length_a 12.153002
_cell_length_b 13.030880
_cell_length_c 8.849025
_cell_angle_alpha 90.000000
_cell_angle_beta 114.037744
_cell_angle_gamma 90.000000
_cell_volume 1279.839203
_symmetry_space_group_name_H-M "C 2"
_symmetry_group_IT_number 5
_symmetry_cell_setting 'monoclinic'
loop_
_space_group_symop_operation_xyz
x,y,z
-x,y,-z
1/2+x,1/2+y,z
1/2-x,1/2+y,-z
loop_
_atom_site_type_symbol
_atom_site_label
_atom_site_fract_x
_atom_site_fract_y
_atom_site_fract_z
Si Si1 0.500000 0.875000 0.000000
Si Si2 0.888166 0.929111 0.544108
Si Si3 0.016912 0.543542 0.751323
Si Si4 0.749378 0.793773 0.236967
Si Si5 0.972919 0.778494 0.155341
Si Si6 0.703752 0.069293 0.605477
O O1 0.383869 0.807086 0.899394
O O2 0.512756 0.951253 0.865472
O O3 0.788986 0.882749 0.374906
O O4 0.000000 0.964777 0.500000
O O5 0.939684 0.837507 0.678431
O O6 0.823072 0.012800 0.612610
O O7 0.900275 0.551937 0.577782
O O8 0.017260 0.655443 0.828754
O O9 0.137869 0.529228 0.719763
O O10 0.840488 0.800842 0.146606
O O11 0.770483 0.687769 0.339242
O O12 0.000000 0.811920 0.000000
#
# Coordination Sequence:
#
# PCOD9122718 Si02
#       6
#     2   4   4   4   4   4
#     4  12  22  38  56  94 118 150 186 258 288 326
#     4  10  20  38  60  81 114 157 197 234 286 350
#     4  10  20  35  64  81 112 149 203 232 280 343
#     4  10  22  38  58  82 124 148 189 245 296 334
#     4  10  20  37  59  86 109 155 197 238 279 353
#     4  10  20  40  57  84 112 159 192 237 285 350
#
# _framework density 17.189658000000001
#
# number of rings (size 3 to 8) (size 9 to 14) (size 15 to 20)
#    0.000    1.818    4.545    0.000    2.545    0.000 
#    1.636    5.455    0.000    0.000    0.000    0.000 
#    0.000    0.000    0.000    0.000    0.000    0.000 
#
# Total GULP energy -61291.239790 kJ/mol
# GULP energy per Si atom -5571.930890 kJ/mol
# Density = 1.715053 g / cm^3
# Si number density = 17.189658 Si / 1000 Ang^3
#
#
#
# Elastic Constant Matrix: (Units=GPa)
#
#
# Indices 1 2 3 4 5 6 
#
# 1 120.4777 45.9498 54.0312 0.0000 -4.7052 0.0000
# 2 45.9498 48.3057 17.8667 0.0000 -12.9181 0.0000
# 3 54.0312 17.8667 81.8839 0.0000 -6.5322 0.0000
# 4 0.0000 0.0000 0.0000 26.6494 0.0000 -2.1115
# 5 -4.7052 -12.9181 -6.5322 0.0000 34.7267 0.0000
# 6 0.0000 0.0000 0.0000 -2.1115 0.0000 22.3379
#
#
#
# Elastic Compliance Matrix: (Units=1/GPa)
#
#
# Indices 1 2 3 4 5 6 
#
# 1 0.017774 -0.014916 -0.008857 0.000000 -0.004807 0.000000
# 2 -0.014916 0.037182 0.002713 0.000000 0.012321 0.000000
# 3 -0.008857 0.002713 0.017715 0.000000 0.003141 0.000000
# 4 0.000000 0.000000 0.000000 0.037807 0.000000 0.003574
# 5 -0.004807 0.012321 0.003141 0.000000 0.033319 0.000000
# 6 0.000000 0.000000 0.000000 0.003574 0.000000 0.045105
#
#
# Mechanical properties :
#
#
# Convention : Reuss Voigt Hill
#
# Bulk Modulus (GPa) = 32.73348 54.04031 43.38689
# Shear Modulus (GPa) = 20.72907 25.59741 23.16324
#
# Velocity S-wave (km/s) = 3.47638 3.86309 3.67483
# Velocity P-wave (km/s) = 5.93275 7.16965 6.58033
#
# Compressibility (1/GPa) = 0.03054976
#
# Stress axis : x y z
#
# Youngs Moduli (GPa) = 56.26291 26.89467 56.44845
#
# Poissons Ratio (x) = 0.40117 0.49995
# Poissons Ratio (y) = 0.83924 -0.15312
# Poissons Ratio (z) = 0.49831 -0.07295
#
# Static dielectric constant tensor:
#      x y z
#    x 1.583550 0.000000 -0.005610 
#    y 0.000000 1.563170 0.000000 
#    z -0.005610 0.000000 1.579110 
# 
# From -- ./inp_files/14913.got.cif
#   From: 2010.05.17/outbox.cif.g08.bks.cpg/sg5_8_cif.got.tgz:14913.got - 2010.06.03 18:56:24.
