data_PCOD9122246
_publ_section_title
;
Structure prediction by ZEFSAII (Michael W. Deem and Ramdas Pophale) SiO2 
 PCOD9122246
Probable space group: C 2
;
_chemical_formula_sum "Si O2"
_cell_formula_units_Z 18
_cell_length_a 19.905964
_cell_length_b 4.855771
_cell_length_c 10.988021
_cell_angle_alpha 90.000000
_cell_angle_beta 39.190517
_cell_angle_gamma 90.000000
_cell_volume 671.135108
_symmetry_space_group_name_H-M "C 2"
_symmetry_group_IT_number 5
_symmetry_cell_setting 'monoclinic'
loop_
_space_group_symop_operation_xyz
x,y,z
-x,y,-z
1/2+x,1/2+y,z
1/2-x,1/2+y,-z
loop_
_atom_site_type_symbol
_atom_site_label
_atom_site_fract_x
_atom_site_fract_y
_atom_site_fract_z
Si Si1 0.361480 0.716000 0.100801
Si Si2 0.151195 0.954633 0.482294
Si Si3 0.000000 0.808913 0.500000
Si Si4 0.640123 0.212643 0.752728
Si Si5 0.827764 0.482377 0.899544
O O1 0.233670 0.753659 0.295466
O O2 0.393657 0.411518 0.090177
O O3 0.395666 0.908407 0.165112
O O4 0.383073 0.845279 0.940185
O O5 0.111344 0.815016 0.661218
O O6 0.058516 0.998777 0.517414
O O7 0.230441 0.194397 0.416851
O O8 0.915916 0.618182 0.690020
O O9 0.746533 0.734265 0.048721
#
# Coordination Sequence:
#
# PCOD9122246 Si02
#       5
#     4   4   2   4   4
#     4  10  20  40  73  98 141 197 239 288 365 431
#     4  10  21  42  74 112 145 188 252 295 367 441
#     4  12  28  48  76 122 140 196 252 306 366 440
#     4  10  19  39  75 103 141 201 237 294 374 432
#     4  12  26  49  71 107 159 193 237 308 376 435
#
# _framework density 26.820229999999999
#
# number of rings (size 3 to 8) (size 9 to 14) (size 15 to 20)
#    1.333    0.000    4.444    1.333    0.000    0.889 
#    4.000    1.111    0.000    5.333    0.000    0.000 
#    0.000    0.000    0.000    0.000    0.000    0.000 
#
# Total GULP energy -50347.296244 kJ/mol
# GULP energy per Si atom -5594.144027 kJ/mol
# Density = 2.675919 g / cm^3
# Si number density = 26.820230 Si / 1000 Ang^3
#
#
#
# Elastic Constant Matrix: (Units=GPa)
#
#
# Indices 1 2 3 4 5 6 
#
# 1 177.3032 -10.7924 43.1850 -0.0028 9.9749 0.0012
# 2 -10.7924 58.3475 8.7625 -0.0194 -1.5681 0.0106
# 3 43.1850 8.7625 141.1765 -0.0143 5.7341 0.0050
# 4 -0.0028 -0.0194 -0.0143 28.6165 0.0031 17.3700
# 5 9.9749 -1.5681 5.7341 0.0031 35.9825 0.0000
# 6 0.0012 0.0106 0.0050 17.3700 0.0000 15.8910
#
#
#
# Elastic Compliance Matrix: (Units=1/GPa)
#
#
# Indices 1 2 3 4 5 6 
#
# 1 0.006279 0.001418 -0.001953 0.000004 -0.001368 -0.000005
# 2 0.001418 0.017651 -0.001555 0.000054 0.000624 -0.000070
# 3 -0.001953 -0.001555 0.007809 0.000010 -0.000771 -0.000013
# 4 0.000004 0.000054 0.000010 0.103844 -0.000009 -0.113509
# 5 -0.001368 0.000624 -0.000771 -0.000009 0.028320 0.000010
# 6 -0.000005 -0.000070 -0.000013 -0.113509 0.000010 0.187003
#
#
# Mechanical properties :
#
#
# Convention : Reuss Voigt Hill
#
# Bulk Modulus (GPa) = 36.28554 51.01527 43.65040
# Shear Modulus (GPa) = 13.72599 38.47612 26.10105
#
# Velocity S-wave (km/s) = 2.26470 3.79171 3.12298
# Velocity P-wave (km/s) = 4.51631 6.18320 5.41429
#
# Compressibility (1/GPa) = 0.02755919
#
# Stress axis : x y z
#
# Youngs Moduli (GPa) = 159.26010 56.65317 128.06405
#
# Poissons Ratio (x) = -0.08033 0.25013
# Poissons Ratio (y) = -0.22583 0.19910
# Poissons Ratio (z) = 0.31106 0.08808
#
# Static dielectric constant tensor:
#      x y z
#    x 2.131420 0.000000 -0.116900 
#    y 0.000000 2.027130 0.000000 
#    z -0.116900 0.000000 2.157880 
# 
# From -- ./inp_files/45279.got.cif
#   From: 2010.05.17/outbox.cif.g08.bks.cpg/sg5_23_cif.got.tgz:45279.got - 2010.06.03 18:56:24.
