data_PCOD9122113
_publ_section_title
;
Structure prediction by ZEFSAII (Michael W. Deem and Ramdas Pophale) SiO2 
 PCOD9122113
Probable space group: C 2
;
_chemical_formula_sum "Si O2"
_cell_formula_units_Z 28
_cell_length_a 20.752512
_cell_length_b 7.018677
_cell_length_c 24.956517
_cell_angle_alpha 90.000000
_cell_angle_beta 20.313016
_cell_angle_gamma 90.000000
_cell_volume 1261.901491
_symmetry_space_group_name_H-M "C 2"
_symmetry_group_IT_number 5
_symmetry_cell_setting 'monoclinic'
loop_
_space_group_symop_operation_xyz
x,y,z
-x,y,-z
1/2+x,1/2+y,z
1/2-x,1/2+y,-z
loop_
_atom_site_type_symbol
_atom_site_label
_atom_site_fract_x
_atom_site_fract_y
_atom_site_fract_z
Si Si1 0.324175 0.525070 0.993836
Si Si2 0.466608 0.215717 0.715522
Si Si3 0.969781 0.281117 0.243759
Si Si4 0.641085 0.620420 0.554178
Si Si5 0.480588 0.932506 0.604719
Si Si6 0.813960 0.757506 0.620706
Si Si7 0.903241 0.008900 0.131990
O O1 0.155777 0.402801 0.103091
O O2 0.221543 0.702652 0.103638
O O3 0.462403 0.590976 0.840096
O O4 0.445850 0.423914 0.944903
O O5 0.534861 0.420455 0.642070
O O6 0.635377 0.126867 0.618898
O O7 0.441710 0.077055 0.684382
O O8 0.904991 0.221286 0.352979
O O9 0.804002 0.356049 0.334518
O O10 0.572877 0.748836 0.558582
O O11 0.282335 0.887376 0.733165
O O12 0.609643 0.059423 0.465429
O O13 0.676856 0.697479 0.775752
O O14 0.000000 0.851877 0.500000
O O15 0.000000 0.047232 0.000000
#
# Coordination Sequence:
#
# PCOD9122113 Si02
#       7
#     4   4   4   4   4   4   4
#     4  11  23  37  64  90 126 168 205 260 310 369
#     4  12  21  36  61  92 122 160 202 259 308 366
#     4  11  20  38  57  91 123 160 210 251 306 368
#     4  12  22  37  63  94 123 161 211 256 311 369
#     4  11  21  40  62  89 123 162 210 253 312 369
#     4   9  20  35  63  89 122 166 206 255 310 368
#     4  10  19  38  65  87 121 171 204 246 323 367
#
# _framework density 22.188737
#
# number of rings (size 3 to 8) (size 9 to 14) (size 15 to 20)
#    0.000    1.143    5.714    0.857    0.000    1.143 
#    0.000    0.000   18.857    4.286    0.000    0.000 
#    0.000    0.000    0.000    0.000    0.000    0.000 
#
# Total GULP energy -78201.952852 kJ/mol
# GULP energy per Si atom -5585.853775 kJ/mol
# Density = 2.213823 g / cm^3
# Si number density = 22.188737 Si / 1000 Ang^3
#
#
#
# Elastic Constant Matrix: (Units=GPa)
#
#
# Indices 1 2 3 4 5 6 
#
# 1 122.1218 15.8684 49.4007 0.0000 -35.1762 0.0000
# 2 15.8684 48.9269 0.5966 0.0011 -18.8111 -0.0035
# 3 49.4007 0.5966 113.5093 -0.0017 -22.7427 -0.0014
# 4 0.0000 0.0011 -0.0017 21.1295 0.0001 -8.2296
# 5 -35.1762 -18.8111 -22.7427 0.0001 59.9453 -0.0004
# 6 0.0000 -0.0035 -0.0014 -8.2296 -0.0004 30.4361
#
#
#
# Elastic Compliance Matrix: (Units=1/GPa)
#
#
# Indices 1 2 3 4 5 6 
#
# 1 0.011375 -0.001889 -0.004028 0.000000 0.004554 0.000000
# 2 -0.001889 0.023779 0.002132 0.000000 0.007162 0.000003
# 3 -0.004028 0.002132 0.011052 0.000001 0.002498 0.000001
# 4 0.000000 0.000000 0.000001 0.052898 0.000000 0.014303
# 5 0.004554 0.007162 0.002498 0.000000 0.022550 0.000001
# 6 0.000000 0.000003 0.000001 0.014303 0.000001 0.036723
#
#
# Mechanical properties :
#
#
# Convention : Reuss Voigt Hill
#
# Bulk Modulus (GPa) = 25.88253 46.25438 36.06846
# Shear Modulus (GPa) = 27.95999 36.88168 32.42083
#
# Velocity S-wave (km/s) = 3.55364 4.08141 3.82663
# Velocity P-wave (km/s) = 5.34114 6.56518 5.98454
#
# Compressibility (1/GPa) = 0.03863610
#
# Stress axis : x y z
#
# Youngs Moduli (GPa) = 87.90980 42.05370 90.47788
#
# Poissons Ratio (x) = 0.07946 0.36447
# Poissons Ratio (y) = 0.16610 -0.19293
# Poissons Ratio (z) = 0.35413 -0.08967
#
# Static dielectric constant tensor:
#      x y z
#    x 1.867990 0.000000 -0.008410 
#    y 0.000000 1.827210 0.000000 
#    z -0.008410 0.000000 1.847960 
# 
# From -- ./inp_files/71037.got.cif
#   From: 2010.05.17/outbox.cif.g08.bks.cpg/sg5_36_cif.got.tgz:71037.got - 2010.06.03 18:56:24.
