data_PCOD9122157
_publ_section_title
;
Structure prediction by ZEFSAII (Michael W. Deem and Ramdas Pophale) SiO2 
 PCOD9122157
Probable space group: C 2
;
_chemical_formula_sum "Si O2"
_cell_formula_units_Z 30
_cell_length_a 8.981418
_cell_length_b 10.649432
_cell_length_c 30.225213
_cell_angle_alpha 90.000000
_cell_angle_beta 150.363998
_cell_angle_gamma 90.000000
_cell_volume 1429.540901
_symmetry_space_group_name_H-M "C 2"
_symmetry_group_IT_number 5
_symmetry_cell_setting 'monoclinic'
loop_
_space_group_symop_operation_xyz
x,y,z
-x,y,-z
1/2+x,1/2+y,z
1/2-x,1/2+y,-z
loop_
_atom_site_type_symbol
_atom_site_label
_atom_site_fract_x
_atom_site_fract_y
_atom_site_fract_z
Si Si1 0.847330 0.388400 0.187182
Si Si2 0.691642 0.160733 0.837361
Si Si3 0.548220 0.712206 0.637184
Si Si4 0.903129 0.135017 0.790348
Si Si5 0.227000 0.897525 0.899994
Si Si6 0.012072 0.940144 0.605238
Si Si7 0.500000 0.394243 0.500000
Si Si8 0.224091 0.703291 0.402714
O O1 0.798651 0.514911 0.145241
O O2 0.551995 0.366103 0.139895
O O3 0.940500 0.262061 0.186182
O O4 0.131288 0.425743 0.291841
O O5 0.343729 0.204754 0.743662
O O6 0.828241 0.153778 0.823061
O O7 0.834625 0.271390 0.903030
O O8 0.414611 0.572045 0.600873
O O9 0.668616 0.737839 0.618608
O O10 0.297934 0.809793 0.585386
O O11 0.581499 0.124094 0.682138
O O12 0.101999 0.010032 0.836878
O O13 0.500000 0.948028 0.000000
O O14 0.949037 0.942744 0.537143
O O15 0.857432 0.824630 0.589697
O O16 0.500000 0.641073 0.500000
#
# Coordination Sequence:
#
# PCOD9122157 Si02
#       8
#     4   4   4   4   4   4   2   4
#     4   9  20  41  61  84 121 158 198 248 302 359
#     4   9  20  41  60  84 121 158 198 248 305 357
#     4  10  22  36  54  80 116 155 197 247 291 341
#     4   9  21  40  64  89 124 164 199 249 302 357
#     4  11  23  40  64  93 123 153 197 256 312 370
#     4  10  22  37  55  80 116 156 197 249 290 339
#     4  12  22  30  52  84 108 150 202 236 286 344
#     4  10  19  39  58  83 122 160 203 245 287 341
#
# _framework density 20.985759999999999
#
# number of rings (size 3 to 8) (size 9 to 14) (size 15 to 20)
#    0.000    2.133    1.333    1.600    1.867    3.200 
#    0.000    7.333    0.000    0.000    0.000    0.000 
#    0.000    0.000    0.000    0.000    0.000    0.000 
#
# Total GULP energy -83708.198353 kJ/mol
# GULP energy per Si atom -5580.546557 kJ/mol
# Density = 2.093800 g / cm^3
# Si number density = 20.985760 Si / 1000 Ang^3
#
#
#
# Elastic Constant Matrix: (Units=GPa)
#
#
# Indices 1 2 3 4 5 6 
#
# 1 28.4292 19.9238 7.8825 0.0000 3.3516 0.0000
# 2 19.9238 89.1822 17.3426 0.0000 -15.2845 0.0000
# 3 7.8825 17.3426 51.9356 0.0001 -5.2519 0.0001
# 4 0.0000 0.0000 0.0001 20.2443 0.0000 -14.4423
# 5 3.3516 -15.2845 -5.2519 0.0000 15.7244 0.0000
# 6 0.0000 0.0000 0.0001 -14.4423 0.0000 22.6723
#
#
#
# Elastic Compliance Matrix: (Units=1/GPa)
#
#
# Indices 1 2 3 4 5 6 
#
# 1 0.050185 -0.014763 -0.005402 0.000000 -0.026851 0.000000
# 2 -0.014763 0.018360 -0.001829 0.000000 0.020382 0.000000
# 3 -0.005402 -0.001829 0.021343 0.000000 0.006502 0.000000
# 4 0.000000 0.000000 0.000000 0.090542 0.000000 0.057676
# 5 -0.026851 0.020382 0.006502 0.000000 0.091302 0.000000
# 6 0.000000 0.000000 0.000000 0.057676 0.000000 0.080846
#
#
# Mechanical properties :
#
#
# Convention : Reuss Voigt Hill
#
# Bulk Modulus (GPa) = 21.78700 28.87164 25.32932
# Shear Modulus (GPa) = 12.13986 20.02141 16.08064
#
# Velocity S-wave (km/s) = 2.40777 3.09212 2.77115
# Velocity P-wave (km/s) = 4.25842 5.15130 4.72599
#
# Compressibility (1/GPa) = 0.04589892
#
# Stress axis : x y z
#
# Youngs Moduli (GPa) = 19.92638 54.46635 46.85411
#
# Poissons Ratio (x) = 0.80408 0.25312
# Poissons Ratio (y) = 0.29417 0.08570
# Poissons Ratio (z) = 0.10765 0.09962
#
# Static dielectric constant tensor:
#      x y z
#    x 1.707460 0.000000 -0.001680 
#    y 0.000000 1.889440 0.000000 
#    z -0.001680 0.000000 1.776460 
# 
# From -- ./inp_files/50317.got.cif
#   From: 2010.05.17/outbox.cif.g08.bks.cpg/sg5_26_cif.got.tgz:50317.got - 2010.06.03 18:56:24.
