data_PCOD9122685
_publ_section_title
;
Structure prediction by ZEFSAII (Michael W. Deem and Ramdas Pophale) SiO2 
 PCOD9122685
Probable space group: C 2
;
_chemical_formula_sum "Si O2"
_cell_formula_units_Z 20
_cell_length_a 13.645503
_cell_length_b 5.200936
_cell_length_c 22.780606
_cell_angle_alpha 90.000000
_cell_angle_beta 147.462413
_cell_angle_gamma 90.000000
_cell_volume 869.560378
_symmetry_space_group_name_H-M "C 2"
_symmetry_group_IT_number 5
_symmetry_cell_setting 'monoclinic'
loop_
_space_group_symop_operation_xyz
x,y,z
-x,y,-z
1/2+x,1/2+y,z
1/2-x,1/2+y,-z
loop_
_atom_site_type_symbol
_atom_site_label
_atom_site_fract_x
_atom_site_fract_y
_atom_site_fract_z
Si Si1 0.602511 0.218840 0.865798
Si Si2 0.373042 0.197164 0.632558
Si Si3 0.022487 0.215184 0.901991
Si Si4 0.502755 0.504929 0.588429
Si Si5 0.853287 0.505749 0.309466
O O1 0.483447 0.224911 0.747634
O O2 0.574937 0.492763 0.882476
O O3 0.541791 0.987672 0.878673
O O4 0.822482 0.195887 0.969932
O O5 0.412129 0.429267 0.606347
O O6 0.478688 0.975998 0.650175
O O7 0.162964 0.121962 0.532271
O O8 0.815411 0.132893 0.810165
O O9 0.587997 0.227931 0.614795
O O10 0.658718 0.721274 0.671497
#
# Coordination Sequence:
#
# PCOD9122685 Si02
#       5
#     4   4   4   4   4
#     4  10  23  38  63  79 116 157 187 233 289 343
#     4  10  21  37  63  82 115 149 196 222 293 334
#     4  10  22  42  55  86 117 149 192 237 284 335
#     4  10  20  35  60  86 113 147 183 243 274 339
#     4  10  20  36  61  80 121 142 188 240 279 326
#
# _framework density 23.000131
#
# number of rings (size 3 to 8) (size 9 to 14) (size 15 to 20)
#    1.200    0.800    2.000    1.200    2.800    0.800 
#    0.000    6.000    4.400    0.000    0.000    0.000 
#    0.000    0.000    0.000    0.000    0.000    0.000 
#
# Total GULP energy -55699.507984 kJ/mol
# GULP energy per Si atom -5569.950798 kJ/mol
# Density = 2.294778 g / cm^3
# Si number density = 23.000131 Si / 1000 Ang^3
#
#
#
# Elastic Constant Matrix: (Units=GPa)
#
#
# Indices 1 2 3 4 5 6 
#
# 1 27.9682 9.0781 25.2366 -0.0003 4.2498 0.0000
# 2 9.0781 92.3148 39.1486 -0.0012 1.8817 0.0013
# 3 25.2366 39.1486 184.8983 0.0001 -2.8684 0.0003
# 4 -0.0003 -0.0012 0.0001 39.3878 0.0002 27.7342
# 5 4.2498 1.8817 -2.8684 0.0002 44.4774 0.0003
# 6 0.0000 0.0013 0.0003 27.7342 0.0003 50.1453
#
#
#
# Elastic Compliance Matrix: (Units=1/GPa)
#
#
# Indices 1 2 3 4 5 6 
#
# 1 0.041850 -0.001733 -0.005411 0.000000 -0.004274 0.000000
# 2 -0.001733 0.011993 -0.002310 0.000001 -0.000491 -0.000001
# 3 -0.005411 -0.002310 0.006652 0.000000 0.001044 0.000000
# 4 0.000000 0.000001 0.000000 0.041582 0.000000 -0.022998
# 5 -0.004274 -0.000491 0.001044 0.000000 0.022980 0.000000
# 6 0.000000 -0.000001 0.000000 -0.022998 0.000000 0.032662
#
#
# Mechanical properties :
#
#
# Convention : Reuss Voigt Hill
#
# Bulk Modulus (GPa) = 24.04724 50.23422 37.14073
# Shear Modulus (GPa) = 26.24803 42.24997 34.24900
#
# Velocity S-wave (km/s) = 3.38185 4.29061 3.86304
# Velocity P-wave (km/s) = 5.07219 6.81425 6.00671
#
# Compressibility (1/GPa) = 0.04158481
#
# Stress axis : x y z
#
# Youngs Moduli (GPa) = 23.89490 83.38420 150.32377
#
# Poissons Ratio (x) = 0.14455 0.81345
# Poissons Ratio (y) = 0.04142 0.34728
# Poissons Ratio (z) = 0.12930 0.19264
#
# Static dielectric constant tensor:
#      x y z
#    x 1.803060 0.000000 0.035850 
#    y 0.000000 1.887450 0.000000 
#    z 0.035850 0.000000 1.953520 
# 
# From -- ./inp_files/43610.got.cif
#   From: 2010.05.17/outbox.cif.g08.bks.cpg/sg5_22_cif.got.tgz:43610.got - 2010.06.03 18:56:24.
