data_PCOD9122928
_publ_section_title
;
Structure prediction by ZEFSAII (Michael W. Deem and Ramdas Pophale) SiO2 
 PCOD9122928
Probable space group: C 2
;
_chemical_formula_sum "Si O2"
_cell_formula_units_Z 26
_cell_length_a 17.131077
_cell_length_b 11.658651
_cell_length_c 11.057592
_cell_angle_alpha 90.000000
_cell_angle_beta 147.582462
_cell_angle_gamma 90.000000
_cell_volume 1183.933639
_symmetry_space_group_name_H-M "C 2"
_symmetry_group_IT_number 5
_symmetry_cell_setting 'monoclinic'
loop_
_space_group_symop_operation_xyz
x,y,z
-x,y,-z
1/2+x,1/2+y,z
1/2-x,1/2+y,-z
loop_
_atom_site_type_symbol
_atom_site_label
_atom_site_fract_x
_atom_site_fract_y
_atom_site_fract_z
Si Si1 0.958108 0.175860 0.207205
Si Si2 0.303714 0.525226 0.823510
Si Si3 0.994961 0.414135 0.134197
Si Si4 0.674247 0.110080 0.966621
Si Si5 0.485408 0.319105 0.124472
Si Si6 0.310606 0.498183 0.554395
Si Si7 0.500000 0.051051 0.500000
O O1 0.003688 0.306018 0.237192
O O2 0.863348 0.139010 0.964623
O O3 0.841573 0.147061 0.160813
O O4 0.099507 0.092911 0.402319
O O5 0.348512 0.525328 0.743466
O O6 0.133552 0.494882 0.604716
O O7 0.376993 0.426014 0.998151
O O8 0.859299 0.491795 0.004836
O O9 0.137993 0.495610 0.321324
O O10 0.000000 0.375052 0.000000
O O11 0.589093 0.207946 0.924509
O O12 0.591623 0.107638 0.728479
O O13 0.629504 0.367164 0.379670
O O14 0.500000 0.304883 0.000000
#
# Coordination Sequence:
#
# PCOD9122928 Si02
#       7
#     4   4   4   4   4   4   2
#     4  10  24  41  67  94 129 171 217 272 320 390
#     4   9  18  39  65  93 120 166 218 262 312 386
#     4  12  26  43  68  97 134 176 218 271 333 386
#     4  11  24  40  65  96 139 164 218 268 333 382
#     4   9  20  38  66  94 127 170 210 272 318 388
#     4  10  21  40  68  91 126 168 223 259 321 392
#     4  10  20  36  64  92 120 170 216 258 312 388
#
# _framework density 21.96069
#
# number of rings (size 3 to 8) (size 9 to 14) (size 15 to 20)
#    0.000    1.846    1.538    2.769    8.615    2.462 
#    0.000    0.769    0.000    0.000    0.000    0.000 
#    0.000    0.000    0.000    0.000    0.000    0.000 
#
# Total GULP energy -72386.075508 kJ/mol
# GULP energy per Si atom -5568.159654 kJ/mol
# Density = 2.191071 g / cm^3
# Si number density = 21.960690 Si / 1000 Ang^3
#
#
#
# Elastic Constant Matrix: (Units=GPa)
#
#
# Indices 1 2 3 4 5 6 
#
# 1 100.0814 49.2303 13.6154 0.0000 32.9596 0.0000
# 2 49.2303 89.3097 -8.2914 0.0000 16.8402 0.0000
# 3 13.6154 -8.2914 42.0379 0.0000 26.3991 0.0000
# 4 0.0000 0.0000 0.0000 10.2519 0.0000 0.6535
# 5 32.9596 16.8402 26.3991 0.0000 39.4173 0.0000
# 6 0.0000 0.0000 0.0000 0.6535 0.0000 22.4997
#
#
#
# Elastic Compliance Matrix: (Units=1/GPa)
#
#
# Indices 1 2 3 4 5 6 
#
# 1 0.017399 -0.007430 0.000072 0.000000 -0.011422 0.000000
# 2 -0.007430 0.018235 0.012071 0.000000 -0.009662 0.000000
# 3 0.000072 0.012071 0.050778 0.000000 -0.039226 0.000000
# 4 0.000000 0.000000 0.000000 0.097724 0.000000 -0.002838
# 5 -0.011422 -0.009662 -0.039226 0.000000 0.065319 0.000000
# 6 0.000000 0.000000 0.000000 -0.002838 0.000000 0.044527
#
#
# Mechanical properties :
#
#
# Convention : Reuss Voigt Hill
#
# Bulk Modulus (GPa) = 10.43426 37.83750 24.13588
# Shear Modulus (GPa) = 15.79765 26.22544 21.01154
#
# Velocity S-wave (km/s) = 2.68500 3.45947 3.09654
# Velocity P-wave (km/s) = 3.79130 5.76405 4.87843
#
# Compressibility (1/GPa) = 0.09583809
#
# Stress axis : x y z
#
# Youngs Moduli (GPa) = 57.47580 54.83903 19.69339
#
# Poissons Ratio (x) = 0.40746 -0.00143
# Poissons Ratio (y) = 0.42705 -0.23771
# Poissons Ratio (z) = -0.00416 -0.66194
#
# Static dielectric constant tensor:
#      x y z
#    x 1.930230 0.000000 -0.004200 
#    y 0.000000 1.853100 0.000000 
#    z -0.004200 0.000000 1.877360 
# 
# From -- ./inp_files/44745.got.cif
#   From: 2010.05.17/outbox.cif.g08.bks.cpg/sg5_23_cif.got.tgz:44745.got - 2010.06.03 18:56:24.
