data_PCOD9122050
_publ_section_title
;
Structure prediction by ZEFSAII (Michael W. Deem and Ramdas Pophale) SiO2 
 PCOD9122050
Probable space group: C 2
;
_chemical_formula_sum "Si O2"
_cell_formula_units_Z 30
_cell_length_a 19.832480
_cell_length_b 5.373535
_cell_length_c 14.435499
_cell_angle_alpha 90.000000
_cell_angle_beta 121.143255
_cell_angle_gamma 90.000000
_cell_volume 1316.679903
_symmetry_space_group_name_H-M "C 2"
_symmetry_group_IT_number 5
_symmetry_cell_setting 'monoclinic'
loop_
_space_group_symop_operation_xyz
x,y,z
-x,y,-z
1/2+x,1/2+y,z
1/2-x,1/2+y,-z
loop_
_atom_site_type_symbol
_atom_site_label
_atom_site_fract_x
_atom_site_fract_y
_atom_site_fract_z
Si Si1 0.695723 0.785650 0.764391
Si Si2 0.699637 0.647620 0.250634
Si Si3 0.650313 0.270547 0.372102
Si Si4 0.947162 0.401441 0.806828
Si Si5 0.152846 0.718984 0.016426
Si Si6 0.000000 0.757637 0.000000
Si Si7 0.194030 0.033294 0.567518
Si Si8 0.891987 0.204775 0.119372
O O1 0.674127 0.690557 0.645894
O O2 0.624856 0.761691 0.784989
O O3 0.740139 0.049137 0.782713
O O4 0.769275 0.657087 0.868813
O O5 0.659370 0.434729 0.285841
O O6 0.623847 0.814414 0.177248
O O7 0.757530 0.804451 0.356383
O O8 0.630833 0.430758 0.449254
O O9 0.592943 0.040463 0.308622
O O10 0.740509 0.179632 0.445173
O O11 0.990292 0.604024 0.899202
O O12 0.013217 0.196373 0.830914
O O13 0.088609 0.846085 0.042410
O O14 0.136491 0.454885 0.954155
O O15 0.152254 0.950539 0.942874
#
# Coordination Sequence:
#
# PCOD9122050 Si02
#       8
#     4   4   4   4   4   2   4   4
#     4  11  25  39  65 100 130 184 230 281 344 419
#     4  10  21  36  67  90 130 163 224 289 337 412
#     4  10  19  38  61 102 127 169 223 285 357 389
#     4  10  24  39  65  99 136 181 222 287 343 415
#     4  11  25  42  68  96 141 181 226 285 342 416
#     4  10  22  42  62 106 130 172 234 274 344 404
#     4  10  20  36  64 100 129 167 225 295 343 408
#     4  11  27  44  65  96 145 187 225 274 349 418
#
# _framework density 22.784582
#
# number of rings (size 3 to 8) (size 9 to 14) (size 15 to 20)
#    0.000    1.600    1.333    3.200   13.067    0.533 
#    0.000    0.000    0.000    4.800    0.000    0.000 
#    0.000    0.000    0.000    0.000    0.000    0.000 
#
# Total GULP energy -83508.741533 kJ/mol
# GULP energy per Si atom -5567.249436 kJ/mol
# Density = 2.273272 g / cm^3
# Si number density = 22.784582 Si / 1000 Ang^3
#
#
#
# Elastic Constant Matrix: (Units=GPa)
#
#
# Indices 1 2 3 4 5 6 
#
# 1 66.2218 -11.0183 4.0577 0.0000 -14.5674 0.0000
# 2 -11.0183 72.6892 3.6608 -0.0002 0.5468 -0.0001
# 3 4.0577 3.6608 53.9276 -0.0001 -10.0554 0.0000
# 4 0.0000 -0.0002 -0.0001 40.4440 0.0000 -7.2762
# 5 -14.5674 0.5468 -10.0554 0.0000 23.4645 0.0000
# 6 0.0000 -0.0001 0.0000 -7.2762 0.0000 19.2441
#
#
#
# Elastic Compliance Matrix: (Units=1/GPa)
#
#
# Indices 1 2 3 4 5 6 
#
# 1 0.018000 0.002613 0.000587 0.000000 0.011366 0.000000
# 2 0.002613 0.014197 -0.000999 0.000000 0.000863 0.000000
# 3 0.000587 -0.000999 0.020258 0.000000 0.009069 0.000000
# 4 0.000000 0.000000 0.000000 0.026530 0.000000 0.010031
# 5 0.011366 0.000863 0.009069 0.000000 0.053540 0.000000
# 6 0.000000 0.000000 0.000000 0.010031 0.000000 0.055757
#
#
# Mechanical properties :
#
#
# Convention : Reuss Voigt Hill
#
# Bulk Modulus (GPa) = 17.58773 20.69324 19.14048
# Shear Modulus (GPa) = 24.65093 29.70640 27.17867
#
# Velocity S-wave (km/s) = 3.29281 3.61473 3.45752
# Velocity P-wave (km/s) = 4.71091 5.15010 4.93539
#
# Compressibility (1/GPa) = 0.05685783
#
# Stress axis : x y z
#
# Youngs Moduli (GPa) = 55.55614 70.43655 49.36304
#
# Poissons Ratio (x) = -0.18408 -0.02900
# Poissons Ratio (y) = -0.14519 0.04933
# Poissons Ratio (z) = -0.03264 0.07040
#
# Static dielectric constant tensor:
#      x y z
#    x 1.943740 0.000000 0.043260 
#    y 0.000000 1.998700 0.000000 
#    z 0.043260 0.000000 1.907440 
# 
# From -- ./inp_files/56571.got.cif
#   From: 2010.05.17/outbox.cif.g08.bks.cpg/sg5_29_cif.got.tgz:56571.got - 2010.06.03 18:56:24.
