data_PCOD9122138
_publ_section_title
;
Structure prediction by ZEFSAII (Michael W. Deem and Ramdas Pophale) SiO2 
 PCOD9122138
Probable space group: C 2
;
_chemical_formula_sum "Si O2"
_cell_formula_units_Z 28
_cell_length_a 11.909799
_cell_length_b 15.576293
_cell_length_c 9.693039
_cell_angle_alpha 90.000000
_cell_angle_beta 53.389414
_cell_angle_gamma 90.000000
_cell_volume 1443.396720
_symmetry_space_group_name_H-M "C 2"
_symmetry_group_IT_number 5
_symmetry_cell_setting 'monoclinic'
loop_
_space_group_symop_operation_xyz
x,y,z
-x,y,-z
1/2+x,1/2+y,z
1/2-x,1/2+y,-z
loop_
_atom_site_type_symbol
_atom_site_label
_atom_site_fract_x
_atom_site_fract_y
_atom_site_fract_z
Si Si1 0.841344 0.677910 0.768810
Si Si2 0.021155 0.398635 0.820147
Si Si3 0.069382 0.209014 0.097184
Si Si4 0.134376 0.491217 0.304876
Si Si5 0.658672 0.213324 0.548894
Si Si6 0.788468 0.910433 0.440262
Si Si7 0.922546 0.088321 0.411266
O O1 0.791604 0.580445 0.781407
O O2 0.830090 0.719529 0.625973
O O3 0.003120 0.678050 0.694249
O O4 0.734426 0.720062 0.952610
O O5 0.173060 0.419733 0.647032
O O6 0.995122 0.298641 0.806246
O O7 0.914921 0.451072 0.802097
O O8 0.000000 0.411381 0.000000
O O9 0.026362 0.133305 0.228018
O O10 0.000000 0.192531 0.000000
O O11 0.221109 0.429571 0.340348
O O12 0.000000 0.513561 0.500000
O O13 0.665507 0.311448 0.594452
O O14 0.779653 0.147129 0.510259
O O15 0.892050 0.989715 0.393028
O O16 0.000000 0.092009 0.500000
#
# Coordination Sequence:
#
# PCOD9122138 Si02
#       7
#     4   4   4   4   4   4   4
#     4  11  21  41  71  91 129 173 225 268 329 391
#     4  10  21  37  66  97 129 168 218 270 329 390
#     4  11  21  42  65  95 129 174 218 266 330 395
#     4  10  19  38  67  91 122 172 222 261 316 398
#     4  11  21  41  68  95 128 174 218 270 326 392
#     4  11  22  40  65  96 129 172 223 264 325 392
#     4  12  26  42  65 100 134 172 224 272 329 386
#
# _framework density 19.398685
#
# number of rings (size 3 to 8) (size 9 to 14) (size 15 to 20)
#    0.000    1.143    5.714    1.714    4.000    1.143 
#    2.571    0.714    0.000    0.000    0.000    0.000 
#    0.000    0.000    0.000    0.000    0.000    0.000 
#
# Total GULP energy -78130.782610 kJ/mol
# GULP energy per Si atom -5580.770186 kJ/mol
# Density = 1.935453 g / cm^3
# Si number density = 19.398685 Si / 1000 Ang^3
#
#
#
# Elastic Constant Matrix: (Units=GPa)
#
#
# Indices 1 2 3 4 5 6 
#
# 1 72.4114 13.4479 9.0777 0.0000 -6.4289 0.0000
# 2 13.4479 92.2750 8.1863 0.0000 12.1466 0.0000
# 3 9.0777 8.1863 48.6880 0.0000 -7.4601 0.0000
# 4 0.0000 0.0000 0.0000 13.2901 0.0000 -4.0221
# 5 -6.4289 12.1466 -7.4601 0.0000 27.6553 0.0000
# 6 0.0000 0.0000 0.0000 -4.0221 0.0000 30.2330
#
#
#
# Elastic Compliance Matrix: (Units=1/GPa)
#
#
# Indices 1 2 3 4 5 6 
#
# 1 0.014865 -0.002556 -0.001711 0.000000 0.004117 0.000000
# 2 -0.002556 0.012327 -0.002625 0.000000 -0.006717 0.000000
# 3 -0.001711 -0.002625 0.022338 0.000000 0.006781 0.000000
# 4 0.000000 0.000000 0.000000 0.078401 0.000000 0.010430
# 5 0.004117 -0.006717 0.006781 0.000000 0.041896 0.000000
# 6 0.000000 0.000000 0.000000 0.010430 0.000000 0.034464
#
#
# Mechanical properties :
#
#
# Convention : Reuss Voigt Hill
#
# Bulk Modulus (GPa) = 27.97590 30.53311 29.25450
# Shear Modulus (GPa) = 21.74006 26.41318 24.07662
#
# Velocity S-wave (km/s) = 3.35131 3.69398 3.52681
# Velocity P-wave (km/s) = 5.42475 5.82821 5.63009
#
# Compressibility (1/GPa) = 0.03574506
#
# Stress axis : x y z
#
# Youngs Moduli (GPa) = 67.27329 81.12437 44.76613
#
# Poissons Ratio (x) = 0.20739 0.07659
# Poissons Ratio (y) = 0.17198 0.11751
# Poissons Ratio (z) = 0.11509 0.21296
#
# Static dielectric constant tensor:
#      x y z
#    x 1.706790 0.000000 -0.026870 
#    y 0.000000 1.684970 0.000000 
#    z -0.026870 0.000000 1.694980 
# 
# From -- ./inp_files/20549.got.cif
#   From: 2010.05.17/outbox.cif.g08.bks.cpg/sg5_11_cif.got.tgz:20549.got - 2010.06.03 18:56:24.
