data_PCOD9122390
_publ_section_title
;
Structure prediction by ZEFSAII (Michael W. Deem and Ramdas Pophale) SiO2 
 PCOD9122390
Probable space group: C 2
;
_chemical_formula_sum "Si O2"
_cell_formula_units_Z 24
_cell_length_a 9.676402
_cell_length_b 10.919870
_cell_length_c 10.233216
_cell_angle_alpha 90.000000
_cell_angle_beta 113.834929
_cell_angle_gamma 90.000000
_cell_volume 989.073564
_symmetry_space_group_name_H-M "C 2"
_symmetry_group_IT_number 5
_symmetry_cell_setting 'monoclinic'
loop_
_space_group_symop_operation_xyz
x,y,z
-x,y,-z
1/2+x,1/2+y,z
1/2-x,1/2+y,-z
loop_
_atom_site_type_symbol
_atom_site_label
_atom_site_fract_x
_atom_site_fract_y
_atom_site_fract_z
Si Si1 0.801036 0.084830 0.265517
Si Si2 0.000000 0.505495 0.500000
Si Si3 0.000000 0.893638 0.500000
Si Si4 0.480992 0.717915 0.839368
Si Si5 0.843208 0.986241 0.862939
Si Si6 0.730299 0.314046 0.386826
Si Si7 0.008973 0.490262 0.788574
O O1 0.875416 0.150524 0.169920
O O2 0.801971 0.184790 0.381893
O O3 0.906087 0.975840 0.359813
O O4 0.626360 0.046798 0.179069
O O5 0.854931 0.418082 0.452168
O O6 0.004843 0.559619 0.646907
O O7 0.880574 0.815903 0.534813
O O8 0.351638 0.614081 0.784383
O O9 0.463277 0.846461 0.759526
O O10 0.500000 0.749369 0.000000
O O11 0.848141 0.866373 0.774485
O O12 0.688200 0.986257 0.887028
O O13 0.000000 0.987950 0.000000
#
# Coordination Sequence:
#
# PCOD9122390 Si02
#       7
#     4   2   2   4   4   4   4
#     4  12  25  44  72 103 139 183 225 284 352 405
#     4  10  19  43  70 100 140 167 227 278 338 406
#     4  12  25  43  70 106 144 181 221 284 350 412
#     4  11  25  46  69  97 134 185 234 287 338 400
#     4  10  23  47  69  95 138 183 229 287 336 400
#     4  11  23  44  71 104 138 181 227 283 341 414
#     4  11  25  46  70 105 137 182 226 286 346 411
#
# _framework density 24.265129999999999
#
# number of rings (size 3 to 8) (size 9 to 14) (size 15 to 20)
#    0.000    1.000    6.667    0.500    0.000    4.667 
#    6.000    0.833    0.000    0.000    0.000    0.000 
#    0.000    0.000    0.000    0.000    0.000    0.000 
#
# Total GULP energy -67041.873879 kJ/mol
# GULP energy per Si atom -5586.822823 kJ/mol
# Density = 2.420990 g / cm^3
# Si number density = 24.265130 Si / 1000 Ang^3
#
#
#
# Elastic Constant Matrix: (Units=GPa)
#
#
# Indices 1 2 3 4 5 6 
#
# 1 186.7366 21.1874 28.9143 0.0000 -18.0368 0.0000
# 2 21.1874 68.4041 -7.2171 0.0000 -3.5255 0.0000
# 3 28.9143 -7.2171 68.6038 0.0000 -8.6887 0.0000
# 4 0.0000 0.0000 0.0000 -3.3669 0.0000 -30.3787
# 5 -18.0368 -3.5255 -8.6887 0.0000 47.0608 0.0000
# 6 0.0000 0.0000 0.0000 -30.3787 0.0000 22.7271
#
#
#
# Elastic Compliance Matrix: (Units=1/GPa)
#
#
# Indices 1 2 3 4 5 6 
#
# 1 0.006162 -0.002094 -0.002599 0.000000 0.001725 0.000000
# 2 -0.002094 0.015589 0.002630 0.000000 0.000851 0.000000
# 3 -0.002599 0.002630 0.016227 0.000000 0.002197 0.000000
# 4 0.000000 0.000000 0.000000 -0.022741 0.000000 -0.030397
# 5 0.001725 0.000851 0.002197 0.000000 0.022380 0.000000
# 6 0.000000 0.000000 0.000000 -0.030397 0.000000 0.003369
#
#
# Mechanical properties :
#
#
# Convention : Reuss Voigt Hill
#
# Bulk Modulus (GPa) = 29.53990 45.50152 37.52071
# Shear Modulus (GPa) = 88.66254 32.00820 60.33537
#
# Velocity S-wave (km/s) = 6.05131 3.63589 4.99190
# Velocity P-wave (km/s) = 7.81183 6.03479 6.98010
#
# Compressibility (1/GPa) = 0.03385252
#
# Stress axis : x y z
#
# Youngs Moduli (GPa) = 162.29279 64.14820 61.62691
#
# Poissons Ratio (x) = 0.13431 0.16015
# Poissons Ratio (y) = 0.33981 -0.16209
# Poissons Ratio (z) = 0.42176 -0.16872
#
# Static dielectric constant tensor:
#      x y z
#    x 1.914010 0.000000 -0.022430 
#    y 0.000000 1.938680 0.000000 
#    z -0.022430 0.000000 2.032040 
# 
# From -- ./inp_files/35379.got.cif
#   From: 2010.05.17/outbox.cif.g08.bks.cpg/sg5_18_cif.got.tgz:35379.got - 2010.06.03 18:56:24.
