data_PCOD9122971
_publ_section_title
;
Structure prediction by ZEFSAII (Michael W. Deem and Ramdas Pophale) SiO2 
 PCOD9122971
Probable space group: C 2
;
_chemical_formula_sum "Si O2"
_cell_formula_units_Z 22
_cell_length_a 20.742418
_cell_length_b 5.496413
_cell_length_c 14.931516
_cell_angle_alpha 90.000000
_cell_angle_beta 153.127819
_cell_angle_gamma 90.000000
_cell_volume 769.454019
_symmetry_space_group_name_H-M "C 2"
_symmetry_group_IT_number 5
_symmetry_cell_setting 'monoclinic'
loop_
_space_group_symop_operation_xyz
x,y,z
-x,y,-z
1/2+x,1/2+y,z
1/2-x,1/2+y,-z
loop_
_atom_site_type_symbol
_atom_site_label
_atom_site_fract_x
_atom_site_fract_y
_atom_site_fract_z
Si Si1 0.000000 0.683090 0.500000
Si Si2 0.665317 0.268688 0.115275
Si Si3 0.679350 0.796612 0.387123
Si Si4 0.321254 0.777516 0.827708
Si Si5 0.057590 0.308760 0.418837
Si Si6 0.709676 0.577245 0.910614
O O1 0.160800 0.789158 0.674822
O O2 0.984983 0.508987 0.393616
O O3 0.601851 0.535173 0.040610
O O4 0.787876 0.277282 0.343865
O O5 0.727967 0.217852 0.096892
O O6 0.588524 0.016016 0.036140
O O7 0.713241 0.524201 0.464805
O O8 0.685493 0.765916 0.287484
O O9 0.567115 0.875976 0.326651
O O10 0.961549 0.068753 0.311044
O O11 0.766431 0.303653 0.990733
#
# Coordination Sequence:
#
# PCOD9122971 Si02
#       6
#     2   4   4   4   4   4
#     4  10  20  36  68 102 122 168 224 272 316 394
#     4  11  22  40  68  93 124 170 223 270 327 391
#     4  12  22  37  61 108 141 165 211 289 346 379
#     4  11  21  35  62  99 134 162 212 278 332 385
#     4  11  22  42  69 100 131 173 226 274 331 400
#     4  12  27  43  63  96 137 172 221 285 336 388
#
# _framework density 28.591702999999999
#
# number of rings (size 3 to 8) (size 9 to 14) (size 15 to 20)
#    0.000    0.727    9.091    1.091    2.545    2.909 
#    0.000    0.000    0.000    6.545    0.000    0.000 
#    0.000    0.000    0.000    0.000    0.000    0.000 
#
# Total GULP energy -61416.152116 kJ/mol
# GULP energy per Si atom -5583.286556 kJ/mol
# Density = 2.852663 g / cm^3
# Si number density = 28.591703 Si / 1000 Ang^3
#
#
#
# Elastic Constant Matrix: (Units=GPa)
#
#
# Indices 1 2 3 4 5 6 
#
# 1 244.5836 25.6264 43.4262 0.0003 -24.8607 0.0001
# 2 25.6264 206.6510 14.7896 0.0011 -12.6659 0.0005
# 3 43.4262 14.7896 61.8818 0.0002 -6.0824 0.0002
# 4 0.0003 0.0011 0.0002 12.4542 0.0001 -28.6309
# 5 -24.8607 -12.6659 -6.0824 0.0001 63.8738 0.0000
# 6 0.0001 0.0005 0.0002 -28.6309 0.0000 29.3761
#
#
#
# Elastic Compliance Matrix: (Units=1/GPa)
#
#
# Indices 1 2 3 4 5 6 
#
# 1 0.004837 -0.000279 -0.003178 0.000000 0.001525 0.000000
# 2 -0.000279 0.004988 -0.000918 0.000000 0.000793 0.000000
# 3 -0.003178 -0.000918 0.018644 0.000000 0.000356 0.000000
# 4 0.000000 0.000000 0.000000 -0.064724 0.000000 -0.063082
# 5 0.001525 0.000793 0.000356 0.000000 0.016441 0.000000
# 6 0.000000 0.000000 0.000000 -0.063082 0.000000 -0.027440
#
#
# Mechanical properties :
#
#
# Convention : Reuss Voigt Hill
#
# Bulk Modulus (GPa) = 50.71252 75.64453 63.17852
# Shear Modulus (GPa) = -156.59321 49.75910 -53.41706
#
# Velocity S-wave (km/s) = -7.40862 4.17626 -4.32704
# Velocity P-wave (km/s) = 7.44367 7.05472 1.67916
#
# Compressibility (1/GPa) = 0.01971900
#
# Stress axis : x y z
#
# Youngs Moduli (GPa) = 206.73837 200.48091 53.63513
#
# Poissons Ratio (x) = 0.05592 0.17045
# Poissons Ratio (y) = 0.05767 0.04926
# Poissons Ratio (z) = 0.65699 0.18413
#
# Static dielectric constant tensor:
#      x y z
#    x 2.189790 0.000000 -0.021770 
#    y 0.000000 2.349030 0.000000 
#    z -0.021770 0.000000 2.411800 
# 
# From -- ./inp_files/56597.got.cif
#   From: 2010.05.17/outbox.cif.g08.bks.cpg/sg5_29_cif.got.tgz:56597.got - 2010.06.03 18:56:24.
