data_PCOD9122691
_publ_section_title
;
Structure prediction by ZEFSAII (Michael W. Deem and Ramdas Pophale) SiO2 
 PCOD9122691
Probable space group: C 2
;
_chemical_formula_sum "Si O2"
_cell_formula_units_Z 32
_cell_length_a 5.023120
_cell_length_b 19.336161
_cell_length_c 15.531477
_cell_angle_alpha 90.000000
_cell_angle_beta 82.726537
_cell_angle_gamma 90.000000
_cell_volume 1496.400146
_symmetry_space_group_name_H-M "C 2"
_symmetry_group_IT_number 5
_symmetry_cell_setting 'monoclinic'
loop_
_space_group_symop_operation_xyz
x,y,z
-x,y,-z
1/2+x,1/2+y,z
1/2-x,1/2+y,-z
loop_
_atom_site_type_symbol
_atom_site_label
_atom_site_fract_x
_atom_site_fract_y
_atom_site_fract_z
Si Si1 0.783057 0.227320 0.942863
Si Si2 0.212104 0.065291 0.058021
Si Si3 0.091278 0.420350 0.305545
Si Si4 0.921624 0.086597 0.408394
Si Si5 0.963211 0.932457 0.588878
Si Si6 0.902532 0.678921 0.702929
Si Si7 0.627713 0.767473 0.250185
Si Si8 0.360413 0.054019 0.237981
O O1 0.854146 0.146503 0.926599
O O2 0.765646 0.261508 0.850782
O O3 0.500000 0.230125 0.000000
O O4 0.000000 0.257779 0.000000
O O5 0.217054 0.036763 0.154663
O O6 0.500000 0.059883 0.000000
O O7 0.000000 0.034517 0.000000
O O8 0.385952 0.408538 0.332514
O O9 0.037945 0.345918 0.267898
O O10 0.852456 0.434443 0.383472
O O11 0.053078 0.489675 0.251874
O O12 0.152367 0.076052 0.324024
O O13 0.000000 0.115783 0.500000
O O14 0.679502 0.130294 0.375990
O O15 0.874635 0.005379 0.429506
O O16 0.000000 0.890431 0.500000
O O17 0.636083 0.721098 0.731518
O O18 0.152258 0.732437 0.694247
O O19 0.964149 0.623501 0.775722
#
# Coordination Sequence:
#
# PCOD9122691 Si02
#       8
#     4   4   4   4   4   4   4   4
#     4  10  20  35  60  92 120 159 212 264 316 385
#     4  10  22  35  62  99 125 160 212 273 325 376
#     4  11  24  42  65  95 128 179 212 263 335 395
#     4  10  22  40  69 103 128 170 223 285 328 382
#     4  10  21  40  67  94 126 167 230 270 315 390
#     4  12  22  41  66  95 129 169 217 272 324 386
#     4  12  25  41  65  94 134 172 215 266 333 399
#     4  11  23  42  71  97 133 171 226 272 325 398
#
# _framework density 21.384654000000001
#
# number of rings (size 3 to 8) (size 9 to 14) (size 15 to 20)
#    0.000    1.250    3.750    1.875    5.250    0.500 
#    0.000    3.125    0.000    1.500    0.000    0.000 
#    0.000    0.000    0.000    0.000    0.000    0.000 
#
# Total GULP energy -89166.723239 kJ/mol
# GULP energy per Si atom -5572.920202 kJ/mol
# Density = 2.133598 g / cm^3
# Si number density = 21.384654 Si / 1000 Ang^3
#
#
#
# Elastic Constant Matrix: (Units=GPa)
#
#
# Indices 1 2 3 4 5 6 
#
# 1 102.1069 17.9323 30.3855 0.0000 15.4966 0.0000
# 2 17.9323 85.8385 10.7187 0.0000 1.3071 0.0000
# 3 30.3855 10.7187 101.6308 0.0000 21.4561 0.0000
# 4 0.0000 0.0000 0.0000 -0.6184 0.0000 -3.2130
# 5 15.4966 1.3071 21.4561 0.0000 30.0586 0.0000
# 6 0.0000 0.0000 0.0000 -3.2130 0.0000 20.7952
#
#
#
# Elastic Compliance Matrix: (Units=1/GPa)
#
#
# Indices 1 2 3 4 5 6 
#
# 1 0.011480 -0.002043 -0.002338 0.000000 -0.004160 0.000000
# 2 -0.002043 0.012174 -0.000923 0.000000 0.001183 0.000000
# 3 -0.002338 -0.000923 0.012214 0.000000 -0.007472 0.000000
# 4 0.000000 0.000000 0.000000 -0.897002 0.000000 -0.138591
# 5 -0.004160 0.001183 -0.007472 0.000000 0.040696 0.000000
# 6 0.000000 0.000000 0.000000 -0.138591 0.000000 0.026675
#
#
# Mechanical properties :
#
#
# Convention : Reuss Voigt Hill
#
# Bulk Modulus (GPa) = 39.59004 45.29436 42.44220
# Shear Modulus (GPa) = -6.45381 25.41640 9.48129
#
# Velocity S-wave (km/s) = -1.73911 3.45125 2.10792
# Velocity P-wave (km/s) = 3.81062 6.09166 5.08080
#
# Compressibility (1/GPa) = 0.02525888
#
# Stress axis : x y z
#
# Youngs Moduli (GPa) = 87.11018 82.14375 81.87614
#
# Poissons Ratio (x) = 0.16781 0.19146
# Poissons Ratio (y) = 0.17795 0.07556
# Poissons Ratio (z) = 0.20370 0.07580
#
# Static dielectric constant tensor:
#      x y z
#    x 1.798430 0.000000 0.033460 
#    y 0.000000 1.788160 0.000000 
#    z 0.033460 0.000000 1.941310 
# 
# From -- ./inp_files/49357.got.cif
#   From: 2010.05.17/outbox.cif.g08.bks.cpg/sg5_25_cif.got.tgz:49357.got - 2010.06.03 18:56:24.
