data_PCOD9122512
_publ_section_title
;
Structure prediction by ZEFSAII (Michael W. Deem and Ramdas Pophale) SiO2 
 PCOD9122512
Probable space group: C 2
;
_chemical_formula_sum "Si O2"
_cell_formula_units_Z 30
_cell_length_a 31.189749
_cell_length_b 5.019580
_cell_length_c 27.526100
_cell_angle_alpha 90.000000
_cell_angle_beta 160.738427
_cell_angle_gamma 90.000000
_cell_volume 1421.613972
_symmetry_space_group_name_H-M "C 2"
_symmetry_group_IT_number 5
_symmetry_cell_setting 'monoclinic'
loop_
_space_group_symop_operation_xyz
x,y,z
-x,y,-z
1/2+x,1/2+y,z
1/2-x,1/2+y,-z
loop_
_atom_site_type_symbol
_atom_site_label
_atom_site_fract_x
_atom_site_fract_y
_atom_site_fract_z
Si Si1 0.287540 0.212330 0.791034
Si Si2 0.758244 0.467892 0.540968
Si Si3 0.500000 0.858667 0.500000
Si Si4 0.500591 0.753545 0.861015
Si Si5 0.413474 0.452403 0.548507
Si Si6 0.443588 0.973588 0.333402
Si Si7 0.670112 0.730767 0.226640
Si Si8 0.341592 0.260315 0.959928
O O1 0.131107 0.192563 0.630636
O O2 0.315700 0.440332 0.781546
O O3 0.342491 0.287865 0.902304
O O4 0.345077 0.938578 0.833207
O O5 0.774804 0.760735 0.536942
O O6 0.888584 0.360060 0.705997
O O7 0.646676 0.468537 0.462425
O O8 0.469938 0.023068 0.419039
O O9 0.439206 0.747995 0.849315
O O10 0.551227 0.459435 0.904096
O O11 0.620299 0.958649 0.987943
O O12 0.457932 0.742210 0.578402
O O13 0.301019 0.328515 0.393990
O O14 0.530159 0.242333 0.667735
O O15 0.299961 0.854377 0.174874
#
# Coordination Sequence:
#
# PCOD9122512 Si02
#       8
#     4   4   2   4   4   4   4   4
#     4  11  22  34  54  85 124 167 217 244 290 340
#     4  11  24  44  74  99 113 148 200 268 333 377
#     4  10  20  34  54  84 126 168 214 256 264 334
#     4  11  24  42  62  85 126 154 201 250 312 383
#     4  11  21  39  63  93 124 154 208 270 314 347
#     4  11  22  37  61  88 129 172 212 251 291 353
#     4  11  21  36  57  85 117 165 206 266 298 330
#     4  11  24  39  56  89 123 180 198 232 301 365
#
# _framework density 21.102777
#
# number of rings (size 3 to 8) (size 9 to 14) (size 15 to 20)
#    0.000    1.067    2.667    4.000    0.000   11.733 
#    0.000    0.000    0.000   16.000    0.000    0.000 
#    0.000    0.000    0.000    0.000    0.000    0.000 
#
# Total GULP energy -83953.441389 kJ/mol
# GULP energy per Si atom -5596.896093 kJ/mol
# Density = 2.105475 g / cm^3
# Si number density = 21.102777 Si / 1000 Ang^3
#
#
#
# Elastic Constant Matrix: (Units=GPa)
#
#
# Indices 1 2 3 4 5 6 
#
# 1 82.9597 12.9976 16.7694 0.0000 12.3173 0.0001
# 2 12.9976 81.3158 1.3844 0.0057 8.1693 0.0029
# 3 16.7694 1.3844 64.2372 -0.0012 6.1294 -0.0005
# 4 0.0000 0.0057 -0.0012 26.1330 -0.0003 -3.1852
# 5 12.3173 8.1693 6.1294 -0.0003 17.4091 -0.0003
# 6 0.0001 0.0029 -0.0005 -3.1852 -0.0003 26.8134
#
#
#
# Elastic Compliance Matrix: (Units=1/GPa)
#
#
# Indices 1 2 3 4 5 6 
#
# 1 0.014079 -0.001366 -0.002853 0.000000 -0.008316 0.000000
# 2 -0.001366 0.013045 0.000587 -0.000003 -0.005361 -0.000002
# 3 -0.002853 0.000587 0.016694 0.000001 -0.004135 0.000000
# 4 0.000000 -0.000003 0.000001 0.038828 0.000002 0.004612
# 5 -0.008316 -0.005361 -0.004135 0.000002 0.067296 0.000001
# 6 0.000000 -0.000002 0.000000 0.004612 0.000001 0.037843
#
#
# Mechanical properties :
#
#
# Convention : Reuss Voigt Hill
#
# Bulk Modulus (GPa) = 27.35655 32.31283 29.83469
# Shear Modulus (GPa) = 24.12738 27.22854 25.67796
#
# Velocity S-wave (km/s) = 3.38498 3.59595 3.49206
# Velocity P-wave (km/s) = 5.31687 5.70846 5.51614
#
# Compressibility (1/GPa) = 0.03655432
#
# Stress axis : x y z
#
# Youngs Moduli (GPa) = 71.02564 76.65909 59.90228
#
# Poissons Ratio (x) = 0.10475 0.17087
# Poissons Ratio (y) = 0.09705 -0.03517
# Poissons Ratio (z) = 0.20260 -0.04501
#
# Static dielectric constant tensor:
#      x y z
#    x 1.726510 0.000000 0.003460 
#    y 0.000000 1.718770 0.000000 
#    z 0.003460 0.000000 1.809600 
# 
# From -- ./inp_files/71452.got.cif
#   From: 2010.05.17/outbox.cif.g08.bks.cpg/sg5_36_cif.got.tgz:71452.got - 2010.06.03 18:56:24.
