data_PCOD9122408
_publ_section_title
;
Structure prediction by ZEFSAII (Michael W. Deem and Ramdas Pophale) SiO2 
 PCOD9122408
Probable space group: C 2
;
_chemical_formula_sum "Si O2"
_cell_formula_units_Z 32
_cell_length_a 17.233449
_cell_length_b 11.940933
_cell_length_c 19.462659
_cell_angle_alpha 90.000000
_cell_angle_beta 21.586503
_cell_angle_gamma 90.000000
_cell_volume 1473.495927
_symmetry_space_group_name_H-M "C 2"
_symmetry_group_IT_number 5
_symmetry_cell_setting 'monoclinic'
loop_
_space_group_symop_operation_xyz
x,y,z
-x,y,-z
1/2+x,1/2+y,z
1/2-x,1/2+y,-z
loop_
_atom_site_type_symbol
_atom_site_label
_atom_site_fract_x
_atom_site_fract_y
_atom_site_fract_z
Si Si1 0.475097 0.687750 0.946661
Si Si2 0.727713 0.626062 0.015189
Si Si3 0.061495 0.829321 0.726334
Si Si4 0.522146 0.787677 0.695085
Si Si5 0.986748 0.554237 0.917067
Si Si6 0.746943 0.861309 0.648842
Si Si7 0.344968 0.396573 0.770504
Si Si8 0.053295 0.820448 0.033029
O O1 0.375396 0.605647 0.972825
O O2 0.678770 0.750361 0.747164
O O3 0.500000 0.634126 0.000000
O O4 0.313866 0.791867 0.091278
O O5 0.548081 0.668370 0.215573
O O6 0.873155 0.542160 0.935742
O O7 0.886572 0.730991 0.872502
O O8 0.289013 0.785609 0.514825
O O9 0.976906 0.905699 0.733491
O O10 0.061959 0.871191 0.804543
O O11 0.610579 0.850094 0.690119
O O12 0.304334 0.831585 0.841476
O O13 0.010097 0.686090 0.911721
O O14 0.180039 0.470744 0.746861
O O15 0.807676 0.502532 0.113911
O O16 0.985499 0.871145 0.427398
O O17 0.000000 0.858522 0.000000
#
# Coordination Sequence:
#
# PCOD9122408 Si02
#       8
#     4   4   4   4   4   4   4   4
#     4   9  17  30  46  66  91 115 144 180 216 259
#     4   8  16  28  44  64  86 114 150 182 210 250
#     4   8  15  30  48  62  80 113 156 189 209 240
#     4   8  15  30  48  62  80 113 156 189 209 240
#     4   9  17  28  44  66  93 117 142 176 216 263
#     4   9  17  30  49  68  85 112 149 185 218 252
#     4   9  17  30  49  68  85 112 149 185 218 252
#     4  10  20  30  42  66  96 120 142 172 216 268
#
# _framework density 21.717058999999999
#
# number of rings (size 3 to 8) (size 9 to 14) (size 15 to 20)
#    0.000    3.500    0.000    2.250    0.000    7.000 
#    0.000    0.000    0.000    3.000    0.000    0.000 
#    0.000    0.000    0.000    0.000    0.000    0.000 
#
# Total GULP energy -89131.817953 kJ/mol
# GULP energy per Si atom -5570.738622 kJ/mol
# Density = 2.166763 g / cm^3
# Si number density = 21.717059 Si / 1000 Ang^3
#
#
#
# Elastic Constant Matrix: (Units=GPa)
#
#
# Indices 1 2 3 4 5 6 
#
# 1 167.4148 -7.0294 27.9169 0.0018 17.9699 -0.0016
# 2 -7.0294 47.9792 22.3325 -0.0001 6.3835 0.0015
# 3 27.9169 22.3325 121.9541 0.0023 24.0614 -0.0015
# 4 0.0018 -0.0001 0.0023 8.0287 0.0004 -3.6667
# 5 17.9699 6.3835 24.0614 0.0004 35.2696 0.0003
# 6 -0.0016 0.0015 -0.0015 -3.6667 0.0003 6.7689
#
#
#
# Elastic Compliance Matrix: (Units=1/GPa)
#
#
# Indices 1 2 3 4 5 6 
#
# 1 0.006574 0.001945 -0.001307 -0.000001 -0.002810 0.000001
# 2 0.001945 0.023427 -0.004279 -0.000002 -0.002312 -0.000007
# 3 -0.001307 -0.004279 0.010398 -0.000001 -0.005653 0.000003
# 4 -0.000001 -0.000002 -0.000001 0.165497 -0.000001 0.089650
# 5 -0.002810 -0.002312 -0.005653 -0.000001 0.034060 -0.000004
# 6 0.000001 -0.000007 0.000003 0.089650 -0.000004 0.196299
#
#
# Mechanical properties :
#
#
# Convention : Reuss Voigt Hill
#
# Bulk Modulus (GPa) = 30.19501 47.08757 38.64129
# Shear Modulus (GPa) = 10.99927 29.62197 20.31062
#
# Velocity S-wave (km/s) = 2.25295 3.69724 3.06148
# Velocity P-wave (km/s) = 4.54992 6.32103 5.50714
#
# Compressibility (1/GPa) = 0.03311806
#
# Stress axis : x y z
#
# Youngs Moduli (GPa) = 152.10464 42.68627 96.17289
#
# Poissons Ratio (x) = -0.08304 0.12567
# Poissons Ratio (y) = -0.29590 0.41154
# Poissons Ratio (z) = 0.19876 0.18266
#
# Static dielectric constant tensor:
#      x y z
#    x 1.936890 0.000010 -0.009740 
#    y 0.000010 1.809690 0.000010 
#    z -0.009740 0.000010 1.759160 
# 
# From -- ./inp_files/63085.got.cif
#   From: 2010.05.17/outbox.cif.g08.bks.cpg/sg5_32_cif.got.tgz:63085.got - 2010.06.03 18:56:24.
