data_PCOD9122422
_publ_section_title
;
Structure prediction by ZEFSAII (Michael W. Deem and Ramdas Pophale) SiO2 
 PCOD9122422
Probable space group: C 2
;
_chemical_formula_sum "Si O2"
_cell_formula_units_Z 30
_cell_length_a 26.418546
_cell_length_b 6.266979
_cell_length_c 21.946883
_cell_angle_alpha 90.000000
_cell_angle_beta 24.894548
_cell_angle_gamma 90.000000
_cell_volume 1529.572261
_symmetry_space_group_name_H-M "C 2"
_symmetry_group_IT_number 5
_symmetry_cell_setting 'monoclinic'
loop_
_space_group_symop_operation_xyz
x,y,z
-x,y,-z
1/2+x,1/2+y,z
1/2-x,1/2+y,-z
loop_
_atom_site_type_symbol
_atom_site_label
_atom_site_fract_x
_atom_site_fract_y
_atom_site_fract_z
Si Si1 0.000000 0.866441 0.500000
Si Si2 0.583473 0.848926 0.003128
Si Si3 0.419480 0.131684 0.476992
Si Si4 0.328044 0.592962 0.981274
Si Si5 0.770729 0.211816 0.836255
Si Si6 0.825533 0.236362 0.646177
Si Si7 0.825233 0.379456 0.229573
Si Si8 0.602784 0.400475 0.214702
O O1 0.991627 0.709759 0.565953
O O2 0.102910 0.026581 0.409370
O O3 0.601352 0.681869 0.037568
O O4 0.443150 0.873911 0.142040
O O5 0.642218 0.790774 0.873459
O O6 0.657846 0.058752 0.943128
O O7 0.289117 0.246776 0.621420
O O8 0.493920 0.231619 0.340006
O O9 0.392259 0.888284 0.525666
O O10 0.405700 0.538812 0.837210
O O11 0.263858 0.379527 0.074895
O O12 0.225473 0.764490 0.077372
O O13 0.801059 0.333786 0.739736
O O14 0.874621 0.061407 0.752492
O O15 0.710662 0.127789 0.740651
#
# Coordination Sequence:
#
# PCOD9122422 Si02
#       8
#     2   4   4   4   4   4   4   4
#     4  10  20  32  48  84 126 150 188 240 308 376
#     4   9  20  39  63  87 122 162 204 256 302 375
#     4  11  22  34  58  89 125 159 196 255 316 370
#     4  11  22  37  61  86 119 170 209 248 302 362
#     4  10  20  37  57  86 118 160 204 250 306 370
#     4  10  20  33  55  87 121 163 190 245 328 370
#     4   9  20  39  59  93 125 152 201 261 311 368
#     4  11  23  38  57  89 126 160 211 253 298 373
#
# _framework density 19.613326000000001
#
# number of rings (size 3 to 8) (size 9 to 14) (size 15 to 20)
#    0.000    1.867    2.667    1.200    5.600    1.067 
#    0.000    2.667    2.933    0.000    0.000    0.000 
#    0.000    0.000    0.000    0.000    0.000    0.000 
#
# Total GULP energy -83566.123189 kJ/mol
# GULP energy per Si atom -5571.074879 kJ/mol
# Density = 1.956869 g / cm^3
# Si number density = 19.613326 Si / 1000 Ang^3
#
#
#
# Elastic Constant Matrix: (Units=GPa)
#
#
# Indices 1 2 3 4 5 6 
#
# 1 89.0429 38.3448 47.6823 0.0010 -5.1772 0.0008
# 2 38.3448 60.2203 31.3886 0.0342 -0.1647 -0.0156
# 3 47.6823 31.3886 88.8426 0.0128 -3.8706 -0.0063
# 4 0.0010 0.0342 0.0128 32.8686 -0.0046 6.8257
# 5 -5.1772 -0.1647 -3.8706 -0.0046 24.2608 0.0028
# 6 0.0008 -0.0156 -0.0063 6.8257 0.0028 20.8350
#
#
#
# Elastic Compliance Matrix: (Units=1/GPa)
#
#
# Indices 1 2 3 4 5 6 
#
# 1 0.018692 -0.008248 -0.006995 0.000014 0.002817 -0.000014
# 2 -0.008248 0.024019 -0.004157 -0.000029 -0.002260 0.000027
# 3 -0.006995 -0.004157 0.016528 -0.000002 0.001116 0.000003
# 4 0.000014 -0.000029 -0.000002 0.032645 0.000010 -0.010695
# 5 0.002817 -0.002260 0.001116 0.000010 0.041983 -0.000010
# 6 -0.000014 0.000027 0.000003 -0.010695 -0.000010 0.051500
#
#
# Mechanical properties :
#
#
# Convention : Reuss Voigt Hill
#
# Bulk Modulus (GPa) = 48.93229 52.54858 50.74043
# Shear Modulus (GPa) = 21.64682 23.63887 22.64284
#
# Velocity S-wave (km/s) = 3.32577 3.47543 3.40142
# Velocity P-wave (km/s) = 6.30479 6.55403 6.43061
#
# Compressibility (1/GPa) = 0.02043640
#
# Stress axis : x y z
#
# Youngs Moduli (GPa) = 53.49790 41.63441 60.50421
#
# Poissons Ratio (x) = 0.34341 0.42325
# Poissons Ratio (y) = 0.44127 0.25154
# Poissons Ratio (z) = 0.37424 0.17309
#
# Static dielectric constant tensor:
#      x y z
#    x 1.700640 0.000000 0.040290 
#    y 0.000000 1.745720 0.000010 
#    z 0.040290 0.000010 1.757360 
# 
# From -- ./inp_files/67267.got.cif
#   From: 2010.05.17/outbox.cif.g08.bks.cpg/sg5_34_cif.got.tgz:67267.got - 2010.06.03 18:56:24.
