data_PCOD9122761
_publ_section_title
;
Structure prediction by ZEFSAII (Michael W. Deem and Ramdas Pophale) SiO2 
 PCOD9122761
Probable space group: C 2
;
_chemical_formula_sum "Si O2"
_cell_formula_units_Z 20
_cell_length_a 4.954070
_cell_length_b 19.438307
_cell_length_c 13.650912
_cell_angle_alpha 90.000000
_cell_angle_beta 58.003669
_cell_angle_gamma 90.000000
_cell_volume 1114.859408
_symmetry_space_group_name_H-M "C 2"
_symmetry_group_IT_number 5
_symmetry_cell_setting 'monoclinic'
loop_
_space_group_symop_operation_xyz
x,y,z
-x,y,-z
1/2+x,1/2+y,z
1/2-x,1/2+y,-z
loop_
_atom_site_type_symbol
_atom_site_label
_atom_site_fract_x
_atom_site_fract_y
_atom_site_fract_z
Si Si1 0.920922 0.678420 0.128548
Si Si2 0.871225 0.850575 0.418578
Si Si3 0.203124 0.997683 0.631606
Si Si4 0.574326 0.078006 0.712712
Si Si5 0.811394 0.718662 0.733682
O O1 0.980964 0.603028 0.164740
O O2 0.552546 0.698587 0.215512
O O3 0.131257 0.725797 0.160224
O O4 0.000000 0.681986 0.000000
O O5 0.500000 0.831332 0.500000
O O6 0.893208 0.917787 0.346306
O O7 0.000000 0.872336 0.500000
O O8 0.071987 0.786000 0.343186
O O9 0.500000 0.001684 0.500000
O O10 0.321228 0.027614 0.712119
O O11 0.916223 0.043024 0.644664
O O12 0.528440 0.151575 0.666622
#
# Coordination Sequence:
#
# PCOD9122761 Si02
#       5
#     4   4   4   4   4
#     4  10  20  38  60  85 107 144 187 244 296 323
#     4  11  23  38  55  83 122 160 181 219 281 342
#     4  11  21  36  54  81 119 155 184 216 277 338
#     4  10  20  36  56  86 105 148 191 235 269 327
#     4  10  21  37  57  88 107 150 189 236 276 331
#
# _framework density 17.939482000000002
#
# number of rings (size 3 to 8) (size 9 to 14) (size 15 to 20)
#    1.200    0.400    2.000    4.800    0.000    2.400 
#    0.000    0.000    0.000    4.800    0.000    0.000 
#    0.000    0.000    0.000    0.000    0.000    0.000 
#
# Total GULP energy -55697.612028 kJ/mol
# GULP energy per Si atom -5569.761203 kJ/mol
# Density = 1.789865 g / cm^3
# Si number density = 17.939482 Si / 1000 Ang^3
#
#
#
# Elastic Constant Matrix: (Units=GPa)
#
#
# Indices 1 2 3 4 5 6 
#
# 1 122.2468 35.9074 15.2728 0.0000 5.5562 0.0000
# 2 35.9074 116.0835 32.0816 0.0000 -0.4888 0.0000
# 3 15.2728 32.0816 29.7740 0.0000 5.1503 0.0000
# 4 0.0000 0.0000 0.0000 -26.1819 0.0000 28.3153
# 5 5.5562 -0.4888 5.1503 0.0000 26.1895 0.0000
# 6 0.0000 0.0000 0.0000 28.3153 0.0000 -3.3765
#
#
#
# Elastic Compliance Matrix: (Units=1/GPa)
#
#
# Indices 1 2 3 4 5 6 
#
# 1 0.009174 -0.002308 -0.001941 0.000000 -0.001608 0.000000
# 2 -0.002308 0.013069 -0.013484 0.000000 0.003385 0.000000
# 3 -0.001941 -0.013484 0.050811 0.000000 -0.009832 0.000000
# 4 0.000000 0.000000 0.000000 0.004733 0.000000 0.039693
# 5 -0.001608 0.003385 -0.009832 0.000000 0.040521 0.000000
# 6 0.000000 0.000000 0.000000 0.039693 0.000000 0.036702
#
#
# Mechanical properties :
#
#
# Convention : Reuss Voigt Hill
#
# Bulk Modulus (GPa) = 26.60334 48.29199 37.44766
# Shear Modulus (GPa) = 24.62995 11.64908 18.13952
#
# Velocity S-wave (km/s) = 3.70935 2.55101 3.18331
# Velocity P-wave (km/s) = 5.76258 5.97115 5.86780
#
# Compressibility (1/GPa) = 0.03758927
#
# Stress axis : x y z
#
# Youngs Moduli (GPa) = 109.00794 76.51642 19.68071
#
# Poissons Ratio (x) = 0.17660 0.03819
# Poissons Ratio (y) = 0.25160 0.26537
# Poissons Ratio (z) = 0.21155 1.03172
#
# Static dielectric constant tensor:
#      x y z
#    x 1.659910 0.000000 0.021710 
#    y 0.000000 1.620340 0.000000 
#    z 0.021710 0.000000 1.608690 
# 
# From -- ./inp_files/49027.got.cif
#   From: 2010.05.17/outbox.cif.g08.bks.cpg/sg5_25_cif.got.tgz:49027.got - 2010.06.03 18:56:24.
