data_PCOD9122692
_publ_section_title
;
Structure prediction by ZEFSAII (Michael W. Deem and Ramdas Pophale) SiO2 
 PCOD9122692
Probable space group: C 2
;
_chemical_formula_sum "Si O2"
_cell_formula_units_Z 24
_cell_length_a 5.148864
_cell_length_b 19.799124
_cell_length_c 12.766580
_cell_angle_alpha 90.000000
_cell_angle_beta 126.260417
_cell_angle_gamma 90.000000
_cell_volume 1049.418223
_symmetry_space_group_name_H-M "C 2"
_symmetry_group_IT_number 5
_symmetry_cell_setting 'monoclinic'
loop_
_space_group_symop_operation_xyz
x,y,z
-x,y,-z
1/2+x,1/2+y,z
1/2-x,1/2+y,-z
loop_
_atom_site_type_symbol
_atom_site_label
_atom_site_fract_x
_atom_site_fract_y
_atom_site_fract_z
Si Si1 0.388790 0.558680 0.088867
Si Si2 0.209860 0.125092 0.370902
Si Si3 0.364235 0.410040 0.132710
Si Si4 0.141038 0.869371 0.415512
Si Si5 0.329858 0.213561 0.651220
Si Si6 0.120847 0.765326 0.921275
O O1 0.529787 0.590685 0.229815
O O2 0.503880 0.480342 0.125802
O O3 0.500000 0.584437 0.000000
O O4 0.000000 0.561361 0.000000
O O5 0.500000 0.084212 0.500000
O O6 0.418058 0.182950 0.367188
O O7 0.966635 0.164094 0.390591
O O8 0.413738 0.402307 0.270652
O O9 0.520577 0.341239 0.125455
O O10 0.000000 0.410146 0.000000
O O11 0.500000 0.900785 0.500000
O O12 0.196951 0.791453 0.392124
O O13 0.000000 0.871701 0.500000
O O14 0.497313 0.218555 0.802216
O O15 0.500000 0.770377 0.000000
O O16 0.000000 0.736603 0.000000
#
# Coordination Sequence:
#
# PCOD9122692 Si02
#       6
#     4   4   4   4   4   4
#     4  11  25  45  67  90 123 167 213 260 310 366
#     4  12  25  42  63  90 125 167 210 257 307 364
#     4   9  22  43  65  92 126 163 204 255 315 369
#     4  11  23  40  66  97 128 163 204 253 310 376
#     4  11  23  39  62  90 126 165 204 251 312 371
#     4  10  20  35  60  93 125 157 198 252 309 370
#
# _framework density 22.869816
#
# number of rings (size 3 to 8) (size 9 to 14) (size 15 to 20)
#    0.000    1.333    0.000    5.500    0.000   14.000 
#    0.000    1.667    0.000    0.000    0.000    0.000 
#    0.000    0.000    0.000    0.000    0.000    0.000 
#
# Total GULP energy -66927.715363 kJ/mol
# GULP energy per Si atom -5577.309614 kJ/mol
# Density = 2.281776 g / cm^3
# Si number density = 22.869816 Si / 1000 Ang^3
#
#
#
# Elastic Constant Matrix: (Units=GPa)
#
#
# Indices 1 2 3 4 5 6 
#
# 1 131.9181 17.4025 76.9212 0.0000 -28.6830 0.0000
# 2 17.4025 55.2392 39.5839 0.0000 5.2392 0.0000
# 3 76.9212 39.5839 216.6493 0.0000 -20.9894 0.0000
# 4 0.0000 0.0000 0.0000 21.8988 0.0000 -19.4907
# 5 -28.6830 5.2392 -20.9894 0.0000 50.0993 0.0000
# 6 0.0000 0.0000 0.0000 -19.4907 0.0000 13.2773
#
#
#
# Elastic Compliance Matrix: (Units=1/GPa)
#
#
# Indices 1 2 3 4 5 6 
#
# 1 0.010631 -0.001689 -0.002980 0.000000 0.005015 0.000000
# 2 -0.001689 0.021870 -0.003868 0.000000 -0.004875 0.000000
# 3 -0.002980 -0.003868 0.006519 0.000000 0.001430 0.000000
# 4 0.000000 0.000000 0.000000 -0.148969 0.000000 -0.218682
# 5 0.005015 -0.004875 0.001430 0.000000 0.023940 0.000000
# 6 0.000000 0.000000 0.000000 -0.218682 0.000000 -0.245701
#
#
# Mechanical properties :
#
#
# Convention : Reuss Voigt Hill
#
# Bulk Modulus (GPa) = 45.56939 74.62463 60.09701
# Shear Modulus (GPa) = -16.26971 35.04836 9.38933
#
# Velocity S-wave (km/s) = -2.67011 3.91898 2.02842
# Velocity P-wave (km/s) = 3.23463 7.29239 5.64100
#
# Compressibility (1/GPa) = 0.02194455
#
# Stress axis : x y z
#
# Youngs Moduli (GPa) = 94.06069 45.72556 153.39479
#
# Poissons Ratio (x) = 0.07725 0.45714
# Poissons Ratio (y) = 0.15890 0.59337
# Poissons Ratio (z) = 0.28032 0.17688
#
# Static dielectric constant tensor:
#      x y z
#    x 1.813310 0.000000 0.011190 
#    y 0.000000 1.890380 0.000000 
#    z 0.011190 0.000000 1.895090 
# 
# From -- ./inp_files/34266.got.cif
#   From: 2010.05.17/outbox.cif.g08.bks.cpg/sg5_18_cif.got.tgz:34266.got - 2010.06.03 18:56:24.
