data_PCOD9122998
_publ_section_title
;
Structure prediction by ZEFSAII (Michael W. Deem and Ramdas Pophale) SiO2 
 PCOD9122998
Probable space group: C 2
;
_chemical_formula_sum "Si O2"
_cell_formula_units_Z 28
_cell_length_a 14.029042
_cell_length_b 11.736027
_cell_length_c 17.406153
_cell_angle_alpha 90.000000
_cell_angle_beta 145.723754
_cell_angle_gamma 90.000000
_cell_volume 1613.993732
_symmetry_space_group_name_H-M "C 2"
_symmetry_group_IT_number 5
_symmetry_cell_setting 'monoclinic'
loop_
_space_group_symop_operation_xyz
x,y,z
-x,y,-z
1/2+x,1/2+y,z
1/2-x,1/2+y,-z
loop_
_atom_site_type_symbol
_atom_site_label
_atom_site_fract_x
_atom_site_fract_y
_atom_site_fract_z
Si Si1 0.691781 0.730640 0.771869
Si Si2 0.712459 0.532304 0.017172
Si Si3 0.000000 0.895597 0.000000
Si Si4 0.015936 0.358656 0.235830
Si Si5 0.666186 0.482157 0.810606
Si Si6 0.000000 0.165126 0.500000
Si Si7 0.390461 0.444875 0.498707
Si Si8 0.609677 0.765039 0.003433
O O1 0.571351 0.775617 0.760193
O O2 0.735494 0.597748 0.816832
O O3 0.593174 0.735404 0.626424
O O4 0.852039 0.811793 0.874013
O O5 0.644045 0.515202 0.885164
O O6 0.580796 0.471537 0.986757
O O7 0.891226 0.467883 0.146214
O O8 0.726786 0.664803 0.048291
O O9 0.207314 0.389923 0.384276
O O10 0.006192 0.303306 0.144974
O O11 0.503018 0.447785 0.650908
O O12 0.790784 0.374309 0.897701
O O13 0.125564 0.076576 0.540169
O O14 0.500000 0.393195 0.500000
O O15 0.500000 0.717990 0.000000
#
# Coordination Sequence:
#
# PCOD9122998 Si02
#       8
#     4   4   2   4   4   2   4   4
#     4  10  20  37  57  82 109 144 183 229 268 328
#     4  10  21  39  53  86 113 144 183 223 281 325
#     4  10  22  36  58  80 114 144 180 228 272 330
#     4  10  21  37  59  79 113 147 181 227 278 326
#     4  10  21  37  55  86 106 144 190 225 276 322
#     4   8  20  36  56  80 108 142 184 230 266 320
#     4   9  19  38  56  79 112 141 187 229 267 329
#     4  11  21  35  59  82 115 145 180 234 269 333
#
# _framework density 17.348271
#
# number of rings (size 3 to 8) (size 9 to 14) (size 15 to 20)
#    0.429    1.714    2.143    0.857    1.000    2.286 
#    5.143    0.000    0.000    0.000    0.000    0.000 
#    0.000    0.000    0.000    0.000    0.000    0.000 
#
# Total GULP energy -77986.257819 kJ/mol
# GULP energy per Si atom -5570.446987 kJ/mol
# Density = 1.730879 g / cm^3
# Si number density = 17.348271 Si / 1000 Ang^3
#
#
#
# Elastic Constant Matrix: (Units=GPa)
#
#
# Indices 1 2 3 4 5 6 
#
# 1 50.6922 9.7255 34.4571 -0.0006 -8.1425 0.0000
# 2 9.7255 76.6279 37.5319 -0.0009 -2.7982 0.0000
# 3 34.4571 37.5319 100.0115 -0.0014 -16.5858 -0.0001
# 4 -0.0006 -0.0009 -0.0014 4.0954 -0.0004 1.8468
# 5 -8.1425 -2.7982 -16.5858 -0.0004 32.6882 0.0000
# 6 0.0000 0.0000 -0.0001 1.8468 0.0000 13.3100
#
#
#
# Elastic Compliance Matrix: (Units=1/GPa)
#
#
# Indices 1 2 3 4 5 6 
#
# 1 0.025984 0.001224 -0.009085 0.000001 0.001967 0.000000
# 2 0.001224 0.016147 -0.006771 0.000001 -0.001749 0.000000
# 3 -0.009085 -0.006771 0.016595 0.000004 0.005578 0.000000
# 4 0.000001 0.000001 0.000004 0.260473 0.000005 -0.036142
# 5 0.001967 -0.001749 0.005578 0.000005 0.033762 -0.000001
# 6 0.000000 0.000000 0.000000 -0.036142 -0.000001 0.080146
#
#
# Mechanical properties :
#
#
# Convention : Reuss Voigt Hill
#
# Bulk Modulus (GPa) = 33.94346 43.41785 38.68065
# Shear Modulus (GPa) = 10.58889 19.72655 15.15772
#
# Velocity S-wave (km/s) = 2.47325 3.37573 2.95910
# Velocity P-wave (km/s) = 5.26919 6.34631 5.83267
#
# Compressibility (1/GPa) = 0.02946076
#
# Stress axis : x y z
#
# Youngs Moduli (GPa) = 38.48588 61.92914 60.25879
#
# Poissons Ratio (x) = -0.07579 0.54746
# Poissons Ratio (y) = -0.04710 0.40804
# Poissons Ratio (z) = 0.34965 0.41935
#
# Static dielectric constant tensor:
#      x y z
#    x 1.610830 0.000000 0.002630 
#    y 0.000000 1.599960 0.000000 
#    z 0.002630 0.000000 1.557510 
# 
# From -- ./inp_files/30851.got.cif
#   From: 2010.05.17/outbox.cif.g08.bks.cpg/sg5_16_cif.got.tgz:30851.got - 2010.06.03 18:56:24.
