data_PCOD9122869
_publ_section_title
;
Structure prediction by ZEFSAII (Michael W. Deem and Ramdas Pophale) SiO2 
 PCOD9122869
Probable space group: C 2
;
_chemical_formula_sum "Si O2"
_cell_formula_units_Z 24
_cell_length_a 7.956305
_cell_length_b 18.591284
_cell_length_c 11.745861
_cell_angle_alpha 90.000000
_cell_angle_beta 143.428418
_cell_angle_gamma 90.000000
_cell_volume 1035.203099
_symmetry_space_group_name_H-M "C 2"
_symmetry_group_IT_number 5
_symmetry_cell_setting 'monoclinic'
loop_
_space_group_symop_operation_xyz
x,y,z
-x,y,-z
1/2+x,1/2+y,z
1/2-x,1/2+y,-z
loop_
_atom_site_type_symbol
_atom_site_label
_atom_site_fract_x
_atom_site_fract_y
_atom_site_fract_z
Si Si1 0.885195 0.855410 0.252843
Si Si2 0.589691 0.193048 0.793494
Si Si3 0.716798 0.452085 0.268149
Si Si4 0.459817 0.849338 0.714089
Si Si5 0.197736 0.193185 0.772687
Si Si6 0.407888 0.616964 0.793699
O O1 0.966383 0.913488 0.201773
O O2 0.170607 0.853483 0.484252
O O3 0.849579 0.777598 0.176478
O O4 0.632350 0.864293 0.205904
O O5 0.290433 0.186768 0.692108
O O6 0.642835 0.162030 0.696978
O O7 0.822499 0.149678 0.992661
O O8 0.637444 0.534181 0.204070
O O9 0.000000 0.452748 0.500000
O O10 0.816204 0.406326 0.213146
O O11 0.575176 0.769872 0.746894
O O12 0.990847 0.132463 0.708738
O O13 0.500000 0.187678 0.000000
#
# Coordination Sequence:
#
# PCOD9122869 Si02
#       6
#     4   4   4   4   4   4
#     4  10  20  37  66  91 119 156 206 254 299 358
#     4  10  20  38  61  85 122 160 203 249 294 362
#     4  10  22  40  60  89 126 160 198 251 309 359
#     4  10  20  37  63  95 117 156 206 252 303 357
#     4  10  20  36  61  86 122 158 203 248 293 360
#     4  10  22  38  57  87 127 161 196 248 303 360
#
# _framework density 23.183857
#
# number of rings (size 3 to 8) (size 9 to 14) (size 15 to 20)
#    0.000    2.000    3.333    0.000    0.000    2.667 
#    3.000    0.000   11.000    0.000    0.000    0.000 
#    0.000    0.000    0.000    0.000    0.000    0.000 
#
# Total GULP energy -67077.683822 kJ/mol
# GULP energy per Si atom -5589.806985 kJ/mol
# Density = 2.313109 g / cm^3
# Si number density = 23.183857 Si / 1000 Ang^3
#
#
#
# Elastic Constant Matrix: (Units=GPa)
#
#
# Indices 1 2 3 4 5 6 
#
# 1 222.0079 58.0506 31.0534 -0.0003 21.5997 0.0000
# 2 58.0506 141.8936 10.7727 0.0001 14.2245 0.0000
# 3 31.0534 10.7727 84.4796 -0.0003 20.0264 0.0000
# 4 -0.0003 0.0001 -0.0003 59.4422 -0.0004 15.7676
# 5 21.5997 14.2245 20.0264 -0.0004 28.4052 0.0000
# 6 0.0000 0.0000 0.0000 15.7676 0.0000 46.9521
#
#
#
# Elastic Compliance Matrix: (Units=1/GPa)
#
#
# Indices 1 2 3 4 5 6 
#
# 1 0.005388 -0.001882 -0.001192 0.000000 -0.002315 0.000000
# 2 -0.001882 0.008078 0.000338 0.000000 -0.002852 0.000000
# 3 -0.001192 0.000338 0.014477 0.000000 -0.009469 0.000000
# 4 0.000000 0.000000 0.000000 0.018468 0.000000 -0.006202
# 5 -0.002315 -0.002852 -0.009469 0.000000 0.045069 0.000000
# 6 0.000000 0.000000 0.000000 -0.006202 0.000000 0.023381
#
#
# Mechanical properties :
#
#
# Convention : Reuss Voigt Hill
#
# Bulk Modulus (GPa) = 44.50185 72.01494 58.25840
# Shear Modulus (GPa) = 39.11619 50.19353 44.65486
#
# Velocity S-wave (km/s) = 4.11203 4.65803 4.39352
# Velocity P-wave (km/s) = 6.46389 7.74981 7.13588
#
# Compressibility (1/GPa) = 0.02247098
#
# Stress axis : x y z
#
# Youngs Moduli (GPa) = 185.58553 123.79711 69.07480
#
# Poissons Ratio (x) = 0.23298 0.08234
# Poissons Ratio (y) = 0.34926 -0.02334
# Poissons Ratio (z) = 0.22122 -0.04183
#
# Static dielectric constant tensor:
#      x y z
#    x 1.799660 0.000000 0.023620 
#    y 0.000000 1.767440 0.000000 
#    z 0.023620 0.000000 1.899250 
# 
# From -- ./inp_files/51020.got.cif
#   From: 2010.05.17/outbox.cif.g08.bks.cpg/sg5_26_cif.got.tgz:51020.got - 2010.06.03 18:56:24.
