data_PCOD9122346
_publ_section_title
;
Structure prediction by ZEFSAII (Michael W. Deem and Ramdas Pophale) SiO2 
 PCOD9122346
Probable space group: C 2
;
_chemical_formula_sum "Si O2"
_cell_formula_units_Z 24
_cell_length_a 6.177530
_cell_length_b 17.226385
_cell_length_c 10.485390
_cell_angle_alpha 90.000000
_cell_angle_beta 88.873492
_cell_angle_gamma 90.000000
_cell_volume 1115.602949
_symmetry_space_group_name_H-M "C 2"
_symmetry_group_IT_number 5
_symmetry_cell_setting 'monoclinic'
loop_
_space_group_symop_operation_xyz
x,y,z
-x,y,-z
1/2+x,1/2+y,z
1/2-x,1/2+y,-z
loop_
_atom_site_type_symbol
_atom_site_label
_atom_site_fract_x
_atom_site_fract_y
_atom_site_fract_z
Si Si1 0.000000 0.275751 0.000000
Si Si2 0.418548 0.510886 0.862905
Si Si3 0.864539 0.107401 0.370194
Si Si4 0.290627 0.255799 0.769977
Si Si5 0.179698 0.855732 0.811977
Si Si6 0.908074 0.423308 0.278852
Si Si7 0.500000 0.011467 0.500000
O O1 0.835591 0.232870 0.097788
O O2 0.159030 0.329941 0.078856
O O3 0.505823 0.565738 0.747427
O O4 0.528672 0.425937 0.855549
O O5 0.170363 0.484513 0.829719
O O6 0.500000 0.541997 0.000000
O O7 0.783855 0.192206 0.328878
O O8 0.645289 0.061170 0.403483
O O9 0.000000 0.110267 0.500000
O O10 0.544367 0.278004 0.779613
O O11 0.201047 0.340342 0.736115
O O12 0.340303 0.898928 0.712704
O O13 0.844063 0.461046 0.412940
#
# Coordination Sequence:
#
# PCOD9122346 Si02
#       7
#     2   4   4   4   4   4   2
#     4  10  20  40  72  98 142 174 238 290 354 420
#     4  11  22  41  72 104 136 180 236 297 358 418
#     4  12  27  47  65 100 149 189 236 293 358 425
#     4  10  24  41  67 101 138 188 231 297 350 424
#     4  10  19  41  69 105 133 176 236 291 353 423
#     4  10  22  42  70  98 130 186 239 290 346 422
#     4  12  24  46  66  96 140 194 238 290 354 420
#
# _framework density 21.513031000000002
#
# number of rings (size 3 to 8) (size 9 to 14) (size 15 to 20)
#    0.000    1.333    3.333    3.500    2.333    2.667 
#    0.000    1.667    0.000    0.000    0.000    0.000 
#    0.000    0.000    0.000    0.000    0.000    0.000 
#
# Total GULP energy -66815.718359 kJ/mol
# GULP energy per Si atom -5567.976530 kJ/mol
# Density = 2.146407 g / cm^3
# Si number density = 21.513031 Si / 1000 Ang^3
#
#
#
# Elastic Constant Matrix: (Units=GPa)
#
#
# Indices 1 2 3 4 5 6 
#
# 1 90.1992 35.4099 31.8394 0.0000 8.1838 0.0000
# 2 35.4099 90.5334 56.1657 0.0000 8.0996 0.0000
# 3 31.8394 56.1657 127.5884 0.0000 13.8441 0.0000
# 4 0.0000 0.0000 0.0000 38.0241 0.0000 5.3512
# 5 8.1838 8.0996 13.8441 0.0000 30.7455 0.0000
# 6 0.0000 0.0000 0.0000 5.3512 0.0000 12.7020
#
#
#
# Elastic Compliance Matrix: (Units=1/GPa)
#
#
# Indices 1 2 3 4 5 6 
#
# 1 0.013382 -0.004293 -0.001247 0.000000 -0.001870 0.000000
# 2 -0.004293 0.016605 -0.006190 0.000000 -0.000444 0.000000
# 3 -0.001247 -0.006190 0.011208 0.000000 -0.003084 0.000000
# 4 0.000000 0.000000 0.000000 0.027957 0.000000 -0.011778
# 5 -0.001870 -0.000444 -0.003084 0.000000 0.034529 0.000000
# 6 0.000000 0.000000 0.000000 -0.011778 0.000000 0.083690
#
#
# Mechanical properties :
#
#
# Convention : Reuss Voigt Hill
#
# Bulk Modulus (GPa) = 56.38527 61.68343 59.03435
# Shear Modulus (GPa) = 23.06898 28.62139 25.84518
#
# Velocity S-wave (km/s) = 3.27819 3.65145 3.46984
# Velocity P-wave (km/s) = 6.37145 6.81999 6.59954
#
# Compressibility (1/GPa) = 0.01773513
#
# Stress axis : x y z
#
# Youngs Moduli (GPa) = 74.72910 60.22345 89.21908
#
# Poissons Ratio (x) = 0.25856 0.11122
# Poissons Ratio (y) = 0.32083 0.55227
# Poissons Ratio (z) = 0.09315 0.37278
#
# Static dielectric constant tensor:
#      x y z
#    x 2.035350 0.000000 -0.040380 
#    y 0.000000 1.776300 0.000000 
#    z -0.040380 0.000000 1.844510 
# 
# From -- ./inp_files/33501.got.cif
#   From: 2010.05.17/outbox.cif.g08.bks.cpg/sg5_17_cif.got.tgz:33501.got - 2010.06.03 18:56:24.
