data_PCOD9122569
_publ_section_title
;
Structure prediction by ZEFSAII (Michael W. Deem and Ramdas Pophale) SiO2 
 PCOD9122569
Probable space group: C 2
;
_chemical_formula_sum "Si O2"
_cell_formula_units_Z 30
_cell_length_a 10.130791
_cell_length_b 20.201309
_cell_length_c 13.275828
_cell_angle_alpha 90.000000
_cell_angle_beta 145.082552
_cell_angle_gamma 90.000000
_cell_volume 1555.180400
_symmetry_space_group_name_H-M "C 2"
_symmetry_group_IT_number 5
_symmetry_cell_setting 'monoclinic'
loop_
_space_group_symop_operation_xyz
x,y,z
-x,y,-z
1/2+x,1/2+y,z
1/2-x,1/2+y,-z
loop_
_atom_site_type_symbol
_atom_site_label
_atom_site_fract_x
_atom_site_fract_y
_atom_site_fract_z
Si Si1 0.070173 0.824920 0.770559
Si Si2 0.500000 0.542978 0.500000
Si Si3 0.183072 0.075039 0.202746
Si Si4 0.400634 0.889097 0.545360
Si Si5 0.826992 0.441535 0.814059
Si Si6 0.282118 0.037148 0.491763
Si Si7 0.259782 0.225585 0.288971
Si Si8 0.092445 0.332339 0.849645
O O1 0.172491 0.890637 0.781371
O O2 0.175562 0.765039 0.772194
O O3 0.799554 0.834792 0.591623
O O4 0.168077 0.821107 0.944169
O O5 0.685143 0.495963 0.668778
O O6 0.637049 0.573454 0.489704
O O7 0.170018 0.046122 0.309667
O O8 0.450848 0.060797 0.340830
O O9 0.161283 0.153833 0.203318
O O10 0.000000 0.053409 0.000000
O O11 0.500000 0.907079 0.500000
O O12 0.593214 0.856551 0.736323
O O13 0.298007 0.958195 0.522366
O O14 0.967577 0.393519 0.828358
O O15 0.000000 0.474973 0.000000
O O16 0.500000 0.219095 0.500000
O O17 0.076944 0.270401 0.235562
#
# Coordination Sequence:
#
# PCOD9122569 Si02
#       8
#     4   2   4   4   4   4   4   4
#     4  10  20  34  58  92 116 144 192 253 313 359
#     4  12  20  36  58  82 126 156 206 248 296 362
#     4  11  24  45  66  89 121 165 220 266 301 363
#     4  12  22  36  53  84 127 168 203 238 307 378
#     4   9  17  29  53  85 112 141 179 234 300 351
#     4  11  24  39  59  92 122 173 215 249 308 366
#     4  11  19  39  73  92 113 148 204 268 312 355
#     4  10  20  34  58  92 116 144 192 253 313 359
#
# _framework density 19.290367
#
# number of rings (size 3 to 8) (size 9 to 14) (size 15 to 20)
#    0.000    1.333    6.667    2.000    1.867    2.667 
#    0.000    0.000    5.867    0.000    0.000    0.000 
#    0.000    0.000    0.000    0.000    0.000    0.000 
#
# Total GULP energy -83613.322985 kJ/mol
# GULP energy per Si atom -5574.221532 kJ/mol
# Density = 1.924646 g / cm^3
# Si number density = 19.290367 Si / 1000 Ang^3
#
#
#
# Elastic Constant Matrix: (Units=GPa)
#
#
# Indices 1 2 3 4 5 6 
#
# 1 82.5818 -3.7039 23.7617 0.0172 -14.7666 0.0039
# 2 -3.7039 51.4902 15.0245 0.0057 -7.8085 0.0013
# 3 23.7617 15.0245 121.0057 0.0221 -35.4746 0.0051
# 4 0.0172 0.0057 0.0221 -446.4645 0.0153 -112.0045
# 5 -14.7666 -7.8085 -35.4746 0.0153 22.1754 0.0034
# 6 0.0039 0.0013 0.0051 -112.0045 0.0034 -13.4761
#
#
#
# Elastic Compliance Matrix: (Units=1/GPa)
#
#
# Indices 1 2 3 4 5 6 
#
# 1 0.014061 0.002576 -0.000132 0.000001 0.010059 0.000001
# 2 0.002576 0.021031 -0.000835 0.000000 0.007785 0.000001
# 3 -0.000132 -0.000835 0.015596 0.000001 0.024568 0.000001
# 4 0.000001 0.000000 0.000001 0.002064 0.000004 -0.017156
# 5 0.010059 0.007785 0.024568 0.000004 0.093836 0.000004
# 6 0.000001 0.000001 0.000001 -0.017156 0.000004 0.068388
#
#
# Mechanical properties :
#
#
# Convention : Reuss Voigt Hill
#
# Bulk Modulus (GPa) = 18.55088 36.13802 27.34445
# Shear Modulus (GPa) = 21.76496 -72.88668 -25.56086
#
# Velocity S-wave (km/s) = 3.36263 -6.15354 -3.64408
# Velocity P-wave (km/s) = 4.97131 5.63149 1.87079
#
# Compressibility (1/GPa) = 0.05390580
#
# Stress axis : x y z
#
# Youngs Moduli (GPa) = 71.11666 47.54976 64.11916
#
# Poissons Ratio (x) = -0.12246 0.00846
# Poissons Ratio (y) = -0.18316 0.05351
# Poissons Ratio (z) = 0.00939 0.03968
#
# Static dielectric constant tensor:
#      x y z
#    x 2.178660 0.000000 -0.606430 
#    y 0.000000 1.644850 0.000000 
#    z -0.606430 0.000000 2.484450 
# 
# From -- ./inp_files/53546.got.cif
#   From: 2010.05.17/outbox.cif.g08.bks.cpg/sg5_27_cif.got.tgz:53546.got - 2010.06.03 18:56:24.
