data_PCOD9122155
_publ_section_title
;
Structure prediction by ZEFSAII (Michael W. Deem and Ramdas Pophale) SiO2 
 PCOD9122155
Probable space group: C 2
;
_chemical_formula_sum "Si O2"
_cell_formula_units_Z 30
_cell_length_a 8.293483
_cell_length_b 12.726852
_cell_length_c 11.773470
_cell_angle_alpha 90.000000
_cell_angle_beta 70.088571
_cell_angle_gamma 90.000000
_cell_volume 1168.401261
_symmetry_space_group_name_H-M "C 2"
_symmetry_group_IT_number 5
_symmetry_cell_setting 'monoclinic'
loop_
_space_group_symop_operation_xyz
x,y,z
-x,y,-z
1/2+x,1/2+y,z
1/2-x,1/2+y,-z
loop_
_atom_site_type_symbol
_atom_site_label
_atom_site_fract_x
_atom_site_fract_y
_atom_site_fract_z
Si Si1 0.066774 0.109480 0.640757
Si Si2 0.744787 0.316875 0.077051
Si Si3 0.291286 0.121954 0.394785
Si Si4 0.174150 0.329947 0.691920
Si Si5 0.810059 0.338202 0.817808
Si Si6 0.500000 0.287082 0.500000
Si Si7 0.469498 0.147352 0.136759
Si Si8 0.527576 0.499192 0.878537
O O1 0.212354 0.060187 0.523077
O O2 0.169748 0.204520 0.673793
O O3 0.895027 0.147764 0.616549
O O4 0.995303 0.047335 0.764763
O O5 0.807493 0.356328 0.181821
O O6 0.647153 0.206848 0.119054
O O7 0.602128 0.402397 0.076206
O O8 0.858917 0.313447 0.937322
O O9 0.406661 0.215116 0.424656
O O10 0.403439 0.080448 0.260957
O O11 0.350049 0.359101 0.588435
O O12 0.980011 0.352559 0.702446
O O13 0.673954 0.242595 0.829902
O O14 0.713513 0.447921 0.829899
O O15 0.500000 0.104088 0.000000
O O16 0.500000 0.566080 0.000000
#
# Coordination Sequence:
#
# PCOD9122155 Si02
#       8
#     4   4   4   4   4   2   4   4
#     4  10  22  36  64  86 125 171 209 264 313 383
#     4   9  18  33  59  89 126 157 201 258 315 372
#     4  10  19  39  56  86 125 161 212 257 322 357
#     4  11  19  34  60  96 118 159 216 264 308 367
#     4   9  18  33  61  90 124 161 205 259 312 374
#     4  10  22  34  58  90 128 166 198 278 314 362
#     4   9  16  32  58  90 121 158 201 261 315 370
#     4   9  20  41  60  89 131 173 203 254 331 389
#
# _framework density 25.676110000000001
#
# number of rings (size 3 to 8) (size 9 to 14) (size 15 to 20)
#    0.000    2.400    2.667    2.000    0.000    1.067 
#    0.000    4.000    0.000    3.200    0.000    0.000 
#    0.000    0.000    0.000    0.000    0.000    0.000 
#
# Total GULP energy -83536.281270 kJ/mol
# GULP energy per Si atom -5569.085418 kJ/mol
# Density = 2.561767 g / cm^3
# Si number density = 25.676110 Si / 1000 Ang^3
#
#
#
# Elastic Constant Matrix: (Units=GPa)
#
#
# Indices 1 2 3 4 5 6 
#
# 1 109.1881 15.2600 64.4982 0.0000 -25.2061 0.0000
# 2 15.2600 33.5598 19.5566 0.0000 4.2142 0.0000
# 3 64.4982 19.5566 155.4855 0.0000 -22.0821 0.0000
# 4 0.0000 0.0000 0.0000 -10.2598 0.0000 6.5073
# 5 -25.2061 4.2142 -22.0821 0.0000 58.9685 0.0000
# 6 0.0000 0.0000 0.0000 6.5073 0.0000 16.9099
#
#
#
# Elastic Compliance Matrix: (Units=1/GPa)
#
#
# Indices 1 2 3 4 5 6 
#
# 1 0.013325 -0.004037 -0.004404 0.000000 0.004335 0.000000
# 2 -0.004037 0.034309 -0.003416 0.000000 -0.005457 0.000000
# 3 -0.004404 -0.003416 0.008930 0.000000 0.001706 0.000000
# 4 0.000000 0.000000 0.000000 -0.078345 0.000000 0.030149
# 5 0.004335 -0.005457 0.001706 0.000000 0.019840 0.000000
# 6 0.000000 0.000000 0.000000 0.030149 0.000000 0.047535
#
#
# Mechanical properties :
#
#
# Convention : Reuss Voigt Hill
#
# Bulk Modulus (GPa) = 30.44071 55.20701 42.82386
# Shear Modulus (GPa) = 62.30016 26.38496 44.34256
#
# Velocity S-wave (km/s) = 4.93118 3.20911 4.16022
# Velocity P-wave (km/s) = 6.65608 5.93963 6.30803
#
# Compressibility (1/GPa) = 0.03285075
#
# Stress axis : x y z
#
# Youngs Moduli (GPa) = 75.04725 29.14707 111.97976
#
# Poissons Ratio (x) = 0.11767 0.49316
# Poissons Ratio (y) = 0.30296 0.38248
# Poissons Ratio (z) = 0.33051 0.09956
#
# Static dielectric constant tensor:
#      x y z
#    x 2.029560 0.000000 -0.028280 
#    y 0.000000 2.038260 0.000000 
#    z -0.028280 0.000000 2.188230 
# 
# From -- ./inp_files/36818.got.cif
#   From: 2010.05.17/outbox.cif.g08.bks.cpg/sg5_19_cif.got.tgz:36818.got - 2010.06.03 18:56:24.
