data_PCOD9122590
_publ_section_title
;
Structure prediction by ZEFSAII (Michael W. Deem and Ramdas Pophale) SiO2 
 PCOD9122590
Probable space group: C 2
;
_chemical_formula_sum "Si O2"
_cell_formula_units_Z 32
_cell_length_a 8.979720
_cell_length_b 20.135525
_cell_length_c 12.486255
_cell_angle_alpha 90.000000
_cell_angle_beta 41.438456
_cell_angle_gamma 90.000000
_cell_volume 1494.151641
_symmetry_space_group_name_H-M "C 2"
_symmetry_group_IT_number 5
_symmetry_cell_setting 'monoclinic'
loop_
_space_group_symop_operation_xyz
x,y,z
-x,y,-z
1/2+x,1/2+y,z
1/2-x,1/2+y,-z
loop_
_atom_site_type_symbol
_atom_site_label
_atom_site_fract_x
_atom_site_fract_y
_atom_site_fract_z
Si Si1 0.869048 0.103610 0.458128
Si Si2 0.665740 0.976275 0.659159
Si Si3 0.341227 0.229833 0.349470
Si Si4 0.231774 0.024974 0.163285
Si Si5 0.302436 0.782352 0.023965
Si Si6 0.818225 0.928274 0.003433
Si Si7 0.403263 0.863003 0.444963
Si Si8 0.238954 0.261359 0.174432
O O1 0.727983 0.171351 0.533644
O O2 0.000000 0.106254 0.500000
O O3 0.705607 0.040362 0.563849
O O4 0.940488 0.086392 0.731839
O O5 0.774977 0.989124 0.716433
O O6 0.735699 0.911335 0.555481
O O7 0.407866 0.959407 0.824181
O O8 0.602993 0.241697 0.187445
O O9 0.240821 0.299268 0.443611
O O10 0.237342 0.219674 0.285001
O O11 0.141489 0.976719 0.119630
O O12 0.500000 0.041189 0.000000
O O13 0.217899 0.854985 0.028867
O O14 0.500000 0.793177 0.000000
O O15 0.376460 0.743687 0.875677
O O16 0.000000 0.928010 0.000000
O O17 0.500000 0.896987 0.500000
O O18 0.620975 0.830242 0.271104
O O19 0.500000 0.265772 0.000000
#
# Coordination Sequence:
#
# PCOD9122590 Si02
#       8
#     4   4   4   4   4   4   4   4
#     4  10  21  42  66  96 137 177 224 276 322 405
#     4  10  21  37  62  96 136 170 224 275 344 386
#     4  10  22  40  65  97 133 175 230 270 332 397
#     4   9  21  41  66  99 128 175 224 276 340 396
#     4  11  22  39  66  99 138 170 218 283 341 401
#     4  11  22  39  67 101 131 171 229 282 334 403
#     4  10  20  34  60  98 130 170 221 279 335 386
#     4   9  18  36  62  96 127 169 217 270 322 391
#
# _framework density 21.416836
#
# number of rings (size 3 to 8) (size 9 to 14) (size 15 to 20)
#    0.000    2.000    1.250    3.375    3.500    0.000 
#    2.250   24.375    0.000   10.500    0.000    0.000 
#    0.000    0.000    0.000    0.000    0.000    0.000 
#
# Total GULP energy -89230.760110 kJ/mol
# GULP energy per Si atom -5576.922507 kJ/mol
# Density = 2.136809 g / cm^3
# Si number density = 21.416836 Si / 1000 Ang^3
#
#
#
# Elastic Constant Matrix: (Units=GPa)
#
#
# Indices 1 2 3 4 5 6 
#
# 1 117.9636 43.8912 38.5252 0.0000 9.1388 0.0000
# 2 43.8912 115.5132 60.6671 0.0000 2.3207 0.0000
# 3 38.5252 60.6671 111.0288 0.0000 11.1308 0.0000
# 4 0.0000 0.0000 0.0000 36.5161 0.0000 0.5869
# 5 9.1388 2.3207 11.1308 0.0000 22.2674 0.0000
# 6 0.0000 0.0000 0.0000 0.5869 0.0000 21.7166
#
#
#
# Elastic Compliance Matrix: (Units=1/GPa)
#
#
# Indices 1 2 3 4 5 6 
#
# 1 0.010378 -0.003021 -0.001637 0.000000 -0.003126 0.000000
# 2 -0.003021 0.013120 -0.006430 0.000000 0.003087 0.000000
# 3 -0.001637 -0.006430 0.013637 0.000000 -0.005475 0.000000
# 4 0.000000 0.000000 0.000000 0.027397 0.000000 -0.000740
# 5 -0.003126 0.003087 -0.005475 0.000000 0.048607 0.000000
# 6 0.000000 0.000000 0.000000 -0.000740 0.000000 0.046068
#
#
# Mechanical properties :
#
#
# Convention : Reuss Voigt Hill
#
# Bulk Modulus (GPa) = 66.84892 70.07472 68.46182
# Shear Modulus (GPa) = 26.82860 29.52817 28.17839
#
# Velocity S-wave (km/s) = 3.54317 3.71716 3.63121
# Velocity P-wave (km/s) = 6.92963 7.15636 7.04391
#
# Compressibility (1/GPa) = 0.01495910
#
# Stress axis : x y z
#
# Youngs Moduli (GPa) = 96.35833 76.22045 73.32988
#
# Poissons Ratio (x) = 0.23024 0.12004
# Poissons Ratio (y) = 0.29107 0.47152
# Poissons Ratio (z) = 0.15774 0.49011
#
# Static dielectric constant tensor:
#      x y z
#    x 1.792390 0.000000 -0.000250 
#    y 0.000000 1.826820 0.000000 
#    z -0.000250 0.000000 1.889850 
# 
# From -- ./inp_files/37321.got.cif
#   From: 2010.05.17/outbox.cif.g08.bks.cpg/sg5_19_cif.got.tgz:37321.got - 2010.06.03 18:56:24.
