data_PCOD9122987
_publ_section_title
;
Structure prediction by ZEFSAII (Michael W. Deem and Ramdas Pophale) SiO2 
 PCOD9122987
Probable space group: C 2
;
_chemical_formula_sum "Si O2"
_cell_formula_units_Z 28
_cell_length_a 33.212052
_cell_length_b 5.330929
_cell_length_c 10.303201
_cell_angle_alpha 90.000000
_cell_angle_beta 51.636393
_cell_angle_gamma 90.000000
_cell_volume 1430.327530
_symmetry_space_group_name_H-M "C 2"
_symmetry_group_IT_number 5
_symmetry_cell_setting 'monoclinic'
loop_
_space_group_symop_operation_xyz
x,y,z
-x,y,-z
1/2+x,1/2+y,z
1/2-x,1/2+y,-z
loop_
_atom_site_type_symbol
_atom_site_label
_atom_site_fract_x
_atom_site_fract_y
_atom_site_fract_z
Si Si1 0.477751 0.058020 0.395776
Si Si2 0.357641 0.472108 0.916861
Si Si3 0.216078 0.308590 0.067864
Si Si4 0.284412 0.307060 0.281393
Si Si5 0.522281 0.558008 0.306720
Si Si6 0.715524 0.309858 0.419296
Si Si7 0.857679 0.644935 0.652336
O O1 0.500000 0.057858 0.500000
O O2 0.500089 0.307877 0.288693
O O3 0.416574 0.069208 0.518028
O O4 0.499958 0.807877 0.289593
O O5 0.416538 0.547628 0.815705
O O6 0.355076 0.308621 0.789733
O O7 0.322373 0.717548 0.966864
O O8 0.331237 0.323573 0.087013
O O9 0.250002 0.558583 0.973962
O O10 0.250039 0.558474 0.668935
O O11 0.177621 0.399609 0.256452
O O12 0.302128 0.308444 0.395649
O O13 0.249972 0.558482 0.332676
O O14 0.500000 0.557836 0.500000
O O15 0.668673 0.293328 0.412398
#
# Coordination Sequence:
#
# PCOD9122987 Si02
#       7
#     4   4   4   4   4   4   4
#     4  10  20  37  54  84 124 154 191 249 320 369
#     4  12  25  37  65  95 122 165 212 259 315 375
#     4  12  26  36  51  94 135 154 194 268 318 360
#     4  10  25  44  61  87 130 174 209 252 310 378
#     4  10  20  37  54  84 124 154 191 249 320 369
#     4  10  25  44  61  87 130 174 209 252 310 378
#     4  12  25  37  65  95 122 165 212 259 315 375
#
# _framework density 19.575937
#
# number of rings (size 3 to 8) (size 9 to 14) (size 15 to 20)
#    0.000    1.143    4.286    2.571    8.000    0.000 
#    0.000    0.000    0.000    0.857    0.000    4.000 
#    0.000    0.000    0.000    0.000    0.000    0.000 
#
# Total GULP energy -78169.422740 kJ/mol
# GULP energy per Si atom -5583.530196 kJ/mol
# Density = 1.953138 g / cm^3
# Si number density = 19.575937 Si / 1000 Ang^3
#
#
#
# Elastic Constant Matrix: (Units=GPa)
#
#
# Indices 1 2 3 4 5 6 
#
# 1 146.4222 70.6640 99.5608 0.0000 -33.7643 0.0000
# 2 70.6640 189.5651 48.9954 0.0000 -25.3945 0.0000
# 3 99.5608 48.9954 109.0309 0.0000 -9.6764 0.0000
# 4 0.0000 0.0000 0.0000 28.5808 0.0000 -13.5980
# 5 -33.7643 -25.3945 -9.6764 0.0000 37.3952 0.0000
# 6 0.0000 0.0000 0.0000 -13.5980 0.0000 40.1526
#
#
#
# Elastic Compliance Matrix: (Units=1/GPa)
#
#
# Indices 1 2 3 4 5 6 
#
# 1 0.026567 -0.001977 -0.021864 0.000000 0.016988 0.000000
# 2 -0.001977 0.006581 -0.000936 0.000000 0.002442 0.000000
# 3 -0.021864 -0.000936 0.028401 0.000000 -0.013027 0.000000
# 4 0.000000 0.000000 0.000000 0.041709 0.000000 0.014125
# 5 0.016988 0.002442 -0.013027 0.000000 0.040367 0.000000
# 6 0.000000 0.000000 0.000000 0.014125 0.000000 0.029689
#
#
# Mechanical properties :
#
#
# Convention : Reuss Voigt Hill
#
# Bulk Modulus (GPa) = 83.35468 98.16205 90.75836
# Shear Modulus (GPa) = 22.03957 36.27892 29.15924
#
# Velocity S-wave (km/s) = 3.35901 4.30960 3.86365
# Velocity P-wave (km/s) = 7.59714 8.66121 8.14657
#
# Compressibility (1/GPa) = 0.01199693
#
# Stress axis : x y z
#
# Youngs Moduli (GPa) = 37.64034 151.95092 35.21046
#
# Poissons Ratio (x) = 0.30037 0.76983
# Poissons Ratio (y) = 0.07441 0.03294
# Poissons Ratio (z) = 0.82296 0.14215
#
# Static dielectric constant tensor:
#      x y z
#    x 1.683910 0.000000 0.007440 
#    y 0.000000 1.750040 0.000000 
#    z 0.007440 0.000000 1.689890 
# 
# From -- ./inp_files/32193.got.cif
#   From: 2010.05.17/outbox.cif.g08.bks.cpg/sg5_17_cif.got.tgz:32193.got - 2010.06.03 18:56:24.
