data_PCOD9122893
_publ_section_title
;
Structure prediction by ZEFSAII (Michael W. Deem and Ramdas Pophale) SiO2 
 PCOD9122893
Probable space group: C 2
;
_chemical_formula_sum "Si O2"
_cell_formula_units_Z 32
_cell_length_a 15.997184
_cell_length_b 14.835999
_cell_length_c 8.772925
_cell_angle_alpha 90.000000
_cell_angle_beta 42.252282
_cell_angle_gamma 90.000000
_cell_volume 1400.006525
_symmetry_space_group_name_H-M "C 2"
_symmetry_group_IT_number 5
_symmetry_cell_setting 'monoclinic'
loop_
_space_group_symop_operation_xyz
x,y,z
-x,y,-z
1/2+x,1/2+y,z
1/2-x,1/2+y,-z
loop_
_atom_site_type_symbol
_atom_site_label
_atom_site_fract_x
_atom_site_fract_y
_atom_site_fract_z
Si Si1 0.691414 0.821130 0.858454
Si Si2 0.569598 0.218552 0.547371
Si Si3 0.188973 0.533708 0.371193
Si Si4 0.980878 0.978384 0.347148
Si Si5 0.786073 0.869490 0.067932
Si Si6 0.308036 0.999112 0.289823
Si Si7 0.873320 0.139471 0.953694
Si Si8 0.324889 0.174610 0.054275
O O1 0.802610 0.774499 0.607344
O O2 0.635611 0.911074 0.864463
O O3 0.749343 0.850236 0.943049
O O4 0.600526 0.739034 0.022870
O O5 0.500000 0.264297 0.500000
O O6 0.607642 0.119514 0.439170
O O7 0.466193 0.199766 0.814029
O O8 0.195531 0.444982 0.260122
O O9 0.151632 0.512092 0.592433
O O10 0.324235 0.579334 0.161590
O O11 0.000000 0.963127 0.500000
O O12 0.018814 0.081687 0.264645
O O13 0.075097 0.912750 0.128880
O O14 0.837235 0.972017 0.504425
O O15 0.777426 0.774166 0.167213
O O16 0.322689 0.091228 0.173652
O O17 0.764105 0.146723 0.969953
#
# Coordination Sequence:
#
# PCOD9122893 Si02
#       8
#     4   4   4   4   4   4   4   4
#     4  10  20  36  64  92 115 152 206 253 305 344
#     4  11  20  39  69  92 113 159 206 260 298 354
#     4  10  23  39  56  91 128 155 194 250 318 357
#     4  11  19  35  63  88 113 155 200 246 296 361
#     4  10  20  36  62  92 118 150 207 257 296 362
#     4  12  24  36  59  89 128 162 192 250 306 365
#     4   9  19  37  59  88 116 150 202 253 298 357
#     4  11  21  37  64  90 117 156 210 254 297 355
#
# _framework density 22.857036999999998
#
# number of rings (size 3 to 8) (size 9 to 14) (size 15 to 20)
#    0.000    1.500    6.250    1.500    0.000    4.500 
#    0.000    2.500    0.000    3.000    0.000    0.000 
#    0.000    0.000    0.000    0.000    0.000    0.000 
#
# Total GULP energy -89255.946275 kJ/mol
# GULP energy per Si atom -5578.496642 kJ/mol
# Density = 2.280501 g / cm^3
# Si number density = 22.857037 Si / 1000 Ang^3
#
#
#
# Elastic Constant Matrix: (Units=GPa)
#
#
# Indices 1 2 3 4 5 6 
#
# 1 24.9494 14.3261 12.9014 0.0000 -6.7679 0.0000
# 2 14.3261 209.8700 59.5829 0.0000 4.8114 0.0000
# 3 12.9014 59.5829 56.5863 0.0000 11.2711 0.0000
# 4 0.0000 0.0000 0.0000 36.8981 0.0000 -7.9514
# 5 -6.7679 4.8114 11.2711 0.0000 21.5442 0.0000
# 6 0.0000 0.0000 0.0000 -7.9514 0.0000 7.8563
#
#
#
# Elastic Compliance Matrix: (Units=1/GPa)
#
#
# Indices 1 2 3 4 5 6 
#
# 1 0.057338 0.001060 -0.019792 0.000000 0.028130 0.000000
# 2 0.001060 0.006938 -0.008154 0.000000 0.003050 0.000000
# 3 -0.019792 -0.008154 0.035328 0.000000 -0.022879 0.000000
# 4 0.000000 0.000000 0.000000 0.034662 0.000000 0.035081
# 5 0.028130 0.003050 -0.022879 0.000000 0.066541 0.000000
# 6 0.000000 0.000000 0.000000 0.035081 0.000000 0.162791
#
#
# Mechanical properties :
#
#
# Convention : Reuss Voigt Hill
#
# Bulk Modulus (GPa) = 21.81937 51.66960 36.74448
# Shear Modulus (GPa) = 11.55681 26.89941 19.22811
#
# Velocity S-wave (km/s) = 2.25102 3.43425 2.90355
# Velocity P-wave (km/s) = 4.04016 6.19517 5.22986
#
# Compressibility (1/GPa) = 0.04583085
#
# Stress axis : x y z
#
# Youngs Moduli (GPa) = 17.44056 144.14316 28.30652
#
# Poissons Ratio (x) = -0.15282 0.56024
# Poissons Ratio (y) = -0.01849 0.23081
# Poissons Ratio (z) = 0.34518 1.17536
#
# Static dielectric constant tensor:
#      x y z
#    x 1.791160 0.000000 -0.027080 
#    y 0.000000 1.886800 0.000000 
#    z -0.027080 0.000000 1.881510 
# 
# From -- ./inp_files/29822.got.cif
#   From: 2010.05.17/outbox.cif.g08.bks.cpg/sg5_15_cif.got.tgz:29822.got - 2010.06.03 18:56:24.
