data_PCOD9122876
_publ_section_title
;
Structure prediction by ZEFSAII (Michael W. Deem and Ramdas Pophale) SiO2 
 PCOD9122876
Probable space group: C 2
;
_chemical_formula_sum "Si O2"
_cell_formula_units_Z 32
_cell_length_a 12.843448
_cell_length_b 8.658463
_cell_length_c 18.047169
_cell_angle_alpha 90.000000
_cell_angle_beta 44.589320
_cell_angle_gamma 90.000000
_cell_volume 1408.903358
_symmetry_space_group_name_H-M "C 2"
_symmetry_group_IT_number 5
_symmetry_cell_setting 'monoclinic'
loop_
_space_group_symop_operation_xyz
x,y,z
-x,y,-z
1/2+x,1/2+y,z
1/2-x,1/2+y,-z
loop_
_atom_site_type_symbol
_atom_site_label
_atom_site_fract_x
_atom_site_fract_y
_atom_site_fract_z
Si Si1 0.863691 0.217250 0.709264
Si Si2 0.160945 0.959382 0.627949
Si Si3 0.144433 0.523013 0.735338
Si Si4 0.339545 0.647525 0.516167
Si Si5 0.510443 0.693205 0.795423
Si Si6 0.117070 0.957383 0.048001
Si Si7 0.284351 0.493503 0.159476
Si Si8 0.397587 0.258516 0.798859
O O1 0.719669 0.113551 0.765545
O O2 0.822708 0.396777 0.733620
O O3 0.987174 0.175629 0.586331
O O4 0.932665 0.196472 0.755107
O O5 0.269766 0.813000 0.573395
O O6 0.999385 0.874856 0.698618
O O7 0.207899 0.076363 0.539504
O O8 0.135597 0.061395 0.714621
O O9 0.272143 0.524695 0.607738
O O10 0.083518 0.353517 0.779931
O O11 0.011647 0.626267 0.769058
O O12 0.392172 0.630013 0.913992
O O13 0.145744 0.850571 0.104527
O O14 0.949128 0.948036 0.101638
O O15 0.221216 0.939683 0.924438
O O16 0.233868 0.671711 0.177853
#
# Coordination Sequence:
#
# PCOD9122876 Si02
#       8
#     4   4   4   4   4   4   4   4
#     4  11  22  38  64  95 129 172 219 267 324 402
#     4   9  20  35  61  93 131 169 224 261 332 397
#     4  11  21  39  65  93 131 171 218 267 333 389
#     4  10  20  36  61  92 131 175 215 273 321 398
#     4  10  22  41  64  94 129 169 212 284 328 394
#     4  10  24  43  65  95 131 161 224 280 328 403
#     4  11  23  41  68  92 128 173 219 273 337 393
#     4  10  21  39  65  93 126 175 212 273 334 393
#
# _framework density 22.712699000000001
#
# number of rings (size 3 to 8) (size 9 to 14) (size 15 to 20)
#    0.000    1.750    2.500    1.875    3.500    3.000 
#    0.000    0.000    5.500    0.000    0.000    0.000 
#    0.000    0.000    0.000    0.000    0.000    0.000 
#
# Total GULP energy -89227.904858 kJ/mol
# GULP energy per Si atom -5576.744054 kJ/mol
# Density = 2.266100 g / cm^3
# Si number density = 22.712699 Si / 1000 Ang^3
#
#
#
# Elastic Constant Matrix: (Units=GPa)
#
#
# Indices 1 2 3 4 5 6 
#
# 1 65.6193 27.4362 9.0676 0.0000 3.2636 0.0000
# 2 27.4362 138.6310 25.8314 0.0000 -4.3054 0.0000
# 3 9.0676 25.8314 74.1880 0.0000 4.3162 0.0000
# 4 0.0000 0.0000 0.0000 43.8552 0.0000 3.4692
# 5 3.2636 -4.3054 4.3162 0.0000 30.4574 0.0000
# 6 0.0000 0.0000 0.0000 3.4692 0.0000 36.8793
#
#
#
# Elastic Compliance Matrix: (Units=1/GPa)
#
#
# Indices 1 2 3 4 5 6 
#
# 1 0.016814 -0.003245 -0.000800 0.000000 -0.002147 0.000000
# 2 -0.003245 0.008407 -0.002642 0.000000 0.001911 0.000000
# 3 -0.000800 -0.002642 0.014634 0.000000 -0.002362 0.000000
# 4 0.000000 0.000000 0.000000 0.022973 0.000000 -0.002161
# 5 -0.002147 0.001911 -0.002362 0.000000 0.033668 0.000000
# 6 0.000000 0.000000 0.000000 -0.002161 0.000000 0.027319
#
#
# Mechanical properties :
#
#
# Convention : Reuss Voigt Hill
#
# Bulk Modulus (GPa) = 37.76317 44.78986 41.27651
# Shear Modulus (GPa) = 34.24284 36.64526 35.44405
#
# Velocity S-wave (km/s) = 3.88706 4.02110 3.95465
# Velocity P-wave (km/s) = 6.06698 6.42822 6.25021
#
# Compressibility (1/GPa) = 0.02648083
#
# Stress axis : x y z
#
# Youngs Moduli (GPa) = 59.47570 118.94542 68.33253
#
# Poissons Ratio (x) = 0.38599 0.05468
# Poissons Ratio (y) = 0.19301 0.18052
# Poissons Ratio (z) = 0.04759 0.31423
#
# Static dielectric constant tensor:
#      x y z
#    x 1.973890 0.000000 -0.025270 
#    y 0.000000 1.879970 0.000000 
#    z -0.025270 0.000000 1.840190 
# 
# From -- ./inp_files/65886.got.cif
#   From: 2010.05.17/outbox.cif.g08.bks.cpg/sg5_33_cif.got.tgz:65886.got - 2010.06.03 18:56:24.
