data_PCOD9122495
_publ_section_title
;
Structure prediction by ZEFSAII (Michael W. Deem and Ramdas Pophale) SiO2 
 PCOD9122495
Probable space group: C 2
;
_chemical_formula_sum "Si O2"
_cell_formula_units_Z 24
_cell_length_a 18.481414
_cell_length_b 9.737477
_cell_length_c 6.890751
_cell_angle_alpha 90.000000
_cell_angle_beta 125.657091
_cell_angle_gamma 90.000000
_cell_volume 1007.586699
_symmetry_space_group_name_H-M "C 2"
_symmetry_group_IT_number 5
_symmetry_cell_setting 'monoclinic'
loop_
_space_group_symop_operation_xyz
x,y,z
-x,y,-z
1/2+x,1/2+y,z
1/2-x,1/2+y,-z
loop_
_atom_site_type_symbol
_atom_site_label
_atom_site_fract_x
_atom_site_fract_y
_atom_site_fract_z
Si Si1 0.353484 0.904470 0.021021
Si Si2 0.290399 0.229019 0.365268
Si Si3 0.542612 0.647074 0.855199
Si Si4 0.528602 0.380231 0.270889
Si Si5 0.639520 0.208934 0.956431
Si Si6 0.774658 0.965929 0.812536
O O1 0.429733 0.793226 0.189890
O O2 0.290126 0.934154 0.107113
O O3 0.382447 0.056974 0.005468
O O4 0.295096 0.827797 0.764998
O O5 0.378467 0.307221 0.561484
O O6 0.305285 0.203477 0.156352
O O7 0.272471 0.073232 0.406989
O O8 0.472022 0.537776 0.658211
O O9 0.500000 0.678742 0.000000
O O10 0.633894 0.553195 0.999881
O O11 0.450970 0.287649 0.237545
O O12 0.500000 0.387549 0.000000
O O13 0.693582 0.310739 0.184477
#
# Coordination Sequence:
#
# PCOD9122495 Si02
#       6
#     4   4   4   4   4   4
#     4   9  17  32  56  82 109 147 192 238 288 349
#     4   9  17  33  56  77 105 150 196 238 284 344
#     4   9  18  33  54  82 119 155 186 237 302 355
#     4  10  20  34  51  77 114 154 191 234 293 354
#     4   9  17  32  54  80 108 141 188 245 294 344
#     4   8  16  32  56  82 109 147 196 238 281 348
#
# _framework density 23.819291
#
# number of rings (size 3 to 8) (size 9 to 14) (size 15 to 20)
#    0.000    3.000    0.000    1.500    0.000    0.667 
#    0.000   10.000    0.000   20.000    0.000    0.000 
#    0.000    0.000    0.000    0.000    0.000    0.000 
#
# Total GULP energy -66800.735511 kJ/mol
# GULP energy per Si atom -5566.727959 kJ/mol
# Density = 2.376508 g / cm^3
# Si number density = 23.819291 Si / 1000 Ang^3
#
#
#
# Elastic Constant Matrix: (Units=GPa)
#
#
# Indices 1 2 3 4 5 6 
#
# 1 84.5573 24.2959 -2.5743 0.0000 -3.6658 0.0000
# 2 24.2959 266.4727 47.9811 0.0000 23.0398 0.0000
# 3 -2.5743 47.9811 53.1465 0.0000 13.5545 0.0000
# 4 0.0000 0.0000 0.0000 10.8015 0.0000 -12.0996
# 5 -3.6658 23.0398 13.5545 0.0000 28.7420 0.0000
# 6 0.0000 0.0000 0.0000 -12.0996 0.0000 10.1146
#
#
#
# Elastic Compliance Matrix: (Units=1/GPa)
#
#
# Indices 1 2 3 4 5 6 
#
# 1 0.012421 -0.001586 0.001484 0.000000 0.002156 0.000000
# 2 -0.001586 0.004778 -0.003822 0.000000 -0.002230 0.000000
# 3 0.001484 -0.003822 0.024449 0.000000 -0.008277 0.000000
# 4 0.000000 0.000000 0.000000 -0.272273 0.000000 -0.325709
# 5 0.002156 -0.002230 -0.008277 0.000000 0.040758 0.000000
# 6 0.000000 0.000000 0.000000 -0.325709 0.000000 -0.290765
#
#
# Mechanical properties :
#
#
# Convention : Reuss Voigt Hill
#
# Bulk Modulus (GPa) = 29.58610 60.39800 44.99205
# Shear Modulus (GPa) = -10.83385 32.22986 10.69801
#
# Velocity S-wave (km/s) = -2.13500 3.68244 2.12157
# Velocity P-wave (km/s) = 2.52397 6.59487 4.99313
#
# Compressibility (1/GPa) = 0.03379966
#
# Stress axis : x y z
#
# Youngs Moduli (GPa) = 80.51109 209.27727 40.90103
#
# Poissons Ratio (x) = 0.33192 -0.06068
# Poissons Ratio (y) = 0.12769 0.15632
# Poissons Ratio (z) = -0.11945 0.79985
#
# Static dielectric constant tensor:
#      x y z
#    x 1.971120 0.000000 -0.057940 
#    y 0.000000 2.013100 0.000000 
#    z -0.057940 0.000000 1.996200 
# 
# From -- ./inp_files/22854.got.cif
#   From: 2010.05.17/outbox.cif.g08.bks.cpg/sg5_12_cif.got.tgz:22854.got - 2010.06.03 18:56:24.
