data_PCOD9122968
_publ_section_title
;
Structure prediction by ZEFSAII (Michael W. Deem and Ramdas Pophale) SiO2 
 PCOD9122968
Probable space group: C 2
;
_chemical_formula_sum "Si O2"
_cell_formula_units_Z 32
_cell_length_a 20.203280
_cell_length_b 14.024777
_cell_length_c 14.973863
_cell_angle_alpha 90.000000
_cell_angle_beta 160.919458
_cell_angle_gamma 90.000000
_cell_volume 1386.955724
_symmetry_space_group_name_H-M "C 2"
_symmetry_group_IT_number 5
_symmetry_cell_setting 'monoclinic'
loop_
_space_group_symop_operation_xyz
x,y,z
-x,y,-z
1/2+x,1/2+y,z
1/2-x,1/2+y,-z
loop_
_atom_site_type_symbol
_atom_site_label
_atom_site_fract_x
_atom_site_fract_y
_atom_site_fract_z
Si Si1 0.977641 0.808840 0.223867
Si Si2 0.523618 0.490638 0.385409
Si Si3 0.841526 0.757535 0.719703
Si Si4 0.322008 0.053272 0.607807
Si Si5 0.885521 0.405366 0.948959
Si Si6 0.232408 0.151962 0.315544
Si Si7 0.215080 0.714371 0.792894
Si Si8 0.105224 0.195009 0.787235
O O1 0.104872 0.827648 0.295111
O O2 0.133446 0.741543 0.479091
O O3 0.765467 0.755560 0.934333
O O4 0.914996 0.897255 0.207351
O O5 0.649854 0.521851 0.457584
O O6 0.675500 0.453862 0.654357
O O7 0.421288 0.588700 0.284179
O O8 0.891147 0.654216 0.738506
O O9 0.611790 0.744602 0.465329
O O10 0.000000 0.776710 0.000000
O O11 0.252025 0.075251 0.418403
O O12 0.494986 0.974952 0.833423
O O13 0.867770 0.300258 0.965441
O O14 0.000000 0.401754 0.000000
O O15 0.297182 0.130899 0.296759
O O16 0.000000 0.174625 0.000000
O O17 0.000000 0.762124 0.500000
O O18 0.275968 0.680754 0.967292
#
# Coordination Sequence:
#
# PCOD9122968 Si02
#       8
#     4   4   4   4   4   4   4   4
#     4  11  23  43  67 101 136 178 231 287 340 406
#     4  10  20  40  66 101 134 166 229 289 331 408
#     4  10  22  43  67  95 135 181 222 272 347 412
#     4   9  20  36  64  97 130 167 223 279 337 402
#     4  10  20  36  67  98 127 164 224 288 341 398
#     4  11  21  39  63  94 128 183 224 272 342 404
#     4  12  22  39  62  98 134 173 226 284 340 405
#     4  11  24  43  69 100 139 178 224 289 344 403
#
# _framework density 23.072113000000002
#
# number of rings (size 3 to 8) (size 9 to 14) (size 15 to 20)
#    0.000    1.500    2.500    4.500    5.250    0.500 
#    9.000    1.875    2.750    0.000    0.000    0.000 
#    0.000    0.000    0.000    0.000    0.000    0.000 
#
# Total GULP energy -89293.853596 kJ/mol
# GULP energy per Si atom -5580.865850 kJ/mol
# Density = 2.301960 g / cm^3
# Si number density = 23.072113 Si / 1000 Ang^3
#
#
#
# Elastic Constant Matrix: (Units=GPa)
#
#
# Indices 1 2 3 4 5 6 
#
# 1 66.0269 -8.0861 23.8444 0.0000 1.3056 0.0000
# 2 -8.0861 65.6808 22.8880 0.0000 9.5614 0.0000
# 3 23.8444 22.8880 106.2328 0.0001 7.9952 0.0000
# 4 0.0000 0.0000 0.0001 13.3006 0.0000 2.8599
# 5 1.3056 9.5614 7.9952 0.0000 40.6934 0.0000
# 6 0.0000 0.0000 0.0000 2.8599 0.0000 24.2437
#
#
#
# Elastic Compliance Matrix: (Units=1/GPa)
#
#
# Indices 1 2 3 4 5 6 
#
# 1 0.017313 0.003838 -0.004672 0.000000 -0.000539 0.000000
# 2 0.003838 0.017738 -0.004426 0.000000 -0.003421 0.000000
# 3 -0.004672 -0.004426 0.011496 0.000000 -0.001069 0.000000
# 4 0.000000 0.000000 0.000000 0.077141 0.000000 -0.009100
# 5 -0.000539 -0.003421 -0.001069 0.000000 0.025605 0.000000
# 6 0.000000 0.000000 0.000000 -0.009100 0.000000 0.042321
#
#
# Mechanical properties :
#
#
# Convention : Reuss Voigt Hill
#
# Bulk Modulus (GPa) = 27.75650 35.02592 31.39121
# Shear Modulus (GPa) = 23.34876 28.93382 26.14129
#
# Velocity S-wave (km/s) = 3.18463 3.54511 3.36970
# Velocity P-wave (km/s) = 5.05756 5.65430 5.36424
#
# Compressibility (1/GPa) = 0.03602760
#
# Stress axis : x y z
#
# Youngs Moduli (GPa) = 57.75863 56.37628 86.98679
#
# Poissons Ratio (x) = -0.21638 0.40644
# Poissons Ratio (y) = -0.22169 0.38498
# Poissons Ratio (z) = 0.26987 0.24950
#
# Static dielectric constant tensor:
#      x y z
#    x 2.064140 0.000000 0.132650 
#    y 0.000000 1.905720 0.000000 
#    z 0.132650 0.000000 1.897560 
# 
# From -- ./inp_files/57200.got.cif
#   From: 2010.05.17/outbox.cif.g08.bks.cpg/sg5_29_cif.got.tgz:57200.got - 2010.06.03 18:56:24.
