data_PCOD9122996
_publ_section_title
;
Structure prediction by ZEFSAII (Michael W. Deem and Ramdas Pophale) SiO2 
 PCOD9122996
Probable space group: C 2
;
_chemical_formula_sum "Si O2"
_cell_formula_units_Z 30
_cell_length_a 8.009366
_cell_length_b 12.495465
_cell_length_c 17.959957
_cell_angle_alpha 90.000000
_cell_angle_beta 55.019310
_cell_angle_gamma 90.000000
_cell_volume 1472.728953
_symmetry_space_group_name_H-M "C 2"
_symmetry_group_IT_number 5
_symmetry_cell_setting 'monoclinic'
loop_
_space_group_symop_operation_xyz
x,y,z
-x,y,-z
1/2+x,1/2+y,z
1/2-x,1/2+y,-z
loop_
_atom_site_type_symbol
_atom_site_label
_atom_site_fract_x
_atom_site_fract_y
_atom_site_fract_z
Si Si1 0.556509 0.265340 0.611061
Si Si2 0.086505 0.535614 0.370371
Si Si3 0.243652 0.545723 0.161904
Si Si4 0.000000 0.169653 0.500000
Si Si5 0.937711 0.853318 0.940454
Si Si6 0.018383 0.467020 0.076525
Si Si7 0.691403 0.282609 0.175311
Si Si8 0.165100 0.985888 0.550505
O O1 0.449079 0.161752 0.603567
O O2 0.451792 0.278610 0.717183
O O3 0.541128 0.377280 0.573616
O O4 0.795546 0.237883 0.558932
O O5 0.145869 0.524272 0.268599
O O6 0.254727 0.493991 0.385075
O O7 0.868772 0.484377 0.447377
O O8 0.423763 0.460078 0.103327
O O9 0.085556 0.529711 0.133672
O O10 0.312863 0.669906 0.143063
O O11 0.035811 0.088984 0.559864
O O12 0.945684 0.787787 0.863350
O O13 0.706009 0.887571 0.012197
O O14 0.000000 0.795326 0.000000
O O15 0.827081 0.389850 0.141908
O O16 0.000000 0.524377 0.000000
#
# Coordination Sequence:
#
# PCOD9122996 Si02
#       8
#     4   4   4   2   4   4   4   4
#     4  10  21  37  57  83 111 149 190 230 279 328
#     4   9  20  37  56  83 112 147 191 224 275 344
#     4  10  20  38  59  81 114 148 182 233 282 324
#     4  10  22  36  56  86 110 144 198 230 268 340
#     4   9  19  35  55  81 109 141 184 227 277 341
#     4   9  20  37  57  83 110 142 187 228 276 341
#     4  10  21  37  57  81 113 147 186 233 278 332
#     4  10  20  37  57  77 115 151 177 236 283 316
#
# _framework density 20.370345
#
# number of rings (size 3 to 8) (size 9 to 14) (size 15 to 20)
#    0.000    2.400    0.000    1.600    0.000   10.667 
#    0.000   16.000    0.000    0.000    0.000    0.000 
#    0.000    0.000    0.000    0.000    0.000    0.000 
#
# Total GULP energy -83637.011161 kJ/mol
# GULP energy per Si atom -5575.800744 kJ/mol
# Density = 2.032398 g / cm^3
# Si number density = 20.370345 Si / 1000 Ang^3
#
#
#
# Elastic Constant Matrix: (Units=GPa)
#
#
# Indices 1 2 3 4 5 6 
#
# 1 51.0864 4.5005 16.6741 0.0005 13.9872 0.0000
# 2 4.5005 81.5208 32.8619 -0.0001 -3.8672 0.0000
# 3 16.6741 32.8619 92.8506 0.0007 20.1273 0.0000
# 4 0.0005 -0.0001 0.0007 354.7663 -0.0008 23.4571
# 5 13.9872 -3.8672 20.1273 -0.0008 30.3547 0.0000
# 6 0.0000 0.0000 0.0000 23.4571 0.0000 12.5781
#
#
#
# Elastic Compliance Matrix: (Units=1/GPa)
#
#
# Indices 1 2 3 4 5 6 
#
# 1 0.022823 -0.001044 -0.001659 0.000000 -0.009550 0.000000
# 2 -0.001044 0.015375 -0.006754 0.000000 0.006918 0.000000
# 3 -0.001659 -0.006754 0.015742 0.000000 -0.010534 0.000000
# 4 0.000000 0.000000 0.000000 0.003215 0.000000 -0.005996
# 5 -0.009550 0.006918 -0.010534 0.000000 0.045210 0.000000
# 6 0.000000 0.000000 0.000000 -0.005996 0.000000 0.090685
#
#
# Mechanical properties :
#
#
# Convention : Reuss Voigt Hill
#
# Bulk Modulus (GPa) = 28.55035 37.05898 32.80467
# Shear Modulus (GPa) = 22.35744 90.96793 56.66268
#
# Velocity S-wave (km/s) = 3.31652 6.68984 5.27983
# Velocity P-wave (km/s) = 5.35834 8.82633 7.30123
#
# Compressibility (1/GPa) = 0.03502584
#
# Stress axis : x y z
#
# Youngs Moduli (GPa) = 43.81587 65.04004 63.52586
#
# Poissons Ratio (x) = 0.06792 0.10538
# Poissons Ratio (y) = 0.04576 0.42904
# Poissons Ratio (z) = 0.07268 0.43926
#
# Static dielectric constant tensor:
#      x y z
#    x 1.738020 0.000000 -0.002350 
#    y 0.000000 1.731970 0.000000 
#    z -0.002350 0.000000 1.222750 
# 
# From -- ./inp_files/59575.got.cif
#   From: 2010.05.17/outbox.cif.g08.bks.cpg/sg5_30_cif.got.tgz:59575.got - 2010.06.03 18:56:24.
