data_PCOD9122846
_publ_section_title
;
Structure prediction by ZEFSAII (Michael W. Deem and Ramdas Pophale) SiO2 
 PCOD9122846
Probable space group: C 2
;
_chemical_formula_sum "Si O2"
_cell_formula_units_Z 32
_cell_length_a 20.947591
_cell_length_b 7.322886
_cell_length_c 11.688661
_cell_angle_alpha 90.000000
_cell_angle_beta 137.927598
_cell_angle_gamma 90.000000
_cell_volume 1201.436288
_symmetry_space_group_name_H-M "C 2"
_symmetry_group_IT_number 5
_symmetry_cell_setting 'monoclinic'
loop_
_space_group_symop_operation_xyz
x,y,z
-x,y,-z
1/2+x,1/2+y,z
1/2-x,1/2+y,-z
loop_
_atom_site_type_symbol
_atom_site_label
_atom_site_fract_x
_atom_site_fract_y
_atom_site_fract_z
Si Si1 0.897179 0.564480 0.496609
Si Si2 0.745737 0.114827 0.535054
Si Si3 0.108905 0.738347 0.149322
Si Si4 0.609466 0.114319 0.778870
Si Si5 0.905448 0.061403 0.181525
Si Si6 0.898581 0.160515 0.904212
Si Si7 0.881542 0.983855 0.519796
Si Si8 0.753259 0.111563 0.148204
O O1 0.814227 0.475035 0.462058
O O2 0.869959 0.582324 0.327728
O O3 0.899155 0.769912 0.547037
O O4 0.006992 0.518145 0.658743
O O5 0.806416 0.234894 0.710550
O O6 0.827039 0.047667 0.558382
O O7 0.666749 0.172657 0.336235
O O8 0.098083 0.954595 0.137412
O O9 0.173486 0.703433 0.123271
O O10 0.000000 0.665005 0.000000
O O11 0.610504 0.337367 0.812016
O O12 0.686070 0.025767 0.963166
O O13 0.839158 0.175355 0.179251
O O14 0.017246 0.081900 0.355866
O O15 0.888664 0.129432 0.028060
O O16 0.000000 0.245667 0.000000
O O17 0.816572 0.010034 0.324199
#
# Coordination Sequence:
#
# PCOD9122846 Si02
#       8
#     4   4   4   4   4   4   4   4
#     4  10  20  37  59  85 118 149 192 239 293 336
#     4  11  21  33  59  92 117 147 191 243 292 340
#     4  10  22  38  61  89 117 153 196 241 287 347
#     4  10  20  36  60  88 111 146 196 247 278 342
#     4  11  20  37  61  85 117 148 199 241 284 343
#     4  11  21  38  61  88 117 151 196 245 287 337
#     4  10  21  36  57  88 118 151 190 242 287 344
#     4  11  20  34  60  90 113 151 193 240 293 338
#
# _framework density 26.634785999999998
#
# number of rings (size 3 to 8) (size 9 to 14) (size 15 to 20)
#    0.000    1.500    3.750    2.625    3.500    0.000 
#    0.000    0.000    0.000   23.250    0.000    0.000 
#    0.000    0.000    0.000    0.000    0.000    0.000 
#
# Total GULP energy -89297.653134 kJ/mol
# GULP energy per Si atom -5581.103321 kJ/mol
# Density = 2.657416 g / cm^3
# Si number density = 26.634786 Si / 1000 Ang^3
#
#
#
# Elastic Constant Matrix: (Units=GPa)
#
#
# Indices 1 2 3 4 5 6 
#
# 1 188.2063 52.4701 224.3126 0.0000 -81.9469 0.0000
# 2 52.4701 71.1649 -20.8885 0.0000 42.9289 0.0000
# 3 224.3126 -20.8885 -68.1350 0.0000 234.5631 0.0000
# 4 0.0000 0.0000 0.0000 17.2981 0.0000 4.5320
# 5 -81.9469 42.9289 234.5631 0.0000 -140.0284 0.0000
# 6 0.0000 0.0000 0.0000 4.5320 0.0000 12.9418
#
#
#
# Elastic Compliance Matrix: (Units=1/GPa)
#
#
# Indices 1 2 3 4 5 6 
#
# 1 0.004753 -0.000852 -0.001140 0.000000 -0.004952 0.000000
# 2 -0.000852 0.013257 -0.001854 0.000000 0.001456 0.000000
# 3 -0.001140 -0.001854 0.003676 0.000000 0.006256 0.000000
# 4 0.000000 0.000000 0.000000 0.063649 0.000000 -0.022289
# 5 -0.004952 0.001456 0.006256 0.000000 0.006683 0.000000
# 6 0.000000 0.000000 0.000000 -0.022289 0.000000 0.085074
#
#
# Mechanical properties :
#
#
# Convention : Reuss Voigt Hill
#
# Bulk Modulus (GPa) = 71.46040 78.11384 74.78712
# Shear Modulus (GPa) = 26.39236 -26.26821 0.06207
#
# Velocity S-wave (km/s) = 3.15127 -3.14385 0.15283
# Velocity P-wave (km/s) = 6.33472 4.02654 5.30762
#
# Compressibility (1/GPa) = 0.01399376
#
# Stress axis : x y z
#
# Youngs Moduli (GPa) = 210.38546 75.43198 272.04835
#
# Poissons Ratio (x) = 0.06424 0.31015
# Poissons Ratio (y) = 0.17918 0.50448
# Poissons Ratio (z) = 0.23985 0.13988
#
# Static dielectric constant tensor:
#      x y z
#    x 2.209460 0.000000 0.110490 
#    y 0.000000 2.248230 0.000000 
#    z 0.110490 0.000000 2.078670 
# 
# From -- ./inp_files/46324.got.cif
#   From: 2010.05.17/outbox.cif.g08.bks.cpg/sg5_24_cif.got.tgz:46324.got - 2010.06.03 18:56:24.
