data_PCOD9122763
_publ_section_title
;
Structure prediction by ZEFSAII (Michael W. Deem and Ramdas Pophale) SiO2 
 PCOD9122763
Probable space group: C 2
;
_chemical_formula_sum "Si O2"
_cell_formula_units_Z 22
_cell_length_a 5.039354
_cell_length_b 12.456211
_cell_length_c 15.434936
_cell_angle_alpha 90.000000
_cell_angle_beta 74.236283
_cell_angle_gamma 90.000000
_cell_volume 932.431334
_symmetry_space_group_name_H-M "C 2"
_symmetry_group_IT_number 5
_symmetry_cell_setting 'monoclinic'
loop_
_space_group_symop_operation_xyz
x,y,z
-x,y,-z
1/2+x,1/2+y,z
1/2-x,1/2+y,-z
loop_
_atom_site_type_symbol
_atom_site_label
_atom_site_fract_x
_atom_site_fract_y
_atom_site_fract_z
Si Si1 0.500000 0.313951 0.000000
Si Si2 0.427779 0.819805 0.747164
Si Si3 0.815948 0.562122 0.699318
Si Si4 0.421541 0.652742 0.606523
Si Si5 0.425544 0.171451 0.854757
Si Si6 0.020632 0.431833 0.100646
O O1 0.664500 0.232284 0.049278
O O2 0.340461 0.394858 0.078102
O O3 0.519188 0.758499 0.651913
O O4 0.610830 0.850703 0.817129
O O5 0.178021 0.741780 0.796931
O O6 0.352056 0.940286 0.725541
O O7 0.596543 0.564013 0.642454
O O8 0.732984 0.633011 0.791750
O O9 0.102651 0.617072 0.643654
O O10 0.500000 0.662194 0.500000
O O11 0.539331 0.054174 0.873660
O O12 0.000000 0.416402 0.000000
#
# Coordination Sequence:
#
# PCOD9122763 Si02
#       6
#     2   4   4   4   4   4
#     4  10  20  36  56  88 126 172 222 264 320 372
#     4   9  22  43  64  93 130 174 213 267 330 385
#     4  10  23  43  66  95 133 171 215 270 326 388
#     4  11  24  43  69 100 131 168 218 273 329 391
#     4   9  19  41  58  88 132 167 221 269 318 381
#     4  10  20  38  60  90 128 173 217 265 315 382
#
# _framework density 23.59423
#
# number of rings (size 3 to 8) (size 9 to 14) (size 15 to 20)
#    0.000    2.182    0.909    0.545    2.545    4.364 
#   27.818    0.000    0.000    0.000    0.000    0.000 
#    0.000    0.000    0.000    0.000    0.000    0.000 
#
# Total GULP energy -61262.244230 kJ/mol
# GULP energy per Si atom -5569.294930 kJ/mol
# Density = 2.354053 g / cm^3
# Si number density = 23.594230 Si / 1000 Ang^3
#
#
#
# Elastic Constant Matrix: (Units=GPa)
#
#
# Indices 1 2 3 4 5 6 
#
# 1 56.7669 -0.1478 13.0009 0.0000 4.4431 0.0000
# 2 -0.1478 145.2068 52.8206 0.0000 -12.8730 0.0000
# 3 13.0009 52.8206 145.7523 0.0000 24.7948 0.0000
# 4 0.0000 0.0000 0.0000 24.0717 0.0000 10.4344
# 5 4.4431 -12.8730 24.7948 0.0000 34.6579 0.0000
# 6 0.0000 0.0000 0.0000 10.4344 0.0000 15.4850
#
#
#
# Elastic Compliance Matrix: (Units=1/GPa)
#
#
# Indices 1 2 3 4 5 6 
#
# 1 0.018068 0.000533 -0.001645 0.000000 -0.000942 0.000000
# 2 0.000533 0.009076 -0.004439 0.000000 0.006479 0.000000
# 3 -0.001645 -0.004439 0.010089 0.000000 -0.008656 0.000000
# 4 0.000000 0.000000 0.000000 0.058683 0.000000 -0.039543
# 5 -0.000942 0.006479 -0.008656 0.000000 0.037573 0.000000
# 6 0.000000 0.000000 0.000000 -0.039543 0.000000 0.091225
#
#
# Mechanical properties :
#
#
# Convention : Reuss Voigt Hill
#
# Bulk Modulus (GPa) = 38.26734 53.23039 45.74886
# Shear Modulus (GPa) = 20.44780 33.64640 27.04710
#
# Velocity S-wave (km/s) = 2.94708 3.78040 3.38944
# Velocity P-wave (km/s) = 5.27584 6.45484 5.89489
#
# Compressibility (1/GPa) = 0.02613194
#
# Stress axis : x y z
#
# Youngs Moduli (GPa) = 55.34758 110.17673 99.11995
#
# Poissons Ratio (x) = -0.05874 0.16302
# Poissons Ratio (y) = -0.02951 0.43999
# Poissons Ratio (z) = 0.09103 0.48907
#
# Static dielectric constant tensor:
#      x y z
#    x 2.092330 0.000000 0.052330 
#    y 0.000000 1.889570 0.000000 
#    z 0.052330 0.000000 2.012750 
# 
# From -- ./inp_files/48703.got.cif
#   From: 2010.05.17/outbox.cif.g08.bks.cpg/sg5_25_cif.got.tgz:48703.got - 2010.06.03 18:56:24.
