data_PCOD9122912
_publ_section_title
;
Structure prediction by ZEFSAII (Michael W. Deem and Ramdas Pophale) SiO2 
 PCOD9122912
Probable space group: C 2
;
_chemical_formula_sum "Si O2"
_cell_formula_units_Z 28
_cell_length_a 15.343028
_cell_length_b 10.985901
_cell_length_c 28.173403
_cell_angle_alpha 90.000000
_cell_angle_beta 160.868588
_cell_angle_gamma 90.000000
_cell_volume 1556.360133
_symmetry_space_group_name_H-M "C 2"
_symmetry_group_IT_number 5
_symmetry_cell_setting 'monoclinic'
loop_
_space_group_symop_operation_xyz
x,y,z
-x,y,-z
1/2+x,1/2+y,z
1/2-x,1/2+y,-z
loop_
_atom_site_type_symbol
_atom_site_label
_atom_site_fract_x
_atom_site_fract_y
_atom_site_fract_z
Si Si1 0.500000 0.197021 0.000000
Si Si2 0.500000 0.171726 0.500000
Si Si3 0.698411 0.345895 0.799506
Si Si4 0.714251 0.997693 0.693285
Si Si5 0.723029 0.974978 0.060017
Si Si6 0.838344 0.293216 0.519826
Si Si7 0.510365 0.090404 0.690395
Si Si8 0.034958 0.325357 0.305113
O O1 0.255903 0.275923 0.856308
O O2 0.392196 0.106894 0.985551
O O3 0.588082 0.086651 0.589098
O O4 0.251268 0.256581 0.384943
O O5 0.677971 0.416724 0.838850
O O6 0.435698 0.366638 0.632752
O O7 0.689875 0.200317 0.803242
O O8 0.970471 0.392298 0.915843
O O9 0.637630 0.047761 0.705864
O O10 0.575768 0.865813 0.617488
O O11 0.028264 0.985328 0.846489
O O12 0.766488 0.159821 0.463643
O O13 0.892410 0.292478 0.603267
O O14 0.467560 0.971419 0.699477
#
# Coordination Sequence:
#
# PCOD9122912 Si02
#       8
#     2   2   4   4   4   4   4   4
#     4  10  22  36  56  90 116 154 190 240 304 348
#     4  12  20  36  62  92 114 146 202 256 266 362
#     4   8  18  38  59  82 118 147 194 237 294 337
#     4  11  20  35  62  89 114 145 204 244 287 337
#     4  10  20  36  63  91 108 150 204 253 271 345
#     4   9  20  39  61  84 111 160 193 237 290 357
#     4   9  21  40  56  83 121 158 185 237 304 352
#     4  11  22  38  60  84 125 155 191 239 307 343
#
# _framework density 17.990694000000001
#
# number of rings (size 3 to 8) (size 9 to 14) (size 15 to 20)
#    0.857    1.429    2.857    0.857    2.000    1.143 
#    7.714    0.000    0.000    0.000    0.000    0.000 
#    0.000    0.000    0.000    0.000    0.000    0.000 
#
# Total GULP energy -77982.651270 kJ/mol
# GULP energy per Si atom -5570.189376 kJ/mol
# Density = 1.794975 g / cm^3
# Si number density = 17.990694 Si / 1000 Ang^3
#
#
#
# Elastic Constant Matrix: (Units=GPa)
#
#
# Indices 1 2 3 4 5 6 
#
# 1 49.8091 15.8170 10.9268 0.0019 18.6419 0.0016
# 2 15.8170 101.9310 12.9262 0.0040 14.1069 0.0034
# 3 10.9268 12.9262 86.5007 0.0115 12.9362 0.0058
# 4 0.0019 0.0040 0.0115 36.5639 0.0006 4.2322
# 5 18.6419 14.1069 12.9362 0.0006 31.3881 0.0010
# 6 0.0016 0.0034 0.0058 4.2322 0.0010 24.7055
#
#
#
# Elastic Compliance Matrix: (Units=1/GPa)
#
#
# Indices 1 2 3 4 5 6 
#
# 1 0.026268 -0.001979 -0.000876 -0.000001 -0.014351 -0.000001
# 2 -0.001979 0.010679 -0.000857 -0.000001 -0.003271 -0.000001
# 3 -0.000876 -0.000857 0.012430 -0.000003 -0.004217 -0.000002
# 4 -0.000001 -0.000001 -0.000003 0.027903 0.000002 -0.004780
# 5 -0.014351 -0.003271 -0.004217 0.000002 0.043591 0.000000
# 6 -0.000001 -0.000001 -0.000002 -0.004780 0.000000 0.041296
#
#
# Mechanical properties :
#
#
# Convention : Reuss Voigt Hill
#
# Bulk Modulus (GPa) = 23.83596 35.28675 29.56135
# Shear Modulus (GPa) = 27.23689 31.76954 29.50322
#
# Velocity S-wave (km/s) = 3.89516 4.20681 4.05398
# Velocity P-wave (km/s) = 5.78857 6.57668 6.19517
#
# Compressibility (1/GPa) = 0.04195341
#
# Stress axis : x y z
#
# Youngs Moduli (GPa) = 38.06876 93.64187 80.45034
#
# Poissons Ratio (x) = 0.18531 0.07050
# Poissons Ratio (y) = 0.07534 0.06892
# Poissons Ratio (z) = 0.03336 0.08022
#
# Static dielectric constant tensor:
#      x y z
#    x 1.597120 0.000000 0.000650 
#    y 0.000000 1.639440 0.000000 
#    z 0.000650 0.000000 1.615750 
# 
# From -- ./inp_files/70677.got.cif
#   From: 2010.05.17/outbox.cif.g08.bks.cpg/sg5_36_cif.got.tgz:70677.got - 2010.06.03 18:56:24.
