data_PCOD9122443
_publ_section_title
;
Structure prediction by ZEFSAII (Michael W. Deem and Ramdas Pophale) SiO2 
 PCOD9122443
Probable space group: C 2
;
_chemical_formula_sum "Si O2"
_cell_formula_units_Z 26
_cell_length_a 22.586606
_cell_length_b 7.182060
_cell_length_c 15.939381
_cell_angle_alpha 90.000000
_cell_angle_beta 26.676172
_cell_angle_gamma 90.000000
_cell_volume 1160.825511
_symmetry_space_group_name_H-M "C 2"
_symmetry_group_IT_number 5
_symmetry_cell_setting 'monoclinic'
loop_
_space_group_symop_operation_xyz
x,y,z
-x,y,-z
1/2+x,1/2+y,z
1/2-x,1/2+y,-z
loop_
_atom_site_type_symbol
_atom_site_label
_atom_site_fract_x
_atom_site_fract_y
_atom_site_fract_z
Si Si1 0.884355 0.829360 0.897888
Si Si2 0.048893 0.685650 0.845747
Si Si3 0.151021 0.195084 0.546769
Si Si4 0.593909 0.696853 0.224459
Si Si5 0.372316 0.298876 0.517206
Si Si6 0.097865 0.238678 0.802187
Si Si7 0.500000 0.453257 0.500000
O O1 0.943380 0.758219 0.911177
O O2 0.988541 0.742394 0.699109
O O3 0.888653 0.049161 0.873175
O O4 0.734135 0.782842 0.067018
O O5 0.197374 0.761216 0.640810
O O6 0.064150 0.459308 0.827511
O O7 0.000000 0.737344 0.000000
O O8 0.102978 0.161065 0.702054
O O9 0.037174 0.307487 0.640178
O O10 0.155751 0.002586 0.488606
O O11 0.558285 0.581736 0.353450
O O12 0.242431 0.194057 0.655803
O O13 0.391450 0.327371 0.591592
O O14 0.000000 0.178616 0.000000
#
# Coordination Sequence:
#
# PCOD9122443 Si02
#       7
#     4   4   4   4   4   4   2
#     4  10  21  38  58  84 117 149 191 234 290 335
#     4  10  21  35  62  84 111 152 196 233 283 341
#     4   9  19  37  54  82 119 140 190 236 283 328
#     4  10  23  36  61  83 116 154 190 237 286 337
#     4   9  19  37  55  83 112 155 183 242 280 337
#     4  10  20  32  59  87 110 148 200 229 278 346
#     4   8  18  34  58  78 114 144 200 226 278 338
#
# _framework density 22.397853000000001
#
# number of rings (size 3 to 8) (size 9 to 14) (size 15 to 20)
#    0.000    2.769    1.538    0.000   10.769    1.231 
#    0.000    3.077    0.000    7.385    0.000    0.000 
#    0.000    0.000    0.000    0.000    0.000    0.000 
#
# Total GULP energy -72435.902587 kJ/mol
# GULP energy per Si atom -5571.992507 kJ/mol
# Density = 2.234687 g / cm^3
# Si number density = 22.397853 Si / 1000 Ang^3
#
#
#
# Elastic Constant Matrix: (Units=GPa)
#
#
# Indices 1 2 3 4 5 6 
#
# 1 165.4768 8.2756 64.4880 -0.0001 -12.3443 -0.0006
# 2 8.2756 50.0518 -8.2680 -0.0045 -1.7375 0.0024
# 3 64.4880 -8.2680 105.1112 -0.0050 -20.8555 0.0020
# 4 -0.0001 -0.0045 -0.0050 5.3753 0.0016 -1.0097
# 5 -12.3443 -1.7375 -20.8555 0.0016 48.1472 -0.0005
# 6 -0.0006 0.0024 0.0020 -1.0097 -0.0005 19.4478
#
#
#
# Elastic Compliance Matrix: (Units=1/GPa)
#
#
# Indices 1 2 3 4 5 6 
#
# 1 0.008179 -0.002227 -0.005244 -0.000006 -0.000255 0.000001
# 2 -0.002227 0.020956 0.003339 0.000020 0.001631 -0.000002
# 3 -0.005244 0.003339 0.013950 0.000014 0.004818 -0.000001
# 4 -0.000006 0.000020 0.000014 0.187870 -0.000001 0.009754
# 5 -0.000255 0.001631 0.004818 -0.000001 0.022850 0.000000
# 6 0.000001 -0.000002 -0.000001 0.009754 0.000000 0.051926
#
#
# Mechanical properties :
#
#
# Convention : Reuss Voigt Hill
#
# Bulk Modulus (GPa) = 28.71980 49.95899 39.33940
# Shear Modulus (GPa) = 15.35616 31.67032 23.51324
#
# Velocity S-wave (km/s) = 2.62125 3.76438 3.24358
# Velocity P-wave (km/s) = 4.69166 6.42245 5.62403
#
# Compressibility (1/GPa) = 0.03481918
#
# Stress axis : x y z
#
# Youngs Moduli (GPa) = 122.26290 47.71972 71.68667
#
# Poissons Ratio (x) = 0.10629 0.37591
# Poissons Ratio (y) = 0.27233 -0.23933
# Poissons Ratio (z) = 0.64112 -0.15932
#
# Static dielectric constant tensor:
#      x y z
#    x 1.839970 0.000000 -0.061410 
#    y 0.000000 1.910460 0.000000 
#    z -0.061410 0.000000 1.901240 
# 
# From -- ./inp_files/43933.got.cif
#   From: 2010.05.17/outbox.cif.g08.bks.cpg/sg5_22_cif.got.tgz:43933.got - 2010.06.03 18:56:24.
