data_PCOD9122303
_publ_section_title
;
Structure prediction by ZEFSAII (Michael W. Deem and Ramdas Pophale) SiO2 
 PCOD9122303
Probable space group: C 2
;
_chemical_formula_sum "Si O2"
_cell_formula_units_Z 32
_cell_length_a 14.813987
_cell_length_b 10.813021
_cell_length_c 13.883878
_cell_angle_alpha 90.000000
_cell_angle_beta 141.279727
_cell_angle_gamma 90.000000
_cell_volume 1391.137737
_symmetry_space_group_name_H-M "C 2"
_symmetry_group_IT_number 5
_symmetry_cell_setting 'monoclinic'
loop_
_space_group_symop_operation_xyz
x,y,z
-x,y,-z
1/2+x,1/2+y,z
1/2-x,1/2+y,-z
loop_
_atom_site_type_symbol
_atom_site_label
_atom_site_fract_x
_atom_site_fract_y
_atom_site_fract_z
Si Si1 0.628450 0.051550 0.480462
Si Si2 0.924625 0.936983 0.195266
Si Si3 0.107643 0.818291 0.506338
Si Si4 0.714832 0.030004 0.769171
Si Si5 0.904653 0.182522 0.075307
Si Si6 0.821796 0.778316 0.955839
Si Si7 0.613470 0.018047 0.018350
Si Si8 0.111121 0.414213 0.277679
O O1 0.660993 0.197515 0.492481
O O2 0.709052 0.027719 0.648975
O O3 0.453440 0.045760 0.343848
O O4 0.662779 0.948637 0.428563
O O5 0.017505 0.906290 0.363638
O O6 0.968637 0.060171 0.176567
O O7 0.940639 0.831406 0.127715
O O8 0.758715 0.954446 0.098197
O O9 0.241704 0.896116 0.658634
O O10 0.000000 0.774092 0.500000
O O11 0.767541 0.897666 0.853254
O O12 0.816849 0.134621 0.906592
O O13 0.792181 0.228827 0.061396
O O14 0.020868 0.291551 0.174893
O O15 0.852161 0.656765 0.919307
O O16 0.502369 0.023529 0.836825
O O17 0.500000 0.958987 0.000000
#
# Coordination Sequence:
#
# PCOD9122303 Si02
#       8
#     4   4   4   4   4   4   4   4
#     4  11  23  44  70 103 143 190 228 300 354 432
#     4  10  21  41  67  92 137 177 231 274 353 412
#     4  12  26  43  68  99 142 185 228 292 364 420
#     4  10  20  41  73 101 142 182 244 281 365 420
#     4  10  20  38  69 101 129 185 233 288 336 429
#     4  10  19  40  70  98 131 183 228 287 343 421
#     4  11  23  41  68 102 136 175 235 287 342 413
#     4  12  25  43  70 101 143 181 240 290 358 424
#
# _framework density 23.002752999999998
#
# number of rings (size 3 to 8) (size 9 to 14) (size 15 to 20)
#    0.000    1.250    3.750    3.750    1.750    1.000 
#    4.500    2.500    0.000    0.000    0.000    0.000 
#    0.000    0.000    0.000    0.000    0.000    0.000 
#
# Total GULP energy -89176.089883 kJ/mol
# GULP energy per Si atom -5573.505618 kJ/mol
# Density = 2.295040 g / cm^3
# Si number density = 23.002753 Si / 1000 Ang^3
#
#
#
# Elastic Constant Matrix: (Units=GPa)
#
#
# Indices 1 2 3 4 5 6 
#
# 1 58.0395 18.1469 33.0960 0.0000 -4.2915 0.0000
# 2 18.1469 86.6964 39.9654 0.0000 5.0895 0.0000
# 3 33.0960 39.9654 120.0628 0.0000 -5.0756 0.0000
# 4 0.0000 0.0000 0.0000 31.3004 0.0000 -2.4634
# 5 -4.2915 5.0895 -5.0756 0.0000 31.3803 0.0000
# 6 0.0000 0.0000 0.0000 -2.4634 0.0000 15.8148
#
#
#
# Elastic Compliance Matrix: (Units=1/GPa)
#
#
# Indices 1 2 3 4 5 6 
#
# 1 0.020916 -0.002257 -0.004912 0.000000 0.002432 0.000000
# 2 -0.002257 0.014148 -0.004226 0.000000 -0.003287 0.000000
# 3 -0.004912 -0.004226 0.011167 0.000000 0.001820 0.000000
# 4 0.000000 0.000000 0.000000 0.032345 0.000000 0.005038
# 5 0.002432 -0.003287 0.001820 0.000000 0.033027 0.000000
# 6 0.000000 0.000000 0.000000 0.005038 0.000000 0.064017
#
#
# Mechanical properties :
#
#
# Convention : Reuss Voigt Hill
#
# Bulk Modulus (GPa) = 42.65965 49.69058 46.17512
# Shear Modulus (GPa) = 24.24568 27.27181 25.75874
#
# Velocity S-wave (km/s) = 3.25011 3.44697 3.34999
# Velocity P-wave (km/s) = 5.71577 6.12300 5.92288
#
# Compressibility (1/GPa) = 0.02344135
#
# Stress axis : x y z
#
# Youngs Moduli (GPa) = 47.81087 70.68097 89.55239
#
# Poissons Ratio (x) = 0.15950 0.43984
# Poissons Ratio (y) = 0.10789 0.37848
# Poissons Ratio (z) = 0.23483 0.29872
#
# Static dielectric constant tensor:
#      x y z
#    x 1.940730 0.000000 -0.037990 
#    y 0.000000 1.920570 0.000000 
#    z -0.037990 0.000000 1.907180 
# 
# From -- ./inp_files/56039.got.cif
#   From: 2010.05.17/outbox.cif.g08.bks.cpg/sg5_29_cif.got.tgz:56039.got - 2010.06.03 18:56:24.
