data_PCOD9122881
_publ_section_title
;
Structure prediction by ZEFSAII (Michael W. Deem and Ramdas Pophale) SiO2 
 PCOD9122881
Probable space group: C 2
;
_chemical_formula_sum "Si O2"
_cell_formula_units_Z 28
_cell_length_a 24.081593
_cell_length_b 8.518784
_cell_length_c 9.598320
_cell_angle_alpha 90.000000
_cell_angle_beta 142.044005
_cell_angle_gamma 90.000000
_cell_volume 1211.079790
_symmetry_space_group_name_H-M "C 2"
_symmetry_group_IT_number 5
_symmetry_cell_setting 'monoclinic'
loop_
_space_group_symop_operation_xyz
x,y,z
-x,y,-z
1/2+x,1/2+y,z
1/2-x,1/2+y,-z
loop_
_atom_site_type_symbol
_atom_site_label
_atom_site_fract_x
_atom_site_fract_y
_atom_site_fract_z
Si Si1 0.260872 0.675180 0.315376
Si Si2 0.247597 0.488253 0.830093
Si Si3 0.433680 0.484927 0.582715
Si Si4 0.000000 0.253528 0.500000
Si Si5 0.317617 0.706587 0.721325
Si Si6 0.152919 0.430767 0.975522
Si Si7 0.000000 0.041690 0.000000
Si Si8 0.333315 0.281114 0.198191
O O1 0.299212 0.830474 0.317296
O O2 0.333977 0.538562 0.438575
O O3 0.250275 0.716635 0.456395
O O4 0.174784 0.613388 0.055994
O O5 0.277823 0.586734 0.755989
O O6 0.185900 0.596890 0.807063
O O7 0.336026 0.413441 0.079840
O O8 0.465040 0.630617 0.549363
O O9 0.416908 0.330642 0.459172
O O10 0.490186 0.454197 0.833635
O O11 0.932477 0.366774 0.279089
O O12 0.342861 0.859519 0.859087
O O13 0.411015 0.645670 0.842278
O O14 0.236284 0.344059 0.064364
#
# Coordination Sequence:
#
# PCOD9122881 Si02
#       8
#     4   4   4   2   4   4   2   4
#     4  10  21  38  63  95 132 175 228 280 336 416
#     4  11  21  38  66  96 128 169 229 293 330 403
#     4  10  21  36  63  92 130 176 225 271 344 416
#     4  12  20  36  68 104 142 178 220 290 354 424
#     4  10  20  37  63  94 130 177 230 279 341 415
#     4  10  20  36  61  98 129 175 223 277 345 412
#     4  10  20  38  58  92 130 178 222 270 344 418
#     4  10  21  37  62  94 125 174 229 273 336 403
#
# _framework density 23.119864
#
# number of rings (size 3 to 8) (size 9 to 14) (size 15 to 20)
#    0.000    1.714    1.429    5.143    0.000    1.143 
#    0.000    0.000    9.429    5.143    0.000    0.000 
#    0.000    0.000    0.000    0.000    0.000    0.000 
#
# Total GULP energy -77936.282005 kJ/mol
# GULP energy per Si atom -5566.877286 kJ/mol
# Density = 2.306724 g / cm^3
# Si number density = 23.119864 Si / 1000 Ang^3
#
#
#
# Elastic Constant Matrix: (Units=GPa)
#
#
# Indices 1 2 3 4 5 6 
#
# 1 54.7241 2.6851 26.0437 0.0000 -22.1716 0.0000
# 2 2.6851 120.9580 34.6872 0.0000 -7.8157 0.0000
# 3 26.0437 34.6872 111.8446 0.0000 -27.2064 0.0000
# 4 0.0000 0.0000 0.0000 20.4602 0.0000 8.2784
# 5 -22.1716 -7.8157 -27.2064 0.0000 40.5183 0.0000
# 6 0.0000 0.0000 0.0000 8.2784 0.0000 23.5856
#
#
#
# Elastic Compliance Matrix: (Units=1/GPa)
#
#
# Indices 1 2 3 4 5 6 
#
# 1 0.024375 0.001129 -0.003261 0.000000 0.011366 0.000000
# 2 0.001129 0.009128 -0.003006 0.000000 0.000360 0.000000
# 3 -0.003261 -0.003006 0.012021 0.000000 0.005707 0.000000
# 4 0.000000 0.000000 0.000000 0.056965 0.000000 -0.019994
# 5 0.011366 0.000360 0.005707 0.000000 0.034801 0.000000
# 6 0.000000 0.000000 0.000000 -0.019994 0.000000 0.049417
#
#
# Mechanical properties :
#
#
# Convention : Reuss Voigt Hill
#
# Bulk Modulus (GPa) = 28.37179 46.03986 37.20583
# Shear Modulus (GPa) = 23.95407 31.85353 27.90380
#
# Velocity S-wave (km/s) = 3.22231 3.71584 3.47784
# Velocity P-wave (km/s) = 5.11299 6.19409 5.67932
#
# Compressibility (1/GPa) = 0.03524628
#
# Stress axis : x y z
#
# Youngs Moduli (GPa) = 41.02555 109.55808 83.18819
#
# Poissons Ratio (x) = -0.12364 0.27128
# Poissons Ratio (y) = -0.04630 0.25007
# Poissons Ratio (z) = 0.13379 0.32934
#
# Static dielectric constant tensor:
#      x y z
#    x 1.928690 0.000000 -0.117490 
#    y 0.000000 1.987350 0.000000 
#    z -0.117490 0.000000 2.033820 
# 
# From -- ./inp_files/31695.got.cif
#   From: 2010.05.17/outbox.cif.g08.bks.cpg/sg5_16_cif.got.tgz:31695.got - 2010.06.03 18:56:24.
