data_PCOD9122403
_publ_section_title
;
Structure prediction by ZEFSAII (Michael W. Deem and Ramdas Pophale) SiO2 
 PCOD9122403
Probable space group: C 2
;
_chemical_formula_sum "Si O2"
_cell_formula_units_Z 24
_cell_length_a 13.004490
_cell_length_b 15.215916
_cell_length_c 9.229488
_cell_angle_alpha 90.000000
_cell_angle_beta 147.690723
_cell_angle_gamma 90.000000
_cell_volume 976.130702
_symmetry_space_group_name_H-M "C 2"
_symmetry_group_IT_number 5
_symmetry_cell_setting 'monoclinic'
loop_
_space_group_symop_operation_xyz
x,y,z
-x,y,-z
1/2+x,1/2+y,z
1/2-x,1/2+y,-z
loop_
_atom_site_type_symbol
_atom_site_label
_atom_site_fract_x
_atom_site_fract_y
_atom_site_fract_z
Si Si1 0.000000 0.575310 0.500000
Si Si2 0.500000 0.778096 0.500000
Si Si3 0.936509 0.861957 0.755613
Si Si4 0.625071 0.681918 0.011987
Si Si5 0.747950 0.681753 0.613356
Si Si6 0.186973 0.367210 0.989760
Si Si7 0.602342 0.000147 0.316313
O O1 0.083533 0.523800 0.463865
O O2 0.178420 0.631115 0.771513
O O3 0.696016 0.722195 0.708292
O O4 0.538294 0.838921 0.684169
O O5 0.854678 0.761701 0.657831
O O6 0.773497 0.929900 0.510995
O O7 0.000000 0.878957 0.000000
O O8 0.112910 0.875087 0.855306
O O9 0.470200 0.668714 0.701866
O O10 0.680563 0.784373 0.088586
O O11 0.500000 0.652942 0.000000
O O12 0.853118 0.590855 0.712187
O O13 0.099817 0.452962 0.960504
#
# Coordination Sequence:
#
# PCOD9122403 Si02
#       7
#     2   2   4   4   4   4   4
#     4  12  25  40  70 101 132 180 237 282 340 405
#     4  10  19  46  68  99 132 190 225 276 344 413
#     4  12  23  44  72 101 136 186 232 287 342 408
#     4  11  24  45  66  97 137 180 222 283 349 407
#     4  11  24  44  70 104 143 176 232 292 350 401
#     4  11  23  42  71  96 137 180 233 275 341 414
#     4  12  25  41  68 110 133 178 238 290 331 411
#
# _framework density 24.586873000000001
#
# number of rings (size 3 to 8) (size 9 to 14) (size 15 to 20)
#    0.000    0.667    6.667    2.500    4.667    0.000 
#    0.000    2.500    0.000    0.000    0.000    0.000 
#    0.000    0.000    0.000    0.000    0.000    0.000 
#
# Total GULP energy -67169.229679 kJ/mol
# GULP energy per Si atom -5597.435807 kJ/mol
# Density = 2.453091 g / cm^3
# Si number density = 24.586873 Si / 1000 Ang^3
#
#
#
# Elastic Constant Matrix: (Units=GPa)
#
#
# Indices 1 2 3 4 5 6 
#
# 1 91.5767 55.5308 36.7596 0.0000 46.0735 0.0000
# 2 55.5308 195.4902 56.1118 0.0000 43.3414 0.0000
# 3 36.7596 56.1118 120.8772 0.0000 35.5307 0.0000
# 4 0.0000 0.0000 0.0000 12.5976 0.0000 5.2352
# 5 46.0735 43.3414 35.5307 0.0000 53.7435 0.0000
# 6 0.0000 0.0000 0.0000 5.2352 0.0000 28.6956
#
#
#
# Elastic Compliance Matrix: (Units=1/GPa)
#
#
# Indices 1 2 3 4 5 6 
#
# 1 0.020053 -0.002178 -0.000683 0.000000 -0.014983 0.000000
# 2 -0.002178 0.006781 -0.001771 0.000000 -0.002430 0.000000
# 3 -0.000683 -0.001771 0.010812 0.000000 -0.005134 0.000000
# 4 0.000000 0.000000 0.000000 0.085892 0.000000 -0.015670
# 5 -0.014983 -0.002430 -0.005134 0.000000 0.036806 0.000000
# 6 0.000000 0.000000 0.000000 -0.015670 0.000000 0.037707
#
#
# Mechanical properties :
#
#
# Convention : Reuss Voigt Hill
#
# Bulk Modulus (GPa) = 35.23455 78.30538 56.76996
# Shear Modulus (GPa) = 23.06519 36.31015 29.68767
#
# Velocity S-wave (km/s) = 3.06618 3.84710 3.47862
# Velocity P-wave (km/s) = 5.18623 7.18687 6.26690
#
# Compressibility (1/GPa) = 0.02838123
#
# Stress axis : x y z
#
# Youngs Moduli (GPa) = 49.86788 147.46379 92.49149
#
# Poissons Ratio (x) = 0.32124 0.06317
# Poissons Ratio (y) = 0.10863 0.16381
# Poissons Ratio (z) = 0.03406 0.26117
#
# Static dielectric constant tensor:
#      x y z
#    x 2.089220 0.000000 -0.107140 
#    y 0.000000 1.972560 0.000000 
#    z -0.107140 0.000000 2.012750 
# 
# From -- ./inp_files/42979.got.cif
#   From: 2010.05.17/outbox.cif.g08.bks.cpg/sg5_22_cif.got.tgz:42979.got - 2010.06.03 18:56:24.
