data_PCOD9122248
_publ_section_title
;
Structure prediction by ZEFSAII (Michael W. Deem and Ramdas Pophale) SiO2 
 PCOD9122248
Probable space group: C 2
;
_chemical_formula_sum "Si O2"
_cell_formula_units_Z 22
_cell_length_a 16.175023
_cell_length_b 8.107121
_cell_length_c 8.790403
_cell_angle_alpha 90.000000
_cell_angle_beta 117.931778
_cell_angle_gamma 90.000000
_cell_volume 1018.426835
_symmetry_space_group_name_H-M "C 2"
_symmetry_group_IT_number 5
_symmetry_cell_setting 'monoclinic'
loop_
_space_group_symop_operation_xyz
x,y,z
-x,y,-z
1/2+x,1/2+y,z
1/2-x,1/2+y,-z
loop_
_atom_site_type_symbol
_atom_site_label
_atom_site_fract_x
_atom_site_fract_y
_atom_site_fract_z
Si Si1 0.927382 0.192680 0.217912
Si Si2 0.362687 0.736334 0.476413
Si Si3 0.000000 0.367554 0.000000
Si Si4 0.037681 0.686022 0.185636
Si Si5 0.087212 0.824611 0.691807
Si Si6 0.697623 0.363042 0.515816
O O1 0.864035 0.272880 0.296778
O O2 0.032364 0.226438 0.370093
O O3 0.933274 0.262344 0.052714
O O4 0.905101 0.997370 0.211187
O O5 0.324386 0.552377 0.470113
O O6 0.295924 0.848143 0.518766
O O7 0.058307 0.500404 0.150356
O O8 0.950845 0.686090 0.228005
O O9 0.122323 0.781181 0.336036
O O10 0.000000 0.772429 0.000000
O O11 0.000000 0.852575 0.500000
O O12 0.175539 0.782560 0.662242
#
# Coordination Sequence:
#
# PCOD9122248 Si02
#       6
#     4   4   2   4   4   4
#     4  10  19  40  57  86 115 157 190 229 298 339
#     4  10  21  37  64  86 116 147 196 246 284 337
#     4  10  24  32  58  86 116 158 192 230 278 354
#     4   9  20  37  54  85 121 152 189 226 295 346
#     4   9  16  37  60  81 109 151 194 228 288 342
#     4  10  20  36  61  91 113 147 196 244 288 334
#
# _framework density 21.601945000000001
#
# number of rings (size 3 to 8) (size 9 to 14) (size 15 to 20)
#    0.545    1.818    5.455    0.000    3.818    1.455 
#    6.545    1.818    0.000    0.000    0.000    0.000 
#    0.000    0.000    0.000    0.000    0.000    0.000 
#
# Total GULP energy -61278.148163 kJ/mol
# GULP energy per Si atom -5570.740742 kJ/mol
# Density = 2.155278 g / cm^3
# Si number density = 21.601945 Si / 1000 Ang^3
#
#
#
# Elastic Constant Matrix: (Units=GPa)
#
#
# Indices 1 2 3 4 5 6 
#
# 1 108.7109 22.5410 48.3312 0.0000 -47.0297 0.0000
# 2 22.5410 46.7831 54.0785 0.0000 -23.9994 0.0000
# 3 48.3312 54.0785 102.6221 0.0000 -43.6092 0.0000
# 4 0.0000 0.0000 0.0000 39.6256 0.0000 -12.3313
# 5 -47.0297 -23.9994 -43.6092 0.0000 39.5475 0.0000
# 6 0.0000 0.0000 0.0000 -12.3313 0.0000 23.0446
#
#
#
# Elastic Compliance Matrix: (Units=1/GPa)
#
#
# Indices 1 2 3 4 5 6 
#
# 1 0.019387 0.004478 -0.001013 0.000000 0.024655 0.000000
# 2 0.004478 0.055871 -0.028001 0.000000 0.008353 0.000000
# 3 -0.001013 -0.028001 0.032451 0.000000 0.017586 0.000000
# 4 0.000000 0.000000 0.000000 0.030278 0.000000 0.016202
# 5 0.024655 0.008353 0.017586 0.000000 0.079067 0.000000
# 6 0.000000 0.000000 0.000000 0.016202 0.000000 0.052064
#
#
# Mechanical properties :
#
#
# Convention : Reuss Voigt Hill
#
# Bulk Modulus (GPa) = 17.05471 56.44640 36.75055
# Shear Modulus (GPa) = 14.80451 29.32123 22.06287
#
# Velocity S-wave (km/s) = 2.62073 3.68821 3.19930
# Velocity P-wave (km/s) = 4.13155 6.65764 5.54048
#
# Compressibility (1/GPa) = 0.05863483
#
# Stress axis : x y z
#
# Youngs Moduli (GPa) = 51.58206 17.89852 30.81600
#
# Poissons Ratio (x) = -0.08015 0.03122
# Poissons Ratio (y) = -0.23098 0.86289
# Poissons Ratio (z) = 0.05225 0.50118
#
# Static dielectric constant tensor:
#      x y z
#    x 1.836520 0.000000 -0.040100 
#    y 0.000000 1.823950 0.000000 
#    z -0.040100 0.000000 1.865400 
# 
# From -- ./inp_files/22842.got.cif
#   From: 2010.05.17/outbox.cif.g08.bks.cpg/sg5_12_cif.got.tgz:22842.got - 2010.06.03 18:56:24.
