data_PCOD9122907
_publ_section_title
;
Structure prediction by ZEFSAII (Michael W. Deem and Ramdas Pophale) SiO2 
 PCOD9122907
Probable space group: C 2
;
_chemical_formula_sum "Si O2"
_cell_formula_units_Z 24
_cell_length_a 14.802672
_cell_length_b 13.299881
_cell_length_c 7.419421
_cell_angle_alpha 90.000000
_cell_angle_beta 57.370396
_cell_angle_gamma 90.000000
_cell_volume 1230.154525
_symmetry_space_group_name_H-M "C 2"
_symmetry_group_IT_number 5
_symmetry_cell_setting 'monoclinic'
loop_
_space_group_symop_operation_xyz
x,y,z
-x,y,-z
1/2+x,1/2+y,z
1/2-x,1/2+y,-z
loop_
_atom_site_type_symbol
_atom_site_label
_atom_site_fract_x
_atom_site_fract_y
_atom_site_fract_z
Si Si1 0.276244 0.926190 0.712511
Si Si2 0.000000 0.038532 0.500000
Si Si3 0.843078 0.732299 0.041054
Si Si4 0.701978 0.552120 0.085824
Si Si5 0.180490 0.904945 0.425778
Si Si6 0.000000 0.526691 0.500000
Si Si7 0.567961 0.213234 0.660847
O O1 0.239697 0.821532 0.838452
O O2 0.253549 0.921119 0.523182
O O3 0.395937 0.957611 0.639395
O O4 0.199296 0.008619 0.889071
O O5 0.089944 0.093496 0.286125
O O6 0.069251 0.967925 0.559105
O O7 0.789948 0.637938 0.002446
O O8 0.877258 0.699464 0.205196
O O9 0.952282 0.764397 0.823796
O O10 0.727256 0.458113 0.195756
O O11 0.143038 0.788461 0.464875
O O12 0.040415 0.605731 0.607408
#
# Coordination Sequence:
#
# PCOD9122907 Si02
#       7
#     4   2   4   4   4   2   4
#     4  11  23  37  60  88 128 152 197 249 306 352
#     4   8  19  33  60  78 112 152 193 235 290 348
#     4  10  21  38  59  87 120 162 199 247 300 354
#     4  10  20  38  56  88 117 160 194 251 297 355
#     4   9  20  38  59  92 114 154 200 251 291 348
#     4  12  23  37  60  96 120 158 197 251 304 360
#     4  10  20  36  63  88 116 154 211 249 284 353
#
# _framework density 19.509744000000001
#
# number of rings (size 3 to 8) (size 9 to 14) (size 15 to 20)
#    1.000    1.000    1.667    2.500    2.333    2.667 
#    0.000    0.000    0.000    0.000    8.667    0.000 
#    0.000    0.000    0.000    0.000    0.000    0.000 
#
# Total GULP energy -66802.330890 kJ/mol
# GULP energy per Si atom -5566.860908 kJ/mol
# Density = 1.946534 g / cm^3
# Si number density = 19.509744 Si / 1000 Ang^3
#
#
#
# Elastic Constant Matrix: (Units=GPa)
#
#
# Indices 1 2 3 4 5 6 
#
# 1 65.9640 45.8988 18.7542 0.0000 -1.5027 0.0000
# 2 45.8988 71.6512 16.5315 0.0000 -1.9859 0.0000
# 3 18.7542 16.5315 40.1226 0.0000 -1.2492 0.0000
# 4 0.0000 0.0000 0.0000 21.8694 0.0000 -3.4967
# 5 -1.5027 -1.9859 -1.2492 0.0000 34.0604 0.0000
# 6 0.0000 0.0000 0.0000 -3.4967 0.0000 36.6866
#
#
#
# Elastic Compliance Matrix: (Units=1/GPa)
#
#
# Indices 1 2 3 4 5 6 
#
# 1 0.028797 -0.016952 -0.006474 0.000000 0.000045 0.000000
# 2 -0.016952 0.025417 -0.002529 0.000000 0.000641 0.000000
# 3 -0.006474 -0.002529 0.029011 0.000000 0.000631 0.000000
# 4 0.000000 0.000000 0.000000 0.046434 0.000000 0.004426
# 5 0.000045 0.000641 0.000631 0.000000 0.029422 0.000000
# 6 0.000000 0.000000 0.000000 0.004426 0.000000 0.027680
#
#
# Mechanical properties :
#
#
# Convention : Reuss Voigt Hill
#
# Bulk Modulus (GPa) = 31.93330 37.78965 34.86148
# Shear Modulus (GPa) = 20.07156 24.96018 22.51587
#
# Velocity S-wave (km/s) = 3.21097 3.58071 3.40087
# Velocity P-wave (km/s) = 5.49094 6.04210 5.77310
#
# Compressibility (1/GPa) = 0.03131527
#
# Stress axis : x y z
#
# Youngs Moduli (GPa) = 34.72599 39.34400 34.46926
#
# Poissons Ratio (x) = 0.66695 0.22316
# Poissons Ratio (y) = 0.58867 0.08716
# Poissons Ratio (z) = 0.22483 0.09949
#
# Static dielectric constant tensor:
#      x y z
#    x 1.709670 0.000000 -0.023600 
#    y 0.000000 1.679150 0.000000 
#    z -0.023600 0.000000 1.717490 
# 
# From -- ./inp_files/26970.got.cif
#   From: 2010.05.17/outbox.cif.g08.bks.cpg/sg5_14_cif.got.tgz:26970.got - 2010.06.03 18:56:24.
