data_PCOD9122702
_publ_section_title
;
Structure prediction by ZEFSAII (Michael W. Deem and Ramdas Pophale) SiO2 
 PCOD9122702
Probable space group: C 2
;
_chemical_formula_sum "Si O2"
_cell_formula_units_Z 32
_cell_length_a 23.244600
_cell_length_b 7.389177
_cell_length_c 24.013483
_cell_angle_alpha 90.000000
_cell_angle_beta 160.240764
_cell_angle_gamma 90.000000
_cell_volume 1394.369645
_symmetry_space_group_name_H-M "C 2"
_symmetry_group_IT_number 5
_symmetry_cell_setting 'monoclinic'
loop_
_space_group_symop_operation_xyz
x,y,z
-x,y,-z
1/2+x,1/2+y,z
1/2-x,1/2+y,-z
loop_
_atom_site_type_symbol
_atom_site_label
_atom_site_fract_x
_atom_site_fract_y
_atom_site_fract_z
Si Si1 0.508526 0.500000 0.884696
Si Si2 0.191696 0.284214 0.902063
Si Si3 0.311379 0.454609 0.607106
Si Si4 0.837745 0.253843 0.882423
Si Si5 0.606560 0.629867 0.428521
Si Si6 0.561177 0.162994 0.784458
Si Si7 0.979943 0.802390 0.586597
Si Si8 0.677630 0.005402 0.642291
O O1 0.407642 0.576833 0.739212
O O2 0.344627 0.411575 0.767241
O O3 0.657119 0.365732 0.999121
O O4 0.591443 0.653867 0.998252
O O5 0.063398 0.449459 0.796134
O O6 0.085608 0.136686 0.770748
O O7 0.258673 0.214835 0.022332
O O8 0.287349 0.564316 0.528962
O O9 0.159455 0.332611 0.492758
O O10 0.444419 0.298351 0.712587
O O11 0.667093 0.366031 0.737081
O O12 0.763981 0.097451 0.774813
O O13 0.000000 0.341816 0.000000
O O14 0.624755 0.480784 0.492500
O O15 0.520080 0.202660 0.682310
O O16 0.890512 0.666986 0.461363
O O17 0.500000 0.911493 0.500000
#
# Coordination Sequence:
#
# PCOD9122702 Si02
#       8
#     4   4   4   4   4   4   4   4
#     4  10  20  35  62  87 120 153 205 251 311 347
#     4  11  21  38  58  90 128 168 200 248 297 381
#     4  10  23  38  55  92 125 170 203 246 298 382
#     4   9  18  37  63  92 112 151 211 264 298 369
#     4  11  24  37  59  86 133 165 208 243 309 368
#     4  10  20  36  55  87 128 161 203 242 300 367
#     4  10  20  37  61  91 118 160 199 261 311 357
#     4   9  20  36  63  90 116 152 209 263 305 363
#
# _framework density 22.949439000000002
#
# number of rings (size 3 to 8) (size 9 to 14) (size 15 to 20)
#    0.000    2.000    1.250    3.000    5.250    0.000 
#    2.250    3.750    0.000   19.500    0.000    0.000 
#    0.000    0.000    0.000    0.000    0.000    0.000 
#
# Total GULP energy -89123.501072 kJ/mol
# GULP energy per Si atom -5570.218817 kJ/mol
# Density = 2.289721 g / cm^3
# Si number density = 22.949439 Si / 1000 Ang^3
#
#
#
# Elastic Constant Matrix: (Units=GPa)
#
#
# Indices 1 2 3 4 5 6 
#
# 1 71.6647 8.7754 27.6695 -0.0007 2.4751 -0.0002
# 2 8.7754 54.2374 22.0720 -0.0013 -11.4766 -0.0003
# 3 27.6695 22.0720 98.3227 -0.0028 -5.1270 -0.0004
# 4 -0.0007 -0.0013 -0.0028 33.6006 -0.0017 3.8890
# 5 2.4751 -11.4766 -5.1270 -0.0017 52.1120 -0.0003
# 6 -0.0002 -0.0003 -0.0004 3.8890 -0.0003 18.1372
#
#
#
# Elastic Compliance Matrix: (Units=1/GPa)
#
#
# Indices 1 2 3 4 5 6 
#
# 1 0.015787 -0.001118 -0.004265 0.000000 -0.001416 0.000000
# 2 -0.001118 0.021254 -0.004231 0.000001 0.004318 0.000000
# 3 -0.004265 -0.004231 0.012346 0.000001 0.000485 0.000000
# 4 0.000000 0.000001 0.000001 0.030519 0.000001 -0.006544
# 5 -0.001416 0.004318 0.000485 0.000001 0.020255 0.000000
# 6 0.000000 0.000000 0.000000 -0.006544 0.000000 0.056538
#
#
# Mechanical properties :
#
#
# Convention : Reuss Voigt Hill
#
# Bulk Modulus (GPa) = 33.15981 37.91761 35.53871
# Shear Modulus (GPa) = 26.88447 31.81717 29.35082
#
# Velocity S-wave (km/s) = 3.42638 3.72748 3.58010
# Velocity P-wave (km/s) = 5.48943 5.92314 5.71041
#
# Compressibility (1/GPa) = 0.03015699
#
# Stress axis : x y z
#
# Youngs Moduli (GPa) = 63.34517 47.05017 80.99691
#
# Poissons Ratio (x) = 0.05260 0.34549
# Poissons Ratio (y) = 0.07081 0.34274
# Poissons Ratio (z) = 0.27019 0.19909
#
# Static dielectric constant tensor:
#      x y z
#    x 1.984390 0.000000 0.068910 
#    y 0.000000 1.809540 0.000000 
#    z 0.068910 0.000000 1.987670 
# 
# From -- ./inp_files/69675.got.cif
#   From: 2010.05.17/outbox.cif.g08.bks.cpg/sg5_35_cif.got.tgz:69675.got - 2010.06.03 18:56:24.
