data_PCOD9122171
_publ_section_title
;
Structure prediction by ZEFSAII (Michael W. Deem and Ramdas Pophale) SiO2 
 PCOD9122171
Probable space group: C 2
;
_chemical_formula_sum "Si O2"
_cell_formula_units_Z 32
_cell_length_a 13.925372
_cell_length_b 16.289384
_cell_length_c 13.866619
_cell_angle_alpha 90.000000
_cell_angle_beta 148.972962
_cell_angle_gamma 90.000000
_cell_volume 1621.295916
_symmetry_space_group_name_H-M "C 2"
_symmetry_group_IT_number 5
_symmetry_cell_setting 'monoclinic'
loop_
_space_group_symop_operation_xyz
x,y,z
-x,y,-z
1/2+x,1/2+y,z
1/2-x,1/2+y,-z
loop_
_atom_site_type_symbol
_atom_site_label
_atom_site_fract_x
_atom_site_fract_y
_atom_site_fract_z
Si Si1 0.789327 0.502840 0.482866
Si Si2 0.009876 0.657066 0.295524
Si Si3 0.896064 0.219099 0.641939
Si Si4 0.551348 0.451109 0.940105
Si Si5 0.895330 0.140639 0.005992
Si Si6 0.006305 0.073965 0.391985
Si Si7 0.920556 0.392684 0.172116
Si Si8 0.911136 0.542881 0.028401
O O1 0.902977 0.586404 0.560526
O O2 0.639460 0.469045 0.279712
O O3 0.668973 0.524551 0.476145
O O4 0.949374 0.437018 0.637494
O O5 0.172478 0.724721 0.438806
O O6 0.980353 0.610428 0.166698
O O7 0.804719 0.682362 0.151313
O O8 0.999449 0.301755 0.759989
O O9 0.967491 0.157600 0.787198
O O10 0.958736 0.170443 0.599855
O O11 0.639484 0.542551 0.029395
O O12 0.500000 0.416158 0.000000
O O13 0.704629 0.398187 0.016337
O O14 0.000000 0.167193 0.000000
O O15 0.000000 0.057204 0.500000
O O16 0.810019 0.051825 0.174937
O O17 0.946679 0.451923 0.101861
O O18 0.000000 0.554862 0.000000
#
# Coordination Sequence:
#
# PCOD9122171 Si02
#       8
#     4   4   4   4   4   4   4   4
#     4  10  19  39  61  88 118 157 209 258 304 361
#     4  10  19  39  61  93 124 160 211 259 310 371
#     4  11  23  40  60  90 134 162 201 257 322 375
#     4  11  21  40  65  89 121 166 212 255 307 370
#     4  11  21  39  67  92 120 166 211 258 309 372
#     4  11  20  40  65  90 118 160 217 265 302 373
#     4  11  23  40  61  92 132 164 200 262 317 377
#     4  11  20  39  68  92 117 163 221 262 311 367
#
# _framework density 19.737297000000002
#
# number of rings (size 3 to 8) (size 9 to 14) (size 15 to 20)
#    0.000    1.250    7.500    2.250    0.000    2.500 
#    2.250    0.625    2.750    0.000    0.000    0.000 
#    0.000    0.000    0.000    0.000    0.000    0.000 
#
# Total GULP energy -89220.220674 kJ/mol
# GULP energy per Si atom -5576.263792 kJ/mol
# Density = 1.969237 g / cm^3
# Si number density = 19.737297 Si / 1000 Ang^3
#
#
#
# Elastic Constant Matrix: (Units=GPa)
#
#
# Indices 1 2 3 4 5 6 
#
# 1 79.5054 4.1058 27.8201 -0.0022 -10.6716 -0.0008
# 2 4.1058 44.8845 7.7327 -0.0032 -1.4745 -0.0013
# 3 27.8201 7.7327 142.2797 -0.0046 10.2305 -0.0020
# 4 -0.0022 -0.0032 -0.0046 22.2991 -0.0024 4.1724
# 5 -10.6716 -1.4745 10.2305 -0.0024 22.9126 -0.0009
# 6 -0.0008 -0.0013 -0.0020 4.1724 -0.0009 10.6250
#
#
#
# Elastic Compliance Matrix: (Units=1/GPa)
#
#
# Indices 1 2 3 4 5 6 
#
# 1 0.014975 -0.000485 -0.003514 0.000002 0.008512 0.000001
# 2 -0.000485 0.022600 -0.001262 0.000003 0.001792 0.000001
# 3 -0.003514 -0.001262 0.008170 0.000001 -0.005366 0.000000
# 4 0.000002 0.000003 0.000001 0.048401 0.000005 -0.019007
# 5 0.008512 0.001792 -0.005366 0.000005 0.050120 0.000002
# 6 0.000001 0.000001 0.000000 -0.019007 0.000002 0.101582
#
#
# Mechanical properties :
#
#
# Convention : Reuss Voigt Hill
#
# Bulk Modulus (GPa) = 28.39061 38.44301 33.41681
# Shear Modulus (GPa) = 18.64902 26.30141 22.47522
#
# Velocity S-wave (km/s) = 3.07720 3.65440 3.37815
# Velocity P-wave (km/s) = 5.20009 6.10949 5.67304
#
# Compressibility (1/GPa) = 0.03522292
#
# Stress axis : x y z
#
# Youngs Moduli (GPa) = 66.77861 44.24760 122.40095
#
# Poissons Ratio (x) = 0.02145 0.43009
# Poissons Ratio (y) = 0.03238 0.15451
# Poissons Ratio (z) = 0.23464 0.05586
#
# Static dielectric constant tensor:
#      x y z
#    x 1.735620 0.000000 -0.000300 
#    y 0.000000 1.721250 0.000000 
#    z -0.000300 0.000000 1.709990 
# 
# From -- ./inp_files/54912.got.cif
#   From: 2010.05.17/outbox.cif.g08.bks.cpg/sg5_28_cif.got.tgz:54912.got - 2010.06.03 18:56:24.
