data_PCOD9122909
_publ_section_title
;
Structure prediction by ZEFSAII (Michael W. Deem and Ramdas Pophale) SiO2 
 PCOD9122909
Probable space group: C 2
;
_chemical_formula_sum "Si O2"
_cell_formula_units_Z 22
_cell_length_a 21.331717
_cell_length_b 4.800856
_cell_length_c 11.051309
_cell_angle_alpha 90.000000
_cell_angle_beta 38.699554
_cell_angle_gamma 90.000000
_cell_volume 707.624067
_symmetry_space_group_name_H-M "C 2"
_symmetry_group_IT_number 5
_symmetry_cell_setting 'monoclinic'
loop_
_space_group_symop_operation_xyz
x,y,z
-x,y,-z
1/2+x,1/2+y,z
1/2-x,1/2+y,-z
loop_
_atom_site_type_symbol
_atom_site_label
_atom_site_fract_x
_atom_site_fract_y
_atom_site_fract_z
Si Si1 0.985483 0.159390 0.171285
Si Si2 0.585895 0.177482 0.118094
Si Si3 0.203646 0.454409 0.637151
Si Si4 0.000000 0.456711 0.500000
Si Si5 0.744419 0.664836 0.934470
Si Si6 0.350204 0.545228 0.608337
O O1 0.902818 0.297966 0.208160
O O2 0.920507 0.107869 0.390770
O O3 0.027594 0.851912 0.095007
O O4 0.163662 0.933962 0.025841
O O5 0.707828 0.976780 0.026696
O O6 0.521776 0.136822 0.344525
O O7 0.569998 0.875752 0.082391
O O8 0.218946 0.702072 0.516101
O O9 0.242047 0.591745 0.704859
O O10 0.905264 0.240057 0.624119
O O11 0.823571 0.753068 0.713274
#
# Coordination Sequence:
#
# PCOD9122909 Si02
#       6
#     4   4   4   2   4   4
#     4  10  20  36  63  89 118 152 194 258 321 368
#     4  11  21  37  58  87 118 152 203 255 310 367
#     4  10  21  36  58  92 127 159 196 253 328 386
#     4  10  20  38  68 100 126 162 202 268 340 376
#     4  12  25  40  59  85 124 171 210 250 304 372
#     4  10  21  38  60  91 126 157 202 255 311 374
#
# _framework density 31.089955
#
# number of rings (size 3 to 8) (size 9 to 14) (size 15 to 20)
#    0.000    1.455    0.000    7.636    0.000    8.000 
#    0.000    0.000    0.000    6.545    0.000    0.000 
#    0.000    0.000    0.000    0.000    0.000    0.000 
#
# Total GULP energy -61416.483539 kJ/mol
# GULP energy per Si atom -5583.316685 kJ/mol
# Density = 3.101919 g / cm^3
# Si number density = 31.089955 Si / 1000 Ang^3
#
#
#
# Elastic Constant Matrix: (Units=GPa)
#
#
# Indices 1 2 3 4 5 6 
#
# 1 153.2603 107.4644 24.8988 0.0002 23.1852 0.0005
# 2 107.4644 315.4054 94.7466 -0.0141 -15.5755 0.0008
# 3 24.8988 94.7466 140.5757 -0.0019 -4.4183 -0.0007
# 4 0.0002 -0.0141 -0.0019 53.1428 -0.0003 -1.3283
# 5 23.1852 -15.5755 -4.4183 -0.0003 51.8905 0.0017
# 6 0.0005 0.0008 -0.0007 -1.3283 0.0017 59.0916
#
#
#
# Elastic Compliance Matrix: (Units=1/GPa)
#
#
# Indices 1 2 3 4 5 6 
#
# 1 0.009974 -0.003874 0.000670 -0.000001 -0.005562 0.000000
# 2 -0.003874 0.005529 -0.002942 0.000001 0.003140 0.000000
# 3 0.000670 -0.002942 0.008965 0.000000 -0.000419 0.000000
# 4 -0.000001 0.000001 0.000000 0.018828 0.000001 0.000423
# 5 -0.005562 0.003140 -0.000419 0.000001 0.022664 -0.000001
# 6 0.000000 0.000000 0.000000 0.000423 -0.000001 0.016932
#
#
# Mechanical properties :
#
#
# Convention : Reuss Voigt Hill
#
# Bulk Modulus (GPa) = 82.13283 118.16233 100.14758
# Shear Modulus (GPa) = 50.38151 58.30042 54.34097
#
# Velocity S-wave (km/s) = 4.02992 4.33508 4.18528
# Velocity P-wave (km/s) = 6.93749 7.94646 7.45906
#
# Compressibility (1/GPa) = 0.01217540
#
# Stress axis : x y z
#
# Youngs Moduli (GPa) = 100.25989 180.85401 111.55038
#
# Poissons Ratio (x) = 0.70067 -0.07471
# Poissons Ratio (y) = 0.38843 0.32816
# Poissons Ratio (z) = -0.06715 0.53204
#
# Static dielectric constant tensor:
#      x y z
#    x 3.076490 0.000000 -0.279090 
#    y 0.000000 2.275470 0.000000 
#    z -0.279090 0.000000 2.715540 
# 
# From -- ./inp_files/57441.got.cif
#   From: 2010.05.17/outbox.cif.g08.bks.cpg/sg5_29_cif.got.tgz:57441.got - 2010.06.03 18:56:24.
