data_PCOD9122119
_publ_section_title
;
Structure prediction by ZEFSAII (Michael W. Deem and Ramdas Pophale) SiO2 
 PCOD9122119
Probable space group: C 2
;
_chemical_formula_sum "Si O2"
_cell_formula_units_Z 28
_cell_length_a 17.953218
_cell_length_b 5.641239
_cell_length_c 26.882506
_cell_angle_alpha 90.000000
_cell_angle_beta 154.366407
_cell_angle_gamma 90.000000
_cell_volume 1177.843402
_symmetry_space_group_name_H-M "C 2"
_symmetry_group_IT_number 5
_symmetry_cell_setting 'monoclinic'
loop_
_space_group_symop_operation_xyz
x,y,z
-x,y,-z
1/2+x,1/2+y,z
1/2-x,1/2+y,-z
loop_
_atom_site_type_symbol
_atom_site_label
_atom_site_fract_x
_atom_site_fract_y
_atom_site_fract_z
Si Si1 0.726347 0.439970 0.850896
Si Si2 0.000000 0.519906 0.500000
Si Si3 0.469485 0.982271 0.586989
Si Si4 0.879152 0.717993 0.636548
Si Si5 0.000000 0.054017 0.000000
Si Si6 0.137627 0.759539 0.267034
Si Si7 0.666052 0.233767 0.177477
Si Si8 0.694688 0.555070 0.941546
O O1 0.520787 0.427386 0.721455
O O2 0.824751 0.190973 0.908918
O O3 0.803818 0.552380 0.848388
O O4 0.761942 0.560157 0.925085
O O5 0.024902 0.641772 0.460589
O O6 0.169995 0.359868 0.610373
O O7 0.316787 0.797792 0.485034
O O8 0.654063 0.865639 0.704660
O O9 0.422931 0.086607 0.612361
O O10 0.906240 0.616509 0.708842
O O11 0.958533 0.918474 0.924043
O O12 0.116905 0.631017 0.201651
O O13 0.007433 0.982626 0.183774
O O14 0.770756 0.310271 0.012321
#
# Coordination Sequence:
#
# PCOD9122119 Si02
#       8
#     4   2   4   4   2   4   4   4
#     4  11  25  40  64  99 130 172 227 276 338 403
#     4   8  18  38  64  92 128 176 222 278 342 408
#     4  10  19  38  65  90 128 168 215 275 332 404
#     4  10  20  40  62  94 128 169 219 273 339 402
#     4  12  24  40  64  96 134 168 228 270 338 404
#     4   9  21  41  65  94 134 178 223 281 343 409
#     4  11  23  41  67  91 129 175 216 274 336 400
#     4  11  26  45  70  99 139 184 230 283 342 410
#
# _framework density 23.772259999999999
#
# number of rings (size 3 to 8) (size 9 to 14) (size 15 to 20)
#    0.000    1.714    1.429    2.143    6.000    0.000 
#    0.000    1.429    0.000    0.857    0.000    0.000 
#    0.000    0.000    0.000    0.000    0.000    0.000 
#
# Total GULP energy -78065.644992 kJ/mol
# GULP energy per Si atom -5576.117499 kJ/mol
# Density = 2.371815 g / cm^3
# Si number density = 23.772260 Si / 1000 Ang^3
#
#
#
# Elastic Constant Matrix: (Units=GPa)
#
#
# Indices 1 2 3 4 5 6 
#
# 1 222.1547 38.8543 41.8079 -0.0010 -66.6445 0.0021
# 2 38.8543 49.0825 39.1677 -0.0035 -9.0162 0.0090
# 3 41.8079 39.1677 140.4038 0.0024 -26.5427 -0.0022
# 4 -0.0010 -0.0035 0.0024 13.6431 0.0009 0.8147
# 5 -66.6445 -9.0162 -26.5427 0.0009 74.2673 -0.0025
# 6 0.0021 0.0090 -0.0022 0.8147 -0.0025 33.4878
#
#
#
# Elastic Compliance Matrix: (Units=1/GPa)
#
#
# Indices 1 2 3 4 5 6 
#
# 1 0.007023 -0.004758 0.000341 -0.000001 0.005847 0.000001
# 2 -0.004758 0.029457 -0.007434 0.000009 -0.003350 -0.000009
# 3 0.000341 -0.007434 0.009633 -0.000004 0.002846 0.000003
# 4 -0.000001 0.000009 -0.000004 0.073404 -0.000002 -0.001786
# 5 0.005847 -0.003350 0.002846 -0.000002 0.019322 0.000002
# 6 0.000001 -0.000009 0.000003 -0.001786 0.000002 0.029905
#
#
# Mechanical properties :
#
#
# Convention : Reuss Voigt Hill
#
# Bulk Modulus (GPa) = 44.61991 72.36677 58.49334
# Shear Modulus (GPa) = 25.01042 43.73370 34.37206
#
# Velocity S-wave (km/s) = 3.24710 4.29382 3.80661
# Velocity P-wave (km/s) = 5.73313 7.42228 6.63170
#
# Compressibility (1/GPa) = 0.02241152
#
# Stress axis : x y z
#
# Youngs Moduli (GPa) = 142.38358 33.94736 103.81365
#
# Poissons Ratio (x) = 0.16152 -0.03543
# Poissons Ratio (y) = 0.67747 0.77177
# Poissons Ratio (z) = -0.04860 0.25237
#
# Static dielectric constant tensor:
#      x y z
#    x 2.019770 0.000000 0.000180 
#    y 0.000000 1.960070 0.000000 
#    z 0.000180 0.000000 1.906160 
# 
# From -- ./inp_files/63533.got.cif
#   From: 2010.05.17/outbox.cif.g08.bks.cpg/sg5_32_cif.got.tgz:63533.got - 2010.06.03 18:56:24.
