data_PCOD9122595
_publ_section_title
;
Structure prediction by ZEFSAII (Michael W. Deem and Ramdas Pophale) SiO2 
 PCOD9122595
Probable space group: C 2
;
_chemical_formula_sum "Si O2"
_cell_formula_units_Z 28
_cell_length_a 5.326638
_cell_length_b 32.294246
_cell_length_c 6.950036
_cell_angle_alpha 90.000000
_cell_angle_beta 74.003114
_cell_angle_gamma 90.000000
_cell_volume 1149.248091
_symmetry_space_group_name_H-M "C 2"
_symmetry_group_IT_number 5
_symmetry_cell_setting 'monoclinic'
loop_
_space_group_symop_operation_xyz
x,y,z
-x,y,-z
1/2+x,1/2+y,z
1/2-x,1/2+y,-z
loop_
_atom_site_type_symbol
_atom_site_label
_atom_site_fract_x
_atom_site_fract_y
_atom_site_fract_z
Si Si1 0.931104 0.859900 0.244203
Si Si2 0.919123 0.953412 0.240857
Si Si3 0.037901 0.139910 0.219604
Si Si4 0.061685 0.311991 0.759710
Si Si5 0.000000 0.685913 0.000000
Si Si6 0.084933 0.503959 0.757549
Si Si7 0.256240 0.222331 0.689274
Si Si8 0.000000 0.066588 0.500000
O O1 0.861155 0.906803 0.316989
O O2 0.680517 0.830820 0.302580
O O3 0.177721 0.840182 0.301439
O O4 0.000000 0.861711 0.000000
O O5 0.672506 0.984855 0.290124
O O6 0.182906 0.969901 0.284072
O O7 0.000000 0.951416 0.000000
O O8 0.336673 0.155169 0.171729
O O9 0.949085 0.098057 0.336397
O O10 0.882445 0.179364 0.328267
O O11 0.000000 0.135996 0.000000
O O12 0.097603 0.264199 0.700859
O O13 0.000000 0.312754 0.000000
O O14 0.165408 0.715475 0.103508
O O15 0.243742 0.541063 0.621095
O O16 0.000000 0.513546 0.000000
O O17 0.500000 0.226954 0.500000
#
# Coordination Sequence:
#
# PCOD9122595 Si02
#       8
#     4   4   4   4   2   4   4   2
#     4   9  18  33  64  99 132 181 235 287 341 419
#     4   9  18  40  67  99 137 183 233 282 362 428
#     4  10  24  46  69 101 137 186 232 296 357 430
#     4  10  20  34  62 101 135 180 239 287 338 411
#     4  10  22  44  72  94 132 190 226 296 348 426
#     4  10  23  42  70 102 140 184 233 300 359 436
#     4  11  24  42  66  97 142 187 235 284 359 425
#     4  12  26  46  72 106 140 184 244 302 368 434
#
# _framework density 24.363757
#
# number of rings (size 3 to 8) (size 9 to 14) (size 15 to 20)
#    0.000    2.000    0.000    3.000    6.000    5.714 
#   10.286    0.000    9.429    0.000    0.000    0.000 
#    0.000    0.000    0.000    0.000    0.000    0.000 
#
# Total GULP energy -78359.416717 kJ/mol
# GULP energy per Si atom -5597.101194 kJ/mol
# Density = 2.430830 g / cm^3
# Si number density = 24.363757 Si / 1000 Ang^3
#
#
#
# Elastic Constant Matrix: (Units=GPa)
#
#
# Indices 1 2 3 4 5 6 
#
# 1 140.6986 76.2265 35.4836 0.0000 -10.7243 0.0000
# 2 76.2265 207.2330 63.0980 0.0000 -21.9455 0.0000
# 3 35.4836 63.0980 125.2994 0.0000 -19.2307 0.0000
# 4 0.0000 0.0000 0.0000 22.0204 0.0000 9.6294
# 5 -10.7243 -21.9455 -19.2307 0.0000 49.1385 0.0000
# 6 0.0000 0.0000 0.0000 9.6294 0.0000 19.8909
#
#
#
# Elastic Compliance Matrix: (Units=1/GPa)
#
#
# Indices 1 2 3 4 5 6 
#
# 1 0.008992 -0.002974 -0.001012 0.000000 0.000238 0.000000
# 2 -0.002974 0.006791 -0.002353 0.000000 0.001463 0.000000
# 3 -0.001012 -0.002353 0.009849 0.000000 0.002583 0.000000
# 4 0.000000 0.000000 0.000000 0.057608 0.000000 -0.027889
# 5 0.000238 0.001463 0.002583 0.000000 0.022067 0.000000
# 6 0.000000 0.000000 0.000000 -0.027889 0.000000 0.063775
#
#
# Mechanical properties :
#
#
# Convention : Reuss Voigt Hill
#
# Bulk Modulus (GPa) = 77.20150 91.42746 84.31448
# Shear Modulus (GPa) = 26.87040 38.10481 32.48760
#
# Velocity S-wave (km/s) = 3.32457 3.95903 3.65559
# Velocity P-wave (km/s) = 6.81857 7.64892 7.24565
#
# Compressibility (1/GPa) = 0.01295312
#
# Stress axis : x y z
#
# Youngs Moduli (GPa) = 111.20825 147.25802 101.53525
#
# Poissons Ratio (x) = 0.43797 0.10278
# Poissons Ratio (y) = 0.33075 0.23890
# Poissons Ratio (z) = 0.11257 0.34649
#
# Static dielectric constant tensor:
#      x y z
#    x 1.952890 0.000000 0.019480 
#    y 0.000000 1.861760 0.000000 
#    z 0.019480 0.000000 2.019960 
# 
# From -- ./inp_files/13330.got.cif
#   From: 2010.05.17/outbox.cif.g08.bks.cpg/sg5_7_cif.got.tgz:13330.got - 2010.06.03 18:56:24.
