data_PCOD9122444
_publ_section_title
;
Structure prediction by ZEFSAII (Michael W. Deem and Ramdas Pophale) SiO2 
 PCOD9122444
Probable space group: C 2
;
_chemical_formula_sum "Si O2"
_cell_formula_units_Z 30
_cell_length_a 11.728561
_cell_length_b 31.226045
_cell_length_c 5.193126
_cell_angle_alpha 90.000000
_cell_angle_beta 126.109943
_cell_angle_gamma 90.000000
_cell_volume 1536.531709
_symmetry_space_group_name_H-M "C 2"
_symmetry_group_IT_number 5
_symmetry_cell_setting 'monoclinic'
loop_
_space_group_symop_operation_xyz
x,y,z
-x,y,-z
1/2+x,1/2+y,z
1/2-x,1/2+y,-z
loop_
_atom_site_type_symbol
_atom_site_label
_atom_site_fract_x
_atom_site_fract_y
_atom_site_fract_z
Si Si1 0.171613 0.425360 0.221100
Si Si2 0.654902 0.648936 0.102870
Si Si3 0.656043 0.071897 0.583746
Si Si4 0.170405 0.475708 0.718130
Si Si5 0.000000 0.626836 0.000000
Si Si6 0.828496 0.838771 0.272148
Si Si7 0.330769 0.287560 0.775654
Si Si8 0.271068 0.188863 0.780652
O O1 0.215966 0.442012 0.561394
O O2 0.249155 0.382176 0.241307
O O3 0.210922 0.460940 0.057752
O O4 0.000000 0.420218 0.000000
O O5 0.732714 0.604320 0.148465
O O6 0.734533 0.672922 0.444123
O O7 0.500000 0.640676 0.000000
O O8 0.659465 0.676601 0.850402
O O9 0.500000 0.073895 0.500000
O O10 0.708100 0.023509 0.677279
O O11 0.618433 0.093829 0.261041
O O12 0.000000 0.475334 0.500000
O O13 0.911506 0.661555 0.050434
O O14 0.789113 0.803960 0.438274
O O15 0.000000 0.844593 0.500000
O O16 0.784783 0.820663 0.935879
O O17 0.288690 0.239489 0.789092
O O18 0.500000 0.287910 0.000000
#
# Coordination Sequence:
#
# PCOD9122444 Si02
#       8
#     4   4   4   4   2   4   4   4
#     4  10  20  38  55  81 110 148 182 228 290 345
#     4  11  24  39  55  81 123 162 187 231 288 356
#     4  10  20  35  58  86 112 149 201 242 288 327
#     4   9  20  32  58  83 111 140 187 242 277 330
#     4  10  20  32  60  92 114 146 192 256 280 346
#     4  10  21  37  59  84 112 144 182 239 291 347
#     4  10  20  36  59  87 112 140 189 245 289 330
#     4  11  21  38  60  84 116 152 198 235 291 338
#
# _framework density 19.524491999999999
#
# number of rings (size 3 to 8) (size 9 to 14) (size 15 to 20)
#    0.000    1.867    2.000    2.000    4.667    0.000 
#    0.000    5.333    0.000    0.000    0.000    0.000 
#    0.000    0.000    0.000    0.000    0.000    0.000 
#
# Total GULP energy -83587.655351 kJ/mol
# GULP energy per Si atom -5572.510357 kJ/mol
# Density = 1.948005 g / cm^3
# Si number density = 19.524492 Si / 1000 Ang^3
#
#
#
# Elastic Constant Matrix: (Units=GPa)
#
#
# Indices 1 2 3 4 5 6 
#
# 1 91.5760 55.3034 17.0279 0.0000 -18.3322 0.0000
# 2 55.3034 138.9814 10.6815 0.0000 -8.8935 0.0000
# 3 17.0279 10.6815 36.5313 0.0000 -17.0627 0.0000
# 4 0.0000 0.0000 0.0000 19.5585 0.0000 -9.1535
# 5 -18.3322 -8.8935 -17.0627 0.0000 24.1049 0.0000
# 6 0.0000 0.0000 0.0000 -9.1535 0.0000 24.6654
#
#
#
# Elastic Compliance Matrix: (Units=1/GPa)
#
#
# Indices 1 2 3 4 5 6 
#
# 1 0.016662 -0.005905 -0.001701 0.000000 0.009289 0.000000
# 2 -0.005905 0.009505 -0.000727 0.000000 -0.001498 0.000000
# 3 -0.001701 -0.000727 0.041306 0.000000 0.027677 0.000000
# 4 0.000000 0.000000 0.000000 0.061875 0.000000 0.022962
# 5 0.009289 -0.001498 0.027677 0.000000 0.067587 0.000000
# 6 0.000000 0.000000 0.000000 0.022962 0.000000 0.049064
#
#
# Mechanical properties :
#
#
# Convention : Reuss Voigt Hill
#
# Bulk Modulus (GPa) = 19.68227 48.12381 33.90304
# Shear Modulus (GPa) = 17.88262 25.93748 21.91005
#
# Velocity S-wave (km/s) = 3.02968 3.64876 3.35353
# Velocity P-wave (km/s) = 4.72666 6.51557 5.69183
#
# Compressibility (1/GPa) = 0.05080714
#
# Stress axis : x y z
#
# Youngs Moduli (GPa) = 60.01793 105.20969 24.20944
#
# Poissons Ratio (x) = 0.62125 0.04119
# Poissons Ratio (y) = 0.35440 0.01759
# Poissons Ratio (z) = 0.10211 0.07644
#
# Static dielectric constant tensor:
#      x y z
#    x 1.713200 0.000000 -0.027710 
#    y 0.000000 1.666120 0.000000 
#    z -0.027710 0.000000 1.767330 
# 
# From -- ./inp_files/6151.got.cif
#   From: 2010.05.17/outbox.cif.g08.bks.cpg/sg5_4_cif.got.tgz:6151.got - 2010.06.03 18:56:24.
