data_PCOD9122234
_publ_section_title
;
Structure prediction by ZEFSAII (Michael W. Deem and Ramdas Pophale) SiO2 
 PCOD9122234
Probable space group: C 2
;
_chemical_formula_sum "Si O2"
_cell_formula_units_Z 24
_cell_length_a 8.763450
_cell_length_b 18.591647
_cell_length_c 8.779654
_cell_angle_alpha 90.000000
_cell_angle_beta 54.175924
_cell_angle_gamma 90.000000
_cell_volume 1159.828379
_symmetry_space_group_name_H-M "C 2"
_symmetry_group_IT_number 5
_symmetry_cell_setting 'monoclinic'
loop_
_space_group_symop_operation_xyz
x,y,z
-x,y,-z
1/2+x,1/2+y,z
1/2-x,1/2+y,-z
loop_
_atom_site_type_symbol
_atom_site_label
_atom_site_fract_x
_atom_site_fract_y
_atom_site_fract_z
Si Si1 0.919395 0.132400 0.387353
Si Si2 0.963231 0.549753 0.343919
Si Si3 0.806952 0.782620 0.154804
Si Si4 0.975239 0.388285 0.330437
Si Si5 0.191146 0.622863 0.975630
Si Si6 0.806828 0.768240 0.521735
O O1 0.748191 0.081091 0.539751
O O2 0.827497 0.200905 0.357725
O O3 0.000000 0.161664 0.500000
O O4 0.099067 0.097896 0.195505
O O5 0.980232 0.469290 0.267486
O O6 0.000000 0.544825 0.500000
O O7 0.124730 0.601260 0.181577
O O8 0.642196 0.833767 0.195363
O O9 0.799876 0.707248 0.069151
O O10 0.817954 0.766161 0.329622
O O11 0.000000 0.820800 0.000000
O O12 0.788562 0.345340 0.393138
O O13 0.000000 0.392463 0.500000
O O14 0.000000 0.595863 0.000000
O O15 0.000000 0.760900 0.500000
#
# Coordination Sequence:
#
# PCOD9122234 Si02
#       6
#     4   4   4   4   4   4
#     4  12  20  39  69  93 129 176 211 265 329 385
#     4  11  25  43  63  99 136 168 219 273 313 384
#     4  10  19  39  69  92 124 172 213 257 327 398
#     4   9  20  43  65  90 132 173 206 260 335 387
#     4  11  21  39  69  95 123 175 223 256 324 397
#     4  11  21  39  68  99 125 161 219 274 320 377
#
# _framework density 20.692716999999998
#
# number of rings (size 3 to 8) (size 9 to 14) (size 15 to 20)
#    0.000    1.333    5.000    2.000    0.000    1.333 
#    9.000    0.833    0.000    0.000    0.000    0.000 
#    0.000    0.000    0.000    0.000    0.000    0.000 
#
# Total GULP energy -66874.681656 kJ/mol
# GULP energy per Si atom -5572.890138 kJ/mol
# Density = 2.064562 g / cm^3
# Si number density = 20.692717 Si / 1000 Ang^3
#
#
#
# Elastic Constant Matrix: (Units=GPa)
#
#
# Indices 1 2 3 4 5 6 
#
# 1 115.9963 53.4516 32.5048 0.0000 -30.5946 0.0000
# 2 53.4516 119.2570 51.2254 0.0000 -8.3458 0.0000
# 3 32.5048 51.2254 120.4645 0.0000 -35.8398 0.0000
# 4 0.0000 0.0000 0.0000 21.4826 0.0000 3.1526
# 5 -30.5946 -8.3458 -35.8398 0.0000 33.0636 0.0000
# 6 0.0000 0.0000 0.0000 3.1526 0.0000 14.2095
#
#
#
# Elastic Compliance Matrix: (Units=1/GPa)
#
#
# Indices 1 2 3 4 5 6 
#
# 1 0.015285 -0.007385 0.003940 0.000000 0.016550 0.000000
# 2 -0.007385 0.014055 -0.007323 0.000000 -0.011224 0.000000
# 3 0.003940 -0.007323 0.016069 0.000000 0.019215 0.000000
# 4 0.000000 0.000000 0.000000 0.048116 0.000000 -0.010675
# 5 0.016550 -0.011224 0.019215 0.000000 0.063555 0.000000
# 6 0.000000 0.000000 0.000000 -0.010675 0.000000 0.072744
#
#
# Mechanical properties :
#
#
# Convention : Reuss Voigt Hill
#
# Bulk Modulus (GPa) = 41.88887 70.00905 55.94896
# Shear Modulus (GPa) = 19.28124 28.32021 23.80073
#
# Velocity S-wave (km/s) = 3.05583 3.70348 3.39514
# Velocity P-wave (km/s) = 5.72172 7.22453 6.51659
#
# Compressibility (1/GPa) = 0.02387269
#
# Stress axis : x y z
#
# Youngs Moduli (GPa) = 65.42276 71.14663 62.23116
#
# Poissons Ratio (x) = 0.52542 -0.24519
# Poissons Ratio (y) = 0.48315 0.45575
# Poissons Ratio (z) = -0.25776 0.52104
#
# Static dielectric constant tensor:
#      x y z
#    x 1.799650 0.000000 0.002000 
#    y 0.000000 1.742170 0.000000 
#    z 0.002000 0.000000 1.854050 
# 
# From -- ./inp_files/16715.got.cif
#   From: 2010.05.17/outbox.cif.g08.bks.cpg/sg5_9_cif.got.tgz:16715.got - 2010.06.03 18:56:24.
