data_PCOD9122492
_publ_section_title
;
Structure prediction by ZEFSAII (Michael W. Deem and Ramdas Pophale) SiO2 
 PCOD9122492
Probable space group: C 2
;
_chemical_formula_sum "Si O2"
_cell_formula_units_Z 32
_cell_length_a 21.512594
_cell_length_b 7.780392
_cell_length_c 9.580881
_cell_angle_alpha 90.000000
_cell_angle_beta 77.573655
_cell_angle_gamma 90.000000
_cell_volume 1566.046356
_symmetry_space_group_name_H-M "C 2"
_symmetry_group_IT_number 5
_symmetry_cell_setting 'monoclinic'
loop_
_space_group_symop_operation_xyz
x,y,z
-x,y,-z
1/2+x,1/2+y,z
1/2-x,1/2+y,-z
loop_
_atom_site_type_symbol
_atom_site_label
_atom_site_fract_x
_atom_site_fract_y
_atom_site_fract_z
Si Si1 0.698114 0.760910 0.342021
Si Si2 0.941419 0.837744 0.720276
Si Si3 0.710862 0.387965 0.483157
Si Si4 0.920151 0.892840 0.319546
Si Si5 0.304197 0.240860 0.795267
Si Si6 0.931528 0.176262 0.525931
Si Si7 0.701744 0.607402 0.044094
Si Si8 0.570274 0.532730 0.986418
O O1 0.705569 0.576867 0.418219
O O2 0.741406 0.884594 0.411140
O O3 0.624254 0.799430 0.401381
O O4 0.711063 0.732275 0.173040
O O5 0.929697 0.007079 0.628781
O O6 0.015921 0.792532 0.664297
O O7 0.880303 0.714145 0.735827
O O8 0.940588 0.906687 0.878379
O O9 0.643861 0.325512 0.579794
O O10 0.726511 0.272291 0.341381
O O11 0.925654 0.087711 0.377902
O O12 0.914756 0.919844 0.157499
O O13 0.302004 0.420575 0.882375
O O14 0.260435 0.118868 0.909343
O O15 0.000000 0.259303 0.500000
O O16 0.633841 0.638244 0.998679
O O17 0.500000 0.619513 0.000000
#
# Coordination Sequence:
#
# PCOD9122492 Si02
#       8
#     4   4   4   4   4   4   4   4
#     4  10  20  35  49  78 107 135 168 209 255 305
#     4   9  15  31  48  72 104 126 165 215 259 291
#     4  10  21  33  50  79 105 132 172 211 255 303
#     4   9  17  27  50  76  99 129 163 217 260 290
#     4  10  20  34  50  78 104 135 171 209 253 306
#     4   9  15  29  50  72  99 129 161 214 264 286
#     4  10  21  34  51  75 108 138 167 206 256 305
#     4   9  17  29  48  76 102 126 169 215 252 296
#
# _framework density 20.433623000000001
#
# number of rings (size 3 to 8) (size 9 to 14) (size 15 to 20)
#    0.000    2.500    5.000    0.000    7.000    0.000 
#    0.000    0.000    0.000    0.000   13.000    0.000 
#    0.000    0.000    0.000    0.000    0.000    0.000 
#
# Total GULP energy -89079.734558 kJ/mol
# GULP energy per Si atom -5567.483410 kJ/mol
# Density = 2.038712 g / cm^3
# Si number density = 20.433623 Si / 1000 Ang^3
#
#
#
# Elastic Constant Matrix: (Units=GPa)
#
#
# Indices 1 2 3 4 5 6 
#
# 1 118.0904 25.9160 34.6116 0.0000 -7.2667 0.0000
# 2 25.9160 33.3995 18.4685 0.0000 -2.0140 0.0000
# 3 34.6116 18.4685 97.9414 0.0000 5.0557 0.0000
# 4 0.0000 0.0000 0.0000 21.0190 0.0000 0.9456
# 5 -7.2667 -2.0140 5.0557 0.0000 39.8186 0.0000
# 6 0.0000 0.0000 0.0000 0.9456 0.0000 10.7630
#
#
#
# Elastic Compliance Matrix: (Units=1/GPa)
#
#
# Indices 1 2 3 4 5 6 
#
# 1 0.010870 -0.006849 -0.002652 0.000000 0.001974 0.000000
# 2 -0.006849 0.037992 -0.004810 0.000000 0.001282 0.000000
# 3 -0.002652 -0.004810 0.012172 0.000000 -0.002273 0.000000
# 4 0.000000 0.000000 0.000000 0.047765 0.000000 -0.004196
# 5 0.001974 0.001282 -0.002273 0.000000 0.025828 0.000000
# 6 0.000000 0.000000 0.000000 -0.004196 0.000000 0.093280
#
#
# Mechanical properties :
#
#
# Convention : Reuss Voigt Hill
#
# Bulk Modulus (GPa) = 30.85255 45.26929 38.06092
# Shear Modulus (GPa) = 18.70341 25.68246 22.19293
#
# Velocity S-wave (km/s) = 3.02872 3.54909 3.29918
# Velocity P-wave (km/s) = 5.23092 6.24476 5.76019
#
# Compressibility (1/GPa) = 0.03241223
#
# Stress axis : x y z
#
# Youngs Moduli (GPa) = 91.99767 26.32132 82.15879
#
# Poissons Ratio (x) = 0.18028 0.21786
# Poissons Ratio (y) = 0.63010 0.39517
# Poissons Ratio (z) = 0.24395 0.12660
#
# Static dielectric constant tensor:
#      x y z
#    x 1.833990 0.000000 -0.007860 
#    y 0.000000 1.754970 0.000000 
#    z -0.007860 0.000000 1.779240 
# 
# From -- ./inp_files/29299.got.cif
#   From: 2010.05.17/outbox.cif.g08.bks.cpg/sg5_15_cif.got.tgz:29299.got - 2010.06.03 18:56:24.
