data_PCOD9122223
_publ_section_title
;
Structure prediction by ZEFSAII (Michael W. Deem and Ramdas Pophale) SiO2 
 PCOD9122223
Probable space group: C 2
;
_chemical_formula_sum "Si O2"
_cell_formula_units_Z 26
_cell_length_a 20.834465
_cell_length_b 9.444140
_cell_length_c 8.450142
_cell_angle_alpha 90.000000
_cell_angle_beta 37.501133
_cell_angle_gamma 90.000000
_cell_volume 1012.201779
_symmetry_space_group_name_H-M "C 2"
_symmetry_group_IT_number 5
_symmetry_cell_setting 'monoclinic'
loop_
_space_group_symop_operation_xyz
x,y,z
-x,y,-z
1/2+x,1/2+y,z
1/2-x,1/2+y,-z
loop_
_atom_site_type_symbol
_atom_site_label
_atom_site_fract_x
_atom_site_fract_y
_atom_site_fract_z
Si Si1 0.500000 0.588990 0.000000
Si Si2 0.713792 0.538884 0.179734
Si Si3 0.001864 0.433371 0.687035
Si Si4 0.125821 0.007785 0.038637
Si Si5 0.909005 0.705668 0.797445
Si Si6 0.712813 0.787762 0.771313
Si Si7 0.681945 0.771979 0.502149
O O1 0.528479 0.511240 0.107996
O O2 0.404490 0.690611 0.223530
O O3 0.622961 0.556294 0.227936
O O4 0.720222 0.379770 0.232847
O O5 0.712732 0.642357 0.330184
O O6 0.822971 0.598129 0.890221
O O7 0.113202 0.383538 0.538014
O O8 0.000000 0.414687 0.500000
O O9 0.972587 0.596119 0.784735
O O10 0.905533 0.342458 0.948858
O O11 0.148354 0.840907 0.012573
O O12 0.210544 0.119133 0.804083
O O13 0.000000 0.757088 0.500000
O O14 0.749381 0.827734 0.520383
#
# Coordination Sequence:
#
# PCOD9122223 Si02
#       7
#     2   4   4   4   4   4   4
#     4  10  24  40  66 108 136 186 230 306 354 430
#     4  11  25  42  74 105 136 193 238 292 358 430
#     4  10  19  39  67  96 131 186 235 279 348 427
#     4  11  22  44  69  99 142 178 238 294 357 422
#     4  10  25  43  65 106 138 181 239 294 360 424
#     4  10  22  43  65  99 142 176 233 293 354 419
#     4  11  21  40  70 101 138 185 241 290 361 417
#
# _framework density 25.686577
#
# number of rings (size 3 to 8) (size 9 to 14) (size 15 to 20)
#    0.000    1.538    3.077    1.846    2.154    5.538 
#    5.538    3.077    0.000    0.000    0.000    0.000 
#    0.000    0.000    0.000    0.000    0.000    0.000 
#
# Total GULP energy -72478.666069 kJ/mol
# GULP energy per Si atom -5575.282005 kJ/mol
# Density = 2.562811 g / cm^3
# Si number density = 25.686577 Si / 1000 Ang^3
#
#
#
# Elastic Constant Matrix: (Units=GPa)
#
#
# Indices 1 2 3 4 5 6 
#
# 1 158.5707 40.4819 20.9857 0.0000 43.3870 0.0000
# 2 40.4819 162.3872 22.7274 0.0000 11.3531 0.0000
# 3 20.9857 22.7274 54.5007 0.0000 20.0564 0.0000
# 4 0.0000 0.0000 0.0000 26.0545 0.0000 -10.6437
# 5 43.3870 11.3531 20.0564 0.0000 42.0744 0.0000
# 6 0.0000 0.0000 0.0000 -10.6437 0.0000 27.2297
#
#
#
# Elastic Compliance Matrix: (Units=1/GPa)
#
#
# Indices 1 2 3 4 5 6 
#
# 1 0.009221 -0.001731 0.000605 0.000000 -0.009330 0.000000
# 2 -0.001731 0.006876 -0.002638 0.000000 0.001187 0.000000
# 3 0.000605 -0.002638 0.023264 0.000000 -0.011002 0.000000
# 4 0.000000 0.000000 0.000000 0.045674 0.000000 0.017853
# 5 -0.009330 0.001187 -0.011002 0.000000 0.038312 0.000000
# 6 0.000000 0.000000 0.000000 0.017853 0.000000 0.043703
#
#
# Mechanical properties :
#
#
# Convention : Reuss Voigt Hill
#
# Bulk Modulus (GPa) = 31.41398 60.42760 45.92079
# Shear Modulus (GPa) = 26.99935 38.48931 32.74433
#
# Velocity S-wave (km/s) = 3.24560 3.87514 3.57426
# Velocity P-wave (km/s) = 5.12850 6.60291 5.91185
#
# Compressibility (1/GPa) = 0.03183296
#
# Stress axis : x y z
#
# Youngs Moduli (GPa) = 108.44804 145.43714 42.98479
#
# Poissons Ratio (x) = 0.25176 -0.02599
# Poissons Ratio (y) = 0.18773 0.11338
# Poissons Ratio (z) = -0.06558 0.38360
#
# Static dielectric constant tensor:
#      x y z
#    x 2.282240 0.000000 0.067590 
#    y 0.000000 2.024730 0.000000 
#    z 0.067590 0.000000 2.179330 
# 
# From -- ./inp_files/29108.got.cif
#   From: 2010.05.17/outbox.cif.g08.bks.cpg/sg5_15_cif.got.tgz:29108.got - 2010.06.03 18:56:24.
