data_PCOD9122154
_publ_section_title
;
Structure prediction by ZEFSAII (Michael W. Deem and Ramdas Pophale) SiO2 
 PCOD9122154
Probable space group: C 2
;
_chemical_formula_sum "Si O2"
_cell_formula_units_Z 24
_cell_length_a 15.051168
_cell_length_b 8.885519
_cell_length_c 9.460206
_cell_angle_alpha 90.000000
_cell_angle_beta 119.174258
_cell_angle_gamma 90.000000
_cell_volume 1104.684006
_symmetry_space_group_name_H-M "C 2"
_symmetry_group_IT_number 5
_symmetry_cell_setting 'monoclinic'
loop_
_space_group_symop_operation_xyz
x,y,z
-x,y,-z
1/2+x,1/2+y,z
1/2-x,1/2+y,-z
loop_
_atom_site_type_symbol
_atom_site_label
_atom_site_fract_x
_atom_site_fract_y
_atom_site_fract_z
Si Si1 0.000000 0.884591 0.500000
Si Si2 0.500000 0.878175 0.500000
Si Si3 0.298434 0.193904 0.764446
Si Si4 0.900079 0.634457 0.568141
Si Si5 0.806419 0.958262 0.947842
Si Si6 0.382360 0.144988 0.105793
Si Si7 0.085687 0.131927 0.756194
O O1 0.906866 0.775853 0.468492
O O2 0.977399 0.992710 0.352819
O O3 0.526105 0.777887 0.656872
O O4 0.409472 0.985786 0.482329
O O5 0.313137 0.146758 0.615983
O O6 0.190604 0.147827 0.747905
O O7 0.315931 0.373437 0.805332
O O8 0.379598 0.117384 0.934341
O O9 0.007446 0.643311 0.738784
O O10 0.831093 0.812906 0.067768
O O11 0.882344 0.089526 0.059735
O O12 0.695162 0.025963 0.886532
#
# Coordination Sequence:
#
# PCOD9122154 Si02
#       7
#     2   2   4   4   4   4   4
#     4  10  20  34  58  74 110 162 182 228 262 352
#     4  10  24  34  60  78 118 160 182 232 264 346
#     4   9  20  33  59  81 112 140 185 243 274 324
#     4  11  20  35  55  86 110 147 196 225 282 325
#     4   9  18  33  60  80 106 151 177 240 279 334
#     4   9  18  33  58  82 107 145 187 229 288 327
#     4  10  19  39  54  79 112 148 194 216 286 338
#
# _framework density 21.725669
#
# number of rings (size 3 to 8) (size 9 to 14) (size 15 to 20)
#    1.000    1.333    1.667    1.500    0.000    1.333 
#    0.000    0.000   14.667    4.000    0.000    0.000 
#    0.000    0.000    0.000    0.000    0.000    0.000 
#
# Total GULP energy -66801.151534 kJ/mol
# GULP energy per Si atom -5566.762628 kJ/mol
# Density = 2.167622 g / cm^3
# Si number density = 21.725669 Si / 1000 Ang^3
#
#
#
# Elastic Constant Matrix: (Units=GPa)
#
#
# Indices 1 2 3 4 5 6 
#
# 1 29.1094 9.5775 0.7437 0.0000 -11.6356 0.0000
# 2 9.5775 105.8363 17.5805 0.0000 -6.8143 0.0000
# 3 0.7437 17.5805 38.0208 0.0000 -2.8293 0.0000
# 4 0.0000 0.0000 0.0000 11.8699 0.0000 5.8251
# 5 -11.6356 -6.8143 -2.8293 0.0000 35.5406 0.0000
# 6 0.0000 0.0000 0.0000 5.8251 0.0000 3.5219
#
#
#
# Elastic Compliance Matrix: (Units=1/GPa)
#
#
# Indices 1 2 3 4 5 6 
#
# 1 0.040438 -0.003102 0.001594 0.000000 0.012771 0.000000
# 2 -0.003102 0.010563 -0.004777 0.000000 0.000630 0.000000
# 3 0.001594 -0.004777 0.028619 0.000000 0.001884 0.000000
# 4 0.000000 0.000000 0.000000 0.447313 0.000000 -0.739830
# 5 0.012771 0.000630 0.001884 0.000000 0.032589 0.000000
# 6 0.000000 0.000000 0.000000 -0.739830 0.000000 1.507573
#
#
# Mechanical properties :
#
#
# Convention : Reuss Voigt Hill
#
# Bulk Modulus (GPa) = 14.91420 25.41888 20.16654
# Shear Modulus (GPa) = 2.37867 19.85746 11.11806
#
# Velocity S-wave (km/s) = 1.04749 3.02654 2.26464
# Velocity P-wave (km/s) = 2.88837 4.89271 4.01754
#
# Compressibility (1/GPa) = 0.06705018
#
# Stress axis : x y z
#
# Youngs Moduli (GPa) = 24.72930 94.66766 34.94158
#
# Poissons Ratio (x) = 0.29364 -0.05568
# Poissons Ratio (y) = 0.07671 0.16691
# Poissons Ratio (z) = -0.03941 0.45221
#
# Static dielectric constant tensor:
#      x y z
#    x 1.789140 0.000000 0.004120 
#    y 0.000000 1.839030 0.000000 
#    z 0.004120 0.000000 1.904780 
# 
# From -- ./inp_files/44010.got.cif
#   From: 2010.05.17/outbox.cif.g08.bks.cpg/sg5_23_cif.got.tgz:44010.got - 2010.06.03 18:56:24.
