data_PCOD9122712
_publ_section_title
;
Structure prediction by ZEFSAII (Michael W. Deem and Ramdas Pophale) SiO2 
 PCOD9122712
Probable space group: C 2
;
_chemical_formula_sum "Si O2"
_cell_formula_units_Z 30
_cell_length_a 23.687189
_cell_length_b 12.823288
_cell_length_c 6.398439
_cell_angle_alpha 90.000000
_cell_angle_beta 130.552701
_cell_angle_gamma 90.000000
_cell_volume 1476.695584
_symmetry_space_group_name_H-M "C 2"
_symmetry_group_IT_number 5
_symmetry_cell_setting 'monoclinic'
loop_
_space_group_symop_operation_xyz
x,y,z
-x,y,-z
1/2+x,1/2+y,z
1/2-x,1/2+y,-z
loop_
_atom_site_type_symbol
_atom_site_label
_atom_site_fract_x
_atom_site_fract_y
_atom_site_fract_z
Si Si1 0.134328 0.921390 0.612480
Si Si2 0.500000 0.398958 0.000000
Si Si3 0.259776 0.560247 0.941912
Si Si4 0.068656 0.763940 0.797040
Si Si5 0.859779 0.552404 0.994737
Si Si6 0.728536 0.782671 0.228354
Si Si7 0.670732 0.897354 0.457883
Si Si8 0.418355 0.864149 0.366865
O O1 0.108745 0.838839 0.727123
O O2 0.204712 0.862660 0.671796
O O3 0.158998 0.025835 0.791025
O O4 0.068568 0.949146 0.292434
O O5 0.539594 0.330227 0.919301
O O6 0.213634 0.569206 0.044385
O O7 0.252213 0.664943 0.789729
O O8 0.227166 0.460342 0.741094
O O9 0.000000 0.719087 0.500000
O O10 0.113156 0.666844 0.990885
O O11 0.851205 0.481395 0.770833
O O12 0.912397 0.484021 0.273217
O O13 0.709181 0.803643 0.423943
O O14 0.652362 0.810198 0.918549
O O15 0.602334 0.862379 0.438214
O O16 0.500000 0.824490 0.500000
#
# Coordination Sequence:
#
# PCOD9122712 Si02
#       8
#     4   2   4   4   4   4   4   4
#     4  11  22  43  63  94 135 167 218 265 332 385
#     4  10  26  38  64  94 130 178 210 274 316 388
#     4  11  23  40  65  98 131 170 215 271 330 386
#     4  10  22  38  60  92 132 171 209 270 330 385
#     4  10  20  35  62  97 126 171 213 269 334 385
#     4  11  23  41  69  94 128 176 217 275 324 388
#     4  10  22  38  62 101 124 175 218 266 327 386
#     4  10  22  41  60  90 137 173 213 272 324 383
#
# _framework density 20.315628
#
# number of rings (size 3 to 8) (size 9 to 14) (size 15 to 20)
#    0.000    1.600    5.333    0.400    3.733    5.333 
#    0.000    2.000    0.000    0.000    0.000    0.000 
#    0.000    0.000    0.000    0.000    0.000    0.000 
#
# Total GULP energy -83660.341152 kJ/mol
# GULP energy per Si atom -5577.356077 kJ/mol
# Density = 2.026939 g / cm^3
# Si number density = 20.315628 Si / 1000 Ang^3
#
#
#
# Elastic Constant Matrix: (Units=GPa)
#
#
# Indices 1 2 3 4 5 6 
#
# 1 124.4975 10.3827 44.7946 0.0000 -11.0589 0.0000
# 2 10.3827 41.2582 14.3239 0.0000 6.2805 0.0000
# 3 44.7946 14.3239 69.2250 0.0000 -5.6894 0.0000
# 4 0.0000 0.0000 0.0000 20.4911 0.0000 2.4549
# 5 -11.0589 6.2805 -5.6894 0.0000 33.8856 0.0000
# 6 0.0000 0.0000 0.0000 2.4549 0.0000 9.0920
#
#
#
# Elastic Compliance Matrix: (Units=1/GPa)
#
#
# Indices 1 2 3 4 5 6 
#
# 1 0.010675 -0.000804 -0.006533 0.000000 0.002536 0.000000
# 2 -0.000804 0.027361 -0.005657 0.000000 -0.006284 0.000000
# 3 -0.006533 -0.005657 0.020031 0.000000 0.002280 0.000000
# 4 0.000000 0.000000 0.000000 0.050433 0.000000 -0.013617
# 5 0.002536 -0.006284 0.002280 0.000000 0.031886 0.000000
# 6 0.000000 0.000000 0.000000 -0.013617 0.000000 0.113664
#
#
# Mechanical properties :
#
#
# Convention : Reuss Voigt Hill
#
# Bulk Modulus (GPa) = 31.17445 41.55368 36.36407
# Shear Modulus (GPa) = 17.19798 23.72568 20.46183
#
# Velocity S-wave (km/s) = 2.91269 3.42110 3.17708
# Velocity P-wave (km/s) = 5.16624 6.00863 5.60329
#
# Compressibility (1/GPa) = 0.03207755
#
# Stress axis : x y z
#
# Youngs Moduli (GPa) = 93.67479 36.54882 49.92270
#
# Poissons Ratio (x) = 0.02940 0.32614
# Poissons Ratio (y) = 0.07536 0.28243
# Poissons Ratio (z) = 0.61197 0.20677
#
# Static dielectric constant tensor:
#      x y z
#    x 1.746770 0.000000 0.030840 
#    y 0.000000 1.704130 0.000000 
#    z 0.030840 0.000000 1.777840 
# 
# From -- ./inp_files/10456.got.cif
#   From: 2010.05.17/outbox.cif.g08.bks.cpg/sg5_6_cif.got.tgz:10456.got - 2010.06.03 18:56:24.
