data_PCOD9122027
_publ_section_title
;
Structure prediction by ZEFSAII (Michael W. Deem and Ramdas Pophale) SiO2 
 PCOD9122027
Probable space group: C 2
;
_chemical_formula_sum "Si O2"
_cell_formula_units_Z 26
_cell_length_a 20.270071
_cell_length_b 7.366612
_cell_length_c 11.271110
_cell_angle_alpha 90.000000
_cell_angle_beta 141.500928
_cell_angle_gamma 90.000000
_cell_volume 1047.684402
_symmetry_space_group_name_H-M "C 2"
_symmetry_group_IT_number 5
_symmetry_cell_setting 'monoclinic'
loop_
_space_group_symop_operation_xyz
x,y,z
-x,y,-z
1/2+x,1/2+y,z
1/2-x,1/2+y,-z
loop_
_atom_site_type_symbol
_atom_site_label
_atom_site_fract_x
_atom_site_fract_y
_atom_site_fract_z
Si Si1 0.077240 0.529160 0.910522
Si Si2 0.756562 0.605448 0.685491
Si Si3 0.500000 0.611154 0.000000
Si Si4 0.884209 0.095877 0.295006
Si Si5 0.357855 0.877674 0.637410
Si Si6 0.154807 0.109468 0.026588
Si Si7 0.117224 0.536055 0.707076
O O1 0.126426 0.624201 0.094363
O O2 0.115018 0.318042 0.970938
O O3 0.123568 0.601929 0.852430
O O4 0.950060 0.517484 0.728797
O O5 0.693032 0.533701 0.709763
O O6 0.694634 0.777719 0.547353
O O7 0.769406 0.471693 0.593049
O O8 0.580722 0.733793 0.192128
O O9 0.578033 0.517810 0.015118
O O10 0.878667 0.316160 0.285128
O O11 0.000000 0.042854 0.500000
O O12 0.862490 0.034688 0.130714
O O13 0.280624 0.099329 0.222262
O O14 0.000000 0.587587 0.500000
#
# Coordination Sequence:
#
# PCOD9122027 Si02
#       7
#     4   4   2   4   4   4   4
#     4  10  21  44  68  95 142 187 227 299 355 418
#     4  12  22  43  73 101 136 193 235 296 358 425
#     4  10  20  40  64  94 134 184 220 294 360 408
#     4  10  21  39  67  98 129 180 230 281 354 429
#     4  11  23  41  76  96 136 193 236 286 373 416
#     4  10  19  37  68  94 132 183 225 280 359 421
#     4  10  20  37  67 100 134 184 234 281 356 432
#
# _framework density 24.816631999999998
#
# number of rings (size 3 to 8) (size 9 to 14) (size 15 to 20)
#    0.000    1.538    4.615    3.692    0.000    2.462 
#    0.000    0.769   33.846    0.000    0.000    0.000 
#    0.000    0.000    0.000    0.000    0.000    0.000 
#
# Total GULP energy -72727.164992 kJ/mol
# GULP energy per Si atom -5594.397307 kJ/mol
# Density = 2.476015 g / cm^3
# Si number density = 24.816632 Si / 1000 Ang^3
#
#
#
# Elastic Constant Matrix: (Units=GPa)
#
#
# Indices 1 2 3 4 5 6 
#
# 1 213.9847 21.7440 62.6882 0.0000 12.4390 0.0000
# 2 21.7440 65.7595 18.4522 0.0000 4.2180 0.0000
# 3 62.6882 18.4522 132.4266 0.0000 7.5384 0.0000
# 4 0.0000 0.0000 0.0000 2.8604 0.0000 2.8953
# 5 12.4390 4.2180 7.5384 0.0000 41.1439 0.0000
# 6 0.0000 0.0000 0.0000 2.8953 0.0000 15.8036
#
#
#
# Elastic Compliance Matrix: (Units=1/GPa)
#
#
# Indices 1 2 3 4 5 6 
#
# 1 0.005557 -0.001088 -0.002415 0.000000 -0.001126 0.000000
# 2 -0.001088 0.016101 -0.001671 0.000000 -0.001016 0.000000
# 3 -0.002415 -0.001671 0.008970 0.000000 -0.000742 0.000000
# 4 0.000000 0.000000 0.000000 0.429196 0.000000 -0.078631
# 5 -0.001126 -0.001016 -0.000742 0.000000 0.024885 0.000000
# 6 0.000000 0.000000 0.000000 -0.078631 0.000000 0.077682
#
#
# Mechanical properties :
#
#
# Convention : Reuss Voigt Hill
#
# Bulk Modulus (GPa) = 49.30861 68.65997 58.98429
# Shear Modulus (GPa) = 8.62818 32.58067 20.60443
#
# Velocity S-wave (km/s) = 1.86663 3.62727 2.88456
# Velocity P-wave (km/s) = 4.95561 6.72828 5.90880
#
# Compressibility (1/GPa) = 0.02028044
#
# Stress axis : x y z
#
# Youngs Moduli (GPa) = 179.96567 62.10985 111.48893
#
# Poissons Ratio (x) = 0.06755 0.26922
# Poissons Ratio (y) = 0.19572 0.18628
# Poissons Ratio (z) = 0.43457 0.10377
#
# Static dielectric constant tensor:
#      x y z
#    x 1.989360 0.000000 0.020710 
#    y 0.000000 1.987280 0.000000 
#    z 0.020710 0.000000 1.979020 
# 
# From -- ./inp_files/44627.got.cif
#   From: 2010.05.17/outbox.cif.g08.bks.cpg/sg5_23_cif.got.tgz:44627.got - 2010.06.03 18:56:24.
