data_PCOD9122347
_publ_section_title
;
Structure prediction by ZEFSAII (Michael W. Deem and Ramdas Pophale) SiO2 
 PCOD9122347
Probable space group: C 2
;
_chemical_formula_sum "Si O2"
_cell_formula_units_Z 32
_cell_length_a 13.714540
_cell_length_b 11.397909
_cell_length_c 12.032825
_cell_angle_alpha 90.000000
_cell_angle_beta 119.866179
_cell_angle_gamma 90.000000
_cell_volume 1631.130535
_symmetry_space_group_name_H-M "C 2"
_symmetry_group_IT_number 5
_symmetry_cell_setting 'monoclinic'
loop_
_space_group_symop_operation_xyz
x,y,z
-x,y,-z
1/2+x,1/2+y,z
1/2-x,1/2+y,-z
loop_
_atom_site_type_symbol
_atom_site_label
_atom_site_fract_x
_atom_site_fract_y
_atom_site_fract_z
Si Si1 0.270875 0.843460 0.973182
Si Si2 0.883994 0.625975 0.501991
Si Si3 0.479624 0.801926 0.813587
Si Si4 0.216990 0.162463 0.209930
Si Si5 0.677486 0.232928 0.306524
Si Si6 0.384379 0.029835 0.887404
Si Si7 0.603635 0.854634 0.475695
Si Si8 0.372415 0.420398 0.905160
O O1 0.238720 0.751722 0.858476
O O2 0.305745 0.967746 0.935152
O O3 0.387643 0.797377 0.093083
O O4 0.178611 0.856307 0.015765
O O5 0.789182 0.671158 0.363145
O O6 0.889118 0.697551 0.619584
O O7 0.857849 0.489977 0.516053
O O8 0.000000 0.630551 0.500000
O O9 0.410361 0.700726 0.834955
O O10 0.442681 0.806082 0.665970
O O11 0.433418 0.921136 0.843937
O O12 0.210460 0.029701 0.164533
O O13 0.679736 0.120353 0.227033
O O14 0.797978 0.276053 0.418229
O O15 0.629022 0.336861 0.203196
O O16 0.500000 0.087091 0.000000
O O17 0.500000 0.857411 0.500000
O O18 0.500000 0.457148 0.000000
#
# Coordination Sequence:
#
# PCOD9122347 Si02
#       8
#     4   4   4   4   4   4   4   4
#     4  10  24  42  69  93 127 173 222 261 326 386
#     4  11  25  41  68  92 131 178 215 265 318 397
#     4  10  19  41  69  91 121 170 220 262 308 390
#     4  11  23  45  67  93 128 173 216 265 330 385
#     4  12  23  41  66  97 131 163 215 270 328 376
#     4   9  20  38  65  96 123 165 213 266 313 386
#     4  11  22  40  63  94 126 168 219 261 315 387
#     4  12  27  42  63  97 135 168 211 279 330 383
#
# _framework density 19.618295
#
# number of rings (size 3 to 8) (size 9 to 14) (size 15 to 20)
#    0.000    1.250    3.750    3.000    5.250    0.000 
#    2.250    0.000    0.000    3.750    0.000    0.000 
#    0.000    0.000    0.000    0.000    0.000    0.000 
#
# Total GULP energy -89391.763226 kJ/mol
# GULP energy per Si atom -5586.985202 kJ/mol
# Density = 1.957364 g / cm^3
# Si number density = 19.618295 Si / 1000 Ang^3
#
#
#
# Elastic Constant Matrix: (Units=GPa)
#
#
# Indices 1 2 3 4 5 6 
#
# 1 68.0930 16.6479 26.5348 0.0000 -14.4955 0.0000
# 2 16.6479 72.0662 37.7794 0.0000 -13.9720 0.0000
# 3 26.5348 37.7794 128.5947 0.0000 -18.7955 0.0000
# 4 0.0000 0.0000 0.0000 61.5501 0.0000 5.9166
# 5 -14.4955 -13.9720 -18.7955 0.0000 27.9679 0.0000
# 6 0.0000 0.0000 0.0000 5.9166 0.0000 10.4869
#
#
#
# Elastic Compliance Matrix: (Units=1/GPa)
#
#
# Indices 1 2 3 4 5 6 
#
# 1 0.017341 -0.001579 -0.002125 0.000000 0.006771 0.000000
# 2 -0.001579 0.017345 -0.004018 0.000000 0.005146 0.000000
# 3 -0.002125 -0.004018 0.009915 0.000000 0.003555 0.000000
# 4 0.000000 0.000000 0.000000 0.017179 0.000000 -0.009692
# 5 0.006771 0.005146 0.003555 0.000000 0.044225 0.000000
# 6 0.000000 0.000000 0.000000 -0.009692 0.000000 0.100825
#
#
# Mechanical properties :
#
#
# Convention : Reuss Voigt Hill
#
# Bulk Modulus (GPa) = 34.29644 47.85313 41.07479
# Shear Modulus (GPa) = 21.55250 32.52043 27.03647
#
# Velocity S-wave (km/s) = 3.31810 4.07585 3.71634
# Velocity P-wave (km/s) = 5.67446 6.82606 6.27673
#
# Compressibility (1/GPa) = 0.02915754
#
# Stress axis : x y z
#
# Youngs Moduli (GPa) = 57.66595 57.65379 100.86090
#
# Poissons Ratio (x) = 0.09106 0.21429
# Poissons Ratio (y) = 0.09108 0.40522
# Poissons Ratio (z) = 0.12252 0.23163
#
# Static dielectric constant tensor:
#      x y z
#    x 1.653350 0.000000 0.000690 
#    y 0.000000 1.702860 0.000000 
#    z 0.000690 0.000000 1.674070 
# 
# From -- ./inp_files/39424.got.cif
#   From: 2010.05.17/outbox.cif.g08.bks.cpg/sg5_20_cif.got.tgz:39424.got - 2010.06.03 18:56:24.
