data_PCOD9122053
_publ_section_title
;
Structure prediction by ZEFSAII (Michael W. Deem and Ramdas Pophale) SiO2 
 PCOD9122053
Probable space group: C 2
;
_chemical_formula_sum "Si O2"
_cell_formula_units_Z 32
_cell_length_a 11.310188
_cell_length_b 11.753259
_cell_length_c 24.722890
_cell_angle_alpha 90.000000
_cell_angle_beta 156.711011
_cell_angle_gamma 90.000000
_cell_volume 1299.361427
_symmetry_space_group_name_H-M "C 2"
_symmetry_group_IT_number 5
_symmetry_cell_setting 'monoclinic'
loop_
_space_group_symop_operation_xyz
x,y,z
-x,y,-z
1/2+x,1/2+y,z
1/2-x,1/2+y,-z
loop_
_atom_site_type_symbol
_atom_site_label
_atom_site_fract_x
_atom_site_fract_y
_atom_site_fract_z
Si Si1 0.022894 0.068100 0.703010
Si Si2 0.275372 0.092473 0.038263
Si Si3 0.020625 0.316570 0.677450
Si Si4 0.689712 0.561477 0.889387
Si Si5 0.362911 0.188567 0.648301
Si Si6 0.476211 0.362904 0.606247
Si Si7 0.903234 0.810694 0.153087
Si Si8 0.433928 0.954833 0.202408
O O1 0.380698 0.078107 0.838449
O O2 0.899893 0.189618 0.634596
O O3 0.981254 0.060834 0.749798
O O4 0.908862 0.960949 0.622113
O O5 0.237019 0.209125 0.053539
O O6 0.242592 0.996660 0.070068
O O7 0.082612 0.100147 0.902887
O O8 0.748220 0.384374 0.537780
O O9 0.160495 0.366892 0.790840
O O10 0.273711 0.315167 0.738852
O O11 0.750679 0.428414 0.924957
O O12 0.000000 0.618880 0.000000
O O13 0.437152 0.240581 0.619796
O O14 0.530336 0.279234 0.757638
O O15 0.000000 0.190909 0.500000
O O16 0.465381 0.068252 0.720292
O O17 0.795805 0.389304 0.714343
#
# Coordination Sequence:
#
# PCOD9122053 Si02
#       8
#     4   4   4   4   4   4   4   4
#     4   9  20  37  58  85 118 151 204 244 294 368
#     4   8  19  37  60  79 112 160 192 237 312 358
#     4  11  22  37  58  87 127 161 191 250 307 364
#     4  10  19  38  61  83 110 150 201 258 301 356
#     4  11  20  38  63  87 123 168 200 245 306 374
#     4  11  21  37  62  89 120 168 203 237 299 384
#     4  10  20  37  58  88 112 151 205 247 298 369
#     4  10  23  40  58  90 129 162 203 244 310 372
#
# _framework density 24.627481
#
# number of rings (size 3 to 8) (size 9 to 14) (size 15 to 20)
#    0.000    2.000    2.500    1.875    1.750    1.000 
#    2.250    6.875    0.000    0.000    0.000    0.000 
#    0.000    0.000    0.000    0.000    0.000    0.000 
#
# Total GULP energy -89320.323714 kJ/mol
# GULP energy per Si atom -5582.520232 kJ/mol
# Density = 2.457143 g / cm^3
# Si number density = 24.627481 Si / 1000 Ang^3
#
#
#
# Elastic Constant Matrix: (Units=GPa)
#
#
# Indices 1 2 3 4 5 6 
#
# 1 87.3850 11.3115 32.1389 0.0011 -29.2445 0.0014
# 2 11.3115 60.1942 3.3983 -0.0022 -11.3778 -0.0026
# 3 32.1389 3.3983 45.9753 0.0039 -31.0032 -0.0007
# 4 0.0011 -0.0022 0.0039 21.7618 -0.0012 -5.5393
# 5 -29.2445 -11.3778 -31.0032 -0.0012 43.2026 0.0001
# 6 0.0014 -0.0026 -0.0007 -5.5393 0.0001 21.5026
#
#
#
# Elastic Compliance Matrix: (Units=1/GPa)
#
#
# Indices 1 2 3 4 5 6 
#
# 1 0.016197 -0.001685 -0.007952 0.000000 0.004814 -0.000001
# 2 -0.001685 0.017956 0.004399 0.000002 0.006745 0.000003
# 3 -0.007952 0.004399 0.046768 -0.000006 0.029338 0.000001
# 4 0.000000 0.000002 -0.000006 0.049177 -0.000002 0.012668
# 5 0.004814 0.006745 0.029338 -0.000002 0.049235 0.000001
# 6 -0.000001 0.000003 0.000001 0.012668 0.000001 0.049770
#
#
# Mechanical properties :
#
#
# Convention : Reuss Voigt Hill
#
# Bulk Modulus (GPa) = 14.19507 31.91688 23.05597
# Shear Modulus (GPa) = 19.00705 27.07379 23.04042
#
# Velocity S-wave (km/s) = 2.78111 3.31922 3.06201
# Velocity P-wave (km/s) = 4.01113 5.26095 4.67797
#
# Compressibility (1/GPa) = 0.07044701
#
# Stress axis : x y z
#
# Youngs Moduli (GPa) = 61.73848 55.69113 21.38210
#
# Poissons Ratio (x) = 0.09383 0.17003
# Poissons Ratio (y) = 0.10402 -0.09407
# Poissons Ratio (z) = 0.49093 -0.24500
#
# Static dielectric constant tensor:
#      x y z
#    x 2.059130 0.000000 0.069960 
#    y 0.000000 1.948460 0.000000 
#    z 0.069960 0.000000 1.990050 
# 
# From -- ./inp_files/47507.got.cif
#   From: 2010.05.17/outbox.cif.g08.bks.cpg/sg5_24_cif.got.tgz:47507.got - 2010.06.03 18:56:24.
