data_PCOD9122083
_publ_section_title
;
Structure prediction by ZEFSAII (Michael W. Deem and Ramdas Pophale) SiO2 
 PCOD9122083
Probable space group: C 2
;
_chemical_formula_sum "Si O2"
_cell_formula_units_Z 16
_cell_length_a 9.362129
_cell_length_b 10.192557
_cell_length_c 7.821069
_cell_angle_alpha 90.000000
_cell_angle_beta 123.271691
_cell_angle_gamma 90.000000
_cell_volume 623.980410
_symmetry_space_group_name_H-M "C 2"
_symmetry_group_IT_number 5
_symmetry_cell_setting 'monoclinic'
loop_
_space_group_symop_operation_xyz
x,y,z
-x,y,-z
1/2+x,1/2+y,z
1/2-x,1/2+y,-z
loop_
_atom_site_type_symbol
_atom_site_label
_atom_site_fract_x
_atom_site_fract_y
_atom_site_fract_z
Si Si1 0.789376 0.300370 0.659917
Si Si2 0.662170 0.901154 0.802071
Si Si3 0.833267 0.037176 0.591772
Si Si4 0.200867 0.148644 0.964647
O O1 0.675242 0.430013 0.563565
O O2 0.972950 0.349336 0.712993
O O3 0.739532 0.177211 0.505724
O O4 0.802642 0.231089 0.855669
O O5 0.729068 0.965873 0.673834
O O6 0.764609 0.765702 0.888252
O O7 0.684493 0.021047 0.946408
O O8 0.019764 0.083294 0.783793
#
# Coordination Sequence:
#
# PCOD9122083 Si02
#       4
#     4   4   4   4
#     4  10  21  39  61  90 125 160 207 259 306 371
#     4  10  19  38  63  88 124 164 204 256 311 368
#     4  10  21  39  61  90 125 160 207 259 306 371
#     4  10  23  42  61  90 127 160 206 260 307 370
#
# _framework density 25.641829999999999
#
# number of rings (size 3 to 8) (size 9 to 14) (size 15 to 20)
#    0.000    2.000    0.000    7.500    0.000    4.000 
#    0.000   18.750    0.000    0.000    0.000    0.000 
#    0.000    0.000    0.000    0.000    0.000    0.000 
#
# Total GULP energy -44578.233478 kJ/mol
# GULP energy per Si atom -5572.279185 kJ/mol
# Density = 2.558347 g / cm^3
# Si number density = 25.641830 Si / 1000 Ang^3
#
#
#
# Elastic Constant Matrix: (Units=GPa)
#
#
# Indices 1 2 3 4 5 6 
#
# 1 78.9696 47.4897 18.6153 0.0000 -6.7398 0.0000
# 2 47.4897 241.2638 110.4483 0.0000 7.3750 0.0000
# 3 18.6153 110.4483 89.0644 0.0000 -8.2952 0.0000
# 4 0.0000 0.0000 0.0000 60.7408 0.0000 -4.0989
# 5 -6.7398 7.3750 -8.2952 0.0000 19.6415 0.0000
# 6 0.0000 0.0000 0.0000 -4.0989 0.0000 48.4677
#
#
#
# Elastic Compliance Matrix: (Units=1/GPa)
#
#
# Indices 1 2 3 4 5 6 
#
# 1 0.015599 -0.005170 0.003988 0.000000 0.008978 0.000000
# 2 -0.005170 0.013108 -0.016445 0.000000 -0.013641 0.000000
# 3 0.003988 -0.016445 0.032779 0.000000 0.021387 0.000000
# 4 0.000000 0.000000 0.000000 0.016558 0.000000 0.001400
# 5 0.008978 -0.013641 0.021387 0.000000 0.068148 0.000000
# 6 0.000000 0.000000 0.000000 0.001400 0.000000 0.020751
#
#
# Mechanical properties :
#
#
# Convention : Reuss Voigt Hill
#
# Bulk Modulus (GPa) = 38.12309 84.71158 61.41734
# Shear Modulus (GPa) = 23.70338 41.28630 32.49484
#
# Velocity S-wave (km/s) = 3.04370 4.01698 3.56372
# Velocity P-wave (km/s) = 5.22034 7.39074 6.39824
#
# Compressibility (1/GPa) = 0.02623082
#
# Stress axis : x y z
#
# Youngs Moduli (GPa) = 64.10835 76.29062 30.50705
#
# Poissons Ratio (x) = 0.39445 -0.12165
# Poissons Ratio (y) = 0.33146 0.50168
# Poissons Ratio (z) = -0.25564 1.25458
#
# Static dielectric constant tensor:
#      x y z
#    x 2.048350 0.000000 -0.002170 
#    y 0.000000 2.078200 0.000000 
#    z -0.002170 0.000000 2.337260 
# 
# From -- ./inp_files/18107.got.cif
#   From: 2010.05.17/outbox.cif.g08.bks.cpg/sg5_10_cif.got.tgz:18107.got - 2010.06.03 18:56:24.
