data_PCOD9122795
_publ_section_title
;
Structure prediction by ZEFSAII (Michael W. Deem and Ramdas Pophale) SiO2 
 PCOD9122795
Probable space group: C 2
;
_chemical_formula_sum "Si O2"
_cell_formula_units_Z 32
_cell_length_a 9.264581
_cell_length_b 17.767763
_cell_length_c 12.254068
_cell_angle_alpha 90.000000
_cell_angle_beta 50.688456
_cell_angle_gamma 90.000000
_cell_volume 1560.696583
_symmetry_space_group_name_H-M "C 2"
_symmetry_group_IT_number 5
_symmetry_cell_setting 'monoclinic'
loop_
_space_group_symop_operation_xyz
x,y,z
-x,y,-z
1/2+x,1/2+y,z
1/2-x,1/2+y,-z
loop_
_atom_site_type_symbol
_atom_site_label
_atom_site_fract_x
_atom_site_fract_y
_atom_site_fract_z
Si Si1 0.095728 0.488590 0.689158
Si Si2 0.130838 0.878185 0.330633
Si Si3 0.208111 0.150158 0.903754
Si Si4 0.206653 0.716255 0.352722
Si Si5 0.817458 0.984489 0.129906
Si Si6 0.525458 0.658274 0.357974
Si Si7 0.378946 0.496213 0.354254
Si Si8 0.942028 0.635248 0.146003
O O1 0.211190 0.436932 0.715029
O O2 0.202627 0.491302 0.521660
O O3 0.089041 0.571332 0.746708
O O4 0.890066 0.453916 0.781444
O O5 0.212828 0.794938 0.283189
O O6 0.000000 0.873438 0.500000
O O7 0.999914 0.919699 0.307059
O O8 0.274866 0.153754 0.747909
O O9 0.184140 0.061586 0.942113
O O10 0.375282 0.180355 0.898724
O O11 0.000000 0.184044 0.000000
O O12 0.370180 0.704901 0.363588
O O13 0.000000 0.709537 0.500000
O O14 0.835531 0.002664 0.248634
O O15 0.000000 0.941323 0.000000
O O16 0.500000 0.667149 0.500000
O O17 0.489247 0.570603 0.342668
O O18 0.742379 0.675890 0.229317
O O19 0.000000 0.603591 0.000000
#
# Coordination Sequence:
#
# PCOD9122795 Si02
#       8
#     4   4   4   4   4   4   4   4
#     4  10  20  36  58  84 117 153 200 241 312 356
#     4   9  20  39  58  84 117 158 194 244 305 370
#     4  10  21  38  55  83 122 158 197 241 316 366
#     4  11  23  38  61  85 121 158 205 250 308 370
#     4  10  22  34  57  91 121 151 196 257 306 356
#     4  12  21  36  60  94 118 151 208 266 301 358
#     4  11  19  37  61  87 119 152 203 253 301 361
#     4  11  22  34  58  90 121 155 198 263 310 352
#
# _framework density 20.503665000000002
#
# number of rings (size 3 to 8) (size 9 to 14) (size 15 to 20)
#    0.000    1.500    3.750    2.250    5.250    0.000 
#    0.000    6.875    0.000    1.500    0.000    0.000 
#    0.000    0.000    0.000    0.000    0.000    0.000 
#
# Total GULP energy -89130.068274 kJ/mol
# GULP energy per Si atom -5570.629267 kJ/mol
# Density = 2.045700 g / cm^3
# Si number density = 20.503665 Si / 1000 Ang^3
#
#
#
# Elastic Constant Matrix: (Units=GPa)
#
#
# Indices 1 2 3 4 5 6 
#
# 1 140.8078 18.3922 55.9516 0.0000 -30.8164 0.0000
# 2 18.3922 49.8342 -0.7359 0.0000 -6.8380 0.0000
# 3 55.9516 -0.7359 103.8391 0.0000 -18.3131 0.0000
# 4 0.0000 0.0000 0.0000 10.4909 0.0000 0.4208
# 5 -30.8164 -6.8380 -18.3131 0.0000 44.5121 0.0000
# 6 0.0000 0.0000 0.0000 0.4208 0.0000 -3.0790
#
#
#
# Elastic Compliance Matrix: (Units=1/GPa)
#
#
# Indices 1 2 3 4 5 6 
#
# 1 0.010499 -0.003291 -0.004839 0.000000 0.004772 0.000000
# 2 -0.003291 0.021586 0.002274 0.000000 0.001973 0.000000
# 3 -0.004839 0.002274 0.012642 0.000000 0.002200 0.000000
# 4 0.000000 0.000000 0.000000 0.094801 0.000000 0.012957
# 5 0.004772 0.001973 0.002200 0.000000 0.026978 0.000000
# 6 0.000000 0.000000 0.000000 0.012957 0.000000 -0.323014
#
#
# Mechanical properties :
#
#
# Convention : Reuss Voigt Hill
#
# Bulk Modulus (GPa) = 30.28956 49.07745 39.68350
# Shear Modulus (GPa) = -37.37162 25.10967 -6.13098
#
# Velocity S-wave (km/s) = -4.27392 3.50329 -1.73109
# Velocity P-wave (km/s) = 3.09036 6.35232 3.92438
#
# Compressibility (1/GPa) = 0.03301467
#
# Stress axis : x y z
#
# Youngs Moduli (GPa) = 95.24704 46.32710 79.10256
#
# Poissons Ratio (x) = 0.15249 0.38277
# Poissons Ratio (y) = 0.31351 -0.17992
# Poissons Ratio (z) = 0.46089 -0.10537
#
# Static dielectric constant tensor:
#      x y z
#    x 1.936510 0.000000 -0.108960 
#    y 0.000000 1.811430 0.000000 
#    z -0.108960 0.000000 1.760070 
# 
# From -- ./inp_files/37341.got.cif
#   From: 2010.05.17/outbox.cif.g08.bks.cpg/sg5_19_cif.got.tgz:37341.got - 2010.06.03 18:56:24.
