data_PCOD9122094
_publ_section_title
;
Structure prediction by ZEFSAII (Michael W. Deem and Ramdas Pophale) SiO2 
 PCOD9122094
Probable space group: C 2
;
_chemical_formula_sum "Si O2"
_cell_formula_units_Z 24
_cell_length_a 14.790825
_cell_length_b 7.360441
_cell_length_c 16.088394
_cell_angle_alpha 90.000000
_cell_angle_beta 37.570079
_cell_angle_gamma 90.000000
_cell_volume 1067.941442
_symmetry_space_group_name_H-M "C 2"
_symmetry_group_IT_number 5
_symmetry_cell_setting 'monoclinic'
loop_
_space_group_symop_operation_xyz
x,y,z
-x,y,-z
1/2+x,1/2+y,z
1/2-x,1/2+y,-z
loop_
_atom_site_type_symbol
_atom_site_label
_atom_site_fract_x
_atom_site_fract_y
_atom_site_fract_z
Si Si1 0.366884 0.524780 0.541573
Si Si2 0.931065 0.101046 0.303255
Si Si3 0.803092 0.596451 0.828529
Si Si4 0.545555 0.028475 0.757244
Si Si5 0.834518 0.600435 0.615079
Si Si6 0.750116 0.938742 0.974067
O O1 0.500000 0.599257 0.500000
O O2 0.402565 0.563875 0.420236
O O3 0.200728 0.597230 0.677390
O O4 0.357551 0.309790 0.569382
O O5 0.936249 0.315060 0.277054
O O6 0.790965 0.022719 0.354196
O O7 0.091376 0.021081 0.163549
O O8 0.773932 0.595264 0.753485
O O9 0.980392 0.614336 0.719468
O O10 0.731419 0.765257 0.929255
O O11 0.754022 0.425397 0.921343
O O12 0.404920 0.049674 0.921112
O O13 0.000000 0.518581 0.500000
#
# Coordination Sequence:
#
# PCOD9122094 Si02
#       6
#     4   4   4   4   4   4
#     4  10  21  38  61  90 118 162 209 253 306 361
#     4  11  21  39  64  88 127 156 212 256 307 366
#     4  10  20  39  67  88 130 158 210 242 316 367
#     4   9  20  40  59  91 120 162 198 256 309 353
#     4  10  21  38  62  94 120 165 209 251 304 369
#     4  10  19  38  63  94 121 163 196 256 310 360
#
# _framework density 22.473143
#
# number of rings (size 3 to 8) (size 9 to 14) (size 15 to 20)
#    1.000    1.000    1.667    3.000    0.000    2.000 
#    0.000    8.333    0.000    0.000    0.000    0.000 
#    0.000    0.000    0.000    0.000    0.000    0.000 
#
# Total GULP energy -66838.902210 kJ/mol
# GULP energy per Si atom -5569.908517 kJ/mol
# Density = 2.242199 g / cm^3
# Si number density = 22.473143 Si / 1000 Ang^3
#
#
#
# Elastic Constant Matrix: (Units=GPa)
#
#
# Indices 1 2 3 4 5 6 
#
# 1 198.3073 16.2886 97.1786 0.0000 -16.1365 0.0000
# 2 16.2886 61.7230 16.1060 0.0000 9.5489 0.0000
# 3 97.1786 16.1060 147.3572 0.0000 -7.2068 0.0000
# 4 0.0000 0.0000 0.0000 21.4731 0.0000 0.6016
# 5 -16.1365 9.5489 -7.2068 0.0000 44.6534 0.0000
# 6 0.0000 0.0000 0.0000 0.6016 0.0000 6.3710
#
#
#
# Elastic Compliance Matrix: (Units=1/GPa)
#
#
# Indices 1 2 3 4 5 6 
#
# 1 0.007687 -0.001112 -0.004839 0.000000 0.002235 0.000000
# 2 -0.001112 0.017537 -0.001398 0.000000 -0.004377 0.000000
# 3 -0.004839 -0.001398 0.010139 0.000000 0.000187 0.000000
# 4 0.000000 0.000000 0.000000 0.046694 0.000000 -0.004409
# 5 0.002235 -0.004377 0.000187 0.000000 0.024169 0.000000
# 6 0.000000 0.000000 0.000000 -0.004409 0.000000 0.157377
#
#
# Mechanical properties :
#
#
# Convention : Reuss Voigt Hill
#
# Bulk Modulus (GPa) = 48.38679 74.05932 61.22306
# Shear Modulus (GPa) = 17.53240 33.02044 25.27642
#
# Velocity S-wave (km/s) = 2.79614 3.83734 3.35735
# Velocity P-wave (km/s) = 5.65705 7.25670 6.50623
#
# Compressibility (1/GPa) = 0.02066680
#
# Stress axis : x y z
#
# Youngs Moduli (GPa) = 130.09124 57.02315 98.62866
#
# Poissons Ratio (x) = 0.06339 0.47722
# Poissons Ratio (y) = 0.14462 0.13785
# Poissons Ratio (z) = 0.62945 0.07970
#
# Static dielectric constant tensor:
#      x y z
#    x 1.869780 0.000000 -0.057940 
#    y 0.000000 1.944350 0.000000 
#    z -0.057940 0.000000 1.844200 
# 
# From -- ./inp_files/38333.got.cif
#   From: 2010.05.17/outbox.cif.g08.bks.cpg/sg5_20_cif.got.tgz:38333.got - 2010.06.03 18:56:24.
