data_PCOD9122015
_publ_section_title
;
Structure prediction by ZEFSAII (Michael W. Deem and Ramdas Pophale) SiO2 
 PCOD9122015
Probable space group: C 2
;
_chemical_formula_sum "Si O2"
_cell_formula_units_Z 32
_cell_length_a 19.180661
_cell_length_b 8.442045
_cell_length_c 24.511717
_cell_angle_alpha 90.000000
_cell_angle_beta 158.663907
_cell_angle_gamma 90.000000
_cell_volume 1444.086157
_symmetry_space_group_name_H-M "C 2"
_symmetry_group_IT_number 5
_symmetry_cell_setting 'monoclinic'
loop_
_space_group_symop_operation_xyz
x,y,z
-x,y,-z
1/2+x,1/2+y,z
1/2-x,1/2+y,-z
loop_
_atom_site_type_symbol
_atom_site_label
_atom_site_fract_x
_atom_site_fract_y
_atom_site_fract_z
Si Si1 0.212065 0.752880 0.668342
Si Si2 0.634247 0.316286 0.050423
Si Si3 0.963996 0.768249 0.148176
Si Si4 0.355226 0.931695 0.442562
Si Si5 0.710278 0.671126 0.151958
Si Si6 0.588066 0.080950 0.402787
Si Si7 0.970234 0.271524 0.699034
Si Si8 0.579147 0.898436 0.890779
O O1 0.220506 0.600528 0.635156
O O2 0.227134 0.682621 0.739639
O O3 0.397811 0.862516 0.796963
O O4 0.000000 0.823962 0.500000
O O5 0.669062 0.499045 0.094189
O O6 0.840332 0.232920 0.197472
O O7 0.500000 0.247759 0.000000
O O8 0.553357 0.312643 0.929621
O O9 0.929236 0.582548 0.128767
O O10 0.176651 0.816735 0.320135
O O11 0.800301 0.857645 0.063870
O O12 0.500000 0.876524 0.500000
O O13 0.442770 0.972222 0.565242
O O14 0.913701 0.706813 0.270986
O O15 0.500000 0.752104 0.000000
O O16 0.790360 0.164069 0.556359
O O17 0.586540 0.953371 0.354212
O O18 0.038039 0.280186 0.810489
#
# Coordination Sequence:
#
# PCOD9122015 Si02
#       8
#     4   4   4   4   4   4   4   4
#     4  11  20  40  70  95 131 171 217 282 328 392
#     4   9  20  39  62  87 125 162 214 268 326 384
#     4  11  25  40  66  93 132 175 218 283 327 404
#     4  11  21  38  67  93 125 170 223 266 328 394
#     4  10  19  37  66  94 122 166 215 264 321 393
#     4  11  22  40  62  93 129 174 217 263 336 386
#     4  10  23  40  62  90 128 173 213 278 323 401
#     4  11  24  44  63  97 131 173 228 274 344 384
#
# _framework density 22.159343
#
# number of rings (size 3 to 8) (size 9 to 14) (size 15 to 20)
#    0.000    1.500    3.750    2.250    5.250    3.500 
#    0.000    3.125    0.000    0.000    0.000    0.000 
#    0.000    0.000    0.000    0.000    0.000    0.000 
#
# Total GULP energy -89171.556974 kJ/mol
# GULP energy per Si atom -5573.222311 kJ/mol
# Density = 2.210891 g / cm^3
# Si number density = 22.159343 Si / 1000 Ang^3
#
#
#
# Elastic Constant Matrix: (Units=GPa)
#
#
# Indices 1 2 3 4 5 6 
#
# 1 67.4203 2.3516 40.8172 0.0006 12.3421 -0.0002
# 2 2.3516 33.4430 20.4163 0.0055 24.0432 -0.0016
# 3 40.8172 20.4163 117.3843 0.0017 28.3495 0.0011
# 4 0.0006 0.0055 0.0017 36.7162 0.0002 11.5040
# 5 12.3421 24.0432 28.3495 0.0002 56.4250 0.0001
# 6 -0.0002 -0.0016 0.0011 11.5040 0.0001 17.1470
#
#
#
# Elastic Compliance Matrix: (Units=1/GPa)
#
#
# Indices 1 2 3 4 5 6 
#
# 1 0.019358 0.004903 -0.006893 -0.000001 -0.002860 0.000002
# 2 0.004903 0.045639 -0.005334 -0.000010 -0.017840 0.000012
# 3 -0.006893 -0.005334 0.012440 0.000001 -0.002469 -0.000002
# 4 -0.000001 -0.000010 0.000001 0.034485 0.000004 -0.023136
# 5 -0.002860 -0.017840 -0.002469 0.000004 0.027191 -0.000004
# 6 0.000002 0.000012 -0.000002 -0.023136 -0.000004 0.073841
#
#
# Mechanical properties :
#
#
# Convention : Reuss Voigt Hill
#
# Bulk Modulus (GPa) = 15.92649 38.37975 27.15312
# Shear Modulus (GPa) = 20.11810 32.36849 26.24330
#
# Velocity S-wave (km/s) = 3.01638 3.82608 3.44510
# Velocity P-wave (km/s) = 4.39707 6.07256 5.30143
#
# Compressibility (1/GPa) = 0.06278849
#
# Stress axis : x y z
#
# Youngs Moduli (GPa) = 51.65763 21.91116 80.38460
#
# Poissons Ratio (x) = -0.10744 0.55412
# Poissons Ratio (y) = -0.25330 0.42881
# Poissons Ratio (z) = 0.35609 0.11688
#
# Static dielectric constant tensor:
#      x y z
#    x 1.889560 0.000000 0.033870 
#    y 0.000000 1.787670 0.000000 
#    z 0.033870 0.000000 1.887650 
# 
# From -- ./inp_files/71095.got.cif
#   From: 2010.05.17/outbox.cif.g08.bks.cpg/sg5_36_cif.got.tgz:71095.got - 2010.06.03 18:56:24.
