data_PCOD9122139
_publ_section_title
;
Structure prediction by ZEFSAII (Michael W. Deem and Ramdas Pophale) SiO2 
 PCOD9122139
Probable space group: C 2
;
_chemical_formula_sum "Si O2"
_cell_formula_units_Z 24
_cell_length_a 15.542397
_cell_length_b 9.743399
_cell_length_c 7.206885
_cell_angle_alpha 90.000000
_cell_angle_beta 92.461963
_cell_angle_gamma 90.000000
_cell_volume 1090.372829
_symmetry_space_group_name_H-M "C 2"
_symmetry_group_IT_number 5
_symmetry_cell_setting 'monoclinic'
loop_
_space_group_symop_operation_xyz
x,y,z
-x,y,-z
1/2+x,1/2+y,z
1/2-x,1/2+y,-z
loop_
_atom_site_type_symbol
_atom_site_label
_atom_site_fract_x
_atom_site_fract_y
_atom_site_fract_z
Si Si1 0.069596 0.088310 0.778919
Si Si2 0.629143 0.509404 0.163941
Si Si3 0.598483 0.364113 0.500736
Si Si4 0.859180 0.437327 0.511556
Si Si5 0.477366 0.905618 0.205813
Si Si6 0.252872 0.181989 0.422957
O O1 0.062210 0.251289 0.801972
O O2 0.096157 0.017462 0.588669
O O3 0.127693 0.017499 0.942780
O O4 0.000000 0.449893 0.000000
O O5 0.634955 0.374154 0.293730
O O6 0.530411 0.549168 0.200883
O O7 0.699750 0.613255 0.251075
O O8 0.500000 0.313060 0.500000
O O9 0.663444 0.271366 0.621514
O O10 0.934373 0.413472 0.668258
O O11 0.809546 0.293657 0.489785
O O12 0.791722 0.557651 0.548699
O O13 0.905980 0.480398 0.324111
#
# Coordination Sequence:
#
# PCOD9122139 Si02
#       6
#     4   4   4   4   4   4
#     4  10  19  38  67  92 119 171 223 263 317 393
#     4  10  19  39  62  94 123 164 226 264 314 391
#     4  10  23  38  66  90 133 174 209 274 332 388
#     4  11  26  41  72  97 135 176 220 280 332 402
#     4  11  22  44  70  96 129 179 227 267 333 403
#     4  12  22  45  65 102 135 173 222 276 338 388
#
# _framework density 22.010818
#
# number of rings (size 3 to 8) (size 9 to 14) (size 15 to 20)
#    0.000    1.333    5.000    1.000    7.000    0.000 
#    6.000    3.333    0.000    0.000    0.000    0.000 
#    0.000    0.000    0.000    0.000    0.000    0.000 
#
# Total GULP energy -66883.944015 kJ/mol
# GULP energy per Si atom -5573.662001 kJ/mol
# Density = 2.196072 g / cm^3
# Si number density = 22.010818 Si / 1000 Ang^3
#
#
#
# Elastic Constant Matrix: (Units=GPa)
#
#
# Indices 1 2 3 4 5 6 
#
# 1 132.9889 34.1716 47.4480 0.0000 19.4498 0.0000
# 2 34.1716 74.8269 22.4430 0.0000 7.7045 0.0000
# 3 47.4480 22.4430 129.6305 0.0000 13.9826 0.0000
# 4 0.0000 0.0000 0.0000 13.9669 0.0000 4.6726
# 5 19.4498 7.7045 13.9826 0.0000 28.6496 0.0000
# 6 0.0000 0.0000 0.0000 4.6726 0.0000 33.0312
#
#
#
# Elastic Compliance Matrix: (Units=1/GPa)
#
#
# Indices 1 2 3 4 5 6 
#
# 1 0.009962 -0.003301 -0.002577 0.000000 -0.004618 0.000000
# 2 -0.003301 0.015397 -0.001322 0.000000 -0.001254 0.000000
# 3 -0.002577 -0.001322 0.009140 0.000000 -0.002356 0.000000
# 4 0.000000 0.000000 0.000000 0.075154 0.000000 -0.010631
# 5 -0.004618 -0.001254 -0.002356 0.000000 0.039527 0.000000
# 6 0.000000 0.000000 0.000000 -0.010631 0.000000 0.031778
#
#
# Mechanical properties :
#
#
# Convention : Reuss Voigt Hill
#
# Bulk Modulus (GPa) = 49.75142 60.61905 55.18524
# Shear Modulus (GPa) = 24.74508 30.68845 27.71677
#
# Velocity S-wave (km/s) = 3.35658 3.73801 3.55242
# Velocity P-wave (km/s) = 6.13795 6.79931 6.47708
#
# Compressibility (1/GPa) = 0.02009993
#
# Stress axis : x y z
#
# Youngs Moduli (GPa) = 100.37715 64.94575 109.40360
#
# Poissons Ratio (x) = 0.21440 0.28192
# Poissons Ratio (y) = 0.33137 0.14465
# Poissons Ratio (z) = 0.25866 0.08587
#
# Static dielectric constant tensor:
#      x y z
#    x 1.825180 0.000000 -0.000180 
#    y 0.000000 1.841690 0.000000 
#    z -0.000180 0.000000 1.836210 
# 
# From -- ./inp_files/26510.got.cif
#   From: 2010.05.17/outbox.cif.g08.bks.cpg/sg5_14_cif.got.tgz:26510.got - 2010.06.03 18:56:24.
