data_PCOD9122864
_publ_section_title
;
Structure prediction by ZEFSAII (Michael W. Deem and Ramdas Pophale) SiO2 
 PCOD9122864
Probable space group: C 2
;
_chemical_formula_sum "Si O2"
_cell_formula_units_Z 22
_cell_length_a 16.536529
_cell_length_b 5.047905
_cell_length_c 10.106012
_cell_angle_alpha 90.000000
_cell_angle_beta 85.044187
_cell_angle_gamma 90.000000
_cell_volume 840.443917
_symmetry_space_group_name_H-M "C 2"
_symmetry_group_IT_number 5
_symmetry_cell_setting 'monoclinic'
loop_
_space_group_symop_operation_xyz
x,y,z
-x,y,-z
1/2+x,1/2+y,z
1/2-x,1/2+y,-z
loop_
_atom_site_type_symbol
_atom_site_label
_atom_site_fract_x
_atom_site_fract_y
_atom_site_fract_z
Si Si1 0.145736 0.853460 0.939088
Si Si2 0.427925 0.333383 0.337776
Si Si3 0.500000 0.755036 0.000000
Si Si4 0.025247 0.346072 0.290070
Si Si5 0.689393 0.044988 0.187178
Si Si6 0.777634 0.192503 0.427999
O O1 0.112744 0.774677 0.799236
O O2 0.241392 0.880720 0.897014
O O3 0.144361 0.693850 0.075376
O O4 0.084467 0.093637 0.980321
O O5 0.502257 0.542381 0.318348
O O6 0.360206 0.518629 0.417542
O O7 0.468187 0.056208 0.373897
O O8 0.503468 0.896754 0.138899
O O9 0.121170 0.394239 0.281473
O O10 0.741859 0.213887 0.284736
O O11 0.719558 0.989065 0.516989
#
# Coordination Sequence:
#
# PCOD9122864 Si02
#       6
#     4   4   2   4   4   4
#     4  10  21  37  61  98 132 169 210 265 327 389
#     4  10  23  42  66  93 131 168 208 262 331 391
#     4  10  20  36  60  94 144 178 202 254 336 408
#     4  11  21  38  62  96 129 167 211 260 323 390
#     4  11  23  39  67  99 133 171 223 273 323 388
#     4  11  26  48  69  92 129 178 225 272 324 383
#
# _framework density 26.176641
#
# number of rings (size 3 to 8) (size 9 to 14) (size 15 to 20)
#    0.000    1.455    0.000    5.455    0.000    9.455 
#    0.000    5.455    0.000    0.000    0.000    0.000 
#    0.000    0.000    0.000    0.000    0.000    0.000 
#
# Total GULP energy -61450.362541 kJ/mol
# GULP energy per Si atom -5586.396595 kJ/mol
# Density = 2.611706 g / cm^3
# Si number density = 26.176641 Si / 1000 Ang^3
#
#
#
# Elastic Constant Matrix: (Units=GPa)
#
#
# Indices 1 2 3 4 5 6 
#
# 1 145.4944 33.4693 -12.8014 0.0000 -18.5596 0.0000
# 2 33.4693 77.7733 7.9469 0.0000 13.8467 0.0000
# 3 -12.8014 7.9469 72.4926 0.0000 17.0953 0.0000
# 4 0.0000 0.0000 0.0000 37.8412 0.0000 15.3226
# 5 -18.5596 13.8467 17.0953 0.0000 33.8193 0.0000
# 6 0.0000 0.0000 0.0000 15.3226 0.0000 129.6972
#
#
#
# Elastic Compliance Matrix: (Units=1/GPa)
#
#
# Indices 1 2 3 4 5 6 
#
# 1 0.008955 -0.005108 0.000555 0.000000 0.006725 0.000000
# 2 -0.005108 0.016785 -0.000523 0.000000 -0.009411 0.000000
# 3 0.000555 -0.000523 0.015699 0.000000 -0.007417 0.000000
# 4 0.000000 0.000000 0.000000 0.027754 0.000000 -0.003279
# 5 0.006725 -0.009411 -0.007417 0.000000 0.040862 0.000000
# 6 0.000000 0.000000 0.000000 -0.003279 0.000000 0.008098
#
#
# Mechanical properties :
#
#
# Convention : Reuss Voigt Hill
#
# Bulk Modulus (GPa) = 31.96031 39.22110 35.59071
# Shear Modulus (GPa) = 36.04090 58.08123 47.06107
#
# Velocity S-wave (km/s) = 3.71460 4.71554 4.24468
# Velocity P-wave (km/s) = 5.53477 6.68313 6.13587
#
# Compressibility (1/GPa) = 0.03128880
#
# Stress axis : x y z
#
# Youngs Moduli (GPa) = 111.67245 59.57738 63.69861
#
# Poissons Ratio (x) = 0.30430 -0.03538
# Poissons Ratio (y) = 0.57038 0.03329
# Poissons Ratio (z) = -0.06202 0.03114
#
# Static dielectric constant tensor:
#      x y z
#    x 1.663170 0.000000 0.068660 
#    y 0.000000 2.069760 0.000000 
#    z 0.068660 0.000000 2.012500 
# 
# From -- ./inp_files/41129.got.cif
#   From: 2010.05.17/outbox.cif.g08.bks.cpg/sg5_21_cif.got.tgz:41129.got - 2010.06.03 18:56:24.
