data_PCOD9122210
_publ_section_title
;
Structure prediction by ZEFSAII (Michael W. Deem and Ramdas Pophale) SiO2 
 PCOD9122210
Probable space group: C 2
;
_chemical_formula_sum "Si O2"
_cell_formula_units_Z 32
_cell_length_a 18.407901
_cell_length_b 11.849947
_cell_length_c 15.119839
_cell_angle_alpha 90.000000
_cell_angle_beta 28.667883
_cell_angle_gamma 90.000000
_cell_volume 1582.217916
_symmetry_space_group_name_H-M "C 2"
_symmetry_group_IT_number 5
_symmetry_cell_setting 'monoclinic'
loop_
_space_group_symop_operation_xyz
x,y,z
-x,y,-z
1/2+x,1/2+y,z
1/2-x,1/2+y,-z
loop_
_atom_site_type_symbol
_atom_site_label
_atom_site_fract_x
_atom_site_fract_y
_atom_site_fract_z
Si Si1 0.467725 0.631380 0.717019
Si Si2 0.316213 0.107851 0.114213
Si Si3 0.003656 0.539447 0.236765
Si Si4 0.170473 0.859296 0.838401
Si Si5 0.678923 0.844440 0.502892
Si Si6 0.362189 0.449822 0.578334
Si Si7 0.939431 0.781579 0.352711
Si Si8 0.687655 0.450447 0.014307
O O1 0.324403 0.632567 0.803218
O O2 0.546211 0.751217 0.646526
O O3 0.588605 0.550643 0.539873
O O4 0.409061 0.565267 0.866456
O O5 0.332183 0.223594 0.149425
O O6 0.274230 0.000446 0.218762
O O7 0.460175 0.081380 0.900242
O O8 0.867090 0.453700 0.392069
O O9 0.979687 0.651281 0.320389
O O10 0.152511 0.473264 0.110575
O O11 0.282859 0.882293 0.637492
O O12 0.212135 0.913388 0.887762
O O13 0.000000 0.897801 0.000000
O O14 0.828724 0.792932 0.386922
O O15 0.500000 0.433269 0.500000
O O16 0.355915 0.338639 0.525216
O O17 0.090182 0.853595 0.168305
#
# Coordination Sequence:
#
# PCOD9122210 Si02
#       8
#     4   4   4   4   4   4   4   4
#     4   9  20  37  66  92 122 170 215 266 321 376
#     4  10  19  39  65  96 120 164 230 266 307 376
#     4  11  25  41  66  99 127 174 217 263 334 391
#     4  12  22  38  62  96 130 166 218 276 320 374
#     4  12  25  39  67  97 134 166 215 273 331 389
#     4   9  19  38  65  88 118 168 213 263 311 371
#     4  11  24  43  64  96 133 165 216 269 334 381
#     4  10  22  42  65  88 133 173 213 269 317 386
#
# _framework density 20.224774
#
# number of rings (size 3 to 8) (size 9 to 14) (size 15 to 20)
#    0.000    1.500    3.750    1.500    5.250    2.500 
#    2.250    0.000    0.000    0.000    0.000    0.000 
#    0.000    0.000    0.000    0.000    0.000    0.000 
#
# Total GULP energy -89389.217305 kJ/mol
# GULP energy per Si atom -5586.826082 kJ/mol
# Density = 2.017874 g / cm^3
# Si number density = 20.224774 Si / 1000 Ang^3
#
#
#
# Elastic Constant Matrix: (Units=GPa)
#
#
# Indices 1 2 3 4 5 6 
#
# 1 47.4613 9.2598 12.3338 0.0000 2.9774 0.0000
# 2 9.2598 80.3482 41.2969 0.0000 -3.3788 0.0000
# 3 12.3338 41.2969 75.9493 0.0000 15.4563 0.0000
# 4 0.0000 0.0000 0.0000 31.0800 0.0000 7.6560
# 5 2.9774 -3.3788 15.4563 0.0000 31.4872 0.0000
# 6 0.0000 0.0000 0.0000 7.6560 0.0000 26.6349
#
#
#
# Elastic Compliance Matrix: (Units=1/GPa)
#
#
# Indices 1 2 3 4 5 6 
#
# 1 0.022071 -0.001144 -0.002791 0.000000 -0.000840 0.000000
# 2 -0.001144 0.018929 -0.011712 0.000000 0.007889 0.000000
# 3 -0.002791 -0.011712 0.022431 0.000000 -0.012004 0.000000
# 4 0.000000 0.000000 0.000000 0.034627 0.000000 -0.009953
# 5 -0.000840 0.007889 -0.012004 0.000000 0.038577 0.000000
# 6 0.000000 0.000000 0.000000 -0.009953 0.000000 0.040406
#
#
# Mechanical properties :
#
#
# Convention : Reuss Voigt Hill
#
# Bulk Modulus (GPa) = 31.11754 36.61554 33.86654
# Shear Modulus (GPa) = 22.82599 27.23165 25.02882
#
# Velocity S-wave (km/s) = 3.36313 3.67338 3.52167
# Velocity P-wave (km/s) = 5.52269 6.01126 5.77215
#
# Compressibility (1/GPa) = 0.03213621
#
# Stress axis : x y z
#
# Youngs Moduli (GPa) = 45.30814 52.82841 44.58072
#
# Poissons Ratio (x) = 0.06045 0.12443
# Poissons Ratio (y) = 0.05185 0.52214
# Poissons Ratio (z) = 0.12646 0.61874
#
# Static dielectric constant tensor:
#      x y z
#    x 1.730390 0.000000 -0.003820 
#    y 0.000000 1.702760 0.000000 
#    z -0.003820 0.000000 1.731440 
# 
# From -- ./inp_files/29594.got.cif
#   From: 2010.05.17/outbox.cif.g08.bks.cpg/sg5_15_cif.got.tgz:29594.got - 2010.06.03 18:56:24.
