data_PCOD9122927
_publ_section_title
;
Structure prediction by ZEFSAII (Michael W. Deem and Ramdas Pophale) SiO2 
 PCOD9122927
Probable space group: C 2
;
_chemical_formula_sum "Si O2"
_cell_formula_units_Z 24
_cell_length_a 8.389282
_cell_length_b 11.722952
_cell_length_c 17.695181
_cell_angle_alpha 90.000000
_cell_angle_beta 129.286153
_cell_angle_gamma 90.000000
_cell_volume 1346.957733
_symmetry_space_group_name_H-M "C 2"
_symmetry_group_IT_number 5
_symmetry_cell_setting 'monoclinic'
loop_
_space_group_symop_operation_xyz
x,y,z
-x,y,-z
1/2+x,1/2+y,z
1/2-x,1/2+y,-z
loop_
_atom_site_type_symbol
_atom_site_label
_atom_site_fract_x
_atom_site_fract_y
_atom_site_fract_z
Si Si1 0.500000 0.667181 0.000000
Si Si2 0.519523 0.549887 0.164745
Si Si3 0.523195 0.964609 0.668229
Si Si4 0.000000 0.355043 0.500000
Si Si5 0.657488 0.776679 0.277234
Si Si6 0.905782 0.714256 0.633873
Si Si7 0.812166 0.831906 0.167462
O O1 0.468012 0.592684 0.065403
O O2 0.694225 0.748724 0.075329
O O3 0.532786 0.660529 0.223375
O O4 0.371144 0.452043 0.150390
O O5 0.751266 0.499339 0.234094
O O6 0.536743 0.930878 0.584817
O O7 0.432780 0.858569 0.687240
O O8 0.386944 0.078788 0.635535
O O9 0.199873 0.276397 0.547693
O O10 0.669349 0.841169 0.199529
O O11 0.897048 0.740476 0.361014
O O12 0.986422 0.768741 0.737323
#
# Coordination Sequence:
#
# PCOD9122927 Si02
#       7
#     2   4   4   2   4   4   4
#     4  10  20  36  64  92 116 164 194 236 322 340
#     4  10  20  40  63  86 124 156 198 252 292 360
#     4  11  21  40  63  85 125 158 202 249 295 351
#     4  12  24  36  62  94 114 170 198 242 306 354
#     4   8  20  37  60  84 115 163 191 244 299 342
#     4   9  22  40  56  86 121 155 199 250 291 350
#     4   9  19  42  58  85 124 152 199 250 286 358
#
# _framework density 17.817931999999999
#
# number of rings (size 3 to 8) (size 9 to 14) (size 15 to 20)
#    1.000    1.333    3.333    0.000    0.000    8.667 
#    0.000    0.000    0.000    0.000    0.000    0.000 
#    0.000    0.000    0.000    0.000    0.000    0.000 
#
# Total GULP energy -66833.134132 kJ/mol
# GULP energy per Si atom -5569.427844 kJ/mol
# Density = 1.777738 g / cm^3
# Si number density = 17.817932 Si / 1000 Ang^3
#
#
#
# Elastic Constant Matrix: (Units=GPa)
#
#
# Indices 1 2 3 4 5 6 
#
# 1 40.6568 49.0265 24.6879 0.0000 -14.6753 0.0000
# 2 49.0265 123.2846 22.7324 0.0000 -17.9211 0.0000
# 3 24.6879 22.7324 67.7213 0.0000 -6.0547 0.0000
# 4 0.0000 0.0000 0.0000 29.3246 0.0000 5.1466
# 5 -14.6753 -17.9211 -6.0547 0.0000 21.0757 0.0000
# 6 0.0000 0.0000 0.0000 5.1466 0.0000 41.0001
#
#
#
# Elastic Compliance Matrix: (Units=1/GPa)
#
#
# Indices 1 2 3 4 5 6 
#
# 1 0.067873 -0.020417 -0.015618 0.000000 0.025413 0.000000
# 2 -0.020417 0.015817 0.002120 0.000000 -0.000158 0.000000
# 3 -0.015618 0.002120 0.019436 0.000000 -0.003489 0.000000
# 4 0.000000 0.000000 0.000000 0.034869 0.000000 -0.004377
# 5 0.025413 -0.000158 -0.003489 0.000000 0.064006 0.000000
# 6 0.000000 0.000000 0.000000 -0.004377 0.000000 0.024940
#
#
# Mechanical properties :
#
#
# Convention : Reuss Voigt Hill
#
# Bulk Modulus (GPa) = 28.33190 47.17292 37.75241
# Shear Modulus (GPa) = 16.31129 27.29448 21.80288
#
# Velocity S-wave (km/s) = 3.02891 3.91814 3.50186
# Velocity P-wave (km/s) = 5.30732 6.85576 6.13063
#
# Compressibility (1/GPa) = 0.03529590
#
# Stress axis : x y z
#
# Youngs Moduli (GPa) = 14.73347 63.22443 51.44988
#
# Poissons Ratio (x) = 1.29086 0.80352
# Poissons Ratio (y) = 0.30081 -0.10905
# Poissons Ratio (z) = 0.23010 -0.13401
#
# Static dielectric constant tensor:
#      x y z
#    x 1.611820 0.000000 0.007840 
#    y 0.000000 1.596950 0.000000 
#    z 0.007840 0.000000 1.611140 
# 
# From -- ./inp_files/50003.got.cif
#   From: 2010.05.17/outbox.cif.g08.bks.cpg/sg5_26_cif.got.tgz:50003.got - 2010.06.03 18:56:24.
