data_PCOD9122898
_publ_section_title
;
Structure prediction by ZEFSAII (Michael W. Deem and Ramdas Pophale) SiO2 
 PCOD9122898
Probable space group: C 2
;
_chemical_formula_sum "Si O2"
_cell_formula_units_Z 24
_cell_length_a 9.628660
_cell_length_b 13.998066
_cell_length_c 8.926350
_cell_angle_alpha 90.000000
_cell_angle_beta 122.283225
_cell_angle_gamma 90.000000
_cell_volume 1017.136913
_symmetry_space_group_name_H-M "C 2"
_symmetry_group_IT_number 5
_symmetry_cell_setting 'monoclinic'
loop_
_space_group_symop_operation_xyz
x,y,z
-x,y,-z
1/2+x,1/2+y,z
1/2-x,1/2+y,-z
loop_
_atom_site_type_symbol
_atom_site_label
_atom_site_fract_x
_atom_site_fract_y
_atom_site_fract_z
Si Si1 0.000000 0.407810 0.000000
Si Si2 0.295870 0.757761 0.727809
Si Si3 0.795927 0.956449 0.985804
Si Si4 0.495348 0.296936 0.237701
Si Si5 0.813822 0.427803 0.410953
Si Si6 0.000000 0.107710 0.000000
Si Si7 0.873174 0.622751 0.568724
O O1 0.932324 0.339212 0.826888
O O2 0.150313 0.464635 0.018924
O O3 0.351542 0.677221 0.877914
O O4 0.272593 0.693680 0.568110
O O5 0.125681 0.801035 0.688221
O O6 0.727957 0.968805 0.779039
O O7 0.935011 0.035987 0.089446
O O8 0.881377 0.852633 0.052684
O O9 0.663637 0.356223 0.354841
O O10 0.541013 0.184428 0.250866
O O11 0.818678 0.513052 0.537237
O O12 0.000000 0.388204 0.500000
O O13 0.000000 0.621904 0.500000
#
# Coordination Sequence:
#
# PCOD9122898 Si02
#       7
#     2   4   4   4   4   2   4
#     4   9  22  32  58  91 132 170 224 283 338 391
#     4   9  18  35  58  89 120 180 220 272 330 414
#     4  11  20  39  63  97 134 178 232 276 338 402
#     4  10  20  36  62  96 128 173 235 278 328 400
#     4  11  22  37  65  97 135 177 231 282 340 409
#     4  11  18  36  70  87 132 176 234 267 336 419
#     4   9  18  34  58  91 120 171 226 268 328 405
#
# _framework density 23.595644
#
# number of rings (size 3 to 8) (size 9 to 14) (size 15 to 20)
#    0.000    2.000    3.333    0.000    2.333    0.000 
#    0.000    0.000   11.000    5.000    0.000    0.000 
#    0.000    0.000    0.000    0.000    0.000    0.000 
#
# Total GULP energy -66859.576367 kJ/mol
# GULP energy per Si atom -5571.631364 kJ/mol
# Density = 2.354194 g / cm^3
# Si number density = 23.595644 Si / 1000 Ang^3
#
#
#
# Elastic Constant Matrix: (Units=GPa)
#
#
# Indices 1 2 3 4 5 6 
#
# 1 118.5971 45.0672 17.3373 0.0000 33.3454 0.0000
# 2 45.0672 101.4398 30.1674 0.0000 2.1151 0.0000
# 3 17.3373 30.1674 70.5076 0.0000 23.3797 0.0000
# 4 0.0000 0.0000 0.0000 39.4428 0.0000 -1.8356
# 5 33.3454 2.1151 23.3797 0.0000 31.8123 0.0000
# 6 0.0000 0.0000 0.0000 -1.8356 0.0000 22.9788
#
#
#
# Elastic Compliance Matrix: (Units=1/GPa)
#
#
# Indices 1 2 3 4 5 6 
#
# 1 0.017449 -0.009481 0.007433 0.000000 -0.023122 0.000000
# 2 -0.009481 0.016786 -0.010282 0.000000 0.016378 0.000000
# 3 0.007433 -0.010282 0.025269 0.000000 -0.025678 0.000000
# 4 0.000000 0.000000 0.000000 0.025448 0.000000 0.002033
# 5 -0.023122 0.016378 -0.025678 0.000000 0.073454 0.000000
# 6 0.000000 0.000000 0.000000 0.002033 0.000000 0.043681
#
#
# Mechanical properties :
#
#
# Convention : Reuss Voigt Hill
#
# Bulk Modulus (GPa) = 28.69784 52.85423 40.77604
# Shear Modulus (GPa) = 20.97659 32.04497 26.51078
#
# Velocity S-wave (km/s) = 2.98485 3.68922 3.35557
# Velocity P-wave (km/s) = 4.90590 6.37148 5.68611
#
# Compressibility (1/GPa) = 0.03484583
#
# Stress axis : x y z
#
# Youngs Moduli (GPa) = 57.30915 59.57245 39.57412
#
# Poissons Ratio (x) = 0.56478 -0.29415
# Poissons Ratio (y) = 0.54333 0.40689
# Poissons Ratio (z) = -0.42598 0.61250
#
# Static dielectric constant tensor:
#      x y z
#    x 1.882610 0.000000 -0.012790 
#    y 0.000000 1.956110 0.000000 
#    z -0.012790 0.000000 2.029520 
# 
# From -- ./inp_files/38959.got.cif
#   From: 2010.05.17/outbox.cif.g08.bks.cpg/sg5_20_cif.got.tgz:38959.got - 2010.06.03 18:56:24.
