data_PCOD9122589
_publ_section_title
;
Structure prediction by ZEFSAII (Michael W. Deem and Ramdas Pophale) SiO2 
 PCOD9122589
Probable space group: C 2
;
_chemical_formula_sum "Si O2"
_cell_formula_units_Z 32
_cell_length_a 14.139436
_cell_length_b 18.096753
_cell_length_c 8.632300
_cell_angle_alpha 90.000000
_cell_angle_beta 43.809139
_cell_angle_gamma 90.000000
_cell_volume 1529.070239
_symmetry_space_group_name_H-M "C 2"
_symmetry_group_IT_number 5
_symmetry_cell_setting 'monoclinic'
loop_
_space_group_symop_operation_xyz
x,y,z
-x,y,-z
1/2+x,1/2+y,z
1/2-x,1/2+y,-z
loop_
_atom_site_type_symbol
_atom_site_label
_atom_site_fract_x
_atom_site_fract_y
_atom_site_fract_z
Si Si1 0.134116 0.996900 0.731682
Si Si2 0.142740 0.058564 0.371938
Si Si3 0.191268 0.898483 0.171320
Si Si4 0.909417 0.648992 0.966572
Si Si5 0.578650 0.044895 0.553327
Si Si6 0.986616 0.374706 0.688138
Si Si7 0.012107 0.798128 0.167427
Si Si8 0.248443 0.346548 0.552208
O O1 0.191132 0.914773 0.623128
O O2 0.127648 0.033787 0.568616
O O3 0.259598 0.041448 0.661890
O O4 0.000000 0.997438 0.000000
O O5 0.000000 0.096230 0.500000
O O6 0.159731 0.984401 0.245932
O O7 0.272157 0.109229 0.181425
O O8 0.069319 0.862650 0.214281
O O9 0.229091 0.866901 0.295934
O O10 0.328404 0.881641 0.915015
O O11 0.892585 0.727714 0.902834
O O12 0.012735 0.590368 0.769405
O O13 0.000000 0.677390 0.000000
O O14 0.500000 0.076171 0.500000
O O15 0.534514 0.960117 0.627869
O O16 0.000000 0.342754 0.500000
O O17 0.092427 0.336832 0.682492
O O18 0.854561 0.780837 0.396842
O O19 0.000000 0.820509 0.000000
#
# Coordination Sequence:
#
# PCOD9122589 Si02
#       8
#     4   4   4   4   4   4   4   4
#     4  10  21  36  61  96 135 160 208 278 328 383
#     4  11  23  38  67  98 130 170 221 278 332 389
#     4  11  21  39  65  98 129 169 219 279 333 389
#     4  11  23  44  65  90 130 179 221 262 330 403
#     4  10  21  35  59  92 126 169 207 261 317 381
#     4  10  20  34  60  96 132 163 210 271 328 383
#     4  11  24  41  63  91 128 175 215 269 327 403
#     4  10  21  36  60  95 128 170 214 270 330 389
#
# _framework density 20.92775
#
# number of rings (size 3 to 8) (size 9 to 14) (size 15 to 20)
#    0.000    1.500    2.500    3.375    1.750    4.000 
#    0.000    3.125    0.000    0.000    0.000    0.000 
#    0.000    0.000    0.000    0.000    0.000    0.000 
#
# Total GULP energy -89141.359453 kJ/mol
# GULP energy per Si atom -5571.334966 kJ/mol
# Density = 2.088012 g / cm^3
# Si number density = 20.927750 Si / 1000 Ang^3
#
#
#
# Elastic Constant Matrix: (Units=GPa)
#
#
# Indices 1 2 3 4 5 6 
#
# 1 97.0307 17.5754 23.0865 0.0000 -16.3000 0.0000
# 2 17.5754 47.7792 12.2458 0.0000 -1.7096 0.0000
# 3 23.0865 12.2458 117.4837 0.0000 -23.3164 0.0000
# 4 0.0000 0.0000 0.0000 15.9059 0.0000 -8.3530
# 5 -16.3000 -1.7096 -23.3164 0.0000 35.8179 0.0000
# 6 0.0000 0.0000 0.0000 -8.3530 0.0000 20.8377
#
#
#
# Elastic Compliance Matrix: (Units=1/GPa)
#
#
# Indices 1 2 3 4 5 6 
#
# 1 0.012054 -0.004003 -0.001034 0.000000 0.004621 0.000000
# 2 -0.004003 0.022841 -0.001997 0.000000 -0.002032 0.000000
# 3 -0.001034 -0.001997 0.010118 0.000000 0.006021 0.000000
# 4 0.000000 0.000000 0.000000 0.079634 0.000000 0.031922
# 5 0.004621 -0.002032 0.006021 0.000000 0.033844 0.000000
# 6 0.000000 0.000000 0.000000 0.031922 0.000000 0.060786
#
#
# Mechanical properties :
#
#
# Convention : Reuss Voigt Hill
#
# Bulk Modulus (GPa) = 32.31747 40.90100 36.60923
# Shear Modulus (GPa) = 20.52026 28.47137 24.49582
#
# Velocity S-wave (km/s) = 3.13474 3.69244 3.42496
# Velocity P-wave (km/s) = 5.34584 6.14534 5.75948
#
# Compressibility (1/GPa) = 0.03094302
#
# Stress axis : x y z
#
# Youngs Moduli (GPa) = 82.96341 43.77997 98.83245
#
# Poissons Ratio (x) = 0.17527 0.10221
# Poissons Ratio (y) = 0.33214 0.19741
# Poissons Ratio (z) = 0.08580 0.08745
#
# Static dielectric constant tensor:
#      x y z
#    x 1.779090 0.000000 -0.043690 
#    y 0.000000 1.776340 0.000000 
#    z -0.043690 0.000000 1.687720 
# 
# From -- ./inp_files/25407.got.cif
#   From: 2010.05.17/outbox.cif.g08.bks.cpg/sg5_13_cif.got.tgz:25407.got - 2010.06.03 18:56:24.
