data_PCOD9122599
_publ_section_title
;
Structure prediction by ZEFSAII (Michael W. Deem and Ramdas Pophale) SiO2 
 PCOD9122599
Probable space group: C 2
;
_chemical_formula_sum "Si O2"
_cell_formula_units_Z 28
_cell_length_a 21.309398
_cell_length_b 12.498420
_cell_length_c 8.743272
_cell_angle_alpha 90.000000
_cell_angle_beta 142.381767
_cell_angle_gamma 90.000000
_cell_volume 1421.388706
_symmetry_space_group_name_H-M "C 2"
_symmetry_group_IT_number 5
_symmetry_cell_setting 'monoclinic'
loop_
_space_group_symop_operation_xyz
x,y,z
-x,y,-z
1/2+x,1/2+y,z
1/2-x,1/2+y,-z
loop_
_atom_site_type_symbol
_atom_site_label
_atom_site_fract_x
_atom_site_fract_y
_atom_site_fract_z
Si Si1 0.976570 0.838710 0.784595
Si Si2 0.000000 0.166508 0.500000
Si Si3 0.120290 0.065692 0.452875
Si Si4 0.344616 0.201269 0.316262
Si Si5 0.289217 0.022262 0.992607
Si Si6 0.889343 0.896067 0.202125
Si Si7 0.864430 0.295501 0.016135
Si Si8 0.000000 0.215811 0.000000
O O1 0.936279 0.740687 0.603249
O O2 0.081493 0.886297 0.916577
O O3 0.897536 0.939595 0.618847
O O4 0.000000 0.805845 0.000000
O O5 0.042307 0.100143 0.438145
O O6 0.086284 0.241081 0.739434
O O7 0.233414 0.082477 0.742835
O O8 0.084560 0.138841 0.243678
O O9 0.341440 0.287826 0.173881
O O10 0.240371 0.226720 0.208967
O O11 0.352506 0.091284 0.237897
O O12 0.190473 0.984934 0.902836
O O13 0.341174 0.917961 0.018172
O O14 0.000000 0.904006 0.500000
O O15 0.941031 0.281732 0.019478
#
# Coordination Sequence:
#
# PCOD9122599 Si02
#       8
#     4   2   4   4   4   4   4   2
#     4  11  21  37  60  95 127 160 194 260 325 377
#     4  10  20  34  62  88 122 156 218 254 296 366
#     4  11  18  33  63  93 113 161 203 260 308 354
#     4  10  21  37  63  92 119 157 219 261 296 365
#     4  11  20  37  67  89 120 163 215 262 295 365
#     4   9  18  36  62  88 115 156 212 260 294 362
#     4  10  21  40  60  92 127 161 208 258 313 369
#     4  10  24  36  62  90 134 160 202 258 324 386
#
# _framework density 19.699045999999999
#
# number of rings (size 3 to 8) (size 9 to 14) (size 15 to 20)
#    0.000    1.714    6.429    0.857    2.000    0.000 
#    6.429    0.000    7.857    0.000    0.000    0.000 
#    0.000    0.000    0.000    0.000    0.000    0.000 
#
# Total GULP energy -77975.800586 kJ/mol
# GULP energy per Si atom -5569.700042 kJ/mol
# Density = 1.965421 g / cm^3
# Si number density = 19.699046 Si / 1000 Ang^3
#
#
#
# Elastic Constant Matrix: (Units=GPa)
#
#
# Indices 1 2 3 4 5 6 
#
# 1 75.5968 26.7674 24.5592 0.0000 -13.1685 0.0000
# 2 26.7674 90.4062 45.0759 0.0000 -12.8769 0.0000
# 3 24.5592 45.0759 81.7596 0.0000 -22.6688 0.0000
# 4 0.0000 0.0000 0.0000 32.3933 0.0000 -1.7606
# 5 -13.1685 -12.8769 -22.6688 0.0000 28.9219 0.0000
# 6 0.0000 0.0000 0.0000 -1.7606 0.0000 16.5688
#
#
#
# Elastic Compliance Matrix: (Units=1/GPa)
#
#
# Indices 1 2 3 4 5 6 
#
# 1 0.015672 -0.003137 -0.001772 0.000000 0.004350 0.000000
# 2 -0.003137 0.015884 -0.007985 0.000000 -0.000615 0.000000
# 3 -0.001772 -0.007985 0.020387 0.000000 0.011617 0.000000
# 4 0.000000 0.000000 0.000000 0.031050 0.000000 0.003299
# 5 0.004350 -0.000615 0.011617 0.000000 0.045388 0.000000
# 6 0.000000 0.000000 0.000000 0.003299 0.000000 0.060705
#
#
# Mechanical properties :
#
#
# Convention : Reuss Voigt Hill
#
# Bulk Modulus (GPa) = 38.23535 48.95195 43.59365
# Shear Modulus (GPa) = 22.36212 25.66746 24.01479
#
# Velocity S-wave (km/s) = 3.37291 3.61360 3.49533
# Velocity P-wave (km/s) = 5.88393 6.50497 6.20223
#
# Compressibility (1/GPa) = 0.02615381
#
# Stress axis : x y z
#
# Youngs Moduli (GPa) = 63.80683 62.95716 49.05172
#
# Poissons Ratio (x) = 0.19750 0.08692
# Poissons Ratio (y) = 0.20017 0.39170
# Poissons Ratio (z) = 0.11307 0.50273
#
# Static dielectric constant tensor:
#      x y z
#    x 1.735110 0.000000 0.011020 
#    y 0.000000 1.744440 0.000000 
#    z 0.011020 0.000000 1.741250 
# 
# From -- ./inp_files/29672.got.cif
#   From: 2010.05.17/outbox.cif.g08.bks.cpg/sg5_15_cif.got.tgz:29672.got - 2010.06.03 18:56:24.
