data_PCOD9122001
_publ_section_title
;
Structure prediction by ZEFSAII (Michael W. Deem and Ramdas Pophale) SiO2 
 PCOD9122001
Probable space group: C 2
;
_chemical_formula_sum "Si O2"
_cell_formula_units_Z 26
_cell_length_a 15.696868
_cell_length_b 12.918821
_cell_length_c 7.277745
_cell_angle_alpha 90.000000
_cell_angle_beta 68.776907
_cell_angle_gamma 90.000000
_cell_volume 1375.724774
_symmetry_space_group_name_H-M "C 2"
_symmetry_group_IT_number 5
_symmetry_cell_setting 'monoclinic'
loop_
_space_group_symop_operation_xyz
x,y,z
-x,y,-z
1/2+x,1/2+y,z
1/2-x,1/2+y,-z
loop_
_atom_site_type_symbol
_atom_site_label
_atom_site_fract_x
_atom_site_fract_y
_atom_site_fract_z
Si Si1 0.555568 0.629480 0.282798
Si Si2 0.000000 0.278842 0.000000
Si Si3 0.794327 0.833566 0.328199
Si Si4 0.177654 0.395481 0.737312
Si Si5 0.007477 0.901620 0.773803
Si Si6 0.270606 0.122178 0.185823
Si Si7 0.177152 0.796851 0.104615
O O1 0.500000 0.672694 0.500000
O O2 0.511642 0.518160 0.272578
O O3 0.661937 0.612913 0.243726
O O4 0.544022 0.705369 0.120398
O O5 0.078794 0.348447 0.849684
O O6 0.711360 0.883725 0.501821
O O7 0.889166 0.868395 0.345791
O O8 0.786676 0.708915 0.330529
O O9 0.797468 0.858028 0.106682
O O10 0.186628 0.513143 0.797569
O O11 0.250749 0.328931 0.799080
O O12 0.925733 0.829258 0.764787
O O13 0.000000 0.895598 0.000000
O O14 0.312432 0.178653 0.972555
#
# Coordination Sequence:
#
# PCOD9122001 Si02
#       7
#     4   2   4   4   4   4   4
#     4  12  22  37  61  91 118 157 209 251 298 349
#     4  12  26  36  60  88 124 164 196 244 304 372
#     4   9  22  39  59  91 120 153 202 258 291 355
#     4  12  22  41  61  87 124 162 200 244 311 355
#     4  10  19  37  65  89 118 155 205 256 295 343
#     4  10  22  41  60  88 121 162 194 249 305 352
#     4   9  21  39  58  90 122 151 198 252 296 354
#
# _framework density 18.899128999999999
#
# number of rings (size 3 to 8) (size 9 to 14) (size 15 to 20)
#    0.923    0.615    3.846    1.846    0.000    1.231 
#    2.769    0.000    0.000    0.000    0.000    0.000 
#    0.000    0.000    0.000    0.000    0.000    0.000 
#
# Total GULP energy -72510.892473 kJ/mol
# GULP energy per Si atom -5577.760959 kJ/mol
# Density = 1.885611 g / cm^3
# Si number density = 18.899129 Si / 1000 Ang^3
#
#
#
# Elastic Constant Matrix: (Units=GPa)
#
#
# Indices 1 2 3 4 5 6 
#
# 1 79.3909 24.4572 18.2748 0.0000 -27.6367 0.0000
# 2 24.4572 99.7340 -7.4489 0.0000 -11.3734 0.0000
# 3 18.2748 -7.4489 48.3579 0.0000 -13.1537 0.0000
# 4 0.0000 0.0000 0.0000 -214.0234 0.0000 -60.8106
# 5 -27.6367 -11.3734 -13.1537 0.0000 25.2934 0.0000
# 6 0.0000 0.0000 0.0000 -60.8106 0.0000 13.5626
#
#
#
# Elastic Compliance Matrix: (Units=1/GPa)
#
#
# Indices 1 2 3 4 5 6 
#
# 1 0.021334 -0.003138 -0.003016 0.000000 0.020331 0.000000
# 2 -0.003138 0.011534 0.004007 0.000000 0.003841 0.000000
# 3 -0.003016 0.004007 0.025660 0.000000 0.011851 0.000000
# 4 0.000000 0.000000 0.000000 -0.002055 0.000000 -0.009213
# 5 0.020331 0.003841 0.011851 0.000000 0.069641 0.000000
# 6 0.000000 0.000000 0.000000 -0.009213 0.000000 0.032425
#
#
# Mechanical properties :
#
#
# Convention : Reuss Voigt Hill
#
# Bulk Modulus (GPa) = 18.43842 33.11656 25.77749
# Shear Modulus (GPa) = 27.63803 -22.22015 2.70894
#
# Velocity S-wave (km/s) = 3.82828 -3.43260 1.19853
# Velocity P-wave (km/s) = 5.41464 1.36033 3.94771
#
# Compressibility (1/GPa) = 0.05423458
#
# Stress axis : x y z
#
# Youngs Moduli (GPa) = 46.87253 86.70304 38.97169
#
# Poissons Ratio (x) = 0.27211 0.11752
# Poissons Ratio (y) = 0.14711 -0.15618
# Poissons Ratio (z) = 0.14135 -0.34746
#
# Static dielectric constant tensor:
#      x y z
#    x 1.641600 0.000000 0.004550 
#    y 0.000000 1.632690 0.000000 
#    z 0.004550 0.000000 1.754500 
# 
# From -- ./inp_files/23526.got.cif
#   From: 2010.05.17/outbox.cif.g08.bks.cpg/sg5_12_cif.got.tgz:23526.got - 2010.06.03 18:56:24.
