data_PCOD9122046
_publ_section_title
;
Structure prediction by ZEFSAII (Michael W. Deem and Ramdas Pophale) SiO2 
 PCOD9122046
Probable space group: C 2
;
_chemical_formula_sum "Si O2"
_cell_formula_units_Z 28
_cell_length_a 8.838625
_cell_length_b 16.386495
_cell_length_c 13.207907
_cell_angle_alpha 90.000000
_cell_angle_beta 138.712593
_cell_angle_gamma 90.000000
_cell_volume 1262.237670
_symmetry_space_group_name_H-M "C 2"
_symmetry_group_IT_number 5
_symmetry_cell_setting 'monoclinic'
loop_
_space_group_symop_operation_xyz
x,y,z
-x,y,-z
1/2+x,1/2+y,z
1/2-x,1/2+y,-z
loop_
_atom_site_type_symbol
_atom_site_label
_atom_site_fract_x
_atom_site_fract_y
_atom_site_fract_z
Si Si1 0.460914 0.762610 0.372160
Si Si2 0.584068 0.356175 0.432697
Si Si3 0.773609 0.734827 0.150617
Si Si4 0.863940 0.440387 0.037452
Si Si5 0.676933 0.427879 0.285426
Si Si6 0.771619 0.783722 0.932304
Si Si7 0.728929 0.053530 0.832510
O O1 0.500000 0.718783 0.500000
O O2 0.705571 0.793440 0.456291
O O3 0.305233 0.842498 0.323103
O O4 0.338977 0.728100 0.210580
O O5 0.500000 0.381422 0.500000
O O6 0.388001 0.306420 0.272521
O O7 0.672899 0.428688 0.405037
O O8 0.835159 0.646259 0.223013
O O9 0.500000 0.743117 0.000000
O O10 0.850241 0.737932 0.072264
O O11 0.897237 0.356249 0.117470
O O12 0.897420 0.513439 0.134203
O O13 0.592615 0.433926 0.876717
O O14 0.000000 0.445645 0.000000
O O15 0.793868 0.496778 0.276962
O O16 0.000000 0.822730 0.000000
O O17 0.000000 0.055138 0.000000
#
# Coordination Sequence:
#
# PCOD9122046 Si02
#       7
#     4   4   4   4   4   4   4
#     4  10  20  35  56  89 129 165 208 267 319 388
#     4  11  23  36  58  97 129 159 223 284 318 379
#     4  11  23  39  62  95 131 172 217 275 336 386
#     4  11  20  32  61  95 126 157 218 283 315 371
#     4  10  19  38  60  87 126 174 213 264 326 394
#     4  12  19  35  63  91 126 165 221 265 322 390
#     4   9  20  39  60  89 133 173 215 265 337 400
#
# _framework density 22.182827
#
# number of rings (size 3 to 8) (size 9 to 14) (size 15 to 20)
#    0.000    1.429    4.286    2.571    2.000    0.571 
#    0.000    2.143    0.000    0.000    0.000   18.000 
#    0.000    0.000    0.000    0.000    0.000    0.000 
#
# Total GULP energy -78094.876189 kJ/mol
# GULP energy per Si atom -5578.205442 kJ/mol
# Density = 2.213234 g / cm^3
# Si number density = 22.182827 Si / 1000 Ang^3
#
#
#
# Elastic Constant Matrix: (Units=GPa)
#
#
# Indices 1 2 3 4 5 6 
#
# 1 150.6724 19.7354 37.3157 0.0000 -25.3134 0.0000
# 2 19.7354 63.3652 13.8289 0.0000 -17.2076 0.0000
# 3 37.3157 13.8289 104.6811 0.0000 -24.6265 0.0000
# 4 0.0000 0.0000 0.0000 13.6054 0.0000 -3.9756
# 5 -25.3134 -17.2076 -24.6265 0.0000 53.9890 0.0000
# 6 0.0000 0.0000 0.0000 -3.9756 0.0000 12.9015
#
#
#
# Elastic Compliance Matrix: (Units=1/GPa)
#
#
# Indices 1 2 3 4 5 6 
#
# 1 0.007695 -0.001341 -0.002036 0.000000 0.002252 0.000000
# 2 -0.001341 0.017626 -0.000758 0.000000 0.004643 0.000000
# 3 -0.002036 -0.000758 0.011311 0.000000 0.003963 0.000000
# 4 0.000000 0.000000 0.000000 0.080774 0.000000 0.024891
# 5 0.002252 0.004643 0.003963 0.000000 0.022866 0.000000
# 6 0.000000 0.000000 0.000000 0.024891 0.000000 0.085181
#
#
# Mechanical properties :
#
#
# Convention : Reuss Voigt Hill
#
# Bulk Modulus (GPa) = 35.25906 51.16431 43.21168
# Shear Modulus (GPa) = 20.56122 32.62173 26.59148
#
# Velocity S-wave (km/s) = 3.04780 3.83898 3.46604
# Velocity P-wave (km/s) = 5.32116 6.53952 5.96154
#
# Compressibility (1/GPa) = 0.02836151
#
# Stress axis : x y z
#
# Youngs Moduli (GPa) = 129.95212 56.73593 88.40821
#
# Poissons Ratio (x) = 0.07607 0.18002
# Poissons Ratio (y) = 0.17424 0.06703
# Poissons Ratio (z) = 0.26461 0.04301
#
# Static dielectric constant tensor:
#      x y z
#    x 1.895640 0.000000 -0.011430 
#    y 0.000000 1.803050 0.000000 
#    z -0.011430 0.000000 1.911980 
# 
# From -- ./inp_files/37225.got.cif
#   From: 2010.05.17/outbox.cif.g08.bks.cpg/sg5_19_cif.got.tgz:37225.got - 2010.06.03 18:56:24.
