data_PCOD9122333
_publ_section_title
;
Structure prediction by ZEFSAII (Michael W. Deem and Ramdas Pophale) SiO2 
 PCOD9122333
Probable space group: C 2
;
_chemical_formula_sum "Si O2"
_cell_formula_units_Z 32
_cell_length_a 18.520921
_cell_length_b 9.982577
_cell_length_c 9.456904
_cell_angle_alpha 90.000000
_cell_angle_beta 106.442053
_cell_angle_gamma 90.000000
_cell_volume 1676.953643
_symmetry_space_group_name_H-M "C 2"
_symmetry_group_IT_number 5
_symmetry_cell_setting 'monoclinic'
loop_
_space_group_symop_operation_xyz
x,y,z
-x,y,-z
1/2+x,1/2+y,z
1/2-x,1/2+y,-z
loop_
_atom_site_type_symbol
_atom_site_label
_atom_site_fract_x
_atom_site_fract_y
_atom_site_fract_z
Si Si1 0.759049 0.375000 0.657458
Si Si2 0.570925 0.807489 0.182730
Si Si3 0.066295 0.614121 0.201927
Si Si4 0.313124 0.471877 0.088122
Si Si5 0.674492 0.990346 0.799298
Si Si6 0.405097 0.217338 0.075182
Si Si7 0.913104 0.232545 0.137158
Si Si8 0.690026 0.102811 0.502756
O O1 0.846156 0.325020 0.706566
O O2 0.729724 0.411899 0.798181
O O3 0.715792 0.250071 0.564933
O O4 0.756463 0.514303 0.569443
O O5 0.503180 0.725510 0.219495
O O6 0.541324 0.960843 0.164480
O O7 0.585137 0.754554 0.032068
O O8 0.113708 0.620503 0.370397
O O9 0.993503 0.706808 0.154359
O O10 0.113402 0.656112 0.089548
O O11 0.373795 0.364201 0.071191
O O12 0.359436 0.607613 0.142235
O O13 0.252533 0.486564 0.928969
O O14 0.633390 0.122151 0.832921
O O15 0.682762 0.011282 0.637644
O O16 0.625119 0.861582 0.812634
#
# Coordination Sequence:
#
# PCOD9122333 Si02
#       8
#     4   4   4   4   4   4   4   4
#     4  11  24  46  60  95 132 173 215 273 337 398
#     4  10  19  41  65  91 130 165 221 267 326 397
#     4  10  21  42  68  93 125 172 222 263 326 406
#     4  12  25  39  65 103 132 162 225 283 322 388
#     4  12  21  40  67  93 123 174 220 262 324 395
#     4  11  21  42  68  93 125 168 219 270 321 389
#     4  11  21  37  68  97 124 169 217 277 324 385
#     4  11  26  41  67  93 132 173 213 274 337 395
#
# _framework density 19.082222000000002
#
# number of rings (size 3 to 8) (size 9 to 14) (size 15 to 20)
#    0.000    1.000    5.000    3.000    3.500    2.500 
#    2.250    0.000    0.000    0.000    0.000    0.000 
#    0.000    0.000    0.000    0.000    0.000    0.000 
#
# Total GULP energy -89277.245773 kJ/mol
# GULP energy per Si atom -5579.827861 kJ/mol
# Density = 1.903879 g / cm^3
# Si number density = 19.082222 Si / 1000 Ang^3
#
#
#
# Elastic Constant Matrix: (Units=GPa)
#
#
# Indices 1 2 3 4 5 6 
#
# 1 85.9625 23.9121 38.2088 0.0000 9.8277 0.0000
# 2 23.9121 67.2726 18.4100 0.0000 7.4870 0.0000
# 3 38.2088 18.4100 107.4016 0.0000 7.5723 0.0000
# 4 0.0000 0.0000 0.0000 16.7482 0.0000 -4.0734
# 5 9.8277 7.4870 7.5723 0.0000 20.1089 0.0000
# 6 0.0000 0.0000 0.0000 -4.0734 0.0000 11.4971
#
#
#
# Elastic Compliance Matrix: (Units=1/GPa)
#
#
# Indices 1 2 3 4 5 6 
#
# 1 0.015129 -0.003677 -0.004445 0.000000 -0.004351 0.000000
# 2 -0.003677 0.016981 -0.001319 0.000000 -0.004029 0.000000
# 3 -0.004445 -0.001319 0.011229 0.000000 -0.001565 0.000000
# 4 0.000000 0.000000 0.000000 0.065338 0.000000 0.023149
# 5 -0.004351 -0.004029 -0.001565 0.000000 0.053945 0.000000
# 6 0.000000 0.000000 0.000000 0.023149 0.000000 0.095180
#
#
# Mechanical properties :
#
#
# Convention : Reuss Voigt Hill
#
# Bulk Modulus (GPa) = 40.88767 46.85539 43.87153
# Shear Modulus (GPa) = 17.55396 21.67790 19.61593
#
# Velocity S-wave (km/s) = 3.03630 3.37416 3.20967
# Velocity P-wave (km/s) = 5.81083 6.30775 6.06438
#
# Compressibility (1/GPa) = 0.02445725
#
# Stress axis : x y z
#
# Youngs Moduli (GPa) = 66.09815 58.88902 89.05812
#
# Poissons Ratio (x) = 0.21653 0.39588
# Poissons Ratio (y) = 0.24304 0.11744
# Poissons Ratio (z) = 0.29382 0.07765
#
# Static dielectric constant tensor:
#      x y z
#    x 1.734490 0.000000 -0.018340 
#    y 0.000000 1.649940 0.000000 
#    z -0.018340 0.000000 1.678500 
# 
# From -- ./inp_files/28977.got.cif
#   From: 2010.05.17/outbox.cif.g08.bks.cpg/sg5_15_cif.got.tgz:28977.got - 2010.06.03 18:56:24.
