data_PCOD9122854
_publ_section_title
;
Structure prediction by ZEFSAII (Michael W. Deem and Ramdas Pophale) SiO2 
 PCOD9122854
Probable space group: C 2
;
_chemical_formula_sum "Si O2"
_cell_formula_units_Z 28
_cell_length_a 26.997705
_cell_length_b 8.013199
_cell_length_c 16.729561
_cell_angle_alpha 90.000000
_cell_angle_beta 18.951184
_cell_angle_gamma 90.000000
_cell_volume 1175.393097
_symmetry_space_group_name_H-M "C 2"
_symmetry_group_IT_number 5
_symmetry_cell_setting 'monoclinic'
loop_
_space_group_symop_operation_xyz
x,y,z
-x,y,-z
1/2+x,1/2+y,z
1/2-x,1/2+y,-z
loop_
_atom_site_type_symbol
_atom_site_label
_atom_site_fract_x
_atom_site_fract_y
_atom_site_fract_z
Si Si1 0.407119 0.421100 0.058824
Si Si2 0.361001 0.790553 0.431415
Si Si3 0.430316 0.005240 0.799321
Si Si4 0.725858 0.232989 0.327032
Si Si5 0.014365 0.937175 0.391337
Si Si6 0.693569 0.411508 0.534948
Si Si7 0.707888 0.723395 0.070168
O O1 0.257229 0.319737 0.314088
O O2 0.354249 0.601546 0.106843
O O3 0.500000 0.446940 0.000000
O O4 0.527934 0.338750 0.814288
O O5 0.525551 0.864983 0.203628
O O6 0.340022 0.600474 0.438351
O O7 0.299926 0.898469 0.449823
O O8 0.390073 0.892637 0.782320
O O9 0.579835 0.114747 0.564910
O O10 0.291676 0.136006 0.017773
O O11 0.647762 0.372962 0.391391
O O12 0.765886 0.315479 0.350480
O O13 0.000000 0.015314 0.500000
O O14 0.095578 0.075924 0.211932
O O15 0.139377 0.787019 0.209373
#
# Coordination Sequence:
#
# PCOD9122854 Si02
#       7
#     4   4   4   4   4   4   4
#     4   9  20  38  57  86 122 156 198 243 295 360
#     4  10  20  36  60  90 122 159 203 244 297 361
#     4   9  18  36  58  84 121 154 194 251 294 348
#     4  10  21  38  60  88 119 156 204 246 299 364
#     4  10  21  38  59  84 116 154 200 252 300 355
#     4  11  21  39  63  87 126 164 192 248 303 352
#     4   9  19  37  57  83 115 149 196 246 293 350
#
# _framework density 23.821816999999999
#
# number of rings (size 3 to 8) (size 9 to 14) (size 15 to 20)
#    0.000    2.286    0.000    3.429    0.000    3.429 
#    0.000   28.571    0.000    0.000    0.000    0.000 
#    0.000    0.000    0.000    0.000    0.000    0.000 
#
# Total GULP energy -77975.752877 kJ/mol
# GULP energy per Si atom -5569.696634 kJ/mol
# Density = 2.376760 g / cm^3
# Si number density = 23.821817 Si / 1000 Ang^3
#
#
#
# Elastic Constant Matrix: (Units=GPa)
#
#
# Indices 1 2 3 4 5 6 
#
# 1 45.6427 14.9605 5.4301 0.0000 -3.7931 0.0000
# 2 14.9605 77.5204 4.3408 0.0000 -2.4494 0.0000
# 3 5.4301 4.3408 61.8281 0.0000 -0.1046 0.0000
# 4 0.0000 0.0000 0.0000 32.7079 0.0000 -10.5502
# 5 -3.7931 -2.4494 -0.1046 0.0000 17.0164 0.0000
# 6 0.0000 0.0000 0.0000 -10.5502 0.0000 31.7062
#
#
#
# Elastic Compliance Matrix: (Units=1/GPa)
#
#
# Indices 1 2 3 4 5 6 
#
# 1 0.023946 -0.004373 -0.001788 0.000000 0.004697 0.000000
# 2 -0.004373 0.013808 -0.000584 0.000000 0.001009 0.000000
# 3 -0.001788 -0.000584 0.016371 0.000000 -0.000382 0.000000
# 4 0.000000 0.000000 0.000000 0.034250 0.000000 0.011397
# 5 0.004697 0.001009 -0.000382 0.000000 0.059957 0.000000
# 6 0.000000 0.000000 0.000000 0.011397 0.000000 0.035332
#
#
# Mechanical properties :
#
#
# Convention : Reuss Voigt Hill
#
# Bulk Modulus (GPa) = 24.60860 26.05045 25.32952
# Shear Modulus (GPa) = 23.73066 26.97007 25.35037
#
# Velocity S-wave (km/s) = 3.15965 3.36841 3.26569
# Velocity P-wave (km/s) = 4.86455 5.10759 4.98755
#
# Compressibility (1/GPa) = 0.04063621
#
# Stress axis : x y z
#
# Youngs Moduli (GPa) = 41.76127 72.42027 61.08268
#
# Poissons Ratio (x) = 0.31667 0.10922
# Poissons Ratio (y) = 0.18261 0.03565
# Poissons Ratio (z) = 0.07467 0.04227
#
# Static dielectric constant tensor:
#      x y z
#    x 1.923770 0.000000 -0.014260 
#    y 0.000000 1.947700 0.000000 
#    z -0.014260 0.000000 1.940640 
# 
# From -- ./inp_files/67710.got.cif
#   From: 2010.05.17/outbox.cif.g08.bks.cpg/sg5_34_cif.got.tgz:67710.got - 2010.06.03 18:56:24.
