data_PCOD9122089
_publ_section_title
;
Structure prediction by ZEFSAII (Michael W. Deem and Ramdas Pophale) SiO2 
 PCOD9122089
Probable space group: C 2
;
_chemical_formula_sum "Si O2"
_cell_formula_units_Z 20
_cell_length_a 17.269287
_cell_length_b 13.327043
_cell_length_c 9.266575
_cell_angle_alpha 90.000000
_cell_angle_beta 155.080458
_cell_angle_gamma 90.000000
_cell_volume 898.598019
_symmetry_space_group_name_H-M "C 2"
_symmetry_group_IT_number 5
_symmetry_cell_setting 'monoclinic'
loop_
_space_group_symop_operation_xyz
x,y,z
-x,y,-z
1/2+x,1/2+y,z
1/2-x,1/2+y,-z
loop_
_atom_site_type_symbol
_atom_site_label
_atom_site_fract_x
_atom_site_fract_y
_atom_site_fract_z
Si Si1 0.173818 0.161900 0.397045
Si Si2 0.172330 0.470988 0.209775
Si Si3 0.374598 0.286107 0.506607
Si Si4 0.570845 0.724548 0.761482
Si Si5 0.123680 0.600964 0.843342
O O1 0.281584 0.060319 0.603860
O O2 0.301144 0.239993 0.531162
O O3 0.099119 0.198928 0.423735
O O4 0.000000 0.144604 0.000000
O O5 0.356894 0.404695 0.500930
O O6 0.121782 0.523361 0.972040
O O7 0.000000 0.415860 0.000000
O O8 0.540771 0.211868 0.746309
O O9 0.221750 0.273255 0.121413
O O10 0.500000 0.781851 0.500000
O O11 0.674488 0.626008 0.875469
O O12 0.000000 0.565661 0.500000
#
# Coordination Sequence:
#
# PCOD9122089 Si02
#       5
#     4   4   4   4   4
#     4  10  21  41  62  90 131 167 216 270 309 381
#     4  12  22  41  70  96 125 179 218 257 329 384
#     4  10  23  42  63  91 130 169 221 265 312 388
#     4  10  19  38  63  90 130 171 201 272 325 365
#     4  10  22  42  64  93 136 164 208 277 319 376
#
# _framework density 22.256893999999999
#
# number of rings (size 3 to 8) (size 9 to 14) (size 15 to 20)
#    0.000    1.600    4.000    1.800    0.000    0.800 
#   14.400    0.000    0.000    0.000    0.000    0.000 
#    0.000    0.000    0.000    0.000    0.000    0.000 
#
# Total GULP energy -55780.673501 kJ/mol
# GULP energy per Si atom -5578.067350 kJ/mol
# Density = 2.220624 g / cm^3
# Si number density = 22.256894 Si / 1000 Ang^3
#
#
#
# Elastic Constant Matrix: (Units=GPa)
#
#
# Indices 1 2 3 4 5 6 
#
# 1 139.9794 20.7403 14.2198 0.0000 -13.7576 0.0000
# 2 20.7403 76.7396 13.1849 0.0000 -11.1456 0.0000
# 3 14.2198 13.1849 50.4517 0.0000 -14.7038 0.0000
# 4 0.0000 0.0000 0.0000 22.1936 0.0000 2.1759
# 5 -13.7576 -11.1456 -14.7038 0.0000 30.7541 0.0000
# 6 0.0000 0.0000 0.0000 2.1759 0.0000 20.5405
#
#
#
# Elastic Compliance Matrix: (Units=1/GPa)
#
#
# Indices 1 2 3 4 5 6 
#
# 1 0.007717 -0.001556 -0.001077 0.000000 0.002374 0.000000
# 2 -0.001556 0.014343 -0.002321 0.000000 0.003392 0.000000
# 3 -0.001077 -0.002321 0.023639 0.000000 0.009979 0.000000
# 4 0.000000 0.000000 0.000000 0.045531 0.000000 -0.004823
# 5 0.002374 0.003392 0.009979 0.000000 0.039578 0.000000
# 6 0.000000 0.000000 0.000000 -0.004823 0.000000 0.049195
#
#
# Mechanical properties :
#
#
# Convention : Reuss Voigt Hill
#
# Bulk Modulus (GPa) = 27.93924 40.38453 34.16189
# Shear Modulus (GPa) = 24.77178 29.29934 27.03556
#
# Velocity S-wave (km/s) = 3.33978 3.63218 3.48904
# Velocity P-wave (km/s) = 5.23951 5.98117 5.62258
#
# Compressibility (1/GPa) = 0.03579195
#
# Stress axis : x y z
#
# Youngs Moduli (GPa) = 129.58228 69.71982 42.30218
#
# Poissons Ratio (x) = 0.10848 0.04555
# Poissons Ratio (y) = 0.20163 0.09819
# Poissons Ratio (z) = 0.13952 0.16183
#
# Static dielectric constant tensor:
#      x y z
#    x 1.852280 0.000000 0.012510 
#    y 0.000000 1.823080 0.000000 
#    z 0.012510 0.000000 1.852100 
# 
# From -- ./inp_files/14338.got.cif
#   From: 2010.05.17/outbox.cif.g08.bks.cpg/sg5_8_cif.got.tgz:14338.got - 2010.06.03 18:56:24.
