data_PCOD9122059
_publ_section_title
;
Structure prediction by ZEFSAII (Michael W. Deem and Ramdas Pophale) SiO2 
 PCOD9122059
Probable space group: C 2
;
_chemical_formula_sum "Si O2"
_cell_formula_units_Z 32
_cell_length_a 13.035887
_cell_length_b 5.557274
_cell_length_c 29.434754
_cell_angle_alpha 90.000000
_cell_angle_beta 139.021766
_cell_angle_gamma 90.000000
_cell_volume 1398.349914
_symmetry_space_group_name_H-M "C 2"
_symmetry_group_IT_number 5
_symmetry_cell_setting 'monoclinic'
loop_
_space_group_symop_operation_xyz
x,y,z
-x,y,-z
1/2+x,1/2+y,z
1/2-x,1/2+y,-z
loop_
_atom_site_type_symbol
_atom_site_label
_atom_site_fract_x
_atom_site_fract_y
_atom_site_fract_z
Si Si1 0.107041 0.791040 0.142950
Si Si2 0.825991 0.555172 0.271156
Si Si3 0.143761 0.135861 0.074681
Si Si4 0.156794 0.965207 0.534937
Si Si5 0.407768 0.675867 0.660884
Si Si6 0.560024 0.288022 0.405697
Si Si7 0.865137 0.936141 0.206357
Si Si8 0.703287 0.001650 0.960495
O O1 0.166888 0.906769 0.210327
O O2 0.259030 0.670933 0.171665
O O3 0.976771 0.587163 0.104153
O O4 0.072552 0.999491 0.094649
O O5 0.814488 0.780586 0.233489
O O6 0.968498 0.393789 0.299328
O O7 0.896629 0.650879 0.341726
O O8 0.294583 0.289812 0.140667
O O9 0.214842 0.959574 0.060621
O O10 0.000000 0.266026 0.000000
O O11 0.235828 0.784908 0.597693
O O12 0.101455 0.828722 0.471370
O O13 0.000000 0.091331 0.500000
O O14 0.294935 0.140727 0.566611
O O15 0.441722 0.528202 0.625678
O O16 0.458490 0.514528 0.721272
O O17 0.772698 0.253166 0.004487
#
# Coordination Sequence:
#
# PCOD9122059 Si02
#       8
#     4   4   4   4   4   4   4   4
#     4  10  21  40  65  92 127 177 223 274 344 406
#     4   8  18  36  64  89 119 171 213 265 336 392
#     4  11  22  40  64  96 130 178 225 284 339 396
#     4  11  22  36  61  93 122 165 216 258 325 394
#     4   9  18  38  63  87 126 168 207 271 328 387
#     4  10  19  38  61  87 129 161 210 273 322 389
#     4   9  19  37  68  89 127 173 219 271 339 394
#     4  12  27  44  66 102 142 176 231 292 341 416
#
# _framework density 22.884114
#
# number of rings (size 3 to 8) (size 9 to 14) (size 15 to 20)
#    0.000    2.000    2.500    0.750    3.500    1.000 
#    2.250    0.000   44.000    0.000    0.000    0.000 
#    0.000    0.000    0.000    0.000    0.000    0.000 
#
# Total GULP energy -89122.462264 kJ/mol
# GULP energy per Si atom -5570.153892 kJ/mol
# Density = 2.283203 g / cm^3
# Si number density = 22.884114 Si / 1000 Ang^3
#
#
#
# Elastic Constant Matrix: (Units=GPa)
#
#
# Indices 1 2 3 4 5 6 
#
# 1 49.1931 0.4286 21.1622 0.0000 5.8089 -0.0001
# 2 0.4286 67.2486 37.4489 -0.0008 2.7499 -0.0001
# 3 21.1622 37.4489 155.8806 0.0001 7.7718 -0.0001
# 4 0.0000 -0.0008 0.0001 33.3430 -0.0001 7.0483
# 5 5.8089 2.7499 7.7718 -0.0001 20.0422 0.0001
# 6 -0.0001 -0.0001 -0.0001 7.0483 0.0001 11.4369
#
#
#
# Elastic Compliance Matrix: (Units=1/GPa)
#
#
# Indices 1 2 3 4 5 6 
#
# 1 0.022340 0.001869 -0.003208 0.000000 -0.005487 0.000000
# 2 0.001869 0.017335 -0.004357 0.000000 -0.001231 0.000000
# 3 -0.003208 -0.004357 0.007975 0.000000 -0.001565 0.000000
# 4 0.000000 0.000000 0.000000 0.034484 0.000000 -0.021252
# 5 -0.005487 -0.001231 -0.001565 0.000000 0.052261 -0.000001
# 6 0.000000 0.000000 0.000000 -0.021252 -0.000001 0.100533
#
#
# Mechanical properties :
#
#
# Convention : Reuss Voigt Hill
#
# Bulk Modulus (GPa) = 27.58081 43.37798 35.47939
# Shear Modulus (GPa) = 19.34936 27.18325 23.26630
#
# Velocity S-wave (km/s) = 2.91097 3.45028 3.19203
# Velocity P-wave (km/s) = 4.83496 5.90502 5.39658
#
# Compressibility (1/GPa) = 0.03625710
#
# Stress axis : x y z
#
# Youngs Moduli (GPa) = 44.76311 57.68741 125.38518
#
# Poissons Ratio (x) = -0.10779 0.40225
# Poissons Ratio (y) = -0.08364 0.54628
# Poissons Ratio (z) = 0.14361 0.25134
#
# Static dielectric constant tensor:
#      x y z
#    x 1.818380 0.000000 0.011350 
#    y 0.000000 1.888340 0.000000 
#    z 0.011350 0.000000 1.959060 
# 
# From -- ./inp_files/71846.got.cif
#   From: 2010.05.17/outbox.cif.g08.bks.cpg/sg5_36_cif.got.tgz:71846.got - 2010.06.03 18:56:24.
