data_PCOD9122980
_publ_section_title
;
Structure prediction by ZEFSAII (Michael W. Deem and Ramdas Pophale) SiO2 
 PCOD9122980
Probable space group: C 2
;
_chemical_formula_sum "Si O2"
_cell_formula_units_Z 30
_cell_length_a 17.885877
_cell_length_b 14.123794
_cell_length_c 11.974736
_cell_angle_alpha 90.000000
_cell_angle_beta 149.133712
_cell_angle_gamma 90.000000
_cell_volume 1551.942579
_symmetry_space_group_name_H-M "C 2"
_symmetry_group_IT_number 5
_symmetry_cell_setting 'monoclinic'
loop_
_space_group_symop_operation_xyz
x,y,z
-x,y,-z
1/2+x,1/2+y,z
1/2-x,1/2+y,-z
loop_
_atom_site_type_symbol
_atom_site_label
_atom_site_fract_x
_atom_site_fract_y
_atom_site_fract_z
Si Si1 0.873760 0.153510 0.636667
Si Si2 0.781550 0.361895 0.543793
Si Si3 0.844630 0.561763 0.245485
Si Si4 0.379945 0.479496 0.491851
Si Si5 0.182949 0.246998 0.051993
Si Si6 0.000000 0.335355 0.000000
Si Si7 0.837989 0.997814 0.782373
Si Si8 0.722856 0.451792 0.883859
O O1 0.782516 0.250126 0.523454
O O2 0.855638 0.091282 0.726499
O O3 0.841400 0.079208 0.498625
O O4 0.038387 0.191166 0.827530
O O5 0.657123 0.398093 0.466874
O O6 0.765953 0.423968 0.413526
O O7 0.928308 0.385844 0.802368
O O8 0.815047 0.674252 0.210227
O O9 0.723424 0.521718 0.175504
O O10 0.000000 0.540485 0.500000
O O11 0.816760 0.516723 0.087972
O O12 0.552401 0.469616 0.693399
O O13 0.282549 0.470669 0.256113
O O14 0.130441 0.274920 0.110514
O O15 0.223348 0.343120 0.039448
O O16 0.000000 0.956693 0.000000
#
# Coordination Sequence:
#
# PCOD9122980 Si02
#       8
#     4   4   4   4   4   2   4   4
#     4  10  21  41  71  91 116 168 219 257 313 375
#     4  10  21  36  69  96 116 160 219 265 303 367
#     4  12  26  40  58  99 130 165 211 263 314 371
#     4  10  21  42  68  90 127 164 213 257 319 380
#     4  11  21  40  66  89 121 168 214 253 313 377
#     4  10  20  36  70  92 116 156 226 254 304 372
#     4  11  22  42  67  89 131 167 212 265 313 376
#     4  11  24  41  63  91 130 171 201 258 318 387
#
# _framework density 19.330611999999999
#
# number of rings (size 3 to 8) (size 9 to 14) (size 15 to 20)
#    0.000    1.333    4.000    2.400    6.533    0.000 
#    2.400    0.000    5.867    0.000    0.000    0.000 
#    0.000    0.000    0.000    0.000    0.000    0.000 
#
# Total GULP energy -83621.416688 kJ/mol
# GULP energy per Si atom -5574.761113 kJ/mol
# Density = 1.928661 g / cm^3
# Si number density = 19.330612 Si / 1000 Ang^3
#
#
#
# Elastic Constant Matrix: (Units=GPa)
#
#
# Indices 1 2 3 4 5 6 
#
# 1 58.7027 33.9106 9.7464 0.0000 -9.1904 0.0000
# 2 33.9106 114.6935 47.5800 0.0000 -10.8856 0.0000
# 3 9.7464 47.5800 80.0614 0.0000 -11.2869 0.0000
# 4 0.0000 0.0000 0.0000 33.3207 0.0000 0.3635
# 5 -9.1904 -10.8856 -11.2869 0.0000 24.5015 0.0000
# 6 0.0000 0.0000 0.0000 0.3635 0.0000 24.3336
#
#
#
# Elastic Compliance Matrix: (Units=1/GPa)
#
#
# Indices 1 2 3 4 5 6 
#
# 1 0.021491 -0.006697 0.002225 0.000000 0.006111 0.000000
# 2 -0.006697 0.013762 -0.007332 0.000000 0.000225 0.000000
# 3 0.002225 -0.007332 0.017363 0.000000 0.005576 0.000000
# 4 0.000000 0.000000 0.000000 0.030016 0.000000 -0.000448
# 5 0.006111 0.000225 0.005576 0.000000 0.045774 0.000000
# 6 0.000000 0.000000 0.000000 -0.000448 0.000000 0.041102
#
#
# Mechanical properties :
#
#
# Convention : Reuss Voigt Hill
#
# Bulk Modulus (GPa) = 34.47256 48.43685 41.45471
# Shear Modulus (GPa) = 24.65668 27.24586 25.95127
#
# Velocity S-wave (km/s) = 3.57532 3.75836 3.66798
# Velocity P-wave (km/s) = 5.90896 6.62911 6.27937
#
# Compressibility (1/GPa) = 0.02900858
#
# Stress axis : x y z
#
# Youngs Moduli (GPa) = 46.53099 72.66463 57.59474
#
# Poissons Ratio (x) = 0.48666 -0.12817
# Poissons Ratio (y) = 0.31163 0.42226
# Poissons Ratio (z) = -0.10355 0.53275
#
# Static dielectric constant tensor:
#      x y z
#    x 1.707130 0.000000 0.015710 
#    y 0.000000 1.688940 0.000000 
#    z 0.015710 0.000000 1.707260 
# 
# From -- ./inp_files/40079.got.cif
#   From: 2010.05.17/outbox.cif.g08.bks.cpg/sg5_21_cif.got.tgz:40079.got - 2010.06.03 18:56:24.
