data_PCOD9122420
_publ_section_title
;
Structure prediction by ZEFSAII (Michael W. Deem and Ramdas Pophale) SiO2 
 PCOD9122420
Probable space group: C 2
;
_chemical_formula_sum "Si O2"
_cell_formula_units_Z 24
_cell_length_a 24.086953
_cell_length_b 13.265801
_cell_length_c 21.712716
_cell_angle_alpha 90.000000
_cell_angle_beta 168.567433
_cell_angle_gamma 90.000000
_cell_volume 1375.196972
_symmetry_space_group_name_H-M "C 2"
_symmetry_group_IT_number 5
_symmetry_cell_setting 'monoclinic'
loop_
_space_group_symop_operation_xyz
x,y,z
-x,y,-z
1/2+x,1/2+y,z
1/2-x,1/2+y,-z
loop_
_atom_site_type_symbol
_atom_site_label
_atom_site_fract_x
_atom_site_fract_y
_atom_site_fract_z
Si Si1 0.673303 0.673330 0.132578
Si Si2 0.559197 0.899380 0.345788
Si Si3 0.485531 0.134141 0.242517
Si Si4 0.500000 0.483647 0.000000
Si Si5 0.413134 0.734829 0.094093
Si Si6 0.000000 0.348478 0.500000
Si Si7 0.829535 0.797677 0.976776
O O1 0.000000 0.653207 0.500000
O O2 0.500000 0.723755 0.000000
O O3 0.517901 0.563425 0.962417
O O4 0.664623 0.735753 0.061358
O O5 0.432271 0.840139 0.149378
O O6 0.364551 0.868404 0.191462
O O7 0.541107 0.015745 0.307871
O O8 0.867302 0.853023 0.695133
O O9 0.781813 0.187343 0.571333
O O10 0.294047 0.165677 0.091777
O O11 0.356660 0.189556 0.041530
O O12 0.224710 0.416835 0.707182
O O13 0.184759 0.290815 0.752321
#
# Coordination Sequence:
#
# PCOD9122420 Si02
#       7
#     4   4   4   2   4   2   4
#     4  10  20  32  48  76 110 136 175 209 275 329
#     4  10  21  36  57  79 106 142 189 219 270 318
#     4  10  21  36  57  76 109 143 179 225 259 323
#     4  10  22  30  48  82 100 152 160 212 280 330
#     4  10  21  34  53  81 105 140 177 228 264 313
#     4  12  22  34  52  78 122 132 180 222 264 344
#     4  10  23  36  53  87 107 144 182 220 275 317
#
# _framework density 17.452044999999998
#
# number of rings (size 3 to 8) (size 9 to 14) (size 15 to 20)
#    0.500    1.333    0.833    3.000    7.000    0.000 
#    0.000    0.000    1.833    0.000    2.167    0.000 
#    0.000    0.000    0.000    0.000    0.000    0.000 
#
# Total GULP energy -66844.474001 kJ/mol
# GULP energy per Si atom -5570.372833 kJ/mol
# Density = 1.741232 g / cm^3
# Si number density = 17.452045 Si / 1000 Ang^3
#
#
#
# Elastic Constant Matrix: (Units=GPa)
#
#
# Indices 1 2 3 4 5 6 
#
# 1 105.4564 27.7632 49.6892 -0.0155 -1.8056 -0.0327
# 2 27.7632 78.7337 7.3026 -0.0235 -6.2118 -0.0538
# 3 49.6892 7.3026 79.3903 0.0160 6.2920 -0.0447
# 4 -0.0155 -0.0235 0.0160 14.0521 -0.0072 4.0629
# 5 -1.8056 -6.2118 6.2920 -0.0072 48.1025 -0.0151
# 6 -0.0327 -0.0538 -0.0447 4.0629 -0.0151 6.3994
#
#
#
# Elastic Compliance Matrix: (Units=1/GPa)
#
#
# Indices 1 2 3 4 5 6 
#
# 1 0.014887 -0.004321 -0.009014 0.000032 0.001180 -0.000041
# 2 -0.004321 0.014225 0.001276 -0.000016 0.001508 0.000120
# 3 -0.009014 0.001276 0.018324 -0.000067 -0.002570 0.000129
# 4 0.000032 -0.000016 -0.000067 0.087165 0.000003 -0.055341
# 5 0.001180 0.001508 -0.002570 0.000003 0.021364 0.000049
# 6 -0.000041 0.000120 0.000129 -0.055341 0.000049 0.191402
#
#
# Mechanical properties :
#
#
# Convention : Reuss Voigt Hill
#
# Bulk Modulus (GPa) = 42.88115 48.12115 45.50115
# Shear Modulus (GPa) = 13.18366 25.63250 19.40808
#
# Velocity S-wave (km/s) = 2.75148 3.83657 3.33841
# Velocity P-wave (km/s) = 5.89223 6.87451 6.40224
#
# Compressibility (1/GPa) = 0.02332027
#
# Stress axis : x y z
#
# Youngs Moduli (GPa) = 67.17065 70.29772 54.57296
#
# Poissons Ratio (x) = 0.30372 0.49192
# Poissons Ratio (y) = 0.29021 -0.06965
# Poissons Ratio (z) = 0.60547 -0.08971
#
# Static dielectric constant tensor:
#      x y z
#    x 1.626300 0.000000 -0.026360 
#    y 0.000000 1.591340 -0.000020 
#    z -0.026360 -0.000020 1.611710 
# 
# From -- ./inp_files/67441.got.cif
#   From: 2010.05.17/outbox.cif.g08.bks.cpg/sg5_34_cif.got.tgz:67441.got - 2010.06.03 18:56:24.
