data_PCOD9122085
_publ_section_title
;
Structure prediction by ZEFSAII (Michael W. Deem and Ramdas Pophale) SiO2 
 PCOD9122085
Probable space group: C 2
;
_chemical_formula_sum "Si O2"
_cell_formula_units_Z 26
_cell_length_a 14.272947
_cell_length_b 9.133743
_cell_length_c 18.974706
_cell_angle_alpha 90.000000
_cell_angle_beta 149.912529
_cell_angle_gamma 90.000000
_cell_volume 1240.091874
_symmetry_space_group_name_H-M "C 2"
_symmetry_group_IT_number 5
_symmetry_cell_setting 'monoclinic'
loop_
_space_group_symop_operation_xyz
x,y,z
-x,y,-z
1/2+x,1/2+y,z
1/2-x,1/2+y,-z
loop_
_atom_site_type_symbol
_atom_site_label
_atom_site_fract_x
_atom_site_fract_y
_atom_site_fract_z
Si Si1 0.316851 0.990220 0.195502
Si Si2 0.787588 0.281372 0.379181
Si Si3 0.987369 0.881356 0.084838
Si Si4 0.000000 0.608551 0.000000
Si Si5 0.888064 0.238620 0.599100
Si Si6 0.157951 0.020258 0.694855
Si Si7 0.516445 0.203586 0.432177
O O1 0.161954 0.930805 0.149707
O O2 0.479482 0.871505 0.291902
O O3 0.409945 0.123258 0.298330
O O4 0.187167 0.990810 0.040575
O O5 0.599747 0.359828 0.229859
O O6 0.777524 0.280505 0.456125
O O7 0.795973 0.124318 0.342887
O O8 0.000000 0.336706 0.500000
O O9 0.928900 0.722207 0.014664
O O10 0.154871 0.511603 0.137780
O O11 0.735285 0.201745 0.556916
O O12 0.016966 0.108907 0.653754
O O13 0.069162 0.866080 0.619514
O O14 0.500000 0.140237 0.500000
#
# Coordination Sequence:
#
# PCOD9122085 Si02
#       7
#     4   4   4   2   4   4   4
#     4  10  20  36  63  87 118 158 196 245 301 354
#     4   9  16  32  70  94 106 147 210 249 282 355
#     4   9  16  35  64  94 113 147 201 253 290 356
#     4   8  14  32  66  84 110 152 198 238 286 356
#     4  11  20  39  65  87 114 161 212 238 285 366
#     4  10  19  38  63  89 119 152 198 242 306 352
#     4  12  27  37  55  89 133 160 195 253 307 343
#
# _framework density 20.966189
#
# number of rings (size 3 to 8) (size 9 to 14) (size 15 to 20)
#    0.000    2.154    6.154    2.308    2.154    1.231 
#    0.000    0.000   16.923    0.000    0.000    0.000 
#    0.000    0.000    0.000    0.000    0.000    0.000 
#
# Total GULP energy -72399.955373 kJ/mol
# GULP energy per Si atom -5569.227336 kJ/mol
# Density = 2.091847 g / cm^3
# Si number density = 20.966189 Si / 1000 Ang^3
#
#
#
# Elastic Constant Matrix: (Units=GPa)
#
#
# Indices 1 2 3 4 5 6 
#
# 1 62.9515 -7.1184 24.2405 0.0001 5.9047 0.0001
# 2 -7.1184 70.0158 23.7858 0.0002 4.1525 0.0004
# 3 24.2405 23.7858 149.4285 0.0004 -15.2661 0.0008
# 4 0.0001 0.0002 0.0004 -11.0068 -0.0001 16.7834
# 5 5.9047 4.1525 -15.2661 -0.0001 18.6807 0.0000
# 6 0.0001 0.0004 0.0008 16.7834 0.0000 41.6112
#
#
#
# Elastic Compliance Matrix: (Units=1/GPa)
#
#
# Indices 1 2 3 4 5 6 
#
# 1 0.019323 0.004307 -0.004956 0.000000 -0.011115 0.000000
# 2 0.004307 0.016659 -0.004220 0.000000 -0.008513 0.000000
# 3 -0.004956 -0.004220 0.009191 0.000000 0.010016 0.000000
# 4 0.000000 0.000000 0.000000 -0.056255 0.000000 0.022690
# 5 -0.011115 -0.008513 0.010016 0.000000 0.067122 0.000000
# 6 0.000000 0.000000 0.000000 0.022690 0.000000 0.014880
#
#
# Mechanical properties :
#
#
# Convention : Reuss Voigt Hill
#
# Bulk Modulus (GPa) = 28.21997 40.46796 34.34396
# Shear Modulus (GPa) = 54.07129 25.95619 40.01374
#
# Velocity S-wave (km/s) = 5.08387 3.52234 4.37337
# Velocity P-wave (km/s) = 6.92459 5.99049 6.47441
#
# Compressibility (1/GPa) = 0.03543590
#
# Stress axis : x y z
#
# Youngs Moduli (GPa) = 51.75118 60.02745 108.80056
#
# Poissons Ratio (x) = -0.25856 0.53920
# Poissons Ratio (y) = -0.22291 0.45917
# Poissons Ratio (z) = 0.25647 0.25333
#
# Static dielectric constant tensor:
#      x y z
#    x 1.708670 0.000000 -0.171680 
#    y 0.000000 1.816550 0.000000 
#    z -0.171680 0.000000 1.584420 
# 
# From -- ./inp_files/65929.got.cif
#   From: 2010.05.17/outbox.cif.g08.bks.cpg/sg5_33_cif.got.tgz:65929.got - 2010.06.03 18:56:24.
