data_PCOD9122370
_publ_section_title
;
Structure prediction by ZEFSAII (Michael W. Deem and Ramdas Pophale) SiO2 
 PCOD9122370
Probable space group: C 2
;
_chemical_formula_sum "Si O2"
_cell_formula_units_Z 28
_cell_length_a 11.638235
_cell_length_b 10.745230
_cell_length_c 20.661091
_cell_angle_alpha 90.000000
_cell_angle_beta 154.364732
_cell_angle_gamma 90.000000
_cell_volume 1117.850036
_symmetry_space_group_name_H-M "C 2"
_symmetry_group_IT_number 5
_symmetry_cell_setting 'monoclinic'
loop_
_space_group_symop_operation_xyz
x,y,z
-x,y,-z
1/2+x,1/2+y,z
1/2-x,1/2+y,-z
loop_
_atom_site_type_symbol
_atom_site_label
_atom_site_fract_x
_atom_site_fract_y
_atom_site_fract_z
Si Si1 0.006376 0.828450 0.079400
Si Si2 0.609423 0.182731 0.344288
Si Si3 0.606139 0.618324 0.680188
Si Si4 0.128475 0.095297 0.169545
Si Si5 0.787526 0.435553 0.678308
Si Si6 0.818599 0.157544 0.665359
Si Si7 0.283325 0.812195 0.940812
O O1 0.158081 0.713946 0.188592
O O2 0.773797 0.859594 0.014776
O O3 0.161579 0.958293 0.159477
O O4 0.000000 0.796701 0.000000
O O5 0.904166 0.178245 0.524063
O O6 0.401923 0.170742 0.297925
O O7 0.490388 0.290923 0.238462
O O8 0.583851 0.055042 0.290348
O O9 0.718569 0.485646 0.714523
O O10 0.442465 0.609140 0.662644
O O11 0.073487 0.086869 0.217438
O O12 0.909795 0.175946 0.021407
O O13 0.500000 0.423693 0.500000
O O14 0.904924 0.301050 0.722978
O O15 0.500000 0.147913 0.500000
O O16 0.500000 0.869764 0.000000
#
# Coordination Sequence:
#
# PCOD9122370 Si02
#       7
#     4   4   4   4   4   4   4
#     4  12  25  46  74 102 139 191 246 304 366 440
#     4  10  19  42  68 103 136 176 239 285 361 434
#     4  11  22  42  73 108 138 182 240 301 356 450
#     4  11  24  44  70  98 140 191 239 289 371 443
#     4   9  20  38  68  99 135 183 226 285 358 423
#     4  11  22  43  63 103 149 181 233 297 362 432
#     4  10  23  44  68  97 141 186 231 300 358 439
#
# _framework density 25.048083999999999
#
# number of rings (size 3 to 8) (size 9 to 14) (size 15 to 20)
#    0.000    1.429    2.857    3.000    0.000    1.143 
#    7.714    0.714    0.000    0.000    0.000    0.000 
#    0.000    0.000    0.000    0.000    0.000    0.000 
#
# Total GULP energy -78219.569633 kJ/mol
# GULP energy per Si atom -5587.112117 kJ/mol
# Density = 2.499107 g / cm^3
# Si number density = 25.048084 Si / 1000 Ang^3
#
#
#
# Elastic Constant Matrix: (Units=GPa)
#
#
# Indices 1 2 3 4 5 6 
#
# 1 211.9809 13.2555 41.2101 0.0025 -14.1751 -0.0009
# 2 13.2555 64.2133 10.1573 0.0043 -4.4398 -0.0008
# 3 41.2101 10.1573 86.9117 0.0109 -13.3394 0.0001
# 4 0.0025 0.0043 0.0109 18.0986 0.0031 -1.5329
# 5 -14.1751 -4.4398 -13.3394 0.0031 39.7421 -0.0013
# 6 -0.0009 -0.0008 0.0001 -1.5329 -0.0013 26.7924
#
#
#
# Elastic Compliance Matrix: (Units=1/GPa)
#
#
# Indices 1 2 3 4 5 6 
#
# 1 0.005268 -0.000658 -0.002260 0.000001 0.001047 0.000000
# 2 -0.000658 0.016004 -0.001392 -0.000003 0.001086 0.000000
# 3 -0.002260 -0.001392 0.013277 -0.000008 0.003495 0.000000
# 4 0.000001 -0.000003 -0.000008 0.055522 -0.000007 0.003177
# 5 0.001047 0.001086 0.003495 -0.000007 0.026830 0.000001
# 6 0.000000 0.000000 0.000000 0.003177 0.000001 0.037506
#
#
# Mechanical properties :
#
#
# Convention : Reuss Voigt Hill
#
# Bulk Modulus (GPa) = 38.56653 54.70574 46.63613
# Shear Modulus (GPa) = 29.12584 36.82550 32.97567
#
# Velocity S-wave (km/s) = 3.41368 3.83847 3.63229
# Velocity P-wave (km/s) = 5.56489 6.44460 6.02083
#
# Compressibility (1/GPa) = 0.02592922
#
# Stress axis : x y z
#
# Youngs Moduli (GPa) = 189.82745 62.48397 75.31979
#
# Poissons Ratio (x) = 0.04109 0.17025
# Poissons Ratio (y) = 0.12482 0.10484
# Poissons Ratio (z) = 0.42907 0.08697
#
# Static dielectric constant tensor:
#      x y z
#    x 2.049090 0.000000 0.039590 
#    y 0.000000 1.906660 0.000000 
#    z 0.039590 0.000000 2.039790 
# 
# From -- ./inp_files/65311.got.cif
#   From: 2010.05.17/outbox.cif.g08.bks.cpg/sg5_33_cif.got.tgz:65311.got - 2010.06.03 18:56:24.
