data_PCOD9122988
_publ_section_title
;
Structure prediction by ZEFSAII (Michael W. Deem and Ramdas Pophale) SiO2 
 PCOD9122988
Probable space group: C 2
;
_chemical_formula_sum "Si O2"
_cell_formula_units_Z 32
_cell_length_a 6.934429
_cell_length_b 18.124971
_cell_length_c 11.161086
_cell_angle_alpha 90.000000
_cell_angle_beta 60.034001
_cell_angle_gamma 90.000000
_cell_volume 1215.272882
_symmetry_space_group_name_H-M "C 2"
_symmetry_group_IT_number 5
_symmetry_cell_setting 'monoclinic'
loop_
_space_group_symop_operation_xyz
x,y,z
-x,y,-z
1/2+x,1/2+y,z
1/2-x,1/2+y,-z
loop_
_atom_site_type_symbol
_atom_site_label
_atom_site_fract_x
_atom_site_fract_y
_atom_site_fract_z
Si Si1 0.573509 0.424120 0.186629
Si Si2 0.171544 0.216701 0.552749
Si Si3 0.468154 0.020600 0.298761
Si Si4 0.663757 0.546399 0.605072
Si Si5 0.329868 0.743164 0.837118
Si Si6 0.816863 0.402069 0.891954
Si Si7 0.243486 0.129984 0.937296
Si Si8 0.040423 0.757647 0.257304
O O1 0.524407 0.491634 0.289203
O O2 0.369738 0.414161 0.153410
O O3 0.591147 0.344467 0.244247
O O4 0.766687 0.440824 0.032703
O O5 0.127238 0.133271 0.609033
O O6 0.409289 0.230423 0.416948
O O7 0.000000 0.234183 0.500000
O O8 0.066507 0.258570 0.697757
O O9 0.248399 0.030545 0.444595
O O10 0.648579 0.032921 0.350520
O O11 0.556854 0.077422 0.169515
O O12 0.477120 0.940459 0.236176
O O13 0.308558 0.815874 0.924520
O O14 0.140373 0.747061 0.793985
O O15 0.274830 0.669540 0.928298
O O16 0.267704 0.200213 0.839873
O O17 0.000000 0.092329 0.000000
#
# Coordination Sequence:
#
# PCOD9122988 Si02
#       8
#     4   4   4   4   4   4   4   4
#     4   9  18  32  60  80 110 143 189 238 286 330
#     4  10  21  36  59  82 114 151 197 235 288 350
#     4  10  22  34  56  84 117 145 190 240 288 345
#     4  10  20  37  55  83 113 153 189 237 291 340
#     4  10  21  37  62  85 114 151 195 245 289 338
#     4   9  18  33  54  86 108 141 191 238 281 335
#     4  12  23  36  58  86 121 155 189 237 295 347
#     4  10  20  40  59  86 113 152 196 243 283 343
#
# _framework density 26.331533
#
# number of rings (size 3 to 8) (size 9 to 14) (size 15 to 20)
#    0.000    2.000    2.500    1.125    7.000    0.000 
#    0.000    0.000    2.750    1.500    0.000    0.000 
#    0.000    0.000    0.000    0.000    0.000    0.000 
#
# Total GULP energy -89451.003661 kJ/mol
# GULP energy per Si atom -5590.687729 kJ/mol
# Density = 2.627160 g / cm^3
# Si number density = 26.331533 Si / 1000 Ang^3
#
#
#
# Elastic Constant Matrix: (Units=GPa)
#
#
# Indices 1 2 3 4 5 6 
#
# 1 55.4273 -8.3426 30.7913 0.0000 9.1462 0.0000
# 2 -8.3426 95.5738 74.6121 0.0000 13.2019 0.0000
# 3 30.7913 74.6121 190.8881 0.0000 -3.6703 0.0000
# 4 0.0000 0.0000 0.0000 53.2902 0.0000 1.1963
# 5 9.1462 13.2019 -3.6703 0.0000 40.2631 0.0000
# 6 0.0000 0.0000 0.0000 1.1963 0.0000 20.0549
#
#
#
# Elastic Compliance Matrix: (Units=1/GPa)
#
#
# Indices 1 2 3 4 5 6 
#
# 1 0.025820 0.010113 -0.008309 0.000000 -0.009939 0.000000
# 2 0.010113 0.020333 -0.009768 0.000000 -0.009855 0.000000
# 3 -0.008309 -0.009768 0.010513 0.000000 0.006049 0.000000
# 4 0.000000 0.000000 0.000000 0.018790 0.000000 -0.001121
# 5 -0.009939 -0.009855 0.006049 0.000000 0.030877 0.000000
# 6 0.000000 0.000000 0.000000 -0.001121 0.000000 0.049930
#
#
# Mechanical properties :
#
#
# Convention : Reuss Voigt Hill
#
# Bulk Modulus (GPa) = 24.54709 59.55673 42.05191
# Shear Modulus (GPa) = 26.91488 39.04353 32.97921
#
# Velocity S-wave (km/s) = 3.20058 3.85485 3.54285
# Velocity P-wave (km/s) = 4.79592 6.51769 5.72194
#
# Compressibility (1/GPa) = 0.04073802
#
# Stress axis : x y z
#
# Youngs Moduli (GPa) = 38.73024 49.18091 95.11691
#
# Poissons Ratio (x) = -0.49738 0.79031
# Poissons Ratio (y) = -0.39169 0.92914
# Poissons Ratio (z) = 0.32180 0.48042
#
# Static dielectric constant tensor:
#      x y z
#    x 2.225120 0.000000 -0.049440 
#    y 0.000000 2.004540 0.000000 
#    z -0.049440 0.000000 2.023360 
# 
# From -- ./inp_files/37359.got.cif
#   From: 2010.05.17/outbox.cif.g08.bks.cpg/sg5_19_cif.got.tgz:37359.got - 2010.06.03 18:56:24.
