data_PCOD9122814
_publ_section_title
;
Structure prediction by ZEFSAII (Michael W. Deem and Ramdas Pophale) SiO2 
 PCOD9122814
Probable space group: C 2
;
_chemical_formula_sum "Si O2"
_cell_formula_units_Z 26
_cell_length_a 10.745329
_cell_length_b 20.520821
_cell_length_c 5.330070
_cell_angle_alpha 90.000000
_cell_angle_beta 106.053751
_cell_angle_gamma 90.000000
_cell_volume 1129.462886
_symmetry_space_group_name_H-M "C 2"
_symmetry_group_IT_number 5
_symmetry_cell_setting 'monoclinic'
loop_
_space_group_symop_operation_xyz
x,y,z
-x,y,-z
1/2+x,1/2+y,z
1/2-x,1/2+y,-z
loop_
_atom_site_type_symbol
_atom_site_label
_atom_site_fract_x
_atom_site_fract_y
_atom_site_fract_z
Si Si1 0.157197 0.619470 0.062913
Si Si2 0.634998 0.933347 0.198941
Si Si3 0.500000 0.295328 0.500000
Si Si4 0.921299 0.282270 0.714335
Si Si5 0.140719 0.880812 0.956554
Si Si6 0.654767 0.047414 0.562266
Si Si7 0.301988 0.251610 0.728669
O O1 0.203012 0.589686 0.353244
O O2 0.209384 0.693135 0.085531
O O3 0.201677 0.576299 0.851990
O O4 0.000000 0.619676 0.000000
O O5 0.607827 0.858289 0.249199
O O6 0.752853 0.933182 0.065479
O O7 0.672226 0.973937 0.467034
O O8 0.500000 0.959226 0.000000
O O9 0.603288 0.343581 0.679351
O O10 0.444443 0.251643 0.688385
O O11 0.791765 0.245533 0.561227
O O12 0.000000 0.278667 0.500000
O O13 0.000000 0.258025 0.000000
O O14 0.207819 0.823818 0.158876
O O15 0.000000 0.899196 0.000000
O O16 0.500000 0.054645 0.500000
#
# Coordination Sequence:
#
# PCOD9122814 Si02
#       7
#     4   4   2   4   4   4   4
#     4  10  22  37  60  93 134 175 220 276 342 405
#     4  11  21  40  66  96 140 185 229 284 340 412
#     4  10  20  36  58  96 136 180 222 276 338 430
#     4  11  24  39  62  98 137 181 228 274 342 411
#     4  10  22  39  61  99 143 184 226 283 346 414
#     4  10  22  38  58  93 133 174 223 279 334 393
#     4  11  22  37  64  94 140 180 225 280 349 409
#
# _framework density 23.019791999999999
#
# number of rings (size 3 to 8) (size 9 to 14) (size 15 to 20)
#    0.000    1.538    1.538    5.077    5.385    2.462 
#    0.000    0.000    0.000    0.000    2.000    4.308 
#    4.615    0.000    0.000    0.000    0.000    0.000 
#
# Total GULP energy -72612.544216 kJ/mol
# GULP energy per Si atom -5585.580324 kJ/mol
# Density = 2.296740 g / cm^3
# Si number density = 23.019792 Si / 1000 Ang^3
#
#
#
# Elastic Constant Matrix: (Units=GPa)
#
#
# Indices 1 2 3 4 5 6 
#
# 1 90.7026 34.9765 50.9205 0.0000 -15.5507 0.0000
# 2 34.9765 82.2162 56.3724 0.0000 -3.4966 0.0000
# 3 50.9205 56.3724 174.4171 0.0000 -13.2130 0.0000
# 4 0.0000 0.0000 0.0000 32.7813 0.0000 -9.3408
# 5 -15.5507 -3.4966 -13.2130 0.0000 40.4746 0.0000
# 6 0.0000 0.0000 0.0000 -9.3408 0.0000 14.3151
#
#
#
# Elastic Compliance Matrix: (Units=1/GPa)
#
#
# Indices 1 2 3 4 5 6 
#
# 1 0.014952 -0.004381 -0.002607 0.000000 0.004515 0.000000
# 2 -0.004381 0.016913 -0.004311 0.000000 -0.001629 0.000000
# 3 -0.002607 -0.004311 0.007981 0.000000 0.001231 0.000000
# 4 0.000000 0.000000 0.000000 0.037472 0.000000 0.024451
# 5 0.004515 -0.001629 0.001231 0.000000 0.026703 0.000000
# 6 0.000000 0.000000 0.000000 0.024451 0.000000 0.085811
#
#
# Mechanical properties :
#
#
# Convention : Reuss Voigt Hill
#
# Bulk Modulus (GPa) = 57.97720 70.20833 64.09277
# Shear Modulus (GPa) = 22.91667 31.18529 27.05098
#
# Velocity S-wave (km/s) = 3.15861 3.68464 3.43172
# Velocity P-wave (km/s) = 6.20829 6.97620 6.60342
#
# Compressibility (1/GPa) = 0.01724816
#
# Stress axis : x y z
#
# Youngs Moduli (GPa) = 66.87904 59.12452 125.29615
#
# Poissons Ratio (x) = 0.25905 0.32667
# Poissons Ratio (y) = 0.29302 0.54013
# Poissons Ratio (z) = 0.17436 0.25487
#
# Static dielectric constant tensor:
#      x y z
#    x 2.048350 0.000000 0.044720 
#    y 0.000000 1.915570 0.000000 
#    z 0.044720 0.000000 1.916860 
# 
# From -- ./inp_files/5507.got.cif
#   From: 2010.05.17/outbox.cif.g08.bks.cpg/sg5_3_cif.got.tgz:5507.got - 2010.06.03 18:56:24.
