data_PCOD9122345
_publ_section_title
;
Structure prediction by ZEFSAII (Michael W. Deem and Ramdas Pophale) SiO2 
 PCOD9122345
Probable space group: C 2
;
_chemical_formula_sum "Si O2"
_cell_formula_units_Z 18
_cell_length_a 16.884896
_cell_length_b 6.899765
_cell_length_c 7.188922
_cell_angle_alpha 90.000000
_cell_angle_beta 120.183886
_cell_angle_gamma 90.000000
_cell_volume 723.968012
_symmetry_space_group_name_H-M "C 2"
_symmetry_group_IT_number 5
_symmetry_cell_setting 'monoclinic'
loop_
_space_group_symop_operation_xyz
x,y,z
-x,y,-z
1/2+x,1/2+y,z
1/2-x,1/2+y,-z
loop_
_atom_site_type_symbol
_atom_site_label
_atom_site_fract_x
_atom_site_fract_y
_atom_site_fract_z
Si Si1 0.146778 0.306150 0.214088
Si Si2 0.500000 0.485390 0.000000
Si Si3 0.159087 0.599507 0.524891
Si Si4 0.311544 0.760003 0.151401
Si Si5 0.110580 0.838780 0.787604
O O1 0.126916 0.506354 0.294871
O O2 0.248366 0.226203 0.385092
O O3 0.143921 0.332180 0.988779
O O4 0.077335 0.130864 0.172586
O O5 0.542510 0.365941 0.879499
O O6 0.178466 0.407935 0.670315
O O7 0.295965 0.244383 0.020192
O O8 0.358162 0.554043 0.239619
O O9 0.407230 0.223744 0.423273
#
# Coordination Sequence:
#
# PCOD9122345 Si02
#       5
#     4   2   4   4   4
#     4  10  24  40  77 102 142 182 242 284 357 407
#     4  10  20  48  74 104 144 192 220 304 362 408
#     4  11  23  41  74 109 133 191 240 287 334 442
#     4  10  19  41  69 102 138 188 233 283 340 431
#     4  10  20  39  74 100 144 182 236 285 354 409
#
# _framework density 24.862976
#
# number of rings (size 3 to 8) (size 9 to 14) (size 15 to 20)
#    0.000    1.778    6.667    0.000    6.222    0.000 
#    0.000    8.889    9.778    0.000    0.000    0.000 
#    0.000    0.000    0.000    0.000    0.000    0.000 
#
# Total GULP energy -50383.338670 kJ/mol
# GULP energy per Si atom -5598.148741 kJ/mol
# Density = 2.480639 g / cm^3
# Si number density = 24.862976 Si / 1000 Ang^3
#
#
#
# Elastic Constant Matrix: (Units=GPa)
#
#
# Indices 1 2 3 4 5 6 
#
# 1 194.0600 65.2508 38.9279 0.0000 -14.2886 0.0000
# 2 65.2508 124.3623 32.7552 0.0000 -31.4037 0.0000
# 3 38.9279 32.7552 57.0674 0.0000 -17.7996 0.0000
# 4 0.0000 0.0000 0.0000 1.5503 0.0000 -67.5150
# 5 -14.2886 -31.4037 -17.7996 0.0000 31.6647 0.0000
# 6 0.0000 0.0000 0.0000 -67.5150 0.0000 24.0198
#
#
#
# Elastic Compliance Matrix: (Units=1/GPa)
#
#
# Indices 1 2 3 4 5 6 
#
# 1 0.006750 -0.003144 -0.003422 0.000000 -0.001996 0.000000
# 2 -0.003144 0.012781 -0.002037 0.000000 0.010111 0.000000
# 3 -0.003422 -0.002037 0.024149 0.000000 0.010010 0.000000
# 4 0.000000 0.000000 0.000000 -0.005313 0.000000 -0.014934
# 5 -0.001996 0.010111 0.010010 0.000000 0.046335 0.000000
# 6 0.000000 0.000000 0.000000 -0.014934 0.000000 -0.000343
#
#
# Mechanical properties :
#
#
# Convention : Reuss Voigt Hill
#
# Bulk Modulus (GPa) = 37.77546 72.15083 54.96314
# Shear Modulus (GPa) = 45.29403 27.35068 36.32235
#
# Velocity S-wave (km/s) = 4.27282 3.32031 3.82632
# Velocity P-wave (km/s) = 6.29040 6.61677 6.45565
#
# Compressibility (1/GPa) = 0.02647221
#
# Stress axis : x y z
#
# Youngs Moduli (GPa) = 148.15349 78.24378 41.40950
#
# Poissons Ratio (x) = 0.24601 0.14171
# Poissons Ratio (y) = 0.46582 0.08436
# Poissons Ratio (z) = 0.50701 0.15940
#
# Static dielectric constant tensor:
#      x y z
#    x 1.969760 0.000000 0.020370 
#    y 0.000000 1.959940 0.000000 
#    z 0.020370 0.000000 2.127370 
# 
# From -- ./inp_files/25820.got.cif
#   From: 2010.05.17/outbox.cif.g08.bks.cpg/sg5_13_cif.got.tgz:25820.got - 2010.06.03 18:56:24.
