data_PCOD9122071
_publ_section_title
;
Structure prediction by ZEFSAII (Michael W. Deem and Ramdas Pophale) SiO2 
 PCOD9122071
Probable space group: C 2
;
_chemical_formula_sum "Si O2"
_cell_formula_units_Z 26
_cell_length_a 7.044642
_cell_length_b 19.841981
_cell_length_c 9.059359
_cell_angle_alpha 90.000000
_cell_angle_beta 123.380261
_cell_angle_gamma 90.000000
_cell_volume 1057.419672
_symmetry_space_group_name_H-M "C 2"
_symmetry_group_IT_number 5
_symmetry_cell_setting 'monoclinic'
loop_
_space_group_symop_operation_xyz
x,y,z
-x,y,-z
1/2+x,1/2+y,z
1/2-x,1/2+y,-z
loop_
_atom_site_type_symbol
_atom_site_label
_atom_site_fract_x
_atom_site_fract_y
_atom_site_fract_z
Si Si1 0.997989 0.589860 0.237926
Si Si2 0.815591 0.007012 0.557834
Si Si3 0.372246 0.238346 0.641915
Si Si4 0.514924 0.749254 0.757516
Si Si5 0.962933 0.880255 0.309165
Si Si6 0.375503 0.601971 0.137851
Si Si7 0.500000 0.861711 0.000000
O O1 0.085445 0.532294 0.385046
O O2 0.009714 0.665635 0.308455
O O3 0.189303 0.595996 0.190444
O O4 0.758787 0.575201 0.060223
O O5 0.000000 0.006149 0.500000
O O6 0.841264 0.934172 0.645355
O O7 0.908626 0.063063 0.707939
O O8 0.195052 0.244626 0.701274
O O9 0.525476 0.303379 0.737912
O O10 0.226616 0.247783 0.430208
O O11 0.559882 0.679420 0.859488
O O12 0.540838 0.813069 0.875469
O O13 0.000000 0.874383 0.500000
O O14 0.720122 0.904911 0.143535
#
# Coordination Sequence:
#
# PCOD9122071 Si02
#       7
#     4   4   4   4   4   4   2
#     4   9  16  29  56  83 111 146 199 236 290 332
#     4   9  18  31  50  80 116 151 189 237 289 344
#     4  10  19  38  62  89 117 158 195 250 291 353
#     4  10  20  36  64  89 117 150 202 243 300 346
#     4  11  23  37  55  88 126 159 196 244 298 349
#     4   9  16  30  53  86 108 145 192 244 278 351
#     4  12  24  38  58  92 120 156 194 250 296 354
#
# _framework density 24.588158
#
# number of rings (size 3 to 8) (size 9 to 14) (size 15 to 20)
#    0.000    2.154    3.077    0.923    0.000    5.538 
#    0.000    0.000    0.000    1.846   12.000    0.000 
#    0.000    0.000    0.000    0.000    0.000    0.000 
#
# Total GULP energy -72682.087775 kJ/mol
# GULP energy per Si atom -5590.929829 kJ/mol
# Density = 2.453219 g / cm^3
# Si number density = 24.588158 Si / 1000 Ang^3
#
#
#
# Elastic Constant Matrix: (Units=GPa)
#
#
# Indices 1 2 3 4 5 6 
#
# 1 51.2158 2.1957 31.0540 0.0000 0.6180 0.0000
# 2 2.1957 96.4516 32.8710 0.0000 12.5337 0.0000
# 3 31.0540 32.8710 169.3970 0.0000 31.1863 0.0000
# 4 0.0000 0.0000 0.0000 -4.1887 0.0000 6.2573
# 5 0.6180 12.5337 31.1863 0.0000 52.4106 0.0000
# 6 0.0000 0.0000 0.0000 6.2573 0.0000 24.4929
#
#
#
# Elastic Compliance Matrix: (Units=1/GPa)
#
#
# Indices 1 2 3 4 5 6 
#
# 1 0.022293 0.000781 -0.004667 0.000000 0.002327 0.000000
# 2 0.000781 0.011242 -0.002053 0.000000 -0.001476 0.000000
# 3 -0.004667 -0.002053 0.007925 0.000000 -0.004170 0.000000
# 4 0.000000 0.000000 0.000000 -0.172793 0.000000 0.044144
# 5 0.002327 -0.001476 -0.004170 0.000000 0.021887 0.000000
# 6 0.000000 0.000000 0.000000 0.044144 0.000000 0.029550
#
#
# Mechanical properties :
#
#
# Convention : Reuss Voigt Hill
#
# Bulk Modulus (GPa) = 33.80470 49.92284 41.86377
# Shear Modulus (GPa) = -85.97260 31.27256 -27.35002
#
# Velocity S-wave (km/s) = -5.91954 3.57018 -3.33877
# Velocity P-wave (km/s) = 5.73960 6.11086 1.48316
#
# Compressibility (1/GPa) = 0.02958168
#
# Stress axis : x y z
#
# Youngs Moduli (GPa) = 44.85651 88.95603 126.18682
#
# Poissons Ratio (x) = -0.06943 0.58888
# Poissons Ratio (y) = -0.03501 0.25902
# Poissons Ratio (z) = 0.20933 0.18260
#
# Static dielectric constant tensor:
#      x y z
#    x 2.068710 0.000000 -0.021620 
#    y 0.000000 1.947900 0.000000 
#    z -0.021620 0.000000 1.899720 
# 
# From -- ./inp_files/17008.got.cif
#   From: 2010.05.17/outbox.cif.g08.bks.cpg/sg5_9_cif.got.tgz:17008.got - 2010.06.03 18:56:24.
