data_PCOD9122363
_publ_section_title
;
Structure prediction by ZEFSAII (Michael W. Deem and Ramdas Pophale) SiO2 
 PCOD9122363
Probable space group: C 2
;
_chemical_formula_sum "Si O2"
_cell_formula_units_Z 32
_cell_length_a 28.758933
_cell_length_b 8.603576
_cell_length_c 10.404272
_cell_angle_alpha 90.000000
_cell_angle_beta 145.606620
_cell_angle_gamma 90.000000
_cell_volume 1454.163557
_symmetry_space_group_name_H-M "C 2"
_symmetry_group_IT_number 5
_symmetry_cell_setting 'monoclinic'
loop_
_space_group_symop_operation_xyz
x,y,z
-x,y,-z
1/2+x,1/2+y,z
1/2-x,1/2+y,-z
loop_
_atom_site_type_symbol
_atom_site_label
_atom_site_fract_x
_atom_site_fract_y
_atom_site_fract_z
Si Si1 0.240568 0.901220 0.773705
Si Si2 0.752832 0.137449 0.432884
Si Si3 0.415652 0.803849 0.742919
Si Si4 0.992864 0.068677 0.214736
Si Si5 0.806292 0.569266 0.415599
Si Si6 0.647870 0.371222 0.033396
Si Si7 0.381133 0.483804 0.295111
Si Si8 0.577547 0.805985 0.751789
O O1 0.195206 0.734271 0.657810
O O2 0.225276 0.989339 0.604605
O O3 0.200940 0.980762 0.807834
O O4 0.338415 0.890933 0.021505
O O5 0.834275 0.246271 0.635217
O O6 0.711986 0.099758 0.475234
O O7 0.686633 0.226364 0.192889
O O8 0.446582 0.642451 0.750073
O O9 0.380226 0.944662 0.574961
O O10 0.500000 0.862389 0.000000
O O11 0.046281 0.969422 0.436293
O O12 0.957488 0.224375 0.200618
O O13 0.914512 0.959932 0.012750
O O14 0.724995 0.483164 0.182033
O O15 0.613373 0.362287 0.809715
O O16 0.396084 0.656065 0.272787
O O17 0.500000 0.882363 0.500000
#
# Coordination Sequence:
#
# PCOD9122363 Si02
#       8
#     4   4   4   4   4   4   4   4
#     4  12  22  41  67 100 134 173 219 286 334 402
#     4  11  25  42  68  96 132 182 227 271 343 399
#     4  11  24  42  69  93 125 180 229 276 335 414
#     4  10  19  42  65  96 127 175 220 266 341 404
#     4  11  24  43  63  94 131 174 225 281 331 390
#     4  10  21  41  69  91 131 179 215 278 327 412
#     4  10  21  38  66  99 130 167 227 266 343 401
#     4   9  21  39  65  91 129 174 210 265 325 403
#
# _framework density 22.005779
#
# number of rings (size 3 to 8) (size 9 to 14) (size 15 to 20)
#    0.000    1.500    3.750    3.375    3.500    1.000 
#    2.250    1.875    0.000    0.000    0.000    0.000 
#    0.000    0.000    0.000    0.000    0.000    0.000 
#
# Total GULP energy -89211.593509 kJ/mol
# GULP energy per Si atom -5575.724594 kJ/mol
# Density = 2.195569 g / cm^3
# Si number density = 22.005779 Si / 1000 Ang^3
#
#
#
# Elastic Constant Matrix: (Units=GPa)
#
#
# Indices 1 2 3 4 5 6 
#
# 1 66.9209 -5.5725 7.4935 0.0000 8.0681 0.0000
# 2 -5.5725 40.3152 24.2871 0.0000 3.4458 0.0000
# 3 7.4935 24.2871 126.4115 0.0000 20.0854 0.0000
# 4 0.0000 0.0000 0.0000 41.5304 0.0000 10.9221
# 5 8.0681 3.4458 20.0854 0.0000 28.9092 0.0000
# 6 0.0000 0.0000 0.0000 10.9221 0.0000 2.8698
#
#
#
# Elastic Compliance Matrix: (Units=1/GPa)
#
#
# Indices 1 2 3 4 5 6 
#
# 1 0.015798 0.003059 -0.000861 0.000000 -0.004175 0.000000
# 2 0.003059 0.028649 -0.005629 0.000000 -0.000358 0.000000
# 3 -0.000861 -0.005629 0.010003 0.000000 -0.006038 0.000000
# 4 0.000000 0.000000 0.000000-26.452273 0.000000100.673928
# 5 -0.004175 -0.000358 -0.006038 0.000000 0.039994 0.000000
# 6 0.000000 0.000000 0.000000100.673928 0.000000**********
#
#
# Mechanical properties :
#
#
# Convention : Reuss Voigt Hill
#
# Bulk Modulus (GPa) = 21.01368 31.78485 26.39927
# Shear Modulus (GPa) = -0.01222 28.49117 14.23947
#
# Velocity S-wave (km/s) = -0.07460 3.60212 2.54653
# Velocity P-wave (km/s) = 3.09232 5.63698 4.54632
#
# Compressibility (1/GPa) = 0.04758805
#
# Stress axis : x y z
#
# Youngs Moduli (GPa) = 63.30102 34.90545 99.97444
#
# Poissons Ratio (x) = -0.10678 0.08605
# Poissons Ratio (y) = -0.19364 0.56273
# Poissons Ratio (z) = 0.05449 0.19647
#
# Static dielectric constant tensor:
#      x y z
#    x 1.875110 0.000000 -0.031020 
#    y 0.000000 1.806500 0.000000 
#    z -0.031020 0.000000 1.899530 
# 
# From -- ./inp_files/48403.got.cif
#   From: 2010.05.17/outbox.cif.g08.bks.cpg/sg5_25_cif.got.tgz:48403.got - 2010.06.03 18:56:24.
