data_PCOD9122799
_publ_section_title
;
Structure prediction by ZEFSAII (Michael W. Deem and Ramdas Pophale) SiO2 
 PCOD9122799
Probable space group: C 2
;
_chemical_formula_sum "Si O2"
_cell_formula_units_Z 30
_cell_length_a 8.909599
_cell_length_b 11.454327
_cell_length_c 15.200910
_cell_angle_alpha 90.000000
_cell_angle_beta 84.158879
_cell_angle_gamma 90.000000
_cell_volume 1543.250972
_symmetry_space_group_name_H-M "C 2"
_symmetry_group_IT_number 5
_symmetry_cell_setting 'monoclinic'
loop_
_space_group_symop_operation_xyz
x,y,z
-x,y,-z
1/2+x,1/2+y,z
1/2-x,1/2+y,-z
loop_
_atom_site_type_symbol
_atom_site_label
_atom_site_fract_x
_atom_site_fract_y
_atom_site_fract_z
Si Si1 0.816869 0.836030 0.149596
Si Si2 0.412868 0.039204 0.844764
Si Si3 0.005048 0.956273 0.275260
Si Si4 0.209034 0.611363 0.734364
Si Si5 0.000000 0.692340 0.000000
Si Si6 0.584936 0.979240 0.586040
Si Si7 0.302905 0.061800 0.669615
Si Si8 0.865617 0.803864 0.580008
O O1 0.948886 0.915189 0.183654
O O2 0.790676 0.741515 0.228788
O O3 0.881479 0.770158 0.061361
O O4 0.671656 0.916004 0.140412
O O5 0.585923 0.041396 0.800626
O O6 0.324037 0.102357 0.769509
O O7 0.414593 0.111913 0.934069
O O8 0.072788 0.855202 0.331768
O O9 0.858289 0.005687 0.332868
O O10 0.129485 0.055341 0.261934
O O11 0.160596 0.587377 0.635505
O O12 0.500000 0.001111 0.500000
O O13 0.714136 0.880891 0.569087
O O14 0.432704 0.962178 0.653024
O O15 0.324423 0.170081 0.603205
O O16 0.000000 0.814002 0.500000
#
# Coordination Sequence:
#
# PCOD9122799 Si02
#       8
#     4   4   4   4   2   4   4   4
#     4  10  21  39  61  83 115 153 186 231 287 336
#     4   9  20  39  60  84 117 149 186 235 282 338
#     4  10  21  37  59  84 110 147 195 234 275 337
#     4   9  20  37  59  84 114 151 192 232 280 338
#     4  10  20  36  58  88 118 146 184 232 286 342
#     4  10  20  37  56  81 116 147 186 238 281 329
#     4  10  21  38  58  80 111 150 190 231 279 336
#     4  11  22  36  57  83 113 152 189 233 288 330
#
# _framework density 19.439482999999999
#
# number of rings (size 3 to 8) (size 9 to 14) (size 15 to 20)
#    0.000    2.133    0.000    3.600    0.000    6.400 
#    0.000   11.333    0.000    0.000    0.000    0.000 
#    0.000    0.000    0.000    0.000    0.000    0.000 
#
# Total GULP energy -83545.405381 kJ/mol
# GULP energy per Si atom -5569.693692 kJ/mol
# Density = 1.939524 g / cm^3
# Si number density = 19.439483 Si / 1000 Ang^3
#
#
#
# Elastic Constant Matrix: (Units=GPa)
#
#
# Indices 1 2 3 4 5 6 
#
# 1 127.8604 65.2428 28.7081 0.0000 -1.2101 0.0000
# 2 65.2428 90.4885 44.5687 0.0000 -6.1890 0.0000
# 3 28.7081 44.5687 98.3694 0.0000 4.9226 0.0000
# 4 0.0000 0.0000 0.0000 15.8164 0.0000 -13.7441
# 5 -1.2101 -6.1890 4.9226 0.0000 17.2032 0.0000
# 6 0.0000 0.0000 0.0000 -13.7441 0.0000 30.1690
#
#
#
# Elastic Compliance Matrix: (Units=1/GPa)
#
#
# Indices 1 2 3 4 5 6 
#
# 1 0.012524 -0.009646 0.000857 0.000000 -0.002834 0.000000
# 2 -0.009646 0.022554 -0.007889 0.000000 0.009693 0.000000
# 3 0.000857 -0.007889 0.013827 0.000000 -0.006734 0.000000
# 4 0.000000 0.000000 0.000000 0.104657 0.000000 0.047679
# 5 -0.002834 0.009693 -0.006734 0.000000 0.063344 0.000000
# 6 0.000000 0.000000 0.000000 0.047679 0.000000 0.054868
#
#
# Mechanical properties :
#
#
# Convention : Reuss Voigt Hill
#
# Bulk Modulus (GPa) = 64.30860 65.97304 65.14082
# Shear Modulus (GPa) = 16.11290 24.51762 20.31526
#
# Velocity S-wave (km/s) = 2.88214 3.55523 3.23623
# Velocity P-wave (km/s) = 6.65048 7.13191 6.89540
#
# Compressibility (1/GPa) = 0.01555002
#
# Stress axis : x y z
#
# Youngs Moduli (GPa) = 79.84930 44.33774 72.32329
#
# Poissons Ratio (x) = 0.42767 -0.06199
# Poissons Ratio (y) = 0.77020 0.57054
# Poissons Ratio (z) = -0.06844 0.34977
#
# Static dielectric constant tensor:
#      x y z
#    x 1.690970 0.000000 -0.024370 
#    y 0.000000 1.712010 0.000000 
#    z -0.024370 0.000000 1.752070 
# 
# From -- ./inp_files/50305.got.cif
#   From: 2010.05.17/outbox.cif.g08.bks.cpg/sg5_26_cif.got.tgz:50305.got - 2010.06.03 18:56:24.
