data_PCOD9122905
_publ_section_title
;
Structure prediction by ZEFSAII (Michael W. Deem and Ramdas Pophale) SiO2 
 PCOD9122905
Probable space group: C 2
;
_chemical_formula_sum "Si O2"
_cell_formula_units_Z 22
_cell_length_a 15.741528
_cell_length_b 12.638969
_cell_length_c 20.634748
_cell_angle_alpha 90.000000
_cell_angle_beta 161.324136
_cell_angle_gamma 90.000000
_cell_volume 1314.613078
_symmetry_space_group_name_H-M "C 2"
_symmetry_group_IT_number 5
_symmetry_cell_setting 'monoclinic'
loop_
_space_group_symop_operation_xyz
x,y,z
-x,y,-z
1/2+x,1/2+y,z
1/2-x,1/2+y,-z
loop_
_atom_site_type_symbol
_atom_site_label
_atom_site_fract_x
_atom_site_fract_y
_atom_site_fract_z
Si Si1 0.000000 0.552181 0.500000
Si Si2 0.762243 0.891043 0.379202
Si Si3 0.238713 0.260583 0.971972
Si Si4 0.258572 0.186107 0.443510
Si Si5 0.004180 0.941562 0.926540
Si Si6 0.503111 0.091943 0.749440
O O1 0.875374 0.624903 0.466020
O O2 0.772913 0.483455 0.301571
O O3 0.838476 0.809821 0.492555
O O4 0.000000 0.895085 0.500000
O O5 0.676119 0.005039 0.343241
O O6 0.492265 0.831092 0.159417
O O7 0.407015 0.340196 0.050350
O O8 0.411882 0.189322 0.143976
O O9 0.058907 0.187055 0.795185
O O10 0.358667 0.134944 0.581306
O O11 0.000000 0.919330 0.000000
O O12 0.227939 0.030968 0.076434
#
# Coordination Sequence:
#
# PCOD9122905 Si02
#       6
#     2   4   4   4   4   4
#     4  12  20  36  68  86 116 158 208 248 290 338
#     4   9  20  41  57  84 118 147 196 243 278 356
#     4   9  22  39  58  84 122 150 194 246 290 347
#     4  10  20  36  63  84 113 154 198 239 289 350
#     4  11  22  37  61  91 118 153 206 246 290 355
#     4  11  21  38  63  84 120 159 189 245 304 339
#
# _framework density 16.734961999999999
#
# number of rings (size 3 to 8) (size 9 to 14) (size 15 to 20)
#    1.091    0.727    4.545    0.000    0.000    2.909 
#    4.909    0.000    0.000    0.000    0.000    0.000 
#    0.000    0.000    0.000    0.000    0.000    0.000 
#
# Total GULP energy -61250.834632 kJ/mol
# GULP energy per Si atom -5568.257694 kJ/mol
# Density = 1.669687 g / cm^3
# Si number density = 16.734962 Si / 1000 Ang^3
#
#
#
# Elastic Constant Matrix: (Units=GPa)
#
#
# Indices 1 2 3 4 5 6 
#
# 1 81.3492 63.8167 39.7739 0.0826 -4.0314 -0.0467
# 2 63.8167 106.1995 56.8640 0.2970 -9.8917 -0.1563
# 3 39.7739 56.8640 93.5249 0.2121 -15.7422 -0.1121
# 4 0.0826 0.2970 0.2121 -57.8524 0.1167 50.1399
# 5 -4.0314 -9.8917 -15.7422 0.1167 30.0652 -0.0563
# 6 -0.0467 -0.1563 -0.1121 50.1399 -0.0563 -1.9381
#
#
#
# Elastic Compliance Matrix: (Units=1/GPa)
#
#
# Indices 1 2 3 4 5 6 
#
# 1 0.023692 -0.013121 -0.002511 -0.000026 -0.002455 0.000025
# 2 -0.013121 0.021228 -0.007071 0.000039 0.001522 -0.000033
# 3 -0.002511 -0.007071 0.017120 0.000020 0.006301 -0.000018
# 4 -0.000026 0.000039 0.000020 0.000807 0.000056 0.020875
# 5 -0.002455 0.001522 0.006301 0.000056 0.036732 -0.000053
# 6 0.000025 -0.000033 -0.000018 0.020875 -0.000053 0.024086
#
#
# Mechanical properties :
#
#
# Convention : Reuss Voigt Hill
#
# Bulk Modulus (GPa) = 60.11605 66.88699 63.50152
# Shear Modulus (GPa) = 28.63433 2.09622 15.36528
#
# Velocity S-wave (km/s) = 4.14097 1.12041 3.03339
# Velocity P-wave (km/s) = 7.67228 6.45979 7.09200
#
# Compressibility (1/GPa) = 0.01663449
#
# Stress axis : x y z
#
# Youngs Moduli (GPa) = 42.20888 47.10676 58.41103
#
# Poissons Ratio (x) = 0.61807 0.14668
# Poissons Ratio (y) = 0.55381 0.41303
# Poissons Ratio (z) = 0.10599 0.33309
#
# Static dielectric constant tensor:
#      x y z
#    x 2.404480 -0.000280 0.251680 
#    y -0.000280 1.573260 -0.000080 
#    z 0.251680 -0.000080 1.625170 
# 
# From -- ./inp_files/19428.got.cif
#   From: 2010.05.17/outbox.cif.g08.bks.cpg/sg5_10_cif.got.tgz:19428.got - 2010.06.03 18:56:24.
