data_PCOD9122084
_publ_section_title
;
Structure prediction by ZEFSAII (Michael W. Deem and Ramdas Pophale) SiO2 
 PCOD9122084
Probable space group: C 2
;
_chemical_formula_sum "Si O2"
_cell_formula_units_Z 24
_cell_length_a 17.052218
_cell_length_b 8.713598
_cell_length_c 21.363628
_cell_angle_alpha 90.000000
_cell_angle_beta 162.082551
_cell_angle_gamma 90.000000
_cell_volume 976.574201
_symmetry_space_group_name_H-M "C 2"
_symmetry_group_IT_number 5
_symmetry_cell_setting 'monoclinic'
loop_
_space_group_symop_operation_xyz
x,y,z
-x,y,-z
1/2+x,1/2+y,z
1/2-x,1/2+y,-z
loop_
_atom_site_type_symbol
_atom_site_label
_atom_site_fract_x
_atom_site_fract_y
_atom_site_fract_z
Si Si1 0.117834 0.630720 0.757909
Si Si2 0.562707 0.553722 0.360675
Si Si3 0.768359 0.882082 0.239109
Si Si4 0.870012 0.801927 0.966842
Si Si5 0.515347 0.801125 0.866398
Si Si6 0.987650 0.956998 0.174698
O O1 0.157881 0.705703 0.720405
O O2 0.221455 0.459450 0.839473
O O3 0.833181 0.633603 0.566604
O O4 0.295596 0.735893 0.936330
O O5 0.484541 0.476392 0.366817
O O6 0.329710 0.668707 0.168255
O O7 0.591775 0.437894 0.323773
O O8 0.704715 0.891067 0.263905
O O9 0.500000 0.919337 0.000000
O O10 0.051119 0.848993 0.163421
O O11 0.000000 0.759737 0.000000
O O12 0.442716 0.635913 0.783169
O O13 0.684373 0.914424 0.952219
#
# Coordination Sequence:
#
# PCOD9122084 Si02
#       6
#     4   4   4   4   4   4
#     4  10  21  38  62  90 125 160 197 253 315 356
#     4  12  22  37  67  92 119 160 208 256 306 361
#     4  10  19  38  63  89 117 162 205 243 305 370
#     4  11  24  40  61  90 120 164 208 250 301 370
#     4  10  21  39  65  89 124 164 209 255 300 377
#     4  11  21  39  63  92 121 162 213 250 302 362
#
# _framework density 24.575707000000001
#
# number of rings (size 3 to 8) (size 9 to 14) (size 15 to 20)
#    0.000    1.333    5.000    4.000    0.000    0.000 
#    0.000    3.333    0.000    4.000    0.000    0.000 
#    0.000    0.000    0.000    0.000    0.000    0.000 
#
# Total GULP energy -66957.141993 kJ/mol
# GULP energy per Si atom -5579.761833 kJ/mol
# Density = 2.451977 g / cm^3
# Si number density = 24.575707 Si / 1000 Ang^3
#
#
#
# Elastic Constant Matrix: (Units=GPa)
#
#
# Indices 1 2 3 4 5 6 
#
# 1 148.8140 26.5567 30.3444 0.0128 20.2787 -0.0009
# 2 26.5567 82.5047 9.0062 0.0297 -8.7227 -0.0074
# 3 30.3444 9.0062 69.7805 0.0234 16.0453 -0.0031
# 4 0.0128 0.0297 0.0234 28.6278 0.0107 13.9155
# 5 20.2787 -8.7227 16.0453 0.0107 23.6098 -0.0010
# 6 -0.0009 -0.0074 -0.0031 13.9155 -0.0010 44.9779
#
#
#
# Elastic Compliance Matrix: (Units=1/GPa)
#
#
# Indices 1 2 3 4 5 6 
#
# 1 0.008700 -0.003440 -0.001575 0.000005 -0.007673 -0.000002
# 2 -0.003440 0.014606 -0.002737 -0.000019 0.010211 0.000008
# 3 -0.001575 -0.002737 0.018122 -0.000008 -0.011974 0.000003
# 4 0.000005 -0.000019 -0.000008 0.041114 -0.000025 -0.012720
# 5 -0.007673 0.010211 -0.011974 -0.000025 0.060856 0.000010
# 6 -0.000002 0.000008 0.000003 -0.012720 0.000010 0.026169
#
#
# Mechanical properties :
#
#
# Convention : Reuss Voigt Hill
#
# Bulk Modulus (GPa) = 38.57349 48.10154 43.33751
# Shear Modulus (GPa) = 25.81135 35.12258 30.46696
#
# Velocity S-wave (km/s) = 3.24432 3.78452 3.52478
# Velocity P-wave (km/s) = 5.45564 6.22191 5.85133
#
# Compressibility (1/GPa) = 0.02592454
#
# Stress axis : x y z
#
# Youngs Moduli (GPa) = 114.93638 68.46461 55.18088
#
# Poissons Ratio (x) = 0.23551 0.08691
# Poissons Ratio (y) = 0.39536 0.15104
# Poissons Ratio (z) = 0.18103 0.18740
#
# Static dielectric constant tensor:
#      x y z
#    x 2.132900 0.000000 -0.066330 
#    y 0.000000 2.023390 0.000000 
#    z -0.066330 0.000000 1.991970 
# 
# From -- ./inp_files/69162.got.cif
#   From: 2010.05.17/outbox.cif.g08.bks.cpg/sg5_35_cif.got.tgz:69162.got - 2010.06.03 18:56:24.
