data_PCOD9122556
_publ_section_title
;
Structure prediction by ZEFSAII (Michael W. Deem and Ramdas Pophale) SiO2 
 PCOD9122556
Probable space group: C 2
;
_chemical_formula_sum "Si O2"
_cell_formula_units_Z 22
_cell_length_a 17.583189
_cell_length_b 5.290055
_cell_length_c 14.564059
_cell_angle_alpha 90.000000
_cell_angle_beta 39.125869
_cell_angle_gamma 90.000000
_cell_volume 854.845447
_symmetry_space_group_name_H-M "C 2"
_symmetry_group_IT_number 5
_symmetry_cell_setting 'monoclinic'
loop_
_space_group_symop_operation_xyz
x,y,z
-x,y,-z
1/2+x,1/2+y,z
1/2-x,1/2+y,-z
loop_
_atom_site_type_symbol
_atom_site_label
_atom_site_fract_x
_atom_site_fract_y
_atom_site_fract_z
Si Si1 0.014803 0.140590 0.330666
Si Si2 0.850943 0.760535 0.005085
Si Si3 0.773221 0.770804 0.866684
Si Si4 0.926688 0.495766 0.270880
Si Si5 0.314287 0.292371 0.549594
Si Si6 0.000000 0.523864 0.500000
O O1 0.017009 0.288705 0.232309
O O2 0.049206 0.343216 0.373958
O O3 0.090617 0.885105 0.274300
O O4 0.877309 0.063219 0.475851
O O5 0.786936 0.742531 0.964713
O O6 0.992658 0.707034 0.855084
O O7 0.803039 0.508573 0.098289
O O8 0.798784 0.018787 0.094803
O O9 0.826592 0.340534 0.309489
O O10 0.853943 0.628754 0.423135
O O11 0.385093 0.171712 0.568156
#
# Coordination Sequence:
#
# PCOD9122556 Si02
#       6
#     4   4   4   4   4   2
#     4  11  21  40  62  99 144 185 231 296 346 437
#     4  10  20  34  57  98 136 177 216 291 351 413
#     4  10  20  34  60  92 140 174 227 280 351 407
#     4  11  21  36  65 102 147 174 232 294 373 410
#     4  11  22  39  63 100 143 185 225 295 353 441
#     4  10  26  40  62  98 144 192 240 272 368 426
#
# _framework density 25.735644000000001
#
# number of rings (size 3 to 8) (size 9 to 14) (size 15 to 20)
#    0.000    1.455    3.636    3.818    2.545    0.000 
#    0.000    0.000    0.000    0.000    0.000   12.727 
#    0.000    0.000    0.000    0.000    0.000    0.000 
#
# Total GULP energy -61453.230172 kJ/mol
# GULP energy per Si atom -5586.657288 kJ/mol
# Density = 2.567707 g / cm^3
# Si number density = 25.735644 Si / 1000 Ang^3
#
#
#
# Elastic Constant Matrix: (Units=GPa)
#
#
# Indices 1 2 3 4 5 6 
#
# 1 103.1047 56.5078 55.2898 -0.0027 -30.2841 -0.0003
# 2 56.5078 184.1596 60.9624 -0.0162 -29.3184 0.0100
# 3 55.2898 60.9624 109.8894 -0.0075 -49.0002 0.0030
# 4 -0.0027 -0.0162 -0.0075 50.8811 0.0039 -6.6286
# 5 -30.2841 -29.3184 -49.0002 0.0039 29.2810 -0.0004
# 6 -0.0003 0.0100 0.0030 -6.6286 -0.0004 28.2412
#
#
#
# Elastic Compliance Matrix: (Units=1/GPa)
#
#
# Indices 1 2 3 4 5 6 
#
# 1 0.014902 -0.002410 -0.001435 -0.000001 0.010597 0.000001
# 2 -0.002410 0.007069 -0.002617 0.000001 0.000205 -0.000002
# 3 -0.001435 -0.002617 0.037209 0.000000 0.058162 -0.000002
# 4 -0.000001 0.000001 0.000000 0.020274 -0.000002 0.004759
# 5 0.010597 0.000205 0.058162 -0.000002 0.142648 -0.000004
# 6 0.000001 -0.000002 -0.000002 0.004759 -0.000004 0.036526
#
#
# Mechanical properties :
#
#
# Convention : Reuss Voigt Hill
#
# Bulk Modulus (GPa) = 21.61992 82.51929 52.06960
# Shear Modulus (GPa) = 17.42332 36.64025 27.03178
#
# Velocity S-wave (km/s) = 2.60477 3.77731 3.24445
# Velocity P-wave (km/s) = 4.17916 7.15248 5.85762
#
# Compressibility (1/GPa) = 0.04625365
#
# Stress axis : x y z
#
# Youngs Moduli (GPa) = 67.10374 141.46862 26.87525
#
# Poissons Ratio (x) = 0.34099 0.03857
# Poissons Ratio (y) = 0.16175 0.07034
# Poissons Ratio (z) = 0.09632 0.37029
#
# Static dielectric constant tensor:
#      x y z
#    x 2.010580 0.000000 0.036550 
#    y 0.000000 2.073710 0.000000 
#    z 0.036550 0.000000 2.252090 
# 
# From -- ./inp_files/61992.got.cif
#   From: 2010.05.17/outbox.cif.g08.bks.cpg/sg5_31_cif.got.tgz:61992.got - 2010.06.03 18:56:24.
