data_PCOD9122674
_publ_section_title
;
Structure prediction by ZEFSAII (Michael W. Deem and Ramdas Pophale) SiO2 
 PCOD9122674
Probable space group: C 2
;
_chemical_formula_sum "Si O2"
_cell_formula_units_Z 20
_cell_length_a 13.567115
_cell_length_b 7.916694
_cell_length_c 16.396212
_cell_angle_alpha 90.000000
_cell_angle_beta 28.565542
_cell_angle_gamma 90.000000
_cell_volume 842.076479
_symmetry_space_group_name_H-M "C 2"
_symmetry_group_IT_number 5
_symmetry_cell_setting 'monoclinic'
loop_
_space_group_symop_operation_xyz
x,y,z
-x,y,-z
1/2+x,1/2+y,z
1/2-x,1/2+y,-z
loop_
_atom_site_type_symbol
_atom_site_label
_atom_site_fract_x
_atom_site_fract_y
_atom_site_fract_z
Si Si1 0.771364 0.753590 0.376859
Si Si2 0.596119 0.104367 0.504375
Si Si3 0.201901 0.073037 0.909385
Si Si4 0.535360 0.544380 0.666857
Si Si5 0.819718 0.704652 0.993279
O O1 0.669369 0.921280 0.415272
O O2 0.610446 0.617571 0.526727
O O3 0.896594 0.856092 0.358540
O O4 0.940875 0.669082 0.197052
O O5 0.500000 0.207398 0.500000
O O6 0.413649 0.076775 0.702581
O O7 0.816413 0.157030 0.380968
O O8 0.190694 0.887917 0.958495
O O9 0.215916 0.191726 0.979065
O O10 0.000000 0.101667 0.000000
O O11 0.302856 0.580547 0.858260
#
# Coordination Sequence:
#
# PCOD9122674 Si02
#       5
#     4   4   4   4   4
#     4  10  20  35  59  88 119 165 206 258 329 377
#     4  10  20  38  60  89 124 160 218 262 309 392
#     4  12  24  40  69  97 130 178 220 271 332 393
#     4  10  20  35  59  88 119 165 206 258 329 377
#     4  12  20  40  62  94 132 164 220 270 322 388
#
# _framework density 23.750813000000001
#
# number of rings (size 3 to 8) (size 9 to 14) (size 15 to 20)
#    1.200    0.000    6.000    2.400    0.000    0.000 
#    0.000    1.000    0.000    1.200    0.000    0.000 
#    0.000    0.000    0.000    0.000    0.000    0.000 
#
# Total GULP energy -55679.529213 kJ/mol
# GULP energy per Si atom -5567.952921 kJ/mol
# Density = 2.369675 g / cm^3
# Si number density = 23.750813 Si / 1000 Ang^3
#
#
#
# Elastic Constant Matrix: (Units=GPa)
#
#
# Indices 1 2 3 4 5 6 
#
# 1 37.6894 -5.8259 -14.1952 -0.0003 -4.0664 0.0001
# 2 -5.8259 37.1340 23.3825 -0.0006 -1.4817 0.0001
# 3 -14.1952 23.3825 171.7459 -0.0012 12.0039 0.0002
# 4 -0.0003 -0.0006 -0.0012 22.8084 0.0002 3.9631
# 5 -4.0664 -1.4817 12.0039 0.0002 28.3183 0.0000
# 6 0.0001 0.0001 0.0002 3.9631 0.0000 14.2755
#
#
#
# Elastic Compliance Matrix: (Units=1/GPa)
#
#
# Indices 1 2 3 4 5 6 
#
# 1 0.028061 0.003543 0.001589 0.000001 0.003541 0.000000
# 2 0.003543 0.030212 -0.004088 0.000001 0.003822 0.000000
# 3 0.001589 -0.004088 0.006708 0.000000 -0.002829 0.000000
# 4 0.000001 0.000001 0.000000 0.046066 0.000000 -0.012789
# 5 0.003541 0.003822 -0.002829 0.000000 0.037221 0.000000
# 6 0.000000 0.000000 0.000000 -0.012789 0.000000 0.073600
#
#
# Mechanical properties :
#
#
# Convention : Reuss Voigt Hill
#
# Bulk Modulus (GPa) = 14.90967 28.14357 21.52662
# Shear Modulus (GPa) = 20.64968 29.29430 24.97199
#
# Velocity S-wave (km/s) = 2.95181 3.51579 3.24607
# Velocity P-wave (km/s) = 4.23187 5.32506 4.80963
#
# Compressibility (1/GPa) = 0.06707058
#
# Stress axis : x y z
#
# Youngs Moduli (GPa) = 35.63662 33.09977 149.07205
#
# Poissons Ratio (x) = -0.11727 -0.23694
# Poissons Ratio (y) = -0.12626 0.60933
# Poissons Ratio (z) = -0.05664 0.13530
#
# Static dielectric constant tensor:
#      x y z
#    x 1.973080 0.000000 0.022240 
#    y 0.000000 1.910850 0.000000 
#    z 0.022240 0.000000 1.909980 
# 
# From -- ./inp_files/61365.got.cif
#   From: 2010.05.17/outbox.cif.g08.bks.cpg/sg5_31_cif.got.tgz:61365.got - 2010.06.03 18:56:24.
