data_PCOD9122541
_publ_section_title
;
Structure prediction by ZEFSAII (Michael W. Deem and Ramdas Pophale) SiO2 
 PCOD9122541
Probable space group: C 2
;
_chemical_formula_sum "Si O2"
_cell_formula_units_Z 32
_cell_length_a 7.060515
_cell_length_b 15.734573
_cell_length_c 12.267087
_cell_angle_alpha 90.000000
_cell_angle_beta 114.112849
_cell_angle_gamma 90.000000
_cell_volume 1243.887489
_symmetry_space_group_name_H-M "C 2"
_symmetry_group_IT_number 5
_symmetry_cell_setting 'monoclinic'
loop_
_space_group_symop_operation_xyz
x,y,z
-x,y,-z
1/2+x,1/2+y,z
1/2-x,1/2+y,-z
loop_
_atom_site_type_symbol
_atom_site_label
_atom_site_fract_x
_atom_site_fract_y
_atom_site_fract_z
Si Si1 0.268097 0.739030 0.992188
Si Si2 0.066227 0.486157 0.766684
Si Si3 0.794668 0.924630 0.006451
Si Si4 0.784013 0.493968 0.518228
Si Si5 0.916847 0.146856 0.220740
Si Si6 0.134720 0.686431 0.734706
Si Si7 0.466864 0.450374 0.734713
Si Si8 0.282772 0.685591 0.426749
O O1 0.276752 0.665509 0.083098
O O2 0.500000 0.744295 0.000000
O O3 0.223865 0.827950 0.037924
O O4 0.130477 0.722728 0.855032
O O5 0.100972 0.584862 0.742584
O O6 0.253441 0.435011 0.752265
O O7 0.851867 0.463749 0.655228
O O8 0.102479 0.472209 0.903773
O O9 0.846716 0.913234 0.147224
O O10 0.000000 0.966417 0.000000
O O11 0.612070 0.443207 0.408700
O O12 0.716011 0.593603 0.511970
O O13 0.000000 0.492919 0.500000
O O14 0.800069 0.169148 0.302372
O O15 0.135442 0.197285 0.260509
O O16 0.977614 0.049403 0.240523
O O17 0.948243 0.721696 0.617034
O O18 0.500000 0.732442 0.500000
#
# Coordination Sequence:
#
# PCOD9122541 Si02
#       8
#     4   4   4   4   4   4   4   4
#     4  10  22  40  57  80 115 160 192 241 301 347
#     4   8  16  32  56  83 108 148 190 236 295 343
#     4  10  20  34  57  82 113 151 200 241 290 351
#     4   9  17  33  56  82 123 150 188 242 298 351
#     4  10  20  36  60  85 117 150 198 243 289 354
#     4   9  20  37  59  83 118 151 193 243 295 345
#     4   9  16  32  56  83 110 148 186 242 291 342
#     4  11  21  31  56  93 114 151 190 234 304 346
#
# _framework density 25.725798999999999
#
# number of rings (size 3 to 8) (size 9 to 14) (size 15 to 20)
#    0.000    2.500    1.250    1.500    1.750    3.000 
#    4.500    0.000    2.750    0.000    0.000    0.000 
#    0.000    0.000    0.000    0.000    0.000    0.000 
#
# Total GULP energy -89296.007877 kJ/mol
# GULP energy per Si atom -5581.000492 kJ/mol
# Density = 2.566725 g / cm^3
# Si number density = 25.725799 Si / 1000 Ang^3
#
#
#
# Elastic Constant Matrix: (Units=GPa)
#
#
# Indices 1 2 3 4 5 6 
#
# 1 87.8065 -0.0038 37.8212 0.0000 9.6860 0.0000
# 2 -0.0038 25.0273 33.3018 0.0000 3.7379 0.0000
# 3 37.8212 33.3018 207.1728 0.0000 28.7089 0.0000
# 4 0.0000 0.0000 0.0000 -2.8316 0.0000 -2.1709
# 5 9.6860 3.7379 28.7089 0.0000 41.7986 0.0000
# 6 0.0000 0.0000 0.0000 -2.1709 0.0000 7.6909
#
#
#
# Elastic Compliance Matrix: (Units=1/GPa)
#
#
# Indices 1 2 3 4 5 6 
#
# 1 0.012729 0.003873 -0.002752 0.000000 -0.001406 0.000000
# 2 0.003873 0.052059 -0.009179 0.000000 0.000752 0.000000
# 3 -0.002752 -0.009179 0.007297 0.000000 -0.003553 0.000000
# 4 0.000000 0.000000 0.000000 -0.290329 0.000000 -0.081952
# 5 -0.001406 0.000752 -0.003553 0.000000 0.026624 0.000000
# 6 0.000000 0.000000 0.000000 -0.081952 0.000000 0.106891
#
#
# Mechanical properties :
#
#
# Convention : Reuss Voigt Hill
#
# Bulk Modulus (GPa) = 17.86674 51.36055 34.61364
# Shear Modulus (GPa) = -100.08685 25.92406 -37.08139
#
# Velocity S-wave (km/s) = -6.24417 3.17788 -3.80071
# Velocity P-wave (km/s) = 6.71015 5.78560 2.40343
#
# Compressibility (1/GPa) = 0.05596992
#
# Stress axis : x y z
#
# Youngs Moduli (GPa) = 78.55977 19.20892 137.03925
#
# Poissons Ratio (x) = -0.07440 0.37707
# Poissons Ratio (y) = -0.30428 1.25795
# Poissons Ratio (z) = 0.21616 0.17633
#
# Static dielectric constant tensor:
#      x y z
#    x 2.070780 0.000000 0.015820 
#    y 0.000000 1.981370 0.000000 
#    z 0.015820 0.000000 2.109810 
# 
# From -- ./inp_files/37217.got.cif
#   From: 2010.05.17/outbox.cif.g08.bks.cpg/sg5_19_cif.got.tgz:37217.got - 2010.06.03 18:56:24.
