data_PCOD9122487
_publ_section_title
;
Structure prediction by ZEFSAII (Michael W. Deem and Ramdas Pophale) SiO2 
 PCOD9122487
Probable space group: C 2
;
_chemical_formula_sum "Si O2"
_cell_formula_units_Z 30
_cell_length_a 19.419435
_cell_length_b 5.108094
_cell_length_c 23.781714
_cell_angle_alpha 90.000000
_cell_angle_beta 146.982107
_cell_angle_gamma 90.000000
_cell_volume 1285.452883
_symmetry_space_group_name_H-M "C 2"
_symmetry_group_IT_number 5
_symmetry_cell_setting 'monoclinic'
loop_
_space_group_symop_operation_xyz
x,y,z
-x,y,-z
1/2+x,1/2+y,z
1/2-x,1/2+y,-z
loop_
_atom_site_type_symbol
_atom_site_label
_atom_site_fract_x
_atom_site_fract_y
_atom_site_fract_z
Si Si1 0.568660 0.901060 0.420925
Si Si2 0.500000 0.659545 0.000000
Si Si3 0.946718 0.718057 0.235563
Si Si4 0.244113 0.966323 0.819196
Si Si5 0.445445 0.392621 0.845948
Si Si6 0.315335 0.966169 0.290574
Si Si7 0.837506 0.113490 0.620196
Si Si8 0.001143 0.384082 0.182321
O O1 0.461324 0.872015 0.395227
O O2 0.627289 0.671217 0.421584
O O3 0.490414 0.056515 0.319805
O O4 0.690938 0.055067 0.524871
O O5 0.380443 0.849509 0.924390
O O6 0.482723 0.477081 0.934018
O O7 0.902059 0.522942 0.156221
O O8 0.843626 0.921495 0.186797
O O9 0.071510 0.873188 0.302283
O O10 0.192704 0.768011 0.735127
O O11 0.235599 0.261310 0.791850
O O12 0.293056 0.438816 0.736384
O O13 0.521044 0.603702 0.860173
O O14 0.470765 0.095162 0.846567
O O15 0.882630 0.335833 0.694297
#
# Coordination Sequence:
#
# PCOD9122487 Si02
#       8
#     4   2   4   4   4   4   4   4
#     4  10  20  33  63  98 125 166 228 270 303 378
#     4  10  24  44  72  98 118 164 230 286 318 406
#     4  10  20  38  62  93 131 169 206 268 329 384
#     4  10  21  38  64  99 123 159 213 275 337 381
#     4  11  23  43  65  90 124 172 216 272 336 394
#     4  10  21  38  63  90 130 165 214 275 325 375
#     4  11  19  36  63  95 129 173 217 267 317 384
#     4  11  24  40  63  89 134 176 205 259 347 399
#
# _framework density 23.338080000000001
#
# number of rings (size 3 to 8) (size 9 to 14) (size 15 to 20)
#    0.000    1.600    4.000    1.600    0.000    4.800 
#    0.000    2.000    2.933    0.000    0.000    0.000 
#    0.000    0.000    0.000    0.000    0.000    0.000 
#
# Total GULP energy -83683.113418 kJ/mol
# GULP energy per Si atom -5578.874228 kJ/mol
# Density = 2.328496 g / cm^3
# Si number density = 23.338080 Si / 1000 Ang^3
#
#
#
# Elastic Constant Matrix: (Units=GPa)
#
#
# Indices 1 2 3 4 5 6 
#
# 1 28.6356 7.3321 1.8415 0.0042 -3.9830 0.0040
# 2 7.3321 99.6103 7.1715 0.0058 -11.1112 0.0293
# 3 1.8415 7.1715 43.3441 0.0024 7.4047 -0.0023
# 4 0.0042 0.0058 0.0024 25.8442 0.0011 -1.5948
# 5 -3.9830 -11.1112 7.4047 0.0011 33.0303 -0.0005
# 6 0.0040 0.0293 -0.0023 -1.5948 -0.0005 38.1105
#
#
#
# Elastic Compliance Matrix: (Units=1/GPa)
#
#
# Indices 1 2 3 4 5 6 
#
# 1 0.036141 -0.002068 -0.001891 -0.000006 0.004086 -0.000002
# 2 -0.002068 0.010798 -0.002367 -0.000003 0.003914 -0.000008
# 3 -0.001891 -0.002367 0.024663 -0.000001 -0.006553 0.000003
# 4 -0.000006 -0.000003 -0.000001 0.038794 -0.000003 0.001623
# 5 0.004086 0.003914 -0.006553 -0.000003 0.033554 -0.000003
# 6 -0.000002 -0.000008 0.000003 0.001623 -0.000003 0.026307
#
#
# Mechanical properties :
#
#
# Convention : Reuss Voigt Hill
#
# Bulk Modulus (GPa) = 16.96403 22.69780 19.83091
# Shear Modulus (GPa) = 24.68398 29.74667 27.21532
#
# Velocity S-wave (km/s) = 3.25571 3.57402 3.41857
# Velocity P-wave (km/s) = 4.62790 5.17477 4.90896
#
# Compressibility (1/GPa) = 0.05894827
#
# Stress axis : x y z
#
# Youngs Moduli (GPa) = 27.66925 92.60644 40.54695
#
# Poissons Ratio (x) = 0.19153 0.07669
# Poissons Ratio (y) = 0.05723 0.09599
# Poissons Ratio (z) = 0.05233 0.21924
#
# Static dielectric constant tensor:
#      x y z
#    x 2.000940 -0.000010 -0.004110 
#    y -0.000010 1.903550 0.000000 
#    z -0.004110 0.000000 1.874340 
# 
# From -- ./inp_files/69374.got.cif
#   From: 2010.05.17/outbox.cif.g08.bks.cpg/sg5_35_cif.got.tgz:69374.got - 2010.06.03 18:56:24.
