data_PCOD9123050
_publ_section_title
;
Structure prediction by ZEFSAII (Michael W. Deem and Ramdas Pophale) SiO2 
 PCOD9123050
Probable space group: C 2
;
_chemical_formula_sum "Si O2"
_cell_formula_units_Z 30
_cell_length_a 14.149959
_cell_length_b 10.793441
_cell_length_c 26.806709
_cell_angle_alpha 90.000000
_cell_angle_beta 160.286716
_cell_angle_gamma 90.000000
_cell_volume 1380.995818
_symmetry_space_group_name_H-M "C 2"
_symmetry_group_IT_number 5
_symmetry_cell_setting 'monoclinic'
loop_
_space_group_symop_operation_xyz
x,y,z
-x,y,-z
1/2+x,1/2+y,z
1/2-x,1/2+y,-z
loop_
_atom_site_type_symbol
_atom_site_label
_atom_site_fract_x
_atom_site_fract_y
_atom_site_fract_z
Si Si1 0.000000 0.613740 0.000000
Si Si2 0.428627 0.600282 0.588403
Si Si3 0.905801 0.427790 0.862422
Si Si4 0.514248 0.424662 0.138404
Si Si5 0.988499 0.152298 0.918093
Si Si6 0.577522 0.789690 0.740502
Si Si7 0.382333 0.218840 0.741636
Si Si8 0.537007 0.051705 0.306622
O O1 0.994355 0.523295 0.045056
O O2 0.259433 0.705579 0.138791
O O3 0.616877 0.483464 0.698770
O O4 0.389409 0.695773 0.614325
O O5 0.635902 0.667562 0.652909
O O6 0.158091 0.564577 0.422554
O O7 0.860616 0.288784 0.858378
O O8 0.179016 0.410376 0.962926
O O9 0.554393 0.571677 0.153217
O O10 0.694073 0.348190 0.186176
O O11 0.587137 0.363207 0.228136
O O12 0.794810 0.074832 0.859009
O O13 0.316892 0.164787 0.091166
O O14 0.421539 0.908013 0.686504
O O15 0.339139 0.159702 0.666203
#
# Coordination Sequence:
#
# PCOD9123050 Si02
#       8
#     2   4   4   4   4   4   4   4
#     4  10  22  36  58  88 128 146 200 256 296 340
#     4  10  21  40  57  83 121 163 193 233 304 366
#     4  10  21  36  60  89 115 155 198 249 294 349
#     4   9  19  38  60  84 116 150 195 244 295 354
#     4  10  21  36  59  90 115 149 201 250 289 348
#     4   9  22  39  59  86 119 162 195 241 308 348
#     4  10  20  37  60  87 116 150 201 241 297 346
#     4  11  23  35  61  89 121 155 199 248 291 360
#
# _framework density 21.723455000000001
#
# number of rings (size 3 to 8) (size 9 to 14) (size 15 to 20)
#    0.000    2.133    1.333    0.800   11.200    0.000 
#    0.000    0.000    0.000    0.000    0.000    0.000 
#    0.000    0.000    0.000    0.000    0.000    0.000 
#
# Total GULP energy -83513.861782 kJ/mol
# GULP energy per Si atom -5567.590785 kJ/mol
# Density = 2.167401 g / cm^3
# Si number density = 21.723455 Si / 1000 Ang^3
#
#
#
# Elastic Constant Matrix: (Units=GPa)
#
#
# Indices 1 2 3 4 5 6 
#
# 1 23.9126 5.4326 12.6127 0.0017 -9.1795 0.0022
# 2 5.4326 120.9428 41.6902 0.0042 -28.9769 0.0058
# 3 12.6127 41.6902 108.5634 -0.0066 -20.3695 -0.0373
# 4 0.0017 0.0042 -0.0066 14.8717 -0.0007 -13.8648
# 5 -9.1795 -28.9769 -20.3695 -0.0007 32.7149 0.0038
# 6 0.0022 0.0058 -0.0373 -13.8648 0.0038 0.6320
#
#
#
# Elastic Compliance Matrix: (Units=1/GPa)
#
#
# Indices 1 2 3 4 5 6 
#
# 1 0.048486 0.002385 -0.004076 0.000025 0.013179 0.000035
# 2 0.002385 0.011297 -0.002958 0.000017 0.008834 0.000022
# 3 -0.004076 -0.002958 0.011452 -0.000034 0.003367 -0.000043
# 4 0.000025 0.000017 -0.000034 -0.003456 0.000009 -0.075832
# 5 0.013179 0.008834 0.003367 0.000009 0.044186 0.000011
# 6 0.000035 0.000022 -0.000043 -0.075832 0.000011 -0.081340
#
#
# Mechanical properties :
#
#
# Convention : Reuss Voigt Hill
#
# Bulk Modulus (GPa) = 16.14528 41.43217 28.78873
# Shear Modulus (GPa) = 82.54859 22.55596 52.55228
#
# Velocity S-wave (km/s) = 6.17108 3.22580 4.92382
# Velocity P-wave (km/s) = 7.63051 5.74355 6.75326
#
# Compressibility (1/GPa) = 0.06193760
#
# Stress axis : x y z
#
# Youngs Moduli (GPa) = 20.62440 88.51564 87.31813
#
# Poissons Ratio (x) = -0.21109 0.35591
# Poissons Ratio (y) = -0.04918 0.25828
# Poissons Ratio (z) = 0.08407 0.26182
#
# Static dielectric constant tensor:
#      x y z
#    x 1.904820 0.000000 -0.013660 
#    y 0.000000 1.856740 0.000000 
#    z -0.013660 0.000000 1.778860 
# 
# From -- ./inp_files/70707.got.cif
#   From: 2010.05.17/outbox.cif.g08.bks.cpg/sg5_36_cif.got.tgz:70707.got - 2010.06.03 18:56:24.
