data_PCOD9123410
_publ_section_title
;
Structure prediction by ZEFSAII (Michael W. Deem and Ramdas Pophale) SiO2 
 PCOD9123410
Probable space group: C 2
;
_chemical_formula_sum "Si O2"
_cell_formula_units_Z 30
_cell_length_a 20.802907
_cell_length_b 12.393226
_cell_length_c 13.380857
_cell_angle_alpha 90.000000
_cell_angle_beta 152.326727
_cell_angle_gamma 90.000000
_cell_volume 1602.181231
_symmetry_space_group_name_H-M "C 2"
_symmetry_group_IT_number 5
_symmetry_cell_setting 'monoclinic'
loop_
_space_group_symop_operation_xyz
x,y,z
-x,y,-z
1/2+x,1/2+y,z
1/2-x,1/2+y,-z
loop_
_atom_site_type_symbol
_atom_site_label
_atom_site_fract_x
_atom_site_fract_y
_atom_site_fract_z
Si Si1 0.343434 0.027920 0.515567
Si Si2 0.554957 0.459108 0.187244
Si Si3 0.840577 0.594318 0.293252
Si Si4 0.000000 0.996063 0.500000
Si Si5 0.727874 0.335830 0.735741
Si Si6 0.676559 0.267675 0.446579
Si Si7 0.918410 0.095137 0.178360
Si Si8 0.021138 0.314688 0.228925
O O1 0.297798 0.034753 0.336800
O O2 0.378629 0.149179 0.599366
O O3 0.212326 0.998696 0.402032
O O4 0.447359 0.928679 0.674241
O O5 0.569068 0.331920 0.229341
O O6 0.480997 0.523411 0.173894
O O7 0.500000 0.479838 0.000000
O O8 0.821487 0.720456 0.290513
O O9 0.000000 0.568065 0.500000
O O10 0.745120 0.575777 0.065759
O O11 0.969392 0.061563 0.357035
O O12 0.863433 0.924373 0.333829
O O13 0.689893 0.335291 0.567164
O O14 0.893923 0.338076 0.978057
O O15 0.833169 0.270358 0.616592
O O16 0.962483 0.218506 0.217270
#
# Coordination Sequence:
#
# PCOD9123410 Si02
#       8
#     4   4   4   2   4   4   4   4
#     4  10  21  37  63  90 123 156 207 267 313 377
#     4  11  20  38  62  92 121 160 206 259 326 371
#     4  10  21  38  62  89 116 163 219 258 300 376
#     4  12  24  42  60  92 134 176 212 262 316 376
#     4  10  21  38  62  90 121 164 215 254 304 378
#     4  10  20  38  64  90 124 154 208 268 314 377
#     4  11  23  41  64  90 130 170 210 259 321 382
#     4  10  22  39  62  95 122 164 206 262 321 377
#
# _framework density 18.724474000000001
#
# number of rings (size 3 to 8) (size 9 to 14) (size 15 to 20)
#    0.000    1.600    4.667    0.400    1.867    0.000 
#    1.200    5.333    0.000    0.000    0.000    0.000 
#    0.000    0.000    0.000    0.000    0.000    0.000 
#
# Total GULP energy -83563.006650 kJ/mol
# GULP energy per Si atom -5570.867110 kJ/mol
# Density = 1.868186 g / cm^3
# Si number density = 18.724474 Si / 1000 Ang^3
#
#
#
# Elastic Constant Matrix: (Units=GPa)
#
#
# Indices 1 2 3 4 5 6 
#
# 1 68.7349 25.9639 39.0113 0.0000 -9.4639 0.0000
# 2 25.9639 95.6531 39.9432 0.0000 -7.2972 0.0000
# 3 39.0113 39.9432 85.3631 0.0000 -8.5171 0.0000
# 4 0.0000 0.0000 0.0000 6.9454 0.0000 4.4422
# 5 -9.4639 -7.2972 -8.5171 0.0000 33.9420 0.0000
# 6 0.0000 0.0000 0.0000 4.4422 0.0000 21.2276
#
#
#
# Elastic Compliance Matrix: (Units=1/GPa)
#
#
# Indices 1 2 3 4 5 6 
#
# 1 0.020284 -0.001893 -0.008062 0.000000 0.003226 0.000000
# 2 -0.001893 0.013226 -0.005223 0.000000 0.001005 0.000000
# 3 -0.008062 -0.005223 0.017956 0.000000 0.001135 0.000000
# 4 0.000000 0.000000 0.000000 0.166229 0.000000 -0.034786
# 5 0.003226 0.001005 0.001135 0.000000 0.030862 0.000000
# 6 0.000000 0.000000 0.000000 -0.034786 0.000000 0.054388
#
#
# Mechanical properties :
#
#
# Convention : Reuss Voigt Hill
#
# Bulk Modulus (GPa) = 47.37284 51.06533 49.21908
# Shear Modulus (GPa) = 14.69125 22.07852 18.38489
#
# Velocity S-wave (km/s) = 2.80411 3.43757 3.13687
# Velocity P-wave (km/s) = 5.98656 6.56407 6.28196
#
# Compressibility (1/GPa) = 0.02110914
#
# Stress axis : x y z
#
# Youngs Moduli (GPa) = 49.30106 75.60769 55.69044
#
# Poissons Ratio (x) = 0.14313 0.44898
# Poissons Ratio (y) = 0.09333 0.29089
# Poissons Ratio (z) = 0.39747 0.39493
#
# Static dielectric constant tensor:
#      x y z
#    x 1.663940 0.000000 0.018440 
#    y 0.000000 1.672840 0.000000 
#    z 0.018440 0.000000 1.674970 
# 
# From -- ./inp_files/39151.got.cif
#   From: 2010.05.17/outbox.cif.g08.bks.cpg/sg5_20_cif.got.tgz:39151.got - 2010.06.03 18:56:24.
