data_PCOD9123475
_publ_section_title
;
Structure prediction by ZEFSAII (Michael W. Deem and Ramdas Pophale) SiO2 
 PCOD9123475
Probable space group: C 2
;
_chemical_formula_sum "Si O2"
_cell_formula_units_Z 24
_cell_length_a 17.277263
_cell_length_b 8.576244
_cell_length_c 18.285893
_cell_angle_alpha 90.000000
_cell_angle_beta 25.617215
_cell_angle_gamma 90.000000
_cell_volume 1171.468008
_symmetry_space_group_name_H-M "C 2"
_symmetry_group_IT_number 5
_symmetry_cell_setting 'monoclinic'
loop_
_space_group_symop_operation_xyz
x,y,z
-x,y,-z
1/2+x,1/2+y,z
1/2-x,1/2+y,-z
loop_
_atom_site_type_symbol
_atom_site_label
_atom_site_fract_x
_atom_site_fract_y
_atom_site_fract_z
Si Si1 0.736613 0.726530 0.094034
Si Si2 0.471750 0.016733 0.110166
Si Si3 0.388691 0.354951 0.220844
Si Si4 0.861996 0.408847 0.682491
Si Si5 0.360937 0.049125 0.459781
Si Si6 0.399203 0.822817 0.298401
O O1 0.659470 0.773886 0.239150
O O2 0.581224 0.737220 0.167777
O O3 0.837089 0.562584 0.016155
O O4 0.899696 0.850137 0.943362
O O5 0.356218 0.172086 0.228079
O O6 0.397157 0.868955 0.215756
O O7 0.500000 0.003346 0.000000
O O8 0.321604 0.440526 0.204109
O O9 0.273882 0.429095 0.383516
O O10 0.000000 0.367598 0.500000
O O11 0.957270 0.545009 0.647669
O O12 0.265624 0.213759 0.540740
O O13 0.394776 0.979422 0.351097
#
# Coordination Sequence:
#
# PCOD9123475 Si02
#       6
#     4   4   4   4   4   4
#     4   9  19  34  64  92 116 166 210 268 310 375
#     4  10  20  38  66  93 124 164 215 266 318 378
#     4   9  17  35  66  88 121 161 219 259 314 383
#     4   9  16  33  59  90 119 159 209 250 311 384
#     4  10  22  37  61  90 129 170 209 264 323 388
#     4  11  23  39  62  94 132 166 215 265 326 386
#
# _framework density 20.487114999999999
#
# number of rings (size 3 to 8) (size 9 to 14) (size 15 to 20)
#    1.000    1.333    1.667    1.500    2.333    0.000 
#    0.000    4.167   14.667    0.000    0.000    0.000 
#    0.000    0.000    0.000    0.000    0.000    0.000 
#
# Total GULP energy -66811.433277 kJ/mol
# GULP energy per Si atom -5567.619440 kJ/mol
# Density = 2.044049 g / cm^3
# Si number density = 20.487115 Si / 1000 Ang^3
#
#
#
# Elastic Constant Matrix: (Units=GPa)
#
#
# Indices 1 2 3 4 5 6 
#
# 1 69.4682 21.6857 8.5875 0.0000 -0.1971 0.0000
# 2 21.6857 34.1611 0.2797 -0.0002 0.4387 0.0001
# 3 8.5875 0.2797 31.0479 -0.0003 5.8034 0.0002
# 4 0.0000 -0.0002 -0.0003 21.2498 0.0001 5.6658
# 5 -0.1971 0.4387 5.8034 0.0001 42.3040 0.0000
# 6 0.0000 0.0001 0.0002 5.6658 0.0000 12.0282
#
#
#
# Elastic Compliance Matrix: (Units=1/GPa)
#
#
# Indices 1 2 3 4 5 6 
#
# 1 0.018754 -0.011874 -0.005254 0.000000 0.000931 0.000000
# 2 -0.011874 0.036796 0.003114 0.000001 -0.000864 -0.000001
# 3 -0.005254 0.003114 0.034530 0.000001 -0.004794 -0.000001
# 4 0.000000 0.000001 0.000001 0.053819 0.000000 -0.025351
# 5 0.000931 -0.000864 -0.004794 0.000000 0.024309 0.000000
# 6 0.000000 -0.000001 -0.000001 -0.025351 0.000000 0.095080
#
#
# Mechanical properties :
#
#
# Convention : Reuss Voigt Hill
#
# Bulk Modulus (GPa) = 16.11557 21.75367 18.93462
# Shear Modulus (GPa) = 16.02567 22.05801 19.04184
#
# Velocity S-wave (km/s) = 2.79987 3.28484 3.05200
# Velocity P-wave (km/s) = 4.28202 5.00281 4.65638
#
# Compressibility (1/GPa) = 0.06205178
#
# Stress axis : x y z
#
# Youngs Moduli (GPa) = 53.32218 27.17662 28.96067
#
# Poissons Ratio (x) = 0.32270 0.15217
# Poissons Ratio (y) = 0.63315 -0.09019
# Poissons Ratio (z) = 0.28017 -0.08463
#
# Static dielectric constant tensor:
#      x y z
#    x 1.748180 0.000000 -0.027600 
#    y 0.000000 1.727350 0.000000 
#    z -0.027600 0.000000 1.768580 
# 
# From -- ./inp_files/62151.got.cif
#   From: 2010.05.17/outbox.cif.g08.bks.cpg/sg5_32_cif.got.tgz:62151.got - 2010.06.03 18:56:24.
