data_PCOD9123492
_publ_section_title
;
Structure prediction by ZEFSAII (Michael W. Deem and Ramdas Pophale) SiO2 
 PCOD9123492
Probable space group: C 2
;
_chemical_formula_sum "Si O2"
_cell_formula_units_Z 26
_cell_length_a 12.021067
_cell_length_b 8.071646
_cell_length_c 24.104474
_cell_angle_alpha 90.000000
_cell_angle_beta 28.125818
_cell_angle_gamma 90.000000
_cell_volume 1102.556757
_symmetry_space_group_name_H-M "C 2"
_symmetry_group_IT_number 5
_symmetry_cell_setting 'monoclinic'
loop_
_space_group_symop_operation_xyz
x,y,z
-x,y,-z
1/2+x,1/2+y,z
1/2-x,1/2+y,-z
loop_
_atom_site_type_symbol
_atom_site_label
_atom_site_fract_x
_atom_site_fract_y
_atom_site_fract_z
Si Si1 0.500000 0.096990 0.000000
Si Si2 0.662038 0.759291 0.055315
Si Si3 0.243211 0.524900 0.371502
Si Si4 0.286746 0.025463 0.746134
Si Si5 0.678137 0.672466 0.225852
Si Si6 0.505132 0.105470 0.824306
Si Si7 0.221590 0.652272 0.612621
O O1 0.315277 0.186082 0.039282
O O2 0.321893 0.037672 0.125163
O O3 0.418823 0.659849 0.152222
O O4 0.607262 0.941750 0.100425
O O5 0.828249 0.745259 0.927421
O O6 0.245070 0.486658 0.305360
O O7 0.427642 0.660811 0.309389
O O8 0.000000 0.593127 0.500000
O O9 0.281295 0.352116 0.386924
O O10 0.246704 0.865269 0.803444
O O11 0.559362 0.082524 0.634330
O O12 0.734070 0.619676 0.263334
O O13 0.555167 0.106047 0.738138
O O14 0.500000 0.605203 0.500000
#
# Coordination Sequence:
#
# PCOD9123492 Si02
#       7
#     2   4   4   4   4   4   4
#     4  10  20  38  66  98 136 172 224 288 350 424
#     4  11  23  42  70 107 140 189 240 300 366 426
#     4  11  26  46  70 103 144 193 243 298 356 430
#     4  12  25  46  72 106 143 189 243 295 363 434
#     4  11  23  43  71 100 144 185 237 295 359 428
#     4  11  24  43  72 105 147 192 235 304 363 430
#     4  11  27  48  70 108 150 189 243 300 356 438
#
# _framework density 23.581551999999999
#
# number of rings (size 3 to 8) (size 9 to 14) (size 15 to 20)
#    0.000    0.923    3.077    3.692    2.154    1.231 
#    0.000    0.000    0.000    0.000    0.000    0.000 
#    0.000    0.000    0.000    0.000    0.000    0.000 
#
# Total GULP energy -72441.302242 kJ/mol
# GULP energy per Si atom -5572.407865 kJ/mol
# Density = 2.352788 g / cm^3
# Si number density = 23.581552 Si / 1000 Ang^3
#
#
#
# Elastic Constant Matrix: (Units=GPa)
#
#
# Indices 1 2 3 4 5 6 
#
# 1 67.8212 -0.7109 -2.4058 -0.0004 -23.8749 0.0002
# 2 -0.7109 39.3649 11.8577 0.0000 -16.5484 0.0000
# 3 -2.4058 11.8577 98.8156 -0.0017 -21.5809 0.0002
# 4 -0.0004 0.0000 -0.0017 10.6263 0.0001 -22.3203
# 5 -23.8749 -16.5484 -21.5809 0.0001 40.9104 -0.0001
# 6 0.0002 0.0000 0.0002 -22.3203 -0.0001 13.2842
#
#
#
# Elastic Compliance Matrix: (Units=1/GPa)
#
#
# Indices 1 2 3 4 5 6 
#
# 1 0.020684 0.006246 0.003325 0.000000 0.016352 -0.000001
# 2 0.006246 0.032599 -0.000095 0.000000 0.016782 0.000000
# 3 0.003325 -0.000095 0.012011 -0.000001 0.008238 -0.000001
# 4 0.000000 0.000000 -0.000001 -0.037207 0.000000 -0.062516
# 5 0.016352 0.016782 0.008238 0.000000 0.045120 -0.000001
# 6 -0.000001 0.000000 -0.000001 -0.062516 -0.000001 -0.029763
#
#
# Mechanical properties :
#
#
# Convention : Reuss Voigt Hill
#
# Bulk Modulus (GPa) = 11.86976 24.83155 18.35065
# Shear Modulus (GPa) = 95.10143 26.11490 60.60817
#
# Velocity S-wave (km/s) = 6.35738 3.33142 5.07517
# Velocity P-wave (km/s) = 7.67677 5.03495 6.49167
#
# Compressibility (1/GPa) = 0.08424772
#
# Stress axis : x y z
#
# Youngs Moduli (GPa) = 48.34583 30.67545 83.25405
#
# Poissons Ratio (x) = -0.19160 -0.27684
# Poissons Ratio (y) = -0.30196 0.00789
# Poissons Ratio (z) = -0.16076 0.00291
#
# Static dielectric constant tensor:
#      x y z
#    x 1.927180 0.000000 -0.054120 
#    y 0.000000 1.934540 0.000000 
#    z -0.054120 0.000000 2.015930 
# 
# From -- ./inp_files/38387.got.cif
#   From: 2010.05.17/outbox.cif.g08.bks.cpg/sg5_20_cif.got.tgz:38387.got - 2010.06.03 18:56:24.
