data_PCOD9123687
_publ_section_title
;
Structure prediction by ZEFSAII (Michael W. Deem and Ramdas Pophale) SiO2 
 PCOD9123687
Probable space group: C 2
;
_chemical_formula_sum "Si O2"
_cell_formula_units_Z 32
_cell_length_a 16.580442
_cell_length_b 9.567771
_cell_length_c 20.180991
_cell_angle_alpha 90.000000
_cell_angle_beta 26.386539
_cell_angle_gamma 90.000000
_cell_volume 1422.812203
_symmetry_space_group_name_H-M "C 2"
_symmetry_group_IT_number 5
_symmetry_cell_setting 'monoclinic'
loop_
_space_group_symop_operation_xyz
x,y,z
-x,y,-z
1/2+x,1/2+y,z
1/2-x,1/2+y,-z
loop_
_atom_site_type_symbol
_atom_site_label
_atom_site_fract_x
_atom_site_fract_y
_atom_site_fract_z
Si Si1 0.274158 0.982610 0.569397
Si Si2 0.189056 0.690334 0.828360
Si Si3 0.785457 0.564294 0.930353
Si Si4 0.972280 0.286215 0.819778
Si Si5 0.053763 0.131805 0.629499
Si Si6 0.298577 0.234470 0.653761
Si Si7 0.166137 0.695310 0.693568
Si Si8 0.196065 0.506517 0.235429
O O1 0.190275 0.862184 0.675573
O O2 0.483427 0.962319 0.395594
O O3 0.142652 0.004100 0.604010
O O4 0.289163 0.121188 0.601780
O O5 0.352067 0.622488 0.750025
O O6 0.200971 0.649400 0.742838
O O7 0.205388 0.860238 0.821024
O O8 0.000000 0.648861 0.000000
O O9 0.822139 0.406488 0.926595
O O10 0.757042 0.556788 0.872660
O O11 0.971731 0.644944 0.810876
O O12 0.622664 0.644394 0.085493
O O13 0.046332 0.254214 0.691255
O O14 0.128781 0.328403 0.756960
O O15 0.184838 0.154070 0.470774
O O16 0.500000 0.299350 0.500000
O O17 0.275884 0.137778 0.735573
#
# Coordination Sequence:
#
# PCOD9123687 Si02
#       8
#     4   4   4   4   4   4   4   4
#     4  10  20  39  68 105 132 180 240 300 339 402
#     4  12  25  40  67 103 144 184 235 290 352 420
#     4  12  27  45  71 105 145 187 236 293 365 427
#     4  11  26  46  71 105 146 186 234 293 359 428
#     4  11  23  42  69  98 139 180 236 292 343 412
#     4   9  21  39  71  99 137 180 237 297 337 405
#     4  12  24  43  71 104 137 186 240 297 349 414
#     4  11  21  41  68 106 133 185 246 285 343 424
#
# _framework density 22.490670999999999
#
# number of rings (size 3 to 8) (size 9 to 14) (size 15 to 20)
#    0.000    1.000    5.000    1.125    5.250    0.000 
#    0.000    2.500    2.750    0.000    0.000    0.000 
#    0.000    0.000    0.000    0.000    0.000    0.000 
#
# Total GULP energy -89437.594040 kJ/mol
# GULP energy per Si atom -5589.849627 kJ/mol
# Density = 2.243948 g / cm^3
# Si number density = 22.490671 Si / 1000 Ang^3
#
#
#
# Elastic Constant Matrix: (Units=GPa)
#
#
# Indices 1 2 3 4 5 6 
#
# 1 161.6753 16.6963 68.7882 -0.0002 7.0911 0.0001
# 2 16.6963 26.4381 23.7274 -0.0008 9.1253 0.0003
# 3 68.7882 23.7274 102.6463 -0.0012 -12.3393 0.0001
# 4 -0.0002 -0.0008 -0.0012 26.2598 0.0002 -5.7223
# 5 7.0911 9.1253 -12.3393 0.0002 28.7466 0.0000
# 6 0.0001 0.0003 0.0001 -5.7223 0.0000 35.8930
#
#
#
# Elastic Compliance Matrix: (Units=1/GPa)
#
#
# Indices 1 2 3 4 5 6 
#
# 1 0.009554 0.003625 -0.008079 0.000000 -0.006975 0.000000
# 2 0.003625 0.065105 -0.021162 0.000001 -0.030645 0.000000
# 3 -0.008079 -0.021162 0.022243 0.000000 0.018258 0.000000
# 4 0.000000 0.000001 0.000000 0.039452 0.000000 0.006290
# 5 -0.006975 -0.030645 0.018258 0.000000 0.054073 0.000000
# 6 0.000000 0.000000 0.000000 0.006290 0.000000 0.028863
#
#
# Mechanical properties :
#
#
# Convention : Reuss Voigt Hill
#
# Bulk Modulus (GPa) = 21.89689 56.57596 39.23642
# Shear Modulus (GPa) = 17.49803 30.28305 23.89054
#
# Velocity S-wave (km/s) = 2.79231 3.67341 3.26274
# Velocity P-wave (km/s) = 4.48923 6.57281 5.62828
#
# Compressibility (1/GPa) = 0.04566859
#
# Stress axis : x y z
#
# Youngs Moduli (GPa) = 104.66464 15.35982 44.95772
#
# Poissons Ratio (x) = -0.05567 0.36322
# Poissons Ratio (y) = -0.37937 0.95141
# Poissons Ratio (z) = 0.84561 0.32505
#
# Static dielectric constant tensor:
#      x y z
#    x 1.828550 0.000000 -0.032120 
#    y 0.000000 1.879580 0.000000 
#    z -0.032120 0.000000 1.836870 
# 
# From -- ./inp_files/61685.got.cif
#   From: 2010.05.17/outbox.cif.g08.bks.cpg/sg5_31_cif.got.tgz:61685.got - 2010.06.03 18:56:24.
