data_PCOD9123585
_publ_section_title
;
Structure prediction by ZEFSAII (Michael W. Deem and Ramdas Pophale) SiO2 
 PCOD9123585
Probable space group: C 2
;
_chemical_formula_sum "Si O2"
_cell_formula_units_Z 28
_cell_length_a 32.784180
_cell_length_b 8.441567
_cell_length_c 6.880294
_cell_angle_alpha 90.000000
_cell_angle_beta 48.282380
_cell_angle_gamma 90.000000
_cell_volume 1421.299349
_symmetry_space_group_name_H-M "C 2"
_symmetry_group_IT_number 5
_symmetry_cell_setting 'monoclinic'
loop_
_space_group_symop_operation_xyz
x,y,z
-x,y,-z
1/2+x,1/2+y,z
1/2-x,1/2+y,-z
loop_
_atom_site_type_symbol
_atom_site_label
_atom_site_fract_x
_atom_site_fract_y
_atom_site_fract_z
Si Si1 0.776659 0.191530 0.352508
Si Si2 0.554717 0.704449 0.423388
Si Si3 0.360028 0.271194 0.820446
Si Si4 0.945263 0.926429 0.273903
Si Si5 0.619134 0.489377 0.908608
Si Si6 0.161149 0.402384 0.154647
Si Si7 0.247827 0.404541 0.212929
O O1 0.750575 0.279277 0.616318
O O2 0.821957 0.070330 0.289468
O O3 0.740956 0.079951 0.325126
O O4 0.807105 0.321810 0.125183
O O5 0.500000 0.774692 0.500000
O O6 0.540684 0.580270 0.639366
O O7 0.600903 0.825079 0.351696
O O8 0.583327 0.601142 0.162977
O O9 0.411170 0.310143 0.520286
O O10 0.343720 0.089737 0.856651
O O11 0.375776 0.325934 0.988199
O O12 0.308098 0.383581 0.927440
O O13 0.906557 0.973583 0.219049
O O14 0.000000 0.861302 0.000000
O O15 0.198646 0.369122 0.223523
#
# Coordination Sequence:
#
# PCOD9123585 Si02
#       7
#     4   4   4   4   4   4   4
#     4  10  22  36  61  89 120 165 197 243 298 359
#     4  10  20  39  62  90 118 159 204 251 298 351
#     4  10  24  38  59  93 122 159 198 250 298 364
#     4  11  21  39  66  85 114 161 206 252 297 356
#     4   9  20  39  61  87 116 154 205 245 299 355
#     4  11  23  40  60  92 129 159 197 249 303 362
#     4  11  22  40  63  90 126 163 202 240 302 362
#
# _framework density 19.700284
#
# number of rings (size 3 to 8) (size 9 to 14) (size 15 to 20)
#    0.000    1.714    1.429    3.429    0.000    6.857 
#    2.571    0.714    0.000    0.000    0.000    0.000 
#    0.000    0.000    0.000    0.000    0.000    0.000 
#
# Total GULP energy -78179.621057 kJ/mol
# GULP energy per Si atom -5584.258647 kJ/mol
# Density = 1.965545 g / cm^3
# Si number density = 19.700284 Si / 1000 Ang^3
#
#
#
# Elastic Constant Matrix: (Units=GPa)
#
#
# Indices 1 2 3 4 5 6 
#
# 1 123.0831 17.4082 25.8076 0.0000 1.6744 0.0000
# 2 17.4082 76.3225 26.6974 0.0000 3.1766 0.0000
# 3 25.8076 26.6974 86.5379 0.0000 -8.3279 0.0000
# 4 0.0000 0.0000 0.0000 16.6450 0.0000 -1.0539
# 5 1.6744 3.1766 -8.3279 0.0000 26.2356 0.0000
# 6 0.0000 0.0000 0.0000 -1.0539 0.0000 26.3320
#
#
#
# Elastic Compliance Matrix: (Units=1/GPa)
#
#
# Indices 1 2 3 4 5 6 
#
# 1 0.008801 -0.001121 -0.002393 0.000000 -0.001186 0.000000
# 2 -0.001121 0.015116 -0.004640 0.000000 -0.003231 0.000000
# 3 -0.002393 -0.004640 0.014203 0.000000 0.005223 0.000000
# 4 0.000000 0.000000 0.000000 0.060231 0.000000 0.002411
# 5 -0.001186 -0.003231 0.005223 0.000000 0.040241 0.000000
# 6 0.000000 0.000000 0.000000 0.002411 0.000000 0.038073
#
#
# Mechanical properties :
#
#
# Convention : Reuss Voigt Hill
#
# Bulk Modulus (GPa) = 45.84590 47.30778 46.57684
# Shear Modulus (GPa) = 24.96966 28.24453 26.60710
#
# Velocity S-wave (km/s) = 3.56403 3.79055 3.67903
# Velocity P-wave (km/s) = 6.34497 6.57446 6.46073
#
# Compressibility (1/GPa) = 0.02181220
#
# Stress axis : x y z
#
# Youngs Moduli (GPa) = 113.62338 66.15721 70.40617
#
# Poissons Ratio (x) = 0.07416 0.16848
# Poissons Ratio (y) = 0.12737 0.32668
# Poissons Ratio (z) = 0.27189 0.30696
#
# Static dielectric constant tensor:
#      x y z
#    x 1.705760 0.000000 -0.024520 
#    y 0.000000 1.679510 0.000000 
#    z -0.024520 0.000000 1.703820 
# 
# From -- ./inp_files/11181.got.cif
#   From: 2010.05.17/outbox.cif.g08.bks.cpg/sg5_6_cif.got.tgz:11181.got - 2010.06.03 18:56:24.
