data_PCOD9123868
_publ_section_title
;
Structure prediction by ZEFSAII (Michael W. Deem and Ramdas Pophale) SiO2 
 PCOD9123868
Probable space group: C 2
;
_chemical_formula_sum "Si O2"
_cell_formula_units_Z 22
_cell_length_a 10.584681
_cell_length_b 14.225847
_cell_length_c 10.352183
_cell_angle_alpha 90.000000
_cell_angle_beta 44.619948
_cell_angle_gamma 90.000000
_cell_volume 1094.896109
_symmetry_space_group_name_H-M "C 2"
_symmetry_group_IT_number 5
_symmetry_cell_setting 'monoclinic'
loop_
_space_group_symop_operation_xyz
x,y,z
-x,y,-z
1/2+x,1/2+y,z
1/2-x,1/2+y,-z
loop_
_atom_site_type_symbol
_atom_site_label
_atom_site_fract_x
_atom_site_fract_y
_atom_site_fract_z
Si Si1 0.805799 0.315470 0.696606
Si Si2 0.808339 0.986362 0.065822
Si Si3 0.000000 0.997882 0.500000
Si Si4 0.549317 0.155927 0.310990
Si Si5 0.337081 0.122166 0.203805
Si Si6 0.495500 0.366187 0.721972
O O1 0.816142 0.407517 0.776223
O O2 0.716836 0.222374 0.821709
O O3 0.659749 0.341533 0.695453
O O4 0.000000 0.290880 0.500000
O O5 0.709215 0.085775 0.151455
O O6 0.858357 0.935758 0.895128
O O7 0.000000 0.992894 0.000000
O O8 0.922127 0.927741 0.451111
O O9 0.159633 0.060951 0.331358
O O10 0.500000 0.139671 0.500000
O O11 0.397539 0.135119 0.310380
O O12 0.587421 0.267477 0.265722
O O13 0.500000 0.082820 0.000000
#
# Coordination Sequence:
#
# PCOD9123868 Si02
#       6
#     4   4   2   4   4   4
#     4  10  20  40  66  96 123 173 223 268 327 400
#     4  10  22  39  67  93 129 172 223 268 329 402
#     4  12  24  42  64  96 132 184 214 270 344 398
#     4  11  23  43  66  97 133 172 219 284 333 380
#     4  11  24  43  67  97 137 177 224 273 327 409
#     4  10  23  42  61  92 138 169 214 282 332 394
#
# _framework density 20.093229999999998
#
# number of rings (size 3 to 8) (size 9 to 14) (size 15 to 20)
#    0.000    1.455    1.818    4.364    7.636    0.000 
#    0.000    2.727    0.000    0.000    0.000    0.000 
#    0.000    0.000    0.000    0.000    0.000    0.000 
#
# Total GULP energy -61307.326264 kJ/mol
# GULP energy per Si atom -5573.393297 kJ/mol
# Density = 2.004750 g / cm^3
# Si number density = 20.093230 Si / 1000 Ang^3
#
#
#
# Elastic Constant Matrix: (Units=GPa)
#
#
# Indices 1 2 3 4 5 6 
#
# 1 33.8267 29.4337 19.3130 -0.0001 5.9601 0.0001
# 2 29.4337 125.2048 37.6569 0.0000 -8.7245 0.0000
# 3 19.3130 37.6569 90.9974 -0.0002 -13.2826 0.0001
# 4 -0.0001 0.0000 -0.0002 16.4827 0.0001 7.2643
# 5 5.9601 -8.7245 -13.2826 0.0001 30.9785 -0.0001
# 6 0.0001 0.0000 0.0001 7.2643 -0.0001 19.9777
#
#
#
# Elastic Compliance Matrix: (Units=1/GPa)
#
#
# Indices 1 2 3 4 5 6 
#
# 1 0.044495 -0.009129 -0.007777 0.000001 -0.014466 0.000000
# 2 -0.009129 0.011025 -0.002043 0.000000 0.003985 0.000000
# 3 -0.007777 -0.002043 0.014529 0.000000 0.007151 0.000000
# 4 0.000001 0.000000 0.000000 0.072248 -0.000001 -0.026271
# 5 -0.014466 0.003985 0.007151 -0.000001 0.039252 0.000000
# 6 0.000000 0.000000 0.000000 -0.026271 0.000000 0.059609
#
#
# Mechanical properties :
#
#
# Convention : Reuss Voigt Hill
#
# Bulk Modulus (GPa) = 31.10375 46.98181 39.04278
# Shear Modulus (GPa) = 17.25479 24.39613 20.82546
#
# Velocity S-wave (km/s) = 2.93360 3.48824 3.22287
# Velocity P-wave (km/s) = 5.19500 6.29734 5.77254
#
# Compressibility (1/GPa) = 0.03215046
#
# Stress axis : x y z
#
# Youngs Moduli (GPa) = 22.47431 90.70083 68.82670
#
# Poissons Ratio (x) = 0.82801 0.53529
# Poissons Ratio (y) = 0.20517 0.14063
# Poissons Ratio (z) = 0.17479 0.18532
#
# Static dielectric constant tensor:
#      x y z
#    x 1.727100 0.000000 0.072360 
#    y 0.000000 1.717430 0.000000 
#    z 0.072360 0.000000 1.734030 
# 
# From -- ./inp_files/39049.got.cif
#   From: 2010.05.17/outbox.cif.g08.bks.cpg/sg5_20_cif.got.tgz:39049.got - 2010.06.03 18:56:24.
