data_PCOD9123116
_publ_section_title
;
Structure prediction by ZEFSAII (Michael W. Deem and Ramdas Pophale) SiO2 
 PCOD9123116
Probable space group: C 2
;
_chemical_formula_sum "Si O2"
_cell_formula_units_Z 30
_cell_length_a 5.288605
_cell_length_b 24.393593
_cell_length_c 12.013745
_cell_angle_alpha 90.000000
_cell_angle_beta 90.490194
_cell_angle_gamma 90.000000
_cell_volume 1549.813429
_symmetry_space_group_name_H-M "C 2"
_symmetry_group_IT_number 5
_symmetry_cell_setting 'monoclinic'
loop_
_space_group_symop_operation_xyz
x,y,z
-x,y,-z
1/2+x,1/2+y,z
1/2-x,1/2+y,-z
loop_
_atom_site_type_symbol
_atom_site_label
_atom_site_fract_x
_atom_site_fract_y
_atom_site_fract_z
Si Si1 0.631042 0.835070 0.380252
Si Si2 0.200909 0.647710 0.804363
Si Si3 0.000000 0.179435 0.000000
Si Si4 0.654321 0.241730 0.174393
Si Si5 0.877203 0.861420 0.745163
Si Si6 0.483518 0.474867 0.866551
Si Si7 0.524729 0.709504 0.370095
Si Si8 0.517324 0.042034 0.133997
O O1 0.500000 0.843378 0.500000
O O2 0.413256 0.859080 0.298303
O O3 0.658606 0.769200 0.365429
O O4 0.909796 0.857185 0.351806
O O5 0.384677 0.637740 0.908453
O O6 0.334999 0.659321 0.689147
O O7 0.990025 0.601445 0.808396
O O8 0.098929 0.707468 0.837131
O O9 0.173053 0.219225 0.924937
O O10 0.604933 0.306020 0.181050
O O11 0.778958 0.222016 0.292575
O O12 0.945077 0.915613 0.812556
O O13 0.239324 0.510779 0.834503
O O14 0.739418 0.506313 0.834385
O O15 0.500000 0.468928 0.000000
O O16 0.500000 0.697913 0.500000
O O17 0.500000 0.048885 0.000000
#
# Coordination Sequence:
#
# PCOD9123116 Si02
#       8
#     4   4   2   4   4   4   4   4
#     4  10  20  37  62  91 120 156 197 249 295 361
#     4  11  21  36  59  87 117 157 197 252 301 358
#     4  10  22  34  52  90 126 154 198 238 324 362
#     4  10  21  35  56  90 120 162 189 246 309 366
#     4  11  21  39  60  88 123 153 203 241 304 359
#     4  10  23  40  58  86 116 162 199 245 289 352
#     4   9  20  36  56  88 125 155 200 241 301 366
#     4  10  22  38  60  82 115 157 209 242 290 351
#
# _framework density 19.35717
#
# number of rings (size 3 to 8) (size 9 to 14) (size 15 to 20)
#    0.000    1.867    1.333    2.400    6.533    1.600 
#    3.600    0.000    0.000    3.200    0.000    0.000 
#    0.000    0.000    0.000    0.000    0.000    0.000 
#
# Total GULP energy -83637.986947 kJ/mol
# GULP energy per Si atom -5575.865796 kJ/mol
# Density = 1.931311 g / cm^3
# Si number density = 19.357170 Si / 1000 Ang^3
#
#
#
# Elastic Constant Matrix: (Units=GPa)
#
#
# Indices 1 2 3 4 5 6 
#
# 1 80.4012 30.3019 26.2265 0.0000 -13.7692 0.0000
# 2 30.3019 106.3723 27.0697 0.0000 0.6252 0.0000
# 3 26.2265 27.0697 88.3538 0.0000 -2.3159 0.0000
# 4 0.0000 0.0000 0.0000 16.4082 0.0000 -1.7788
# 5 -13.7692 0.6252 -2.3159 0.0000 14.4317 0.0000
# 6 0.0000 0.0000 0.0000 -1.7788 0.0000 26.9603
#
#
#
# Elastic Compliance Matrix: (Units=1/GPa)
#
#
# Indices 1 2 3 4 5 6 
#
# 1 0.018156 -0.004352 -0.003612 0.000000 0.016931 0.000000
# 2 -0.004352 0.011252 -0.002287 0.000000 -0.005007 0.000000
# 3 -0.003612 -0.002287 0.013058 0.000000 -0.001252 0.000000
# 4 0.000000 0.000000 0.000000 0.061384 0.000000 0.004050
# 5 0.016931 -0.005007 -0.001252 0.000000 0.085462 0.000000
# 6 0.000000 0.000000 0.000000 0.004050 0.000000 0.037359
#
#
# Mechanical properties :
#
#
# Convention : Reuss Voigt Hill
#
# Bulk Modulus (GPa) = 45.52931 49.14705 47.33818
# Shear Modulus (GPa) = 19.64683 24.32866 21.98775
#
# Velocity S-wave (km/s) = 3.18931 3.54902 3.37396
# Velocity P-wave (km/s) = 6.09376 6.49914 6.29971
#
# Compressibility (1/GPa) = 0.02196387
#
# Stress axis : x y z
#
# Youngs Moduli (GPa) = 55.07912 88.87211 76.58078
#
# Poissons Ratio (x) = 0.38680 0.27661
# Poissons Ratio (y) = 0.23972 0.17512
# Poissons Ratio (z) = 0.19895 0.20323
#
# Static dielectric constant tensor:
#      x y z
#    x 1.757200 0.000000 0.026960 
#    y 0.000000 1.672970 0.000000 
#    z 0.026960 0.000000 1.734330 
# 
# From -- ./inp_files/33968.got.cif
#   From: 2010.05.17/outbox.cif.g08.bks.cpg/sg5_17_cif.got.tgz:33968.got - 2010.06.03 18:56:24.
