data_PCOD9123392
_publ_section_title
;
Structure prediction by ZEFSAII (Michael W. Deem and Ramdas Pophale) SiO2 
 PCOD9123392
Probable space group: C 2
;
_chemical_formula_sum "Si O2"
_cell_formula_units_Z 24
_cell_length_a 8.951908
_cell_length_b 17.594407
_cell_length_c 9.139070
_cell_angle_alpha 90.000000
_cell_angle_beta 52.730991
_cell_angle_gamma 90.000000
_cell_volume 1145.504515
_symmetry_space_group_name_H-M "C 2"
_symmetry_group_IT_number 5
_symmetry_cell_setting 'monoclinic'
loop_
_space_group_symop_operation_xyz
x,y,z
-x,y,-z
1/2+x,1/2+y,z
1/2-x,1/2+y,-z
loop_
_atom_site_type_symbol
_atom_site_label
_atom_site_fract_x
_atom_site_fract_y
_atom_site_fract_z
Si Si1 0.815258 0.427470 0.046728
Si Si2 0.209582 0.588901 0.823384
Si Si3 0.686545 0.983906 0.289374
Si Si4 0.049897 0.840953 0.804569
Si Si5 0.697737 0.709776 0.459472
Si Si6 0.064427 0.135849 0.809637
O O1 0.780195 0.498249 0.176228
O O2 0.641691 0.371705 0.147940
O O3 0.843453 0.464228 0.866358
O O4 0.000000 0.388766 0.000000
O O5 0.247717 0.629386 0.647419
O O6 0.375537 0.615583 0.832085
O O7 0.000000 0.610009 0.000000
O O8 0.500000 0.990438 0.500000
O O9 0.809352 0.912662 0.271866
O O10 0.812143 0.060201 0.231095
O O11 0.148510 0.771885 0.666871
O O12 0.000000 0.817650 0.000000
O O13 0.500000 0.732985 0.500000
O O14 0.673377 0.694287 0.643650
O O15 0.000000 0.169492 0.000000
#
# Coordination Sequence:
#
# PCOD9123392 Si02
#       6
#     4   4   4   4   4   4
#     4  10  21  39  69 104 132 173 224 285 336 391
#     4  10  20  38  64 102 134 170 222 277 338 395
#     4  11  22  38  68  99 134 176 229 277 335 401
#     4  10  20  43  70  98 137 179 223 271 345 406
#     4  10  23  38  68 103 133 184 223 276 340 405
#     4  11  21  40  63 103 135 175 229 281 330 393
#
# _framework density 20.951467999999998
#
# number of rings (size 3 to 8) (size 9 to 14) (size 15 to 20)
#    0.000    1.667    3.333    1.500    4.667    0.000 
#    0.000    0.833    0.000   66.000    0.000    0.000 
#    0.000    0.000    0.000    0.000    0.000    0.000 
#
# Total GULP energy -67072.545938 kJ/mol
# GULP energy per Si atom -5589.378828 kJ/mol
# Density = 2.090378 g / cm^3
# Si number density = 20.951468 Si / 1000 Ang^3
#
#
#
# Elastic Constant Matrix: (Units=GPa)
#
#
# Indices 1 2 3 4 5 6 
#
# 1 115.0034 53.1224 64.0821 0.0000 -15.8869 0.0000
# 2 53.1224 94.8168 80.1008 0.0000 0.2443 0.0000
# 3 64.0821 80.1008 166.8866 0.0000 -5.8346 0.0000
# 4 0.0000 0.0000 0.0000 14.0746 0.0000 2.4626
# 5 -15.8869 0.2443 -5.8346 0.0000 29.4710 0.0000
# 6 0.0000 0.0000 0.0000 2.4626 0.0000 -4.7373
#
#
#
# Elastic Compliance Matrix: (Units=1/GPa)
#
#
# Indices 1 2 3 4 5 6 
#
# 1 0.013524 -0.005739 -0.002197 0.000000 0.006903 0.000000
# 2 -0.005739 0.020275 -0.007695 0.000000 -0.004785 0.000000
# 3 -0.002197 -0.007695 0.010563 0.000000 0.000971 0.000000
# 4 0.000000 0.000000 0.000000 0.065126 0.000000 0.033855
# 5 0.006903 -0.004785 0.000971 0.000000 0.037885 0.000000
# 6 0.000000 0.000000 0.000000 0.033855 0.000000 -0.193490
#
#
# Mechanical properties :
#
#
# Convention : Reuss Voigt Hill
#
# Bulk Modulus (GPa) = 76.33507 85.70192 81.01850
# Shear Modulus (GPa) = -476.72495 19.72177 -228.50159
#
# Velocity S-wave (km/s) = -15.10072 3.07140 -10.45462
# Velocity P-wave (km/s) = 16.35631 7.31927 10.34304
#
# Compressibility (1/GPa) = 0.01310014
#
# Stress axis : x y z
#
# Youngs Moduli (GPa) = 73.94166 49.32212 94.66774
#
# Poissons Ratio (x) = 0.28304 0.20803
# Poissons Ratio (y) = 0.42431 0.72848
# Poissons Ratio (z) = 0.16248 0.37954
#
# Static dielectric constant tensor:
#      x y z
#    x 1.778290 0.000000 -0.013000 
#    y 0.000000 1.722310 0.000000 
#    z -0.013000 0.000000 1.776490 
# 
# From -- ./inp_files/16698.got.cif
#   From: 2010.05.17/outbox.cif.g08.bks.cpg/sg5_9_cif.got.tgz:16698.got - 2010.06.03 18:56:24.
