data_PCOD9123690
_publ_section_title
;
Structure prediction by ZEFSAII (Michael W. Deem and Ramdas Pophale) SiO2 
 PCOD9123690
Probable space group: C 2
;
_chemical_formula_sum "Si O2"
_cell_formula_units_Z 20
_cell_length_a 11.924650
_cell_length_b 11.306392
_cell_length_c 9.891650
_cell_angle_alpha 90.000000
_cell_angle_beta 138.071457
_cell_angle_gamma 90.000000
_cell_volume 891.142209
_symmetry_space_group_name_H-M "C 2"
_symmetry_group_IT_number 5
_symmetry_cell_setting 'monoclinic'
loop_
_space_group_symop_operation_xyz
x,y,z
-x,y,-z
1/2+x,1/2+y,z
1/2-x,1/2+y,-z
loop_
_atom_site_type_symbol
_atom_site_label
_atom_site_fract_x
_atom_site_fract_y
_atom_site_fract_z
Si Si1 0.534337 0.696780 0.181282
Si Si2 0.129563 0.819332 0.499001
Si Si3 0.299165 0.026334 0.818522
Si Si4 0.102572 0.939849 0.907571
Si Si5 0.342663 0.783821 0.269060
O O1 0.724559 0.725531 0.388817
O O2 0.494682 0.558917 0.146128
O O3 0.414141 0.755524 0.183682
O O4 0.500000 0.744449 0.000000
O O5 0.000000 0.782493 0.500000
O O6 0.024146 0.845561 0.271138
O O7 0.217913 0.940458 0.632363
O O8 0.230323 0.159918 0.741364
O O9 0.227851 0.977474 0.897352
O O10 0.500000 0.025966 0.000000
O O11 0.203549 0.883089 0.121228
O O12 0.500000 0.822073 0.500000
#
# Coordination Sequence:
#
# PCOD9123690 Si02
#       5
#     4   4   4   4   4
#     4  11  23  42  66  93 129 170 214 264 317 379
#     4  10  20  40  66  94 128 172 215 255 313 394
#     4  10  20  39  68  95 126 172 214 252 316 397
#     4  10  23  40  63  96 130 164 215 271 319 368
#     4  11  24  43  64  94 131 168 212 266 322 380
#
# _framework density 22.443107999999999
#
# number of rings (size 3 to 8) (size 9 to 14) (size 15 to 20)
#    0.000    1.600    0.000    7.200    0.000    5.600 
#    0.000    9.000    0.000    0.000    0.000    0.000 
#    0.000    0.000    0.000    0.000    0.000    0.000 
#
# Total GULP energy -56020.151151 kJ/mol
# GULP energy per Si atom -5602.015115 kJ/mol
# Density = 2.239203 g / cm^3
# Si number density = 22.443108 Si / 1000 Ang^3
#
#
#
# Elastic Constant Matrix: (Units=GPa)
#
#
# Indices 1 2 3 4 5 6 
#
# 1 88.1372 29.0740 35.5665 0.0000 12.0884 0.0000
# 2 29.0740 123.1672 71.4079 0.0000 17.2394 0.0000
# 3 35.5665 71.4079 150.9914 0.0000 17.8833 0.0000
# 4 0.0000 0.0000 0.0000 25.9391 0.0000 4.6329
# 5 12.0884 17.2394 17.8833 0.0000 46.8630 0.0000
# 6 0.0000 0.0000 0.0000 4.6329 0.0000 12.8558
#
#
#
# Elastic Compliance Matrix: (Units=1/GPa)
#
#
# Indices 1 2 3 4 5 6 
#
# 1 0.012976 -0.001585 -0.002073 0.000000 -0.001973 0.000000
# 2 -0.001585 0.011600 -0.004876 0.000000 -0.001998 0.000000
# 3 -0.002073 -0.004876 0.009574 0.000000 -0.001325 0.000000
# 4 0.000000 0.000000 0.000000 0.041204 0.000000 -0.014849
# 5 -0.001973 -0.001998 -0.001325 0.000000 0.023088 0.000000
# 6 0.000000 0.000000 0.000000 -0.014849 0.000000 0.083137
#
#
# Mechanical properties :
#
#
# Convention : Reuss Voigt Hill
#
# Bulk Modulus (GPa) = 58.54221 70.48805 64.51513
# Shear Modulus (GPa) = 24.46891 32.21476 28.34183
#
# Velocity S-wave (km/s) = 3.30550 3.79277 3.55749
# Velocity P-wave (km/s) = 6.38042 7.11729 6.75890
#
# Compressibility (1/GPa) = 0.01708169
#
# Stress axis : x y z
#
# Youngs Moduli (GPa) = 77.06531 86.20992 104.44799
#
# Poissons Ratio (x) = 0.13663 0.21656
# Poissons Ratio (y) = 0.12213 0.50927
# Poissons Ratio (z) = 0.15978 0.42035
#
# Static dielectric constant tensor:
#      x y z
#    x 1.871120 0.000000 -0.014340 
#    y 0.000000 1.810520 0.000000 
#    z -0.014340 0.000000 1.806120 
# 
# From -- ./inp_files/20203.got.cif
#   From: 2010.05.17/outbox.cif.g08.bks.cpg/sg5_11_cif.got.tgz:20203.got - 2010.06.03 18:56:24.
