data_PCOD9123664
_publ_section_title
;
Structure prediction by ZEFSAII (Michael W. Deem and Ramdas Pophale) SiO2 
 PCOD9123664
Probable space group: C 2
;
_chemical_formula_sum "Si O2"
_cell_formula_units_Z 20
_cell_length_a 23.420580
_cell_length_b 6.747795
_cell_length_c 5.119448
_cell_angle_alpha 90.000000
_cell_angle_beta 80.563742
_cell_angle_gamma 90.000000
_cell_volume 798.115842
_symmetry_space_group_name_H-M "C 2"
_symmetry_group_IT_number 5
_symmetry_cell_setting 'monoclinic'
loop_
_space_group_symop_operation_xyz
x,y,z
-x,y,-z
1/2+x,1/2+y,z
1/2-x,1/2+y,-z
loop_
_atom_site_type_symbol
_atom_site_label
_atom_site_fract_x
_atom_site_fract_y
_atom_site_fract_z
Si Si1 0.680998 0.279850 0.350653
Si Si2 0.936567 0.573229 0.541060
Si Si3 0.215969 0.018485 0.825268
Si Si4 0.390102 0.729265 0.247588
Si Si5 0.557183 0.649835 0.292506
O O1 0.694389 0.358618 0.629778
O O2 0.614598 0.219607 0.352964
O O3 0.718801 0.080657 0.278731
O O4 0.705188 0.431012 0.117255
O O5 0.915341 0.446231 0.301925
O O6 0.944715 0.390133 0.733538
O O7 0.000000 0.668514 0.500000
O O8 0.174234 0.209993 0.813179
O O9 0.392578 0.626278 0.530742
O O10 0.428365 0.598360 0.014530
O O11 0.500000 0.598983 0.500000
#
# Coordination Sequence:
#
# PCOD9123664 Si02
#       5
#     4   4   4   4   4
#     4  12  27  46  70 101 137 181 226 288 335 409
#     4   9  23  42  73  97 139 177 228 266 342 404
#     4  12  27  45  71 100 138 176 231 283 347 394
#     4  10  20  39  66  96 132 171 225 274 329 404
#     4   9  19  34  65  97 127 172 219 262 318 398
#
# _framework density 25.059014999999999
#
# number of rings (size 3 to 8) (size 9 to 14) (size 15 to 20)
#    1.200    0.400    0.000    4.200    5.600    0.000 
#    0.000    7.000    0.000    0.000    0.000    0.000 
#    0.000    0.000    0.000    0.000    0.000    0.000 
#
# Total GULP energy -55785.773906 kJ/mol
# GULP energy per Si atom -5578.577391 kJ/mol
# Density = 2.500198 g / cm^3
# Si number density = 25.059015 Si / 1000 Ang^3
#
#
#
# Elastic Constant Matrix: (Units=GPa)
#
#
# Indices 1 2 3 4 5 6 
#
# 1 128.1765 23.9538 3.2339 0.0000 -33.9850 0.0000
# 2 23.9538 75.8108 8.3497 0.0000 -5.4071 0.0000
# 3 3.2339 8.3497 135.5051 0.0000 -2.1045 0.0000
# 4 0.0000 0.0000 0.0000 24.4445 0.0000 8.9147
# 5 -33.9850 -5.4071 -2.1045 0.0000 28.6265 0.0000
# 6 0.0000 0.0000 0.0000 8.9147 0.0000 30.6154
#
#
#
# Elastic Compliance Matrix: (Units=1/GPa)
#
#
# Indices 1 2 3 4 5 6 
#
# 1 0.011946 -0.002811 0.000100 0.000000 0.013659 0.000000
# 2 -0.002811 0.014117 -0.000814 0.000000 -0.000731 0.000000
# 3 0.000100 -0.000814 0.007436 0.000000 0.000512 0.000000
# 4 0.000000 0.000000 0.000000 0.045769 0.000000 -0.013327
# 5 0.013659 -0.000731 0.000512 0.000000 0.051048 0.000000
# 6 0.000000 0.000000 0.000000 -0.013327 0.000000 0.036544
#
#
# Mechanical properties :
#
#
# Convention : Reuss Voigt Hill
#
# Bulk Modulus (GPa) = 37.81060 45.61858 41.71459
# Shear Modulus (GPa) = 27.36346 37.00095 32.18220
#
# Velocity S-wave (km/s) = 3.30807 3.84676 3.58754
# Velocity P-wave (km/s) = 5.45091 6.16231 5.81750
#
# Compressibility (1/GPa) = 0.02644761
#
# Stress axis : x y z
#
# Youngs Moduli (GPa) = 83.70942 70.83870 134.48958
#
# Poissons Ratio (x) = 0.19916 -0.01348
# Poissons Ratio (y) = 0.23534 0.10949
# Poissons Ratio (z) = -0.00839 0.05767
#
# Static dielectric constant tensor:
#      x y z
#    x 2.049810 0.000000 -0.102200 
#    y 0.000000 2.088700 0.000000 
#    z -0.102200 0.000000 2.035310 
# 
# From -- ./inp_files/9113.got.cif
#   From: 2010.05.17/outbox.cif.g08.bks.cpg/sg5_5_cif.got.tgz:9113.got - 2010.06.03 18:56:24.
