data_PCOD9123112
_publ_section_title
;
Structure prediction by ZEFSAII (Michael W. Deem and Ramdas Pophale) SiO2 
 PCOD9123112
Probable space group: C 2
;
_chemical_formula_sum "Si O2"
_cell_formula_units_Z 30
_cell_length_a 8.748119
_cell_length_b 11.923584
_cell_length_c 14.275506
_cell_angle_alpha 90.000000
_cell_angle_beta 90.806442
_cell_angle_gamma 90.000000
_cell_volume 1488.915286
_symmetry_space_group_name_H-M "C 2"
_symmetry_group_IT_number 5
_symmetry_cell_setting 'monoclinic'
loop_
_space_group_symop_operation_xyz
x,y,z
-x,y,-z
1/2+x,1/2+y,z
1/2-x,1/2+y,-z
loop_
_atom_site_type_symbol
_atom_site_label
_atom_site_fract_x
_atom_site_fract_y
_atom_site_fract_z
Si Si1 0.493866 0.651880 0.168094
Si Si2 0.546714 0.402245 0.108647
Si Si3 0.145663 0.345224 0.962398
Si Si4 0.264822 0.896186 0.641759
Si Si5 0.500000 0.990778 0.500000
Si Si6 0.746798 0.669466 0.451506
Si Si7 0.910335 0.127895 0.369995
Si Si8 0.226547 0.790766 0.832027
O O1 0.485142 0.522292 0.141208
O O2 0.422177 0.734995 0.090139
O O3 0.408102 0.671759 0.264751
O O4 0.674278 0.679644 0.184533
O O5 0.730107 0.396692 0.106518
O O6 0.456619 0.307197 0.167316
O O7 0.500000 0.391480 0.000000
O O8 0.227513 0.317819 0.061033
O O9 0.000000 0.414910 0.000000
O O10 0.197741 0.780360 0.600611
O O11 0.290066 0.874345 0.752302
O O12 0.415581 0.920262 0.580574
O O13 0.153480 0.001323 0.628324
O O14 0.371603 0.071930 0.454234
O O15 0.586313 0.631640 0.404157
O O16 0.696424 0.694298 0.558236
#
# Coordination Sequence:
#
# PCOD9123112 Si02
#       8
#     4   4   4   4   2   4   4   4
#     4  11  20  40  61  90 123 165 203 251 306 360
#     4  10  20  39  61  86 123 162 199 254 306 354
#     4   9  21  40  60  91 123 158 207 247 300 367
#     4  11  21  41  62  90 125 162 199 256 306 357
#     4  10  24  40  64  92 120 160 206 248 308 370
#     4  10  22  42  60  89 125 156 202 259 307 362
#     4  10  21  39  64  90 119 166 207 245 313 373
#     4  10  20  37  62  89 122 159 205 247 300 362
#
# _framework density 20.148895
#
# number of rings (size 3 to 8) (size 9 to 14) (size 15 to 20)
#    0.000    1.867    2.667    2.000    0.000    2.133 
#    9.600    8.667    0.000    0.000    0.000    0.000 
#    0.000    0.000    0.000    0.000    0.000    0.000 
#
# Total GULP energy -83501.697056 kJ/mol
# GULP energy per Si atom -5566.779804 kJ/mol
# Density = 2.010304 g / cm^3
# Si number density = 20.148895 Si / 1000 Ang^3
#
#
#
# Elastic Constant Matrix: (Units=GPa)
#
#
# Indices 1 2 3 4 5 6 
#
# 1 69.9652 11.4951 24.2345 0.0000 -18.3805 0.0000
# 2 11.4951 45.8376 28.1072 0.0000 -1.2198 0.0000
# 3 24.2345 28.1072 122.4482 0.0000 -21.9440 0.0000
# 4 0.0000 0.0000 0.0000 23.8454 0.0000 -7.2637
# 5 -18.3805 -1.2198 -21.9440 0.0000 21.3280 0.0000
# 6 0.0000 0.0000 0.0000 -7.2637 0.0000 26.5319
#
#
#
# Elastic Compliance Matrix: (Units=1/GPa)
#
#
# Indices 1 2 3 4 5 6 
#
# 1 0.019330 -0.004519 0.000185 0.000000 0.016590 0.000000
# 2 -0.004519 0.026998 -0.007018 0.000000 -0.009572 0.000000
# 3 0.000185 -0.007018 0.011890 0.000000 0.011992 0.000000
# 4 0.000000 0.000000 0.000000 0.045752 0.000000 0.012526
# 5 0.016590 -0.009572 0.011992 0.000000 0.072975 0.000000
# 6 0.000000 0.000000 0.000000 0.012526 0.000000 0.041120
#
#
# Mechanical properties :
#
#
# Convention : Reuss Voigt Hill
#
# Bulk Modulus (GPa) = 28.15892 40.65827 34.40859
# Shear Modulus (GPa) = 19.79355 25.96867 22.88111
#
# Velocity S-wave (km/s) = 3.13767 3.59393 3.37352
# Velocity P-wave (km/s) = 5.20887 6.11919 5.68229
#
# Compressibility (1/GPa) = 0.03551273
#
# Stress axis : x y z
#
# Youngs Moduli (GPa) = 51.73395 37.03943 84.10347
#
# Poissons Ratio (x) = 0.16739 -0.01555
# Poissons Ratio (y) = 0.23380 0.59025
# Poissons Ratio (z) = -0.00956 0.25995
#
# Static dielectric constant tensor:
#      x y z
#    x 1.793160 0.000000 -0.021150 
#    y 0.000000 1.690660 0.000000 
#    z -0.021150 0.000000 1.747110 
# 
# From -- ./inp_files/50302.got.cif
#   From: 2010.05.17/outbox.cif.g08.bks.cpg/sg5_26_cif.got.tgz:50302.got - 2010.06.03 18:56:24.
