data_PCOD9123209
_publ_section_title
;
Structure prediction by ZEFSAII (Michael W. Deem and Ramdas Pophale) SiO2 
 PCOD9123209
Probable space group: C 2
;
_chemical_formula_sum "Si O2"
_cell_formula_units_Z 22
_cell_length_a 16.338257
_cell_length_b 9.360253
_cell_length_c 10.207922
_cell_angle_alpha 90.000000
_cell_angle_beta 42.335136
_cell_angle_gamma 90.000000
_cell_volume 1051.347537
_symmetry_space_group_name_H-M "C 2"
_symmetry_group_IT_number 5
_symmetry_cell_setting 'monoclinic'
loop_
_space_group_symop_operation_xyz
x,y,z
-x,y,-z
1/2+x,1/2+y,z
1/2-x,1/2+y,-z
loop_
_atom_site_type_symbol
_atom_site_label
_atom_site_fract_x
_atom_site_fract_y
_atom_site_fract_z
Si Si1 0.447918 0.468180 0.776319
Si Si2 0.000000 0.205546 0.500000
Si Si3 0.120750 0.664637 0.228198
Si Si4 0.669313 0.346493 0.663601
Si Si5 0.238077 0.806562 0.859100
Si Si6 0.860988 0.586941 0.494852
O O1 0.486837 0.601344 0.641859
O O2 0.436562 0.325738 0.700595
O O3 0.552962 0.438149 0.757882
O O4 0.286136 0.186750 0.001919
O O5 0.878216 0.299305 0.652391
O O6 0.320083 0.448416 0.006032
O O7 0.160314 0.625976 0.327405
O O8 0.007166 0.568493 0.314925
O O9 0.661721 0.280354 0.817870
O O10 0.783706 0.452646 0.537755
O O11 0.678494 0.220271 0.548085
#
# Coordination Sequence:
#
# PCOD9123209 Si02
#       6
#     4   2   4   4   4   4
#     4   9  21  40  63  92 131 178 208 275 339 399
#     4  12  22  42  68  96 134 170 234 280 326 402
#     4   8  20  40  61  91 131 178 219 261 344 397
#     4  11  21  39  65  99 133 172 219 274 344 388
#     4  10  24  38  64  97 124 175 223 268 332 404
#     4  10  20  37  66  97 131 179 216 278 328 405
#
# _framework density 20.925528
#
# number of rings (size 3 to 8) (size 9 to 14) (size 15 to 20)
#    1.091    1.091    0.000    3.818    2.545    1.455 
#    0.000    0.000    0.000    2.182    0.000    0.000 
#    0.000    0.000    0.000    0.000    0.000    0.000 
#
# Total GULP energy -61250.278977 kJ/mol
# GULP energy per Si atom -5568.207180 kJ/mol
# Density = 2.087790 g / cm^3
# Si number density = 20.925528 Si / 1000 Ang^3
#
#
#
# Elastic Constant Matrix: (Units=GPa)
#
#
# Indices 1 2 3 4 5 6 
#
# 1 141.6353 60.8607 68.3641 0.0000 23.8677 0.0000
# 2 60.8607 74.1191 36.9000 0.0000 4.8834 0.0000
# 3 68.3641 36.9000 163.2134 0.0000 -2.0546 0.0000
# 4 0.0000 0.0000 0.0000 35.2037 0.0000 3.6131
# 5 23.8677 4.8834 -2.0546 0.0000 27.9810 0.0000
# 6 0.0000 0.0000 0.0000 3.6131 0.0000 42.1759
#
#
#
# Elastic Compliance Matrix: (Units=1/GPa)
#
#
# Indices 1 2 3 4 5 6 
#
# 1 0.015249 -0.009579 -0.004368 0.000000 -0.011657 0.000000
# 2 -0.009579 0.021460 -0.000785 0.000000 0.004368 0.000000
# 3 -0.004368 -0.000785 0.008190 0.000000 0.004465 0.000000
# 4 0.000000 0.000000 0.000000 0.028658 0.000000 -0.002455
# 5 -0.011657 0.004368 0.004465 0.000000 0.045247 0.000000
# 6 0.000000 0.000000 0.000000 -0.002455 0.000000 0.023921
#
#
# Mechanical properties :
#
#
# Convention : Reuss Voigt Hill
#
# Bulk Modulus (GPa) = 64.78385 79.02416 71.90400
# Shear Modulus (GPa) = 28.19543 35.26166 31.72854
#
# Velocity S-wave (km/s) = 3.67470 4.10945 3.89814
# Velocity P-wave (km/s) = 7.00222 7.76938 7.39575
#
# Compressibility (1/GPa) = 0.01543595
#
# Stress axis : x y z
#
# Youngs Moduli (GPa) = 65.57732 46.59869 122.09498
#
# Poissons Ratio (x) = 0.44635 0.53337
# Poissons Ratio (y) = 0.62814 0.09580
# Poissons Ratio (z) = 0.28647 0.03656
#
# Static dielectric constant tensor:
#      x y z
#    x 1.737440 0.000000 -0.031780 
#    y 0.000000 1.805740 0.000000 
#    z -0.031780 0.000000 1.827510 
# 
# From -- ./inp_files/41411.got.cif
#   From: 2010.05.17/outbox.cif.g08.bks.cpg/sg5_21_cif.got.tgz:41411.got - 2010.06.03 18:56:24.
