data_PCOD9123610
_publ_section_title
;
Structure prediction by ZEFSAII (Michael W. Deem and Ramdas Pophale) SiO2 
 PCOD9123610
Probable space group: C 2
;
_chemical_formula_sum "Si O2"
_cell_formula_units_Z 32
_cell_length_a 14.983366
_cell_length_b 12.229624
_cell_length_c 13.906793
_cell_angle_alpha 90.000000
_cell_angle_beta 140.968661
_cell_angle_gamma 90.000000
_cell_volume 1604.776173
_symmetry_space_group_name_H-M "C 2"
_symmetry_group_IT_number 5
_symmetry_cell_setting 'monoclinic'
loop_
_space_group_symop_operation_xyz
x,y,z
-x,y,-z
1/2+x,1/2+y,z
1/2-x,1/2+y,-z
loop_
_atom_site_type_symbol
_atom_site_label
_atom_site_fract_x
_atom_site_fract_y
_atom_site_fract_z
Si Si1 0.159425 0.646090 0.656882
Si Si2 0.074121 0.641298 0.800437
Si Si3 0.945074 0.027435 0.845404
Si Si4 0.584613 0.354898 0.344059
Si Si5 0.362627 0.679544 0.133008
Si Si6 0.161949 0.983498 0.760068
Si Si7 0.932102 0.410318 0.116543
Si Si8 0.240623 0.378514 0.336587
O O1 0.157945 0.646018 0.770374
O O2 0.286964 0.575349 0.721663
O O3 0.187860 0.767379 0.641277
O O4 0.000000 0.609575 0.500000
O O5 0.034712 0.518549 0.794453
O O6 0.945308 0.726304 0.691325
O O7 0.193989 0.678505 0.975114
O O8 0.048687 0.112148 0.874841
O O9 0.935503 0.919040 0.772163
O O10 0.000000 0.010273 0.000000
O O11 0.462192 0.401974 0.311610
O O12 0.725775 0.382290 0.521987
O O13 0.382172 0.604414 0.243049
O O14 0.402896 0.805776 0.159084
O O15 0.194364 0.973201 0.675044
O O16 0.299008 0.941034 0.936621
O O17 0.073549 0.378868 0.177880
#
# Coordination Sequence:
#
# PCOD9123610 Si02
#       8
#     4   4   4   4   4   4   4   4
#     4  12  22  37  64  92 124 163 215 261 310 376
#     4  11  22  39  64  94 132 167 211 262 320 379
#     4  11  24  40  65  96 121 167 214 267 311 381
#     4  11  23  40  63  94 129 163 210 265 321 373
#     4  10  20  39  63  95 126 163 216 265 317 372
#     4  10  21  38  64  93 125 168 212 261 315 376
#     4  11  23  38  65  95 132 165 212 268 316 375
#     4  12  22  38  64  97 125 165 215 264 311 374
#
# _framework density 19.940476
#
# number of rings (size 3 to 8) (size 9 to 14) (size 15 to 20)
#    0.000    1.000    6.250    0.750    1.750    0.000 
#    0.000    3.750    0.000    3.000    0.000    0.000 
#    0.000    0.000    0.000    0.000    0.000    0.000 
#
# Total GULP energy -89292.560560 kJ/mol
# GULP energy per Si atom -5580.785035 kJ/mol
# Density = 1.989509 g / cm^3
# Si number density = 19.940476 Si / 1000 Ang^3
#
#
#
# Elastic Constant Matrix: (Units=GPa)
#
#
# Indices 1 2 3 4 5 6 
#
# 1 54.2201 32.9546 17.4661 0.0000 0.8882 0.0000
# 2 32.9546 131.5841 29.5860 0.0000 -15.7385 0.0000
# 3 17.4661 29.5860 60.3127 0.0000 10.7878 0.0000
# 4 0.0000 0.0000 0.0000 -1.9600 0.0000 -2.4943
# 5 0.8882 -15.7385 10.7878 0.0000 29.9973 0.0000
# 6 0.0000 0.0000 0.0000 -2.4943 0.0000 25.0285
#
#
#
# Elastic Compliance Matrix: (Units=1/GPa)
#
#
# Indices 1 2 3 4 5 6 
#
# 1 0.022783 -0.005107 -0.003733 0.000000 -0.002012 0.000000
# 2 -0.005107 0.011015 -0.005328 0.000000 0.007847 0.000000
# 3 -0.003733 -0.005328 0.022182 0.000000 -0.010662 0.000000
# 4 0.000000 0.000000 0.000000 -0.452784 0.000000 -0.045124
# 5 -0.002012 0.007847 -0.010662 0.000000 0.041347 0.000000
# 6 0.000000 0.000000 0.000000 -0.045124 0.000000 0.035457
#
#
# Mechanical properties :
#
#
# Convention : Reuss Voigt Hill
#
# Bulk Modulus (GPa) = 36.17363 45.12558 40.64960
# Shear Modulus (GPa) = -17.70225 21.68719 1.99247
#
# Velocity S-wave (km/s) = -2.98275 3.30145 1.00069
# Velocity P-wave (km/s) = 2.51352 6.10017 4.66529
#
# Compressibility (1/GPa) = 0.02764445
#
# Stress axis : x y z
#
# Youngs Moduli (GPa) = 43.89271 90.78331 45.08204
#
# Poissons Ratio (x) = 0.46365 0.16827
# Poissons Ratio (y) = 0.22417 0.24019
# Poissons Ratio (z) = 0.16383 0.48369
#
# Static dielectric constant tensor:
#      x y z
#    x 1.688400 0.000000 -0.029180 
#    y 0.000000 1.707320 0.000000 
#    z -0.029180 0.000000 1.933310 
# 
# From -- ./inp_files/54594.got.cif
#   From: 2010.05.17/outbox.cif.g08.bks.cpg/sg5_28_cif.got.tgz:54594.got - 2010.06.03 18:56:24.
