data_PCOD9123122
_publ_section_title
;
Structure prediction by ZEFSAII (Michael W. Deem and Ramdas Pophale) SiO2 
 PCOD9123122
Probable space group: C 2
;
_chemical_formula_sum "Si O2"
_cell_formula_units_Z 28
_cell_length_a 22.762927
_cell_length_b 5.061905
_cell_length_c 10.096766
_cell_angle_alpha 90.000000
_cell_angle_beta 73.631529
_cell_angle_gamma 90.000000
_cell_volume 1116.234455
_symmetry_space_group_name_H-M "C 2"
_symmetry_group_IT_number 5
_symmetry_cell_setting 'monoclinic'
loop_
_space_group_symop_operation_xyz
x,y,z
-x,y,-z
1/2+x,1/2+y,z
1/2-x,1/2+y,-z
loop_
_atom_site_type_symbol
_atom_site_label
_atom_site_fract_x
_atom_site_fract_y
_atom_site_fract_z
Si Si1 0.222529 0.794040 0.721322
Si Si2 0.991550 0.707812 0.161566
Si Si3 0.380662 0.351602 0.412667
Si Si4 0.835825 0.549580 0.996244
Si Si5 0.777063 0.810820 0.809249
Si Si6 0.063640 0.217643 0.179334
Si Si7 0.925054 0.354812 0.539330
O O1 0.186593 0.809102 0.606224
O O2 0.272192 0.562558 0.716020
O O3 0.254152 0.066347 0.737977
O O4 0.171963 0.725591 0.868038
O O5 0.005940 0.414885 0.203099
O O6 0.927778 0.794625 0.263104
O O7 0.040660 0.922196 0.180753
O O8 0.000000 0.712962 0.000000
O O9 0.397408 0.639518 0.456786
O O10 0.399061 0.138410 0.513013
O O11 0.833303 0.726102 0.865385
O O12 0.890820 0.342168 0.958092
O O13 0.774483 0.373267 0.045322
O O14 0.093625 0.267905 0.301880
O O15 0.000000 0.354979 0.500000
#
# Coordination Sequence:
#
# PCOD9123122 Si02
#       7
#     4   4   4   4   4   4   4
#     4  10  21  36  62  95 118 161 201 261 313 381
#     4  12  25  39  59  95 130 163 194 269 322 368
#     4  12  23  41  65  83 131 167 217 251 308 369
#     4  10  22  38  64  94 127 158 200 261 321 383
#     4  10  20  37  62  92 124 157 202 248 338 376
#     4  12  26  38  63  91 129 163 219 254 298 384
#     4  12  23  44  61  86 121 184 217 249 291 364
#
# _framework density 25.084337999999999
#
# number of rings (size 3 to 8) (size 9 to 14) (size 15 to 20)
#    0.857    0.000    4.286    3.429    4.000    0.000 
#    0.000    0.000    0.000    3.429    0.000    0.000 
#    0.000    0.000    0.000    0.000    0.000    0.000 
#
# Total GULP energy -78362.936851 kJ/mol
# GULP energy per Si atom -5597.352632 kJ/mol
# Density = 2.502725 g / cm^3
# Si number density = 25.084338 Si / 1000 Ang^3
#
#
#
# Elastic Constant Matrix: (Units=GPa)
#
#
# Indices 1 2 3 4 5 6 
#
# 1 69.3236 25.5791 3.7731 0.0000 15.3002 0.0000
# 2 25.5791 112.9232 5.3880 0.0000 22.0328 0.0000
# 3 3.7731 5.3880 97.5030 0.0000 10.4539 0.0000
# 4 0.0000 0.0000 0.0000 31.4830 0.0000 -3.4630
# 5 15.3002 22.0328 10.4539 0.0000 35.3931 0.0000
# 6 0.0000 0.0000 0.0000 -3.4630 0.0000 -9.6013
#
#
#
# Elastic Compliance Matrix: (Units=1/GPa)
#
#
# Indices 1 2 3 4 5 6 
#
# 1 0.016637 -0.002691 0.000100 0.000000 -0.005546 0.000000
# 2 -0.002691 0.010517 0.000103 0.000000 -0.005414 0.000000
# 3 0.000100 0.000103 0.010594 0.000000 -0.003236 0.000000
# 4 0.000000 0.000000 0.000000 0.030551 0.000000 -0.011019
# 5 -0.005546 -0.005414 -0.003236 0.000000 0.034978 0.000000
# 6 0.000000 0.000000 0.000000 -0.011019 0.000000 -0.100178
#
#
# Mechanical properties :
#
#
# Convention : Reuss Voigt Hill
#
# Bulk Modulus (GPa) = 30.51523 38.80332 34.65927
# Shear Modulus (GPa) = 263.19783 27.78895 145.49339
#
# Velocity S-wave (km/s) = 10.25441 3.33200 7.62415
# Velocity P-wave (km/s) = 12.34485 5.50506 9.55775
#
# Compressibility (1/GPa) = 0.03277053
#
# Stress axis : x y z
#
# Youngs Moduli (GPa) = 60.10797 95.08813 94.39731
#
# Poissons Ratio (x) = 0.25590 -0.00940
# Poissons Ratio (y) = 0.16176 -0.00977
# Poissons Ratio (z) = -0.00598 -0.00984
#
# Static dielectric constant tensor:
#      x y z
#    x 2.062340 0.000000 -0.028660 
#    y 0.000000 1.946690 0.000000 
#    z -0.028660 0.000000 1.993900 
# 
# From -- ./inp_files/31423.got.cif
#   From: 2010.05.17/outbox.cif.g08.bks.cpg/sg5_16_cif.got.tgz:31423.got - 2010.06.03 18:56:24.
