data_PCOD9123137
_publ_section_title
;
Structure prediction by ZEFSAII (Michael W. Deem and Ramdas Pophale) SiO2 
 PCOD9123137
Probable space group: C 2
;
_chemical_formula_sum "Si O2"
_cell_formula_units_Z 28
_cell_length_a 15.165423
_cell_length_b 20.487713
_cell_length_c 9.281672
_cell_angle_alpha 90.000000
_cell_angle_beta 155.714060
_cell_angle_gamma 90.000000
_cell_volume 1186.104928
_symmetry_space_group_name_H-M "C 2"
_symmetry_group_IT_number 5
_symmetry_cell_setting 'monoclinic'
loop_
_space_group_symop_operation_xyz
x,y,z
-x,y,-z
1/2+x,1/2+y,z
1/2-x,1/2+y,-z
loop_
_atom_site_type_symbol
_atom_site_label
_atom_site_fract_x
_atom_site_fract_y
_atom_site_fract_z
Si Si1 0.026915 0.838170 0.202491
Si Si2 0.309727 0.535490 0.074201
Si Si3 0.651531 0.482535 0.364722
Si Si4 0.993135 0.587798 0.148907
Si Si5 0.277076 0.393279 0.070975
Si Si6 0.798334 0.656907 0.283539
Si Si7 0.840615 0.287741 0.885569
O O1 0.169544 0.904549 0.403608
O O2 0.120388 0.791054 0.464525
O O3 0.817489 0.866402 0.970414
O O4 0.000000 0.812996 0.000000
O O5 0.530440 0.508352 0.328958
O O6 0.190595 0.466333 0.921403
O O7 0.246976 0.589000 0.863254
O O8 0.233493 0.574087 0.106598
O O9 0.870217 0.521013 0.666055
O O10 0.500000 0.494893 0.000000
O O11 0.130243 0.635531 0.453179
O O12 0.000000 0.616426 0.000000
O O13 0.500000 0.400070 0.500000
O O14 0.153820 0.338982 0.977866
O O15 0.621528 0.712883 0.014217
O O16 0.000000 0.686945 0.500000
O O17 0.000000 0.308080 0.000000
#
# Coordination Sequence:
#
# PCOD9123137 Si02
#       7
#     4   4   4   4   4   4   4
#     4   9  20  38  61  90 121 172 202 259 327 375
#     4  10  22  38  64  92 128 168 216 263 330 375
#     4  10  20  37  63  89 132 166 214 265 321 390
#     4  11  25  36  61  96 129 168 211 275 313 380
#     4   9  20  39  62  95 125 166 210 269 319 380
#     4  10  22  44  62  89 125 178 214 257 324 394
#     4  11  24  39  67  94 126 169 219 264 314 388
#
# _framework density 23.606680999999998
#
# number of rings (size 3 to 8) (size 9 to 14) (size 15 to 20)
#    0.000    2.000    1.429    1.286   10.000    0.571 
#    0.000    0.714    0.000    0.000    0.000    0.000 
#    0.000    0.000    0.000    0.000    0.000    0.000 
#
# Total GULP energy -77994.611327 kJ/mol
# GULP energy per Si atom -5571.043666 kJ/mol
# Density = 2.355295 g / cm^3
# Si number density = 23.606681 Si / 1000 Ang^3
#
#
#
# Elastic Constant Matrix: (Units=GPa)
#
#
# Indices 1 2 3 4 5 6 
#
# 1 169.9626 56.8936 18.7499 0.0000 -20.5408 0.0000
# 2 56.8936 115.8274 23.5753 0.0000 -21.7614 0.0000
# 3 18.7499 23.5753 29.6240 0.0000 -22.1408 0.0000
# 4 0.0000 0.0000 0.0000 10.4061 0.0000 7.9561
# 5 -20.5408 -21.7614 -22.1408 0.0000 40.0151 0.0000
# 6 0.0000 0.0000 0.0000 7.9561 0.0000 22.7785
#
#
#
# Elastic Compliance Matrix: (Units=1/GPa)
#
#
# Indices 1 2 3 4 5 6 
#
# 1 0.007195 -0.003049 -0.001034 0.000000 0.001463 0.000000
# 2 -0.003049 0.011672 -0.006454 0.000000 0.001212 0.000000
# 3 -0.001034 -0.006454 0.062284 0.000000 0.030422 0.000000
# 4 0.000000 0.000000 0.000000 0.131111 0.000000 -0.045795
# 5 0.001463 0.001212 0.030422 0.000000 0.043233 0.000000
# 6 0.000000 0.000000 0.000000 -0.045795 0.000000 0.059896
#
#
# Mechanical properties :
#
#
# Convention : Reuss Voigt Hill
#
# Bulk Modulus (GPa) = 16.64492 57.09462 36.86977
# Shear Modulus (GPa) = 14.02559 29.05295 21.53927
#
# Velocity S-wave (km/s) = 2.44014 3.51195 3.02391
# Velocity P-wave (km/s) = 3.87366 6.37835 5.27677
#
# Compressibility (1/GPa) = 0.06007838
#
# Stress axis : x y z
#
# Youngs Moduli (GPa) = 138.98289 85.67270 16.05549
#
# Poissons Ratio (x) = 0.26120 0.01660
# Poissons Ratio (y) = 0.42373 0.10362
# Poissons Ratio (z) = 0.14372 0.55290
#
# Static dielectric constant tensor:
#      x y z
#    x 1.919100 0.000000 0.042550 
#    y 0.000000 1.892550 0.000000 
#    z 0.042550 0.000000 2.109890 
# 
# From -- ./inp_files/25510.got.cif
#   From: 2010.05.17/outbox.cif.g08.bks.cpg/sg5_13_cif.got.tgz:25510.got - 2010.06.03 18:56:24.
