data_PCOD9123161
_publ_section_title
;
Structure prediction by ZEFSAII (Michael W. Deem and Ramdas Pophale) SiO2 
 PCOD9123161
Probable space group: C 2
;
_chemical_formula_sum "Si O2"
_cell_formula_units_Z 32
_cell_length_a 12.717450
_cell_length_b 6.850408
_cell_length_c 31.838412
_cell_angle_alpha 90.000000
_cell_angle_beta 152.790972
_cell_angle_gamma 90.000000
_cell_volume 1268.265719
_symmetry_space_group_name_H-M "C 2"
_symmetry_group_IT_number 5
_symmetry_cell_setting 'monoclinic'
loop_
_space_group_symop_operation_xyz
x,y,z
-x,y,-z
1/2+x,1/2+y,z
1/2-x,1/2+y,-z
loop_
_atom_site_type_symbol
_atom_site_label
_atom_site_fract_x
_atom_site_fract_y
_atom_site_fract_z
Si Si1 0.628601 0.829560 0.506536
Si Si2 0.348592 0.665832 0.715054
Si Si3 0.542812 0.616345 0.119583
Si Si4 0.874639 0.135349 0.261826
Si Si5 0.441176 0.071489 0.312779
Si Si6 0.127613 0.721867 0.919513
Si Si7 0.536116 0.523662 0.611681
Si Si8 0.727282 0.415066 0.100497
O O1 0.500000 0.925483 0.500000
O O2 0.459139 0.699993 0.418604
O O3 0.823358 0.682353 0.594577
O O4 0.769953 0.972125 0.526570
O O5 0.450323 0.557534 0.710840
O O6 0.198073 0.540615 0.693504
O O7 0.563996 0.770660 0.815126
O O8 0.173679 0.841772 0.642044
O O9 0.762161 0.701448 0.221550
O O10 0.438983 0.445985 0.112437
O O11 0.647952 0.515642 0.115442
O O12 0.325454 0.733651 0.025109
O O13 0.956059 0.362736 0.295906
O O14 0.615437 0.132195 0.152224
O O15 0.873096 0.062023 0.309032
O O16 0.204665 0.588439 0.907877
O O17 0.500000 0.316211 0.000000
#
# Coordination Sequence:
#
# PCOD9123161 Si02
#       8
#     4   4   4   4   4   4   4   4
#     4  11  25  43  66  95 123 165 207 258 318 370
#     4  11  22  40  65  93 122 168 205 252 317 364
#     4  10  22  39  62  89 130 165 210 255 307 362
#     4  11  22  42  63  92 129 163 204 258 309 366
#     4  10  23  40  63  94 122 161 210 254 307 371
#     4  10  21  37  62  92 122 169 206 250 304 368
#     4  11  25  42  67  91 127 159 208 260 312 377
#     4  10  20  37  64  87 127 167 206 246 307 365
#
# _framework density 25.231304999999999
#
# number of rings (size 3 to 8) (size 9 to 14) (size 15 to 20)
#    0.000    1.500    3.750    1.500    3.500    3.000 
#    0.000   11.875    0.000    0.000    0.000    0.000 
#    0.000    0.000    0.000    0.000    0.000    0.000 
#
# Total GULP energy -89524.503955 kJ/mol
# GULP energy per Si atom -5595.281497 kJ/mol
# Density = 2.517388 g / cm^3
# Si number density = 25.231305 Si / 1000 Ang^3
#
#
#
# Elastic Constant Matrix: (Units=GPa)
#
#
# Indices 1 2 3 4 5 6 
#
# 1 139.7226 12.9722 21.6130 0.0004 13.7066 -0.0004
# 2 12.9722 39.1932 15.5276 -0.0003 -2.7501 0.0003
# 3 21.6130 15.5276 129.5239 0.0008 -9.9413 -0.0006
# 4 0.0004 -0.0003 0.0008 46.7942 -0.0004 0.7941
# 5 13.7066 -2.7501 -9.9413 -0.0004 31.5473 0.0004
# 6 -0.0004 0.0003 -0.0006 0.7941 0.0004 29.1977
#
#
#
# Elastic Compliance Matrix: (Units=1/GPa)
#
#
# Indices 1 2 3 4 5 6 
#
# 1 0.007993 -0.002394 -0.001362 0.000000 -0.004111 0.000000
# 2 -0.002394 0.027561 -0.002706 0.000000 0.002590 0.000000
# 3 -0.001362 -0.002706 0.008505 0.000000 0.003036 0.000000
# 4 0.000000 0.000000 0.000000 0.021380 0.000000 -0.000582
# 5 -0.004111 0.002590 0.003036 0.000000 0.034667 -0.000001
# 6 0.000000 0.000000 0.000000 -0.000582 -0.000001 0.034265
#
#
# Mechanical properties :
#
#
# Convention : Reuss Voigt Hill
#
# Bulk Modulus (GPa) = 32.11847 45.40724 38.76286
# Shear Modulus (GPa) = 31.71085 38.72963 35.22024
#
# Velocity S-wave (km/s) = 3.54899 3.92214 3.74022
# Velocity P-wave (km/s) = 5.43609 6.20857 5.83513
#
# Compressibility (1/GPa) = 0.03113473
#
# Stress axis : x y z
#
# Youngs Moduli (GPa) = 125.10407 36.28338 117.57366
#
# Poissons Ratio (x) = 0.08688 0.16017
# Poissons Ratio (y) = 0.29955 0.31812
# Poissons Ratio (z) = 0.17043 0.09817
#
# Static dielectric constant tensor:
#      x y z
#    x 1.933400 0.000000 -0.010370 
#    y 0.000000 2.015400 0.000000 
#    z -0.010370 0.000000 2.035620 
# 
# From -- ./inp_files/71759.got.cif
#   From: 2010.05.17/outbox.cif.g08.bks.cpg/sg5_36_cif.got.tgz:71759.got - 2010.06.03 18:56:24.
