data_PCOD9123672
_publ_section_title
;
Structure prediction by ZEFSAII (Michael W. Deem and Ramdas Pophale) SiO2 
 PCOD9123672
Probable space group: C 2
;
_chemical_formula_sum "Si O2"
_cell_formula_units_Z 22
_cell_length_a 16.609845
_cell_length_b 11.080277
_cell_length_c 7.472377
_cell_angle_alpha 90.000000
_cell_angle_beta 59.970869
_cell_angle_gamma 90.000000
_cell_volume 1190.633355
_symmetry_space_group_name_H-M "C 2"
_symmetry_group_IT_number 5
_symmetry_cell_setting 'monoclinic'
loop_
_space_group_symop_operation_xyz
x,y,z
-x,y,-z
1/2+x,1/2+y,z
1/2-x,1/2+y,-z
loop_
_atom_site_type_symbol
_atom_site_label
_atom_site_fract_x
_atom_site_fract_y
_atom_site_fract_z
Si Si1 0.339829 0.149730 0.430479
Si Si2 0.505377 0.320923 0.203798
Si Si3 0.609543 0.952717 0.343881
Si Si4 0.674795 0.687967 0.371866
Si Si5 0.141925 0.601605 0.982763
Si Si6 0.000000 0.019252 0.500000
O O1 0.406192 0.265691 0.377845
O O2 0.235223 0.181829 0.487684
O O3 0.345979 0.059420 0.587157
O O4 0.381066 0.087385 0.202638
O O5 0.578953 0.210723 0.128743
O O6 0.529347 0.431604 0.304526
O O7 0.500000 0.355325 0.000000
O O8 0.500000 0.956007 0.500000
O O9 0.648213 0.824231 0.358389
O O10 0.627579 0.985267 0.118093
O O11 0.585333 0.603038 0.467065
O O12 0.750659 0.641831 0.142956
#
# Coordination Sequence:
#
# PCOD9123672 Si02
#       6
#     4   4   4   4   4   2
#     4   9  22  40  63  91 116 159 205 243 286 368
#     4  10  20  39  67  87 117 158 211 238 290 366
#     4  12  21  42  67  84 123 162 196 250 302 349
#     4  10  26  40  58  93 130 145 206 251 300 352
#     4   9  22  40  63  91 116 159 205 243 286 368
#     4  12  24  42  56  94 126 160 188 260 306 340
#
# _framework density 18.477561000000001
#
# number of rings (size 3 to 8) (size 9 to 14) (size 15 to 20)
#    1.091    0.727    2.727    1.091    5.091    0.000 
#    3.273    0.000    0.000    0.000    0.000    0.000 
#    0.000    0.000    0.000    0.000    0.000    0.000 
#
# Total GULP energy -61316.938690 kJ/mol
# GULP energy per Si atom -5574.267154 kJ/mol
# Density = 1.843551 g / cm^3
# Si number density = 18.477561 Si / 1000 Ang^3
#
#
#
# Elastic Constant Matrix: (Units=GPa)
#
#
# Indices 1 2 3 4 5 6 
#
# 1 64.6715 1.0264 -1.4981 0.0000 -21.5036 0.0000
# 2 1.0264 28.5504 -1.7793 0.0000 3.0082 0.0000
# 3 -1.4981 -1.7793 20.4946 0.0000 5.7748 0.0000
# 4 0.0000 0.0000 0.0000 7.2122 0.0000 2.8802
# 5 -21.5036 3.0082 5.7748 0.0000 24.5219 0.0000
# 6 0.0000 0.0000 0.0000 2.8802 0.0000 19.4321
#
#
#
# Elastic Compliance Matrix: (Units=1/GPa)
#
#
# Indices 1 2 3 4 5 6 
#
# 1 0.022452 -0.003327 -0.004617 0.000000 0.021184 0.000000
# 2 -0.003327 0.036389 0.005351 0.000000 -0.008642 0.000000
# 3 -0.004617 0.005351 0.053817 0.000000 -0.017379 0.000000
# 4 0.000000 0.000000 0.000000 0.147378 0.000000 -0.021844
# 5 0.021184 -0.008642 -0.017379 0.000000 0.064509 0.000000
# 6 0.000000 0.000000 0.000000 -0.021844 0.000000 0.054699
#
#
# Mechanical properties :
#
#
# Convention : Reuss Voigt Hill
#
# Bulk Modulus (GPa) = 9.30458 12.13493 10.71975
# Shear Modulus (GPa) = 11.89754 17.96440 14.93097
#
# Velocity S-wave (km/s) = 2.54025 3.12144 2.84572
# Velocity P-wave (km/s) = 3.69464 4.42412 4.07573
#
# Compressibility (1/GPa) = 0.10747398
#
# Stress axis : x y z
#
# Youngs Moduli (GPa) = 44.53855 27.48047 18.58137
#
# Poissons Ratio (x) = 0.09143 0.08579
# Poissons Ratio (y) = 0.14818 -0.09943
# Poissons Ratio (z) = 0.20562 -0.14705
#
# Static dielectric constant tensor:
#      x y z
#    x 1.655310 0.000000 -0.001780 
#    y 0.000000 1.594740 0.000000 
#    z -0.001780 0.000000 1.639210 
# 
# From -- ./inp_files/26429.got.cif
#   From: 2010.05.17/outbox.cif.g08.bks.cpg/sg5_14_cif.got.tgz:26429.got - 2010.06.03 18:56:24.
