data_PCOD9123655
_publ_section_title
;
Structure prediction by ZEFSAII (Michael W. Deem and Ramdas Pophale) SiO2 
 PCOD9123655
Probable space group: C 2
;
_chemical_formula_sum "Si O2"
_cell_formula_units_Z 32
_cell_length_a 18.543895
_cell_length_b 15.611500
_cell_length_c 5.188080
_cell_angle_alpha 90.000000
_cell_angle_beta 72.476167
_cell_angle_gamma 90.000000
_cell_volume 1432.236569
_symmetry_space_group_name_H-M "C 2"
_symmetry_group_IT_number 5
_symmetry_cell_setting 'monoclinic'
loop_
_space_group_symop_operation_xyz
x,y,z
-x,y,-z
1/2+x,1/2+y,z
1/2-x,1/2+y,-z
loop_
_atom_site_type_symbol
_atom_site_label
_atom_site_fract_x
_atom_site_fract_y
_atom_site_fract_z
Si Si1 0.670677 0.730820 0.065264
Si Si2 0.171876 0.773413 0.333336
Si Si3 0.213909 0.097088 0.373438
Si Si4 0.132356 0.524563 0.693922
Si Si5 0.355834 0.914946 0.795835
Si Si6 0.586506 0.208153 0.919908
Si Si7 0.588798 0.570339 0.896739
Si Si8 0.691358 0.444310 0.034167
O O1 0.714097 0.691950 0.264771
O O2 0.624172 0.815586 0.185669
O O3 0.618872 0.653513 0.020639
O O4 0.739214 0.750003 0.793736
O O5 0.135402 0.755091 0.647298
O O6 0.168284 0.873527 0.264722
O O7 0.124398 0.723857 0.159201
O O8 0.285343 0.067572 0.464596
O O9 0.220876 0.031767 0.130010
O O10 0.132444 0.081735 0.582174
O O11 0.106994 0.471017 0.470712
O O12 0.087491 0.607891 0.837274
O O13 0.136177 0.460705 0.934915
O O14 0.266094 0.908756 0.814789
O O15 0.500000 0.238505 0.000000
O O16 0.620344 0.478594 0.956080
O O17 0.500000 0.570862 0.000000
#
# Coordination Sequence:
#
# PCOD9123655 Si02
#       8
#     4   4   4   4   4   4   4   4
#     4  10  23  39  66 100 124 176 228 274 328 395
#     4  11  24  42  68  97 132 175 222 278 321 396
#     4  10  20  39  66  88 129 169 216 266 325 401
#     4  11  21  41  68  92 128 165 220 274 335 380
#     4  10  22  38  68  99 120 164 223 284 312 385
#     4  12  26  43  65  97 133 175 218 272 344 400
#     4  11  23  40  63  92 138 178 217 269 341 408
#     4   9  22  37  59  96 126 166 221 262 326 384
#
# _framework density 22.342676000000001
#
# number of rings (size 3 to 8) (size 9 to 14) (size 15 to 20)
#    0.000    1.500    2.500    1.875    5.250    4.500 
#    2.250    0.625    2.750    0.000    0.000    0.000 
#    0.000    0.000    0.000    0.000    0.000    0.000 
#
# Total GULP energy -89308.441300 kJ/mol
# GULP energy per Si atom -5581.777581 kJ/mol
# Density = 2.229182 g / cm^3
# Si number density = 22.342676 Si / 1000 Ang^3
#
#
#
# Elastic Constant Matrix: (Units=GPa)
#
#
# Indices 1 2 3 4 5 6 
#
# 1 53.9604 -20.3722 2.6704 0.0000 -15.8206 0.0000
# 2 -20.3722 90.8068 3.0316 0.0000 10.8884 0.0000
# 3 2.6704 3.0316 73.7981 0.0000 10.5019 0.0000
# 4 0.0000 0.0000 0.0000 -43.4047 0.0000 -10.1578
# 5 -15.8206 10.8884 10.5019 0.0000 18.9869 0.0000
# 6 0.0000 0.0000 0.0000 -10.1578 0.0000 17.9479
#
#
#
# Elastic Compliance Matrix: (Units=1/GPa)
#
#
# Indices 1 2 3 4 5 6 
#
# 1 0.026682 0.003412 -0.004332 0.000000 0.022672 0.000000
# 2 0.003412 0.012280 -0.000033 0.000000 -0.004181 0.000000
# 3 -0.004332 -0.000033 0.015434 0.000000 -0.012128 0.000000
# 4 0.000000 0.000000 0.000000 -0.020344 0.000000 -0.011514
# 5 0.022672 -0.004181 -0.012128 0.000000 0.080665 0.000000
# 6 0.000000 0.000000 0.000000 -0.011514 0.000000 0.049200
#
#
# Mechanical properties :
#
#
# Convention : Reuss Voigt Hill
#
# Bulk Modulus (GPa) = 19.05092 21.02499 20.03795
# Shear Modulus (GPa) = 27.27475 14.25505 20.76490
#
# Velocity S-wave (km/s) = 3.49771 2.52864 3.05189
# Velocity P-wave (km/s) = 4.98570 4.23746 4.62673
#
# Compressibility (1/GPa) = 0.05249090
#
# Stress axis : x y z
#
# Youngs Moduli (GPa) = 37.47874 81.43104 64.79014
#
# Poissons Ratio (x) = -0.27785 0.28067
# Poissons Ratio (y) = -0.12788 0.00213
# Poissons Ratio (z) = 0.16236 0.00268
#
# Static dielectric constant tensor:
#      x y z
#    x 1.877400 0.000000 0.035900 
#    y 0.000000 1.857990 0.000000 
#    z 0.035900 0.000000 1.860400 
# 
# From -- ./inp_files/9743.got.cif
#   From: 2010.05.17/outbox.cif.g08.bks.cpg/sg5_5_cif.got.tgz:9743.got - 2010.06.03 18:56:24.
