data_PCOD9123695
_publ_section_title
;
Structure prediction by ZEFSAII (Michael W. Deem and Ramdas Pophale) SiO2 
 PCOD9123695
Probable space group: C 2
;
_chemical_formula_sum "Si O2"
_cell_formula_units_Z 32
_cell_length_a 24.823548
_cell_length_b 5.005635
_cell_length_c 11.080035
_cell_angle_alpha 90.000000
_cell_angle_beta 64.810568
_cell_angle_gamma 90.000000
_cell_volume 1245.854793
_symmetry_space_group_name_H-M "C 2"
_symmetry_group_IT_number 5
_symmetry_cell_setting 'monoclinic'
loop_
_space_group_symop_operation_xyz
x,y,z
-x,y,-z
1/2+x,1/2+y,z
1/2-x,1/2+y,-z
loop_
_atom_site_type_symbol
_atom_site_label
_atom_site_fract_x
_atom_site_fract_y
_atom_site_fract_z
Si Si1 0.216215 0.344040 0.487853
Si Si2 0.623077 0.959116 0.955104
Si Si3 0.033726 0.529018 0.575678
Si Si4 0.707650 0.672920 0.033626
Si Si5 0.421953 0.207746 0.778910
Si Si6 0.010565 0.093156 0.117565
Si Si7 0.396304 0.944192 0.282718
Si Si8 0.361457 0.863252 0.669325
O O1 0.234735 0.630192 0.523165
O O2 0.157712 0.269489 0.618436
O O3 0.193186 0.356857 0.371983
O O4 0.675513 0.757688 0.940042
O O5 0.561859 0.798113 0.029276
O O6 0.620321 0.168526 0.065701
O O7 0.623549 0.078333 0.822226
O O8 0.080067 0.632326 0.631452
O O9 0.076659 0.311543 0.466281
O O10 0.000000 0.691500 0.500000
O O11 0.972258 0.476864 0.706808
O O12 0.658973 0.703587 0.190240
O O13 0.742271 0.397704 0.992486
O O14 0.465089 0.432674 0.790442
O O15 0.378947 0.158614 0.705231
O O16 0.950306 0.244358 0.206460
O O17 0.000000 0.929638 0.000000
#
# Coordination Sequence:
#
# PCOD9123695 Si02
#       8
#     4   4   4   4   4   4   4   4
#     4  11  27  50  74 103 143 196 247 300 354 427
#     4  10  23  41  65  99 141 180 231 298 354 431
#     4   9  18  38  64  92 133 174 222 281 352 431
#     4  11  27  46  73 103 139 187 242 300 359 424
#     4  10  20  39  69 100 139 182 226 287 367 433
#     4  10  22  38  64 108 143 180 233 292 367 434
#     4  10  22  42  66 101 138 184 234 293 359 423
#     4   9  23  45  69 100 139 181 240 294 359 425
#
# _framework density 25.685175999999998
#
# number of rings (size 3 to 8) (size 9 to 14) (size 15 to 20)
#    0.000    2.000    1.250    0.000    8.750    2.000 
#    4.500    3.125    0.000    0.000    0.000    0.000 
#    0.000    0.000    0.000    0.000    0.000    0.000 
#
# Total GULP energy -89098.038656 kJ/mol
# GULP energy per Si atom -5568.627416 kJ/mol
# Density = 2.562671 g / cm^3
# Si number density = 25.685176 Si / 1000 Ang^3
#
#
#
# Elastic Constant Matrix: (Units=GPa)
#
#
# Indices 1 2 3 4 5 6 
#
# 1 116.7056 8.7435 50.5768 0.0000 20.1405 0.0000
# 2 8.7435 54.3283 4.8319 0.0000 -3.1614 0.0000
# 3 50.5768 4.8319 88.5047 0.0000 29.2599 0.0000
# 4 0.0000 0.0000 0.0000 13.9159 0.0000 -2.0428
# 5 20.1405 -3.1614 29.2599 0.0000 66.9693 0.0000
# 6 0.0000 0.0000 0.0000 -2.0428 0.0000 31.6686
#
#
#
# Elastic Compliance Matrix: (Units=1/GPa)
#
#
# Indices 1 2 3 4 5 6 
#
# 1 0.011512 -0.001344 -0.006241 0.000000 -0.000799 0.000000
# 2 -0.001344 0.018790 -0.000800 0.000000 0.001641 0.000000
# 3 -0.006241 -0.000800 0.016715 0.000000 -0.005464 0.000000
# 4 0.000000 0.000000 0.000000 0.072547 0.000000 0.004680
# 5 -0.000799 0.001641 -0.005464 0.000000 0.017637 0.000000
# 6 0.000000 0.000000 0.000000 0.004680 0.000000 0.031879
#
#
# Mechanical properties :
#
#
# Convention : Reuss Voigt Hill
#
# Bulk Modulus (GPa) = 33.06206 43.09365 38.07786
# Shear Modulus (GPa) = 25.51895 35.53652 30.52774
#
# Velocity S-wave (km/s) = 3.15545 3.72363 3.45125
# Velocity P-wave (km/s) = 5.11623 5.94149 5.54424
#
# Compressibility (1/GPa) = 0.03024615
#
# Stress axis : x y z
#
# Youngs Moduli (GPa) = 86.86735 53.22104 59.82477
#
# Poissons Ratio (x) = 0.07153 0.37337
# Poissons Ratio (y) = 0.11676 0.04787
# Poissons Ratio (z) = 0.54215 0.04259
#
# Static dielectric constant tensor:
#      x y z
#    x 2.051600 0.000000 0.079330 
#    y 0.000000 2.073300 0.000000 
#    z 0.079330 0.000000 2.194650 
# 
# From -- ./inp_files/47032.got.cif
#   From: 2010.05.17/outbox.cif.g08.bks.cpg/sg5_24_cif.got.tgz:47032.got - 2010.06.03 18:56:24.
