data_PCOD9123969
_publ_section_title
;
Structure prediction by ZEFSAII (Michael W. Deem and Ramdas Pophale) SiO2 
 PCOD9123969
Probable space group: C 2
;
_chemical_formula_sum "Si O2"
_cell_formula_units_Z 22
_cell_length_a 5.297698
_cell_length_b 12.301506
_cell_length_c 14.613196
_cell_angle_alpha 90.000000
_cell_angle_beta 75.125827
_cell_angle_gamma 90.000000
_cell_volume 920.426052
_symmetry_space_group_name_H-M "C 2"
_symmetry_group_IT_number 5
_symmetry_cell_setting 'monoclinic'
loop_
_space_group_symop_operation_xyz
x,y,z
-x,y,-z
1/2+x,1/2+y,z
1/2-x,1/2+y,-z
loop_
_atom_site_type_symbol
_atom_site_label
_atom_site_fract_x
_atom_site_fract_y
_atom_site_fract_z
Si Si1 0.694093 0.162890 0.895344
Si Si2 0.454052 0.941207 0.856051
Si Si3 0.500000 0.539066 0.000000
Si Si4 0.465818 0.459217 0.605654
Si Si5 0.396630 0.051465 0.682774
Si Si6 0.398924 0.284050 0.772664
O O1 0.620686 0.255332 0.828715
O O2 0.626772 0.050175 0.850879
O O3 0.500000 0.179271 0.000000
O O4 0.957236 0.122581 0.920455
O O5 0.645475 0.839269 0.843868
O O6 0.332344 0.962384 0.767648
O O7 0.760995 0.959812 0.045882
O O8 0.500000 0.416105 0.500000
O O9 0.199980 0.529363 0.633151
O O10 0.450704 0.364830 0.683030
O O11 0.711778 0.530747 0.613989
O O12 0.343366 0.169312 0.729289
#
# Coordination Sequence:
#
# PCOD9123969 Si02
#       6
#     4   4   2   4   4   4
#     4   9  20  44  66 101 148 195 243 303 365 436
#     4   9  21  41  69 101 143 197 248 308 366 443
#     4  10  20  40  76 100 156 200 252 316 370 424
#     4  11  25  47  74 111 149 191 246 316 380 458
#     4  10  24  45  74 103 149 190 244 309 384 444
#     4  10  23  46  76 106 145 198 252 301 379 456
#
# _framework density 23.901973000000002
#
# number of rings (size 3 to 8) (size 9 to 14) (size 15 to 20)
#    0.000    2.182    0.000    0.545    7.636    4.364 
#   14.727    3.636   24.000    0.000    0.000    0.000 
#    0.000    0.000    0.000    0.000    0.000    0.000 
#
# Total GULP energy -61458.027878 kJ/mol
# GULP energy per Si atom -5587.093443 kJ/mol
# Density = 2.384757 g / cm^3
# Si number density = 23.901973 Si / 1000 Ang^3
#
#
#
# Elastic Constant Matrix: (Units=GPa)
#
#
# Indices 1 2 3 4 5 6 
#
# 1 135.9920 65.9928 63.8289 0.0000 23.5180 0.0000
# 2 65.9928 138.7165 49.6912 0.0000 7.6996 0.0000
# 3 63.8289 49.6912 140.0875 0.0000 20.7796 0.0000
# 4 0.0000 0.0000 0.0000 32.2948 0.0000 4.3450
# 5 23.5180 7.6996 20.7796 0.0000 34.9659 0.0000
# 6 0.0000 0.0000 0.0000 4.3450 0.0000 28.9075
#
#
#
# Elastic Compliance Matrix: (Units=1/GPa)
#
#
# Indices 1 2 3 4 5 6 
#
# 1 0.011723 -0.004183 -0.003098 0.000000 -0.005123 0.000000
# 2 -0.004183 0.009751 -0.001811 0.000000 0.001743 0.000000
# 3 -0.003098 -0.001811 0.009677 0.000000 -0.003269 0.000000
# 4 0.000000 0.000000 0.000000 0.031604 0.000000 -0.004750
# 5 -0.005123 0.001743 -0.003269 0.000000 0.033604 0.000000
# 6 0.000000 0.000000 0.000000 -0.004750 0.000000 0.035307
#
#
# Mechanical properties :
#
#
# Convention : Reuss Voigt Hill
#
# Bulk Modulus (GPa) = 77.11938 85.98022 81.54980
# Shear Modulus (GPa) = 32.43104 34.91918 33.67511
#
# Velocity S-wave (km/s) = 3.68752 3.82636 3.75758
# Velocity P-wave (km/s) = 7.10389 7.45463 7.28137
#
# Compressibility (1/GPa) = 0.01296691
#
# Stress axis : x y z
#
# Youngs Moduli (GPa) = 85.30054 102.55163 103.33526
#
# Poissons Ratio (x) = 0.42899 0.32011
# Poissons Ratio (y) = 0.35683 0.18718
# Poissons Ratio (z) = 0.26425 0.18576
#
# Static dielectric constant tensor:
#      x y z
#    x 2.019690 0.000000 0.001640 
#    y 0.000000 1.905370 0.000000 
#    z 0.001640 0.000000 1.913270 
# 
# From -- ./inp_files/48753.got.cif
#   From: 2010.05.17/outbox.cif.g08.bks.cpg/sg5_25_cif.got.tgz:48753.got - 2010.06.03 18:56:24.
