data_PCOD9123869
_publ_section_title
;
Structure prediction by ZEFSAII (Michael W. Deem and Ramdas Pophale) SiO2 
 PCOD9123869
Probable space group: C 2
;
_chemical_formula_sum "Si O2"
_cell_formula_units_Z 32
_cell_length_a 14.960021
_cell_length_b 11.925755
_cell_length_c 14.920477
_cell_angle_alpha 90.000000
_cell_angle_beta 150.996778
_cell_angle_gamma 90.000000
_cell_volume 1290.672566
_symmetry_space_group_name_H-M "C 2"
_symmetry_group_IT_number 5
_symmetry_cell_setting 'monoclinic'
loop_
_space_group_symop_operation_xyz
x,y,z
-x,y,-z
1/2+x,1/2+y,z
1/2-x,1/2+y,-z
loop_
_atom_site_type_symbol
_atom_site_label
_atom_site_fract_x
_atom_site_fract_y
_atom_site_fract_z
Si Si1 0.707826 0.463650 0.196269
Si Si2 0.782991 0.658573 0.388753
Si Si3 0.219223 0.306905 0.176880
Si Si4 0.350076 0.667562 0.050501
Si Si5 0.049374 0.368007 0.746499
Si Si6 0.834246 0.567916 0.625183
Si Si7 0.442551 0.465935 0.245486
Si Si8 0.826788 0.797657 0.679762
O O1 0.807672 0.551254 0.348016
O O2 0.822618 0.434580 0.209932
O O3 0.683069 0.351607 0.232015
O O4 0.500000 0.507101 0.000000
O O5 0.807475 0.767666 0.348618
O O6 0.567423 0.662587 0.221887
O O7 0.129468 0.630402 0.439134
O O8 0.323731 0.406667 0.218175
O O9 0.234581 0.202244 0.119444
O O10 0.000000 0.327748 0.000000
O O11 0.332287 0.774374 0.099653
O O12 0.321796 0.552982 0.080271
O O13 0.950654 0.454632 0.727450
O O14 0.876881 0.310725 0.543327
O O15 0.619570 0.532661 0.440169
O O16 0.880151 0.667938 0.731853
O O17 0.539750 0.374569 0.264843
#
# Coordination Sequence:
#
# PCOD9123869 Si02
#       8
#     4   4   4   4   4   4   4   4
#     4  12  25  41  67 102 133 169 228 283 332 391
#     4  10  20  40  66  96 135 166 227 277 328 382
#     4  10  23  39  67 101 139 174 220 279 341 399
#     4  10  20  42  68  90 142 178 216 269 347 396
#     4  11  23  41  69  98 130 179 219 279 332 398
#     4  10  22  44  72  96 131 178 232 276 330 404
#     4  10  21  41  68  97 131 177 226 274 333 403
#     4  11  22  44  68  96 132 177 226 272 341 393
#
# _framework density 24.793275000000001
#
# number of rings (size 3 to 8) (size 9 to 14) (size 15 to 20)
#    0.000    1.500    6.250    1.500    3.500    0.000 
#    0.000    3.125    2.750    0.000    0.000    0.000 
#    0.000    0.000    0.000    0.000    0.000    0.000 
#
# Total GULP energy -89590.260586 kJ/mol
# GULP energy per Si atom -5599.391287 kJ/mol
# Density = 2.473684 g / cm^3
# Si number density = 24.793275 Si / 1000 Ang^3
#
#
#
# Elastic Constant Matrix: (Units=GPa)
#
#
# Indices 1 2 3 4 5 6 
#
# 1 101.3471 50.0054 15.0341 0.0001 19.3571 0.0000
# 2 50.0054 122.9976 5.3492 -0.0010 17.1455 -0.0002
# 3 15.0341 5.3492 75.4841 -0.0013 27.8877 -0.0001
# 4 0.0001 -0.0010 -0.0013 20.9809 -0.0003 -0.4597
# 5 19.3571 17.1455 27.8877 -0.0003 34.2514 0.0000
# 6 0.0000 -0.0002 -0.0001 -0.4597 0.0000 67.6740
#
#
#
# Elastic Compliance Matrix: (Units=1/GPa)
#
#
# Indices 1 2 3 4 5 6 
#
# 1 0.013141 -0.004674 -0.000582 0.000000 -0.004613 0.000000
# 2 -0.004674 0.010511 0.001651 0.000001 -0.003964 0.000000
# 3 -0.000582 0.001651 0.019209 0.000001 -0.016137 0.000000
# 4 0.000000 0.000001 0.000001 0.047670 0.000000 0.000324
# 5 -0.004613 -0.003964 -0.016137 0.000000 0.046926 0.000000
# 6 0.000000 0.000000 0.000000 0.000324 0.000000 0.014779
#
#
# Mechanical properties :
#
#
# Convention : Reuss Voigt Hill
#
# Bulk Modulus (GPa) = 28.05023 48.95623 38.50323
# Shear Modulus (GPa) = 29.18358 39.87726 34.53042
#
# Velocity S-wave (km/s) = 3.43458 4.01483 3.73598
# Velocity P-wave (km/s) = 5.20256 6.42498 5.84581
#
# Compressibility (1/GPa) = 0.03565033
#
# Stress axis : x y z
#
# Youngs Moduli (GPa) = 76.09962 95.13560 52.05986
#
# Poissons Ratio (x) = 0.44467 0.03028
# Poissons Ratio (y) = 0.35569 -0.08593
# Poissons Ratio (z) = 0.04427 -0.15703
#
# Static dielectric constant tensor:
#      x y z
#    x 2.050650 0.000000 0.038640 
#    y 0.000000 2.015240 0.000000 
#    z 0.038640 0.000000 2.035600 
# 
# From -- ./inp_files/61716.got.cif
#   From: 2010.05.17/outbox.cif.g08.bks.cpg/sg5_31_cif.got.tgz:61716.got - 2010.06.03 18:56:24.
