data_PCOD9123425
_publ_section_title
;
Structure prediction by ZEFSAII (Michael W. Deem and Ramdas Pophale) SiO2 
 PCOD9123425
Probable space group: C 2
;
_chemical_formula_sum "Si O2"
_cell_formula_units_Z 20
_cell_length_a 13.246494
_cell_length_b 4.563796
_cell_length_c 12.747886
_cell_angle_alpha 90.000000
_cell_angle_beta 72.386559
_cell_angle_gamma 90.000000
_cell_volume 734.535503
_symmetry_space_group_name_H-M "C 2"
_symmetry_group_IT_number 5
_symmetry_cell_setting 'monoclinic'
loop_
_space_group_symop_operation_xyz
x,y,z
-x,y,-z
1/2+x,1/2+y,z
1/2-x,1/2+y,-z
loop_
_atom_site_type_symbol
_atom_site_label
_atom_site_fract_x
_atom_site_fract_y
_atom_site_fract_z
Si Si1 0.195969 0.258060 0.459582
Si Si2 0.201400 0.610380 0.844579
Si Si3 0.119797 0.411229 0.075835
Si Si4 0.624409 0.299513 0.354171
Si Si5 0.004759 0.906745 0.801684
O O1 0.211288 0.510848 0.544043
O O2 0.165823 0.481023 0.374468
O O3 0.110600 0.008244 0.459491
O O4 0.277551 0.810932 0.892804
O O5 0.278627 0.436427 0.743276
O O6 0.117590 0.798924 0.804980
O O7 0.141520 0.396017 0.945657
O O8 0.086023 0.745980 0.101593
O O9 0.022858 0.240260 0.162347
O O10 0.525289 0.318658 0.307022
#
# Coordination Sequence:
#
# PCOD9123425 Si02
#       5
#     4   4   4   4   4
#     4   9  19  38  66  92 123 159 192 252 329 384
#     4  11  24  41  63  90 129 170 214 263 294 352
#     4  11  25  40  58  90 129 174 218 250 300 357
#     4  10  20  38  64  95 119 159 214 251 307 378
#     4  11  25  41  61  91 130 169 209 258 306 352
#
# _framework density 27.228089000000001
#
# number of rings (size 3 to 8) (size 9 to 14) (size 15 to 20)
#    0.000    1.600    0.000    5.400    0.000   12.800 
#    0.000    0.000    0.000   18.000    0.000    0.000 
#    0.000    0.000    0.000    0.000    0.000    0.000 
#
# Total GULP energy -55803.083280 kJ/mol
# GULP energy per Si atom -5580.308328 kJ/mol
# Density = 2.716612 g / cm^3
# Si number density = 27.228089 Si / 1000 Ang^3
#
#
#
# Elastic Constant Matrix: (Units=GPa)
#
#
# Indices 1 2 3 4 5 6 
#
# 1 174.7970 34.0948 69.2315 -0.0001 50.3497 -0.0001
# 2 34.0948 132.1704 30.2423 0.0004 18.4247 0.0003
# 3 69.2315 30.2423 105.0970 -0.0001 30.3087 0.0000
# 4 -0.0001 0.0004 -0.0001 55.0719 0.0000 18.0430
# 5 50.3497 18.4247 30.3087 0.0000 62.4066 0.0000
# 6 -0.0001 0.0003 0.0000 18.0430 0.0000 29.0043
#
#
#
# Elastic Compliance Matrix: (Units=1/GPa)
#
#
# Indices 1 2 3 4 5 6 
#
# 1 0.008979 -0.000640 -0.004298 0.000000 -0.004968 0.000000
# 2 -0.000640 0.008262 -0.001629 0.000000 -0.001131 0.000000
# 3 -0.004298 -0.001629 0.013578 0.000000 -0.002646 0.000000
# 4 0.000000 0.000000 0.000000 0.022806 0.000000 -0.014187
# 5 -0.004968 -0.001131 -0.002646 0.000000 0.021651 0.000000
# 6 0.000000 0.000000 0.000000 -0.014187 0.000000 0.043303
#
#
# Mechanical properties :
#
#
# Convention : Reuss Voigt Hill
#
# Bulk Modulus (GPa) = 56.54905 75.46687 66.00796
# Shear Modulus (GPa) = 36.33484 47.86294 42.09889
#
# Velocity S-wave (km/s) = 3.65699 4.19722 3.93639
# Velocity P-wave (km/s) = 6.21652 7.16000 6.70488
#
# Compressibility (1/GPa) = 0.01768376
#
# Stress axis : x y z
#
# Youngs Moduli (GPa) = 111.36986 121.04093 73.64797
#
# Poissons Ratio (x) = 0.07750 0.31653
# Poissons Ratio (y) = 0.07131 0.12000
# Poissons Ratio (z) = 0.47866 0.19721
#
# Static dielectric constant tensor:
#      x y z
#    x 2.127270 0.000000 0.008860 
#    y 0.000000 2.053710 0.000000 
#    z 0.008860 0.000000 2.286480 
# 
# From -- ./inp_files/51909.got.cif
#   From: 2010.05.17/outbox.cif.g08.bks.cpg/sg5_26_cif.got.tgz:51909.got - 2010.06.03 18:56:24.
