data_PCOD9123251
_publ_section_title
;
Structure prediction by ZEFSAII (Michael W. Deem and Ramdas Pophale) SiO2 
 PCOD9123251
Probable space group: C 2
;
_chemical_formula_sum "Si O2"
_cell_formula_units_Z 30
_cell_length_a 21.089145
_cell_length_b 5.271915
_cell_length_c 24.296252
_cell_angle_alpha 90.000000
_cell_angle_beta 154.126732
_cell_angle_gamma 90.000000
_cell_volume 1178.782082
_symmetry_space_group_name_H-M "C 2"
_symmetry_group_IT_number 5
_symmetry_cell_setting 'monoclinic'
loop_
_space_group_symop_operation_xyz
x,y,z
-x,y,-z
1/2+x,1/2+y,z
1/2-x,1/2+y,-z
loop_
_atom_site_type_symbol
_atom_site_label
_atom_site_fract_x
_atom_site_fract_y
_atom_site_fract_z
Si Si1 0.048602 0.160270 0.448106
Si Si2 0.672680 0.603512 0.429822
Si Si3 0.673459 0.849963 0.318230
Si Si4 0.573052 0.187205 0.831700
Si Si5 0.187438 0.164605 0.212143
Si Si6 0.708040 0.154598 0.167046
Si Si7 0.000000 0.550345 0.500000
Si Si8 0.214560 0.189986 0.897449
O O1 0.077261 0.205687 0.406007
O O2 0.877090 0.134503 0.316644
O O3 0.081045 0.379282 0.517147
O O4 0.157726 0.935141 0.550626
O O5 0.694256 0.306000 0.458120
O O6 0.645558 0.651468 0.344861
O O7 0.583084 0.097800 0.266607
O O8 0.622766 0.733400 0.221258
O O9 0.625360 0.949727 0.835454
O O10 0.614103 0.440165 0.829345
O O11 0.671443 0.193416 0.963486
O O12 0.145554 0.390921 0.139077
O O13 0.363008 0.168118 0.360688
O O14 0.149683 0.896035 0.155347
O O15 0.709623 0.183105 0.102661
#
# Coordination Sequence:
#
# PCOD9123251 Si02
#       8
#     4   4   4   4   4   4   2   4
#     4  10  21  36  58  88 121 160 201 248 308 362
#     4  10  22  35  52  81 119 155 190 244 304 359
#     4  11  22  39  60  92 128 160 207 260 314 378
#     4  10  23  40  70  92 120 161 200 262 324 371
#     4  11  23  37  59  87 121 167 204 246 304 359
#     4  11  23  39  62  88 122 164 206 250 295 368
#     4  10  20  38  58  84 126 170 210 248 294 382
#     4  10  22  45  65  93 120 157 211 255 314 384
#
# _framework density 25.449997
#
# number of rings (size 3 to 8) (size 9 to 14) (size 15 to 20)
#    0.000    1.600    0.000    4.800    0.000   14.400 
#    0.000    0.667    0.000    3.200    0.000    0.000 
#    0.000    0.000    0.000    0.000    0.000    0.000 
#
# Total GULP energy -83882.791105 kJ/mol
# GULP energy per Si atom -5592.186074 kJ/mol
# Density = 2.539207 g / cm^3
# Si number density = 25.449997 Si / 1000 Ang^3
#
#
#
# Elastic Constant Matrix: (Units=GPa)
#
#
# Indices 1 2 3 4 5 6 
#
# 1 154.8174 78.4308 28.4889 -0.0035 -40.3174 0.0006
# 2 78.4308 161.4697 28.1497 0.0004 -21.2188 0.0076
# 3 28.4889 28.1497 62.9600 -0.0001 -6.5427 -0.0008
# 4 -0.0035 0.0004 -0.0001 4.0147 -0.0006 -6.6317
# 5 -40.3174 -21.2188 -6.5427 -0.0006 37.1981 0.0022
# 6 0.0006 0.0076 -0.0008 -6.6317 0.0022 44.3084
#
#
#
# Elastic Compliance Matrix: (Units=1/GPa)
#
#
# Indices 1 2 3 4 5 6 
#
# 1 0.011375 -0.003825 -0.002427 0.000016 0.009720 0.000002
# 2 -0.003825 0.008443 -0.002011 -0.000009 0.000317 -0.000003
# 3 -0.002427 -0.002011 0.017814 -0.000001 -0.000645 0.000001
# 4 0.000016 -0.000009 -0.000001 0.330889 0.000014 0.049525
# 5 0.009720 0.000317 -0.000645 0.000014 0.037486 0.000000
# 6 0.000002 -0.000003 0.000001 0.049525 0.000000 0.029982
#
#
# Mechanical properties :
#
#
# Convention : Reuss Voigt Hill
#
# Bulk Modulus (GPa) = 47.38079 72.15397 59.76738
# Shear Modulus (GPa) = 10.88024 33.38276 22.13150
#
# Velocity S-wave (km/s) = 2.06989 3.62567 2.95211
# Velocity P-wave (km/s) = 4.93662 6.77791 5.92918
#
# Compressibility (1/GPa) = 0.02110560
#
# Stress axis : x y z
#
# Youngs Moduli (GPa) = 87.91509 118.43884 56.13702
#
# Poissons Ratio (x) = 0.45298 0.13624
# Poissons Ratio (y) = 0.33624 0.11292
# Poissons Ratio (z) = 0.21336 0.23823
#
# Static dielectric constant tensor:
#      x y z
#    x 1.965750 -0.000010 0.059670 
#    y -0.000010 2.006380 -0.000010 
#    z 0.059670 -0.000010 2.105610 
# 
# From -- ./inp_files/69376.got.cif
#   From: 2010.05.17/outbox.cif.g08.bks.cpg/sg5_35_cif.got.tgz:69376.got - 2010.06.03 18:56:24.
