data_PCOD9123016
_publ_section_title
;
Structure prediction by ZEFSAII (Michael W. Deem and Ramdas Pophale) SiO2 
 PCOD9123016
Probable space group: C 2
;
_chemical_formula_sum "Si O2"
_cell_formula_units_Z 26
_cell_length_a 22.110159
_cell_length_b 8.770272
_cell_length_c 7.546015
_cell_angle_alpha 90.000000
_cell_angle_beta 84.324831
_cell_angle_gamma 90.000000
_cell_volume 1456.091521
_symmetry_space_group_name_H-M "C 2"
_symmetry_group_IT_number 5
_symmetry_cell_setting 'monoclinic'
loop_
_space_group_symop_operation_xyz
x,y,z
-x,y,-z
1/2+x,1/2+y,z
1/2-x,1/2+y,-z
loop_
_atom_site_type_symbol
_atom_site_label
_atom_site_fract_x
_atom_site_fract_y
_atom_site_fract_z
Si Si1 0.330863 0.436610 0.952348
Si Si2 0.265899 0.926075 0.329409
Si Si3 0.500000 0.723644 0.000000
Si Si4 0.044579 0.954004 0.233327
Si Si5 0.127819 0.214426 0.848656
Si Si6 0.297983 0.279293 0.324379
Si Si7 0.083135 0.930633 0.621661
O O1 0.340906 0.615254 0.001915
O O2 0.300810 0.352309 0.127935
O O3 0.289737 0.409872 0.793074
O O4 0.400351 0.383207 0.894688
O O5 0.322834 0.827119 0.245723
O O6 0.245849 0.869380 0.528946
O O7 0.281296 0.103707 0.327057
O O8 0.475201 0.611865 0.852572
O O9 0.563747 0.795994 0.918231
O O10 0.069328 0.975657 0.424161
O O11 0.979613 0.872891 0.272444
O O12 0.108517 0.078831 0.718188
O O13 0.365380 0.304631 0.381930
#
# Coordination Sequence:
#
# PCOD9123016 Si02
#       7
#     4   4   2   4   4   4   4
#     4  10  20  37  59  84 108 148 191 231 269 327
#     4  12  23  38  56  82 117 150 182 233 275 337
#     4   8  16  32  56  84 104 144 186 228 268 324
#     4   9  16  31  60  81 109 139 191 229 263 325
#     4   9  19  35  57  83 112 140 192 226 275 325
#     4  11  23  36  56  83 114 149 188 225 283 326
#     4   9  17  34  57  84 106 147 184 232 270 321
#
# _framework density 17.856019
#
# number of rings (size 3 to 8) (size 9 to 14) (size 15 to 20)
#    0.000    2.154    1.538    3.692    0.000    0.000 
#    0.000    1.538    0.000    7.385    0.000    0.000 
#    0.000    0.000    0.000    0.000    0.000    0.000 
#
# Total GULP energy -72392.920364 kJ/mol
# GULP energy per Si atom -5568.686182 kJ/mol
# Density = 1.781538 g / cm^3
# Si number density = 17.856019 Si / 1000 Ang^3
#
#
#
# Elastic Constant Matrix: (Units=GPa)
#
#
# Indices 1 2 3 4 5 6 
#
# 1 118.4325 35.2701 40.4151 0.0000 -26.9212 0.0000
# 2 35.2701 56.6517 22.6216 0.0000 -15.9220 0.0000
# 3 40.4151 22.6216 88.4689 0.0000 -16.1485 0.0000
# 4 0.0000 0.0000 0.0000 7.5842 0.0000 -8.5272
# 5 -26.9212 -15.9220 -16.1485 0.0000 46.9360 0.0000
# 6 0.0000 0.0000 0.0000 -8.5272 0.0000 18.1753
#
#
#
# Elastic Compliance Matrix: (Units=1/GPa)
#
#
# Indices 1 2 3 4 5 6 
#
# 1 0.012026 -0.004965 -0.003492 0.000000 0.004012 0.000000
# 2 -0.004965 0.023012 -0.002893 0.000000 0.003963 0.000000
# 3 -0.003492 -0.002893 0.013971 0.000000 0.001823 0.000000
# 4 0.000000 0.000000 0.000000 0.279054 0.000000 0.130922
# 5 0.004012 0.003963 0.001823 0.000000 0.025578 0.000000
# 6 0.000000 0.000000 0.000000 0.130922 0.000000 0.116443
#
#
# Mechanical properties :
#
#
# Convention : Reuss Voigt Hill
#
# Bulk Modulus (GPa) = 38.00899 51.12962 44.56931
# Shear Modulus (GPa) = 9.96904 25.55551 17.76227
#
# Velocity S-wave (km/s) = 2.36540 3.78722 3.15739
# Velocity P-wave (km/s) = 5.36589 6.91525 6.18924
#
# Compressibility (1/GPa) = 0.02630956
#
# Stress axis : x y z
#
# Youngs Moduli (GPa) = 83.15418 43.45604 71.57736
#
# Poissons Ratio (x) = 0.21576 0.24994
# Poissons Ratio (y) = 0.41287 0.20704
# Poissons Ratio (z) = 0.29036 0.12570
#
# Static dielectric constant tensor:
#      x y z
#    x 1.650640 0.000000 -0.027230 
#    y 0.000000 1.567670 0.000000 
#    z -0.027230 0.000000 1.658760 
# 
# From -- ./inp_files/30457.got.cif
#   From: 2010.05.17/outbox.cif.g08.bks.cpg/sg5_16_cif.got.tgz:30457.got - 2010.06.03 18:56:24.
