data_PCOD9123796
_publ_section_title
;
Structure prediction by ZEFSAII (Michael W. Deem and Ramdas Pophale) SiO2 
 PCOD9123796
Probable space group: C 2
;
_chemical_formula_sum "Si O2"
_cell_formula_units_Z 30
_cell_length_a 13.709084
_cell_length_b 9.559617
_cell_length_c 11.227858
_cell_angle_alpha 90.000000
_cell_angle_beta 82.122354
_cell_angle_gamma 90.000000
_cell_volume 1457.565060
_symmetry_space_group_name_H-M "C 2"
_symmetry_group_IT_number 5
_symmetry_cell_setting 'monoclinic'
loop_
_space_group_symop_operation_xyz
x,y,z
-x,y,-z
1/2+x,1/2+y,z
1/2-x,1/2+y,-z
loop_
_atom_site_type_symbol
_atom_site_label
_atom_site_fract_x
_atom_site_fract_y
_atom_site_fract_z
Si Si1 0.500000 0.122630 0.500000
Si Si2 0.400386 0.276211 0.941900
Si Si3 0.546236 0.616285 0.609386
Si Si4 0.779989 0.270780 0.352298
Si Si5 0.247803 0.788085 0.818914
Si Si6 0.841387 0.836316 0.415342
Si Si7 0.852732 0.998024 0.759220
Si Si8 0.869962 0.555391 0.738223
O O1 0.420196 0.226957 0.454044
O O2 0.449669 0.040801 0.618422
O O3 0.380737 0.418938 0.874865
O O4 0.404800 0.155562 0.840177
O O5 0.500000 0.277528 0.000000
O O6 0.310624 0.265851 0.049350
O O7 0.500000 0.684251 0.500000
O O8 0.605723 0.729311 0.677297
O O9 0.624411 0.494149 0.563071
O O10 0.457287 0.528021 0.680278
O O11 0.757523 0.299223 0.495331
O O12 0.726843 0.400230 0.295513
O O13 0.718997 0.139648 0.310860
O O14 0.173187 0.818144 0.722281
O O15 0.303745 0.646215 0.783584
O O16 0.325867 0.914446 0.800039
#
# Coordination Sequence:
#
# PCOD9123796 Si02
#       8
#     2   4   4   4   4   4   4   4
#     4  10  20  40  64 102 138 178 228 280 358 416
#     4  11  24  46  72  92 124 184 236 284 351 424
#     4  12  20  40  67 101 139 180 232 275 347 434
#     4  10  22  40  66  98 138 182 222 284 349 414
#     4  12  24  42  65  99 136 174 226 287 354 406
#     4  11  20  37  65  94 136 183 224 281 343 414
#     4  11  25  45  66  98 136 180 230 289 354 418
#     4  10  22  42  67  98 133 175 227 287 344 423
#
# _framework density 20.582274000000002
#
# number of rings (size 3 to 8) (size 9 to 14) (size 15 to 20)
#    0.000    1.067    3.333    4.800    0.000    0.000 
#    8.400    0.667    0.000    0.000    0.000    0.000 
#    0.000    0.000    0.000    0.000    0.000    0.000 
#
# Total GULP energy -83780.288571 kJ/mol
# GULP energy per Si atom -5585.352571 kJ/mol
# Density = 2.053543 g / cm^3
# Si number density = 20.582274 Si / 1000 Ang^3
#
#
#
# Elastic Constant Matrix: (Units=GPa)
#
#
# Indices 1 2 3 4 5 6 
#
# 1 69.8096 43.4413 6.7378 0.0000 34.2907 0.0000
# 2 43.4413 105.5037 20.3601 0.0000 -10.9267 0.0000
# 3 6.7378 20.3601 75.2010 0.0000 19.5930 0.0000
# 4 0.0000 0.0000 0.0000 7.4180 0.0000 2.9901
# 5 34.2907 -10.9267 19.5930 0.0000 15.7859 0.0000
# 6 0.0000 0.0000 0.0000 2.9901 0.0000 28.4998
#
#
#
# Elastic Compliance Matrix: (Units=1/GPa)
#
#
# Indices 1 2 3 4 5 6 
#
# 1 -0.007144 0.008636 -0.010787 0.000000 0.034885 0.000000
# 2 0.008636 0.002836 0.004190 0.000000 -0.021997 0.000000
# 3 -0.010787 0.004190 0.009265 0.000000 0.014832 0.000000
# 4 0.000000 0.000000 0.000000 0.140761 0.000000 -0.014768
# 5 0.034885 -0.021997 0.014832 0.000000 -0.046067 0.000000
# 6 0.000000 0.000000 0.000000 -0.014768 0.000000 0.036637
#
#
# Mechanical properties :
#
#
# Convention : Reuss Voigt Hill
#
# Bulk Modulus (GPa) = 110.68606 43.51029 77.09818
# Shear Modulus (GPa) = 36.97623 22.33908 29.65765
#
# Velocity S-wave (km/s) = 4.24312 3.29805 3.80008
# Velocity P-wave (km/s) = 8.82607 5.97398 7.53618
#
# Compressibility (1/GPa) = 0.00903456
#
# Stress axis : x y z
#
# Youngs Moduli (GPa) = -139.97651 352.65574 107.92848
#
# Poissons Ratio (x) = -3.04562 1.16424
# Poissons Ratio (y) = 1.20887 -0.45219
# Poissons Ratio (z) = -1.50995 -1.47753
#
# Static dielectric constant tensor:
#      x y z
#    x 1.775250 0.000000 -0.033870 
#    y 0.000000 1.733390 0.000000 
#    z -0.033870 0.000000 1.792430 
# 
# From -- ./inp_files/41942.got.cif
#   From: 2010.05.17/outbox.cif.g08.bks.cpg/sg5_21_cif.got.tgz:41942.got - 2010.06.03 18:56:24.
