data_PCOD9123636
_publ_section_title
;
Structure prediction by ZEFSAII (Michael W. Deem and Ramdas Pophale) SiO2 
 PCOD9123636
Probable space group: C 2
;
_chemical_formula_sum "Si O2"
_cell_formula_units_Z 30
_cell_length_a 13.819320
_cell_length_b 11.725070
_cell_length_c 9.945811
_cell_angle_alpha 90.000000
_cell_angle_beta 132.656098
_cell_angle_gamma 90.000000
_cell_volume 1185.184679
_symmetry_space_group_name_H-M "C 2"
_symmetry_group_IT_number 5
_symmetry_cell_setting 'monoclinic'
loop_
_space_group_symop_operation_xyz
x,y,z
-x,y,-z
1/2+x,1/2+y,z
1/2-x,1/2+y,-z
loop_
_atom_site_type_symbol
_atom_site_label
_atom_site_fract_x
_atom_site_fract_y
_atom_site_fract_z
Si Si1 0.000000 0.962440 0.500000
Si Si2 0.728699 0.295595 0.723395
Si Si3 0.849606 0.928857 0.837101
Si Si4 0.587727 0.675029 0.709071
Si Si5 0.547538 0.103000 0.681559
Si Si6 0.649697 0.164912 0.179151
Si Si7 0.759548 0.622761 0.459648
Si Si8 0.845282 0.394394 0.089525
O O1 0.115992 0.879450 0.566818
O O2 0.035661 0.045304 0.659721
O O3 0.659549 0.193547 0.748438
O O4 0.806478 0.229518 0.679575
O O5 0.804111 0.374229 0.899082
O O6 0.856087 0.799634 0.789820
O O7 0.768859 0.917680 0.902958
O O8 0.778987 0.013114 0.664794
O O9 0.000000 0.968556 0.000000
O O10 0.500000 0.719208 0.500000
O O11 0.745208 0.660687 0.842453
O O12 0.578984 0.778007 0.803104
O O13 0.500000 0.040445 0.500000
O O14 0.412578 0.162560 0.592677
O O15 0.572558 0.007887 0.813460
O O16 0.738422 0.105783 0.379462
O O17 0.500000 0.132324 0.000000
#
# Coordination Sequence:
#
# PCOD9123636 Si02
#       8
#     2   4   4   4   4   4   4   4
#     4  10  22  38  60  94 134 160 220 274 340 380
#     4  11  23  37  63  99 127 174 214 280 335 406
#     4  10  23  42  65  92 131 183 223 280 337 412
#     4   9  23  40  67  95 128 173 226 283 333 393
#     4  10  20  39  65  91 124 173 216 266 335 396
#     4  10  24  43  69  97 133 182 228 278 344 415
#     4  11  23  43  65  94 138 175 225 275 351 400
#     4  11  22  39  67  98 128 166 238 270 334 410
#
# _framework density 25.31251
#
# number of rings (size 3 to 8) (size 9 to 14) (size 15 to 20)
#    0.400    1.333    4.667    0.400    9.333    2.133 
#    2.400    0.000    0.000    0.800    0.000    0.000 
#    0.000    0.000    0.000    0.000    0.000    0.000 
#
# Total GULP energy -83613.712809 kJ/mol
# GULP energy per Si atom -5574.247521 kJ/mol
# Density = 2.525490 g / cm^3
# Si number density = 25.312510 Si / 1000 Ang^3
#
#
#
# Elastic Constant Matrix: (Units=GPa)
#
#
# Indices 1 2 3 4 5 6 
#
# 1 65.2029 15.7760 35.8610 0.0000 8.8017 0.0000
# 2 15.7760 145.1630 71.7677 0.0000 -3.0412 0.0000
# 3 35.8610 71.7677 125.6451 0.0000 3.3760 0.0000
# 4 0.0000 0.0000 0.0000 51.2614 0.0000 0.9411
# 5 8.8017 -3.0412 3.3760 0.0000 31.6180 0.0000
# 6 0.0000 0.0000 0.0000 0.9411 0.0000 14.4934
#
#
#
# Elastic Compliance Matrix: (Units=1/GPa)
#
#
# Indices 1 2 3 4 5 6 
#
# 1 0.018903 0.000635 -0.005634 0.000000 -0.004599 0.000000
# 2 0.000635 0.009694 -0.005755 0.000000 0.001370 0.000000
# 3 -0.005634 -0.005755 0.012864 0.000000 -0.000359 0.000000
# 4 0.000000 0.000000 0.000000 0.019531 0.000000 -0.001268
# 5 -0.004599 0.001370 -0.000359 0.000000 0.033078 0.000000
# 6 0.000000 0.000000 0.000000 -0.001268 0.000000 0.069079
#
#
# Mechanical properties :
#
#
# Convention : Reuss Voigt Hill
#
# Bulk Modulus (GPa) = 50.12110 64.75783 57.43946
# Shear Modulus (GPa) = 26.13586 33.64832 29.89209
#
# Velocity S-wave (km/s) = 3.21678 3.64993 3.44018
# Velocity P-wave (km/s) = 5.80007 6.58799 6.20654
#
# Compressibility (1/GPa) = 0.01995168
#
# Stress axis : x y z
#
# Youngs Moduli (GPa) = 52.90234 103.15905 77.73713
#
# Poissons Ratio (x) = -0.06549 0.43798
# Poissons Ratio (y) = -0.03358 0.44738
# Poissons Ratio (z) = 0.29806 0.59368
#
# Static dielectric constant tensor:
#      x y z
#    x 2.256660 0.000000 -0.071900 
#    y 0.000000 1.961130 0.000000 
#    z -0.071900 0.000000 2.099690 
# 
# From -- ./inp_files/44706.got.cif
#   From: 2010.05.17/outbox.cif.g08.bks.cpg/sg5_23_cif.got.tgz:44706.got - 2010.06.03 18:56:24.
