data_PCOD9123929
_publ_section_title
;
Structure prediction by ZEFSAII (Michael W. Deem and Ramdas Pophale) SiO2 
 PCOD9123929
Probable space group: C 2
;
_chemical_formula_sum "Si O2"
_cell_formula_units_Z 28
_cell_length_a 24.503677
_cell_length_b 9.513203
_cell_length_c 8.459179
_cell_angle_alpha 90.000000
_cell_angle_beta 142.749322
_cell_angle_gamma 90.000000
_cell_volume 1193.601502
_symmetry_space_group_name_H-M "C 2"
_symmetry_group_IT_number 5
_symmetry_cell_setting 'monoclinic'
loop_
_space_group_symop_operation_xyz
x,y,z
-x,y,-z
1/2+x,1/2+y,z
1/2-x,1/2+y,-z
loop_
_atom_site_type_symbol
_atom_site_label
_atom_site_fract_x
_atom_site_fract_y
_atom_site_fract_z
Si Si1 0.823374 0.502200 0.593451
Si Si2 0.896679 0.859194 0.479197
Si Si3 0.455990 0.160975 0.083350
Si Si4 0.827177 0.653172 0.057532
Si Si5 0.093329 0.440363 0.538631
Si Si6 0.872885 0.160507 0.283222
Si Si7 0.784253 0.258783 0.754344
O O1 0.837556 0.446008 0.448857
O O2 0.818967 0.378746 0.713228
O O3 0.743922 0.616659 0.404500
O O4 0.913464 0.595167 0.828689
O O5 0.881262 0.756370 0.296424
O O6 0.806792 0.828998 0.377446
O O7 0.984518 0.801445 0.772866
O O8 0.906855 0.010323 0.421461
O O9 0.363921 0.182234 0.970522
O O10 0.511035 0.041235 0.305411
O O11 0.853929 0.500293 0.187538
O O12 0.722853 0.673888 0.846849
O O13 0.064395 0.283173 0.505519
O O14 0.846460 0.198259 0.041036
#
# Coordination Sequence:
#
# PCOD9123929 Si02
#       7
#     4   4   4   4   4   4   4
#     4  12  25  44  66 101 142 182 227 269 354 414
#     4  10  21  40  68 100 132 172 230 280 333 393
#     4  11  23  43  70  95 135 181 222 271 349 420
#     4  10  20  40  69  98 125 178 226 277 330 400
#     4  11  22  40  69  95 135 180 219 278 338 403
#     4  11  22  42  69 102 133 165 236 290 330 382
#     4  11  26  41  69 103 136 184 226 287 330 411
#
# _framework density 23.458416
#
# number of rings (size 3 to 8) (size 9 to 14) (size 15 to 20)
#    0.000    1.143    4.286    5.571    4.000    0.000 
#    0.000    7.143    3.143    0.000    0.000    0.000 
#    0.000    0.000    0.000    0.000    0.000    0.000 
#
# Total GULP energy -78218.859960 kJ/mol
# GULP energy per Si atom -5587.061426 kJ/mol
# Density = 2.340502 g / cm^3
# Si number density = 23.458416 Si / 1000 Ang^3
#
#
#
# Elastic Constant Matrix: (Units=GPa)
#
#
# Indices 1 2 3 4 5 6 
#
# 1 86.6813 27.6448 18.7094 0.0000 -12.1436 0.0000
# 2 27.6448 173.0650 45.9871 0.0000 -7.0251 0.0000
# 3 18.7094 45.9871 78.3428 0.0000 2.8604 0.0000
# 4 0.0000 0.0000 0.0000 34.8425 0.0000 -14.1405
# 5 -12.1436 -7.0251 2.8604 0.0000 19.6036 0.0000
# 6 0.0000 0.0000 0.0000 -14.1405 0.0000 27.4212
#
#
#
# Elastic Compliance Matrix: (Units=1/GPa)
#
#
# Indices 1 2 3 4 5 6 
#
# 1 0.013711 -0.001055 -0.002967 0.000000 0.008548 0.000000
# 2 -0.001055 0.007114 -0.004015 0.000000 0.002482 0.000000
# 3 -0.002967 -0.004015 0.016035 0.000000 -0.005617 0.000000
# 4 0.000000 0.000000 0.000000 0.036297 0.000000 0.018718
# 5 0.008548 0.002482 -0.005617 0.000000 0.058015 0.000000
# 6 0.000000 0.000000 0.000000 0.018718 0.000000 0.046120
#
#
# Mechanical properties :
#
#
# Convention : Reuss Voigt Hill
#
# Bulk Modulus (GPa) = 48.10862 58.08575 53.09718
# Shear Modulus (GPa) = 24.96317 32.75663 28.85990
#
# Velocity S-wave (km/s) = 3.26566 3.74086 3.51131
# Velocity P-wave (km/s) = 5.89678 6.59345 6.25482
#
# Compressibility (1/GPa) = 0.02078629
#
# Stress axis : x y z
#
# Youngs Moduli (GPa) = 72.93451 140.56394 62.36428
#
# Poissons Ratio (x) = 0.14824 0.18506
# Poissons Ratio (y) = 0.07692 0.25038
# Poissons Ratio (z) = 0.21643 0.56433
#
# Static dielectric constant tensor:
#      x y z
#    x 2.027670 0.000000 -0.008260 
#    y 0.000000 1.900240 0.000000 
#    z -0.008260 0.000000 1.887640 
# 
# From -- ./inp_files/31771.got.cif
#   From: 2010.05.17/outbox.cif.g08.bks.cpg/sg5_16_cif.got.tgz:31771.got - 2010.06.03 18:56:24.
