data_PCOD9123914
_publ_section_title
;
Structure prediction by ZEFSAII (Michael W. Deem and Ramdas Pophale) SiO2 
 PCOD9123914
Probable space group: C 2
;
_chemical_formula_sum "Si O2"
_cell_formula_units_Z 22
_cell_length_a 20.926726
_cell_length_b 8.535222
_cell_length_c 8.818399
_cell_angle_alpha 90.000000
_cell_angle_beta 147.341911
_cell_angle_gamma 90.000000
_cell_volume 849.958289
_symmetry_space_group_name_H-M "C 2"
_symmetry_group_IT_number 5
_symmetry_cell_setting 'monoclinic'
loop_
_space_group_symop_operation_xyz
x,y,z
-x,y,-z
1/2+x,1/2+y,z
1/2-x,1/2+y,-z
loop_
_atom_site_type_symbol
_atom_site_label
_atom_site_fract_x
_atom_site_fract_y
_atom_site_fract_z
Si Si1 0.409729 0.761660 0.605782
Si Si2 0.000000 0.998019 0.000000
Si Si3 0.432037 0.220051 0.063235
Si Si4 0.297245 0.362643 0.038088
Si Si5 0.670709 0.704174 0.033603
Si Si6 0.332829 0.068669 0.600159
O O1 0.428065 0.600589 0.734490
O O2 0.315829 0.800963 0.285957
O O3 0.367248 0.889493 0.643355
O O4 0.541238 0.777940 0.795768
O O5 0.922823 0.880740 0.949100
O O6 0.401912 0.258879 0.174333
O O7 0.341382 0.107813 0.794032
O O8 0.559168 0.151802 0.276781
O O9 0.326193 0.544061 0.062209
O O10 0.261123 0.324800 0.136034
O O11 0.721418 0.642437 0.293780
#
# Coordination Sequence:
#
# PCOD9123914 Si02
#       6
#     4   2   4   4   4   4
#     4  11  23  42  68 100 129 174 226 276 331 400
#     4  10  20  40  68  96 132 170 222 276 334 388
#     4  10  22  45  62 103 135 171 221 280 334 392
#     4  11  26  44  67  96 139 172 228 272 332 399
#     4  11  25  46  65  99 133 184 218 274 334 403
#     4   9  23  44  67  96 134 172 221 274 334 393
#
# _framework density 25.883623
#
# number of rings (size 3 to 8) (size 9 to 14) (size 15 to 20)
#    0.000    1.818    1.818    1.636    5.091    3.636 
#    3.273    0.000    0.000    0.000    0.000    0.000 
#    0.000    0.000    0.000    0.000    0.000    0.000 
#
# Total GULP energy -61543.296173 kJ/mol
# GULP energy per Si atom -5594.845107 kJ/mol
# Density = 2.582471 g / cm^3
# Si number density = 25.883623 Si / 1000 Ang^3
#
#
#
# Elastic Constant Matrix: (Units=GPa)
#
#
# Indices 1 2 3 4 5 6 
#
# 1 118.3604 23.3136 -3.7725 0.0000 10.3356 0.0000
# 2 23.3136 99.7153 21.8300 0.0000 -9.2439 0.0000
# 3 -3.7725 21.8300 70.2645 0.0000 8.8122 0.0000
# 4 0.0000 0.0000 0.0000 28.4858 0.0000 -2.1036
# 5 10.3356 -9.2439 8.8122 0.0000 33.9065 0.0000
# 6 0.0000 0.0000 0.0000 -2.1036 0.0000 52.7716
#
#
#
# Elastic Compliance Matrix: (Units=1/GPa)
#
#
# Indices 1 2 3 4 5 6 
#
# 1 0.009482 -0.003044 0.001986 0.000000 -0.004237 0.000000
# 2 -0.003044 0.012270 -0.004663 0.000000 0.005485 0.000000
# 3 0.001986 -0.004663 0.016563 0.000000 -0.006181 0.000000
# 4 0.000000 0.000000 0.000000 0.035209 0.000000 0.001403
# 5 -0.004237 0.005485 -0.006181 0.000000 0.033886 0.000000
# 6 0.000000 0.000000 0.000000 0.001403 0.000000 0.019006
#
#
# Mechanical properties :
#
#
# Convention : Reuss Voigt Hill
#
# Bulk Modulus (GPa) = 37.21485 41.23140 39.22312
# Shear Modulus (GPa) = 34.05652 39.49739 36.77695
#
# Velocity S-wave (km/s) = 3.63127 3.91059 3.77352
# Velocity P-wave (km/s) = 5.65601 6.02946 5.84572
#
# Compressibility (1/GPa) = 0.02687099
#
# Stress axis : x y z
#
# Youngs Moduli (GPa) = 105.46649 81.50127 60.37680
#
# Poissons Ratio (x) = 0.24812 -0.11992
# Poissons Ratio (y) = 0.32108 0.28156
# Poissons Ratio (z) = -0.20948 0.38007
#
# Static dielectric constant tensor:
#      x y z
#    x 2.055220 0.000000 0.058720 
#    y 0.000000 2.048650 0.000000 
#    z 0.058720 0.000000 2.106470 
# 
# From -- ./inp_files/29065.got.cif
#   From: 2010.05.17/outbox.cif.g08.bks.cpg/sg5_15_cif.got.tgz:29065.got - 2010.06.03 18:56:24.
