data_PCOD9123581
_publ_section_title
;
Structure prediction by ZEFSAII (Michael W. Deem and Ramdas Pophale) SiO2 
 PCOD9123581
Probable space group: C 2
;
_chemical_formula_sum "Si O2"
_cell_formula_units_Z 24
_cell_length_a 14.930043
_cell_length_b 10.229742
_cell_length_c 12.874209
_cell_angle_alpha 90.000000
_cell_angle_beta 146.961645
_cell_angle_gamma 90.000000
_cell_volume 1072.018820
_symmetry_space_group_name_H-M "C 2"
_symmetry_group_IT_number 5
_symmetry_cell_setting 'monoclinic'
loop_
_space_group_symop_operation_xyz
x,y,z
-x,y,-z
1/2+x,1/2+y,z
1/2-x,1/2+y,-z
loop_
_atom_site_type_symbol
_atom_site_label
_atom_site_fract_x
_atom_site_fract_y
_atom_site_fract_z
Si Si1 0.820991 0.170600 0.700128
Si Si2 0.955766 0.203517 0.612790
Si Si3 0.764795 0.396590 0.105143
Si Si4 0.000000 0.744040 0.500000
Si Si5 0.000000 0.410902 0.500000
Si Si6 0.176644 0.969694 0.793374
Si Si7 0.000000 0.942126 0.000000
Si Si8 0.500000 0.899472 0.000000
O O1 0.636445 0.174421 0.562475
O O2 0.836003 0.172742 0.590557
O O3 0.916635 0.299678 0.835779
O O4 0.904479 0.042843 0.830776
O O5 0.119666 0.276800 0.815114
O O6 0.893334 0.308110 0.466896
O O7 0.032669 0.074479 0.638753
O O8 0.613765 0.361340 0.032489
O O9 0.883996 0.475273 0.301084
O O10 0.709334 0.467285 0.948254
O O11 0.104314 0.834145 0.680450
O O12 0.351848 0.983017 0.905814
#
# Coordination Sequence:
#
# PCOD9123581 Si02
#       8
#     4   4   4   2   2   4   2   2
#     4  10  20  39  62  88 124 166 212 266 309 379
#     4  10  20  40  65  88 129 164 211 259 320 377
#     4  10  22  39  63  93 129 169 212 258 325 379
#     4  10  25  37  62  96 130 158 231 259 318 368
#     4   8  21  39  62  86 136 156 207 263 316 366
#     4  11  20  39  66  95 124 174 212 265 321 381
#     4  11  22  39  66  92 126 171 212 267 322 372
#     4   9  18  35  62  88 122 155 212 267 308 364
#
# _framework density 22.387668000000001
#
# number of rings (size 3 to 8) (size 9 to 14) (size 15 to 20)
#    1.000    1.000    3.333    0.500    0.000    2.667 
#    0.000    0.000   11.000    0.000    0.000    0.000 
#    0.000    0.000    0.000    0.000    0.000    0.000 
#
# Total GULP energy -66888.252667 kJ/mol
# GULP energy per Si atom -5574.021056 kJ/mol
# Density = 2.233671 g / cm^3
# Si number density = 22.387668 Si / 1000 Ang^3
#
#
#
# Elastic Constant Matrix: (Units=GPa)
#
#
# Indices 1 2 3 4 5 6 
#
# 1 166.8548 19.2119 59.9369 0.0000 8.8287 0.0000
# 2 19.2119 32.4588 3.8516 0.0000 2.5452 0.0000
# 3 59.9369 3.8516 79.7406 0.0000 -4.8454 0.0000
# 4 0.0000 0.0000 0.0000 15.9271 0.0000 2.5569
# 5 8.8287 2.5452 -4.8454 0.0000 54.9869 0.0000
# 6 0.0000 0.0000 0.0000 2.5569 0.0000 23.0813
#
#
#
# Elastic Compliance Matrix: (Units=1/GPa)
#
#
# Indices 1 2 3 4 5 6 
#
# 1 0.008984 -0.004385 -0.006652 0.000000 -0.001826 0.000000
# 2 -0.004385 0.033262 0.001648 0.000000 -0.000690 0.000000
# 3 -0.006652 0.001648 0.017616 0.000000 0.002544 0.000000
# 4 0.000000 0.000000 0.000000 0.063923 0.000000 -0.007081
# 5 -0.001826 -0.000690 0.002544 0.000000 0.018735 0.000000
# 6 0.000000 0.000000 0.000000 -0.007081 0.000000 0.044110
#
#
# Mechanical properties :
#
#
# Convention : Reuss Voigt Hill
#
# Bulk Modulus (GPa) = 24.34100 49.45054 36.89577
# Shear Modulus (GPa) = 22.82019 31.86933 27.34476
#
# Velocity S-wave (km/s) = 3.19614 3.77705 3.49867
# Velocity P-wave (km/s) = 4.95142 6.41543 5.73037
#
# Compressibility (1/GPa) = 0.04108295
#
# Stress axis : x y z
#
# Youngs Moduli (GPa) = 111.30499 30.06389 56.76733
#
# Poissons Ratio (x) = 0.13184 0.37763
# Poissons Ratio (y) = 0.48809 -0.09353
# Poissons Ratio (z) = 0.74042 -0.04953
#
# Static dielectric constant tensor:
#      x y z
#    x 1.801900 0.000000 0.006120 
#    y 0.000000 1.903500 0.000000 
#    z 0.006120 0.000000 1.821710 
# 
# From -- ./inp_files/23111.got.cif
#   From: 2010.05.17/outbox.cif.g08.bks.cpg/sg5_12_cif.got.tgz:23111.got - 2010.06.03 18:56:24.
