data_PCOD9123486
_publ_section_title
;
Structure prediction by ZEFSAII (Michael W. Deem and Ramdas Pophale) SiO2 
 PCOD9123486
Probable space group: C 2
;
_chemical_formula_sum "Si O2"
_cell_formula_units_Z 22
_cell_length_a 12.951083
_cell_length_b 5.266901
_cell_length_c 29.780239
_cell_angle_alpha 90.000000
_cell_angle_beta 156.354237
_cell_angle_gamma 90.000000
_cell_volume 814.744265
_symmetry_space_group_name_H-M "C 2"
_symmetry_group_IT_number 5
_symmetry_cell_setting 'monoclinic'
loop_
_space_group_symop_operation_xyz
x,y,z
-x,y,-z
1/2+x,1/2+y,z
1/2-x,1/2+y,-z
loop_
_atom_site_type_symbol
_atom_site_label
_atom_site_fract_x
_atom_site_fract_y
_atom_site_fract_z
Si Si1 0.793470 0.326180 0.601245
Si Si2 0.363979 0.830137 0.494593
Si Si3 0.386142 0.952575 0.872819
Si Si4 0.629070 0.219562 0.895602
Si Si5 0.500000 0.331098 0.000000
Si Si6 0.583534 0.477014 0.268522
O O1 0.500000 0.361392 0.500000
O O2 0.820379 0.585743 0.583203
O O3 0.905326 0.226634 0.694244
O O4 0.797363 0.090690 0.567837
O O5 0.500000 0.854634 0.500000
O O6 0.636488 0.854635 0.628806
O O7 0.395989 0.098838 0.830122
O O8 0.435617 0.156699 0.931939
O O9 0.119233 0.821256 0.780416
O O10 0.638594 0.778607 0.977135
O O11 0.762308 0.014402 0.916733
O O12 0.542939 0.458272 0.831275
#
# Coordination Sequence:
#
# PCOD9123486 Si02
#       6
#     4   4   4   4   2   4
#     4   8  16  32  56  92 124 159 216 275 331 396
#     4   8  16  32  56  92 124 159 216 275 331 396
#     4  12  24  41  62 101 136 181 233 278 336 407
#     4  12  24  41  62 101 136 181 233 278 336 407
#     4  12  22  40  68  80 142 188 214 292 332 388
#     4  10  20  38  66  96 130 182 230 270 358 412
#
# _framework density 27.002338999999999
#
# number of rings (size 3 to 8) (size 9 to 14) (size 15 to 20)
#    0.000    2.182    5.455    0.000    0.000    5.818 
#    0.000    0.000    0.000    8.727    0.000    2.545 
#    0.000    0.000    0.000    0.000    0.000    0.000 
#
# Total GULP energy -61257.909650 kJ/mol
# GULP energy per Si atom -5568.900877 kJ/mol
# Density = 2.694088 g / cm^3
# Si number density = 27.002339 Si / 1000 Ang^3
#
#
#
# Elastic Constant Matrix: (Units=GPa)
#
#
# Indices 1 2 3 4 5 6 
#
# 1 132.4687 21.4460 27.2957 -0.0082 5.2606 0.0026
# 2 21.4460 161.1030 26.5918 -0.0175 3.8443 0.0055
# 3 27.2957 26.5918 126.6090 -0.0192 7.3249 0.0035
# 4 -0.0082 -0.0175 -0.0192 3.5674 0.0006 -6.6063
# 5 5.2606 3.8443 7.3249 0.0006 21.5141 -0.0036
# 6 0.0026 0.0055 0.0035 -6.6063 -0.0036 24.3194
#
#
#
# Elastic Compliance Matrix: (Units=1/GPa)
#
#
# Indices 1 2 3 4 5 6 
#
# 1 0.008037 -0.000792 -0.001490 0.000011 -0.001316 0.000002
# 2 -0.000792 0.006519 -0.001165 0.000043 -0.000574 0.000011
# 3 -0.001490 -0.001165 0.008601 0.000071 -0.002356 0.000018
# 4 0.000011 0.000043 0.000071 0.564071 -0.000026 0.153228
# 5 -0.001316 -0.000574 -0.002356 -0.000026 0.047708 0.000001
# 6 0.000002 0.000011 0.000018 0.153228 0.000001 0.082743
#
#
# Mechanical properties :
#
#
# Convention : Reuss Voigt Hill
#
# Bulk Modulus (GPa) = 61.49773 63.42751 62.46262
# Shear Modulus (GPa) = 6.84938 32.86999 19.85968
#
# Velocity S-wave (km/s) = 1.59439 3.49277 2.71492
# Velocity P-wave (km/s) = 5.11995 6.30924 5.74545
#
# Compressibility (1/GPa) = 0.01626076
#
# Stress axis : x y z
#
# Youngs Moduli (GPa) = 124.43167 153.40443 116.27152
#
# Poissons Ratio (x) = 0.12157 0.17325
# Poissons Ratio (y) = 0.09861 0.13546
# Poissons Ratio (z) = 0.18540 0.17872
#
# Static dielectric constant tensor:
#      x y z
#    x 2.078140 0.000000 0.065580 
#    y 0.000000 2.452920 -0.000010 
#    z 0.065580 -0.000010 2.365260 
# 
# From -- ./inp_files/71812.got.cif
#   From: 2010.05.17/outbox.cif.g08.bks.cpg/sg5_36_cif.got.tgz:71812.got - 2010.06.03 18:56:24.
