data_PCOD9123583
_publ_section_title
;
Structure prediction by ZEFSAII (Michael W. Deem and Ramdas Pophale) SiO2 
 PCOD9123583
Probable space group: C 2
;
_chemical_formula_sum "Si O2"
_cell_formula_units_Z 22
_cell_length_a 10.379859
_cell_length_b 12.142522
_cell_length_c 7.672106
_cell_angle_alpha 90.000000
_cell_angle_beta 75.833137
_cell_angle_gamma 90.000000
_cell_volume 937.565804
_symmetry_space_group_name_H-M "C 2"
_symmetry_group_IT_number 5
_symmetry_cell_setting 'monoclinic'
loop_
_space_group_symop_operation_xyz
x,y,z
-x,y,-z
1/2+x,1/2+y,z
1/2-x,1/2+y,-z
loop_
_atom_site_type_symbol
_atom_site_label
_atom_site_fract_x
_atom_site_fract_y
_atom_site_fract_z
Si Si1 0.982097 0.716080 0.711085
Si Si2 0.894473 0.066817 0.179245
Si Si3 0.344446 0.030844 0.969661
Si Si4 0.695177 0.806689 0.892641
Si Si5 0.762639 0.224955 0.759216
Si Si6 0.500000 0.616263 0.500000
O O1 0.122353 0.764378 0.729822
O O2 0.000000 0.692691 0.500000
O O3 0.956125 0.605592 0.835756
O O4 0.851182 0.790875 0.790430
O O5 0.756964 0.014524 0.161081
O O6 0.874594 0.200938 0.171107
O O7 0.952192 0.045534 0.350582
O O8 0.000000 0.032874 0.000000
O O9 0.266556 0.115449 0.119587
O O10 0.361837 0.929084 0.098465
O O11 0.680632 0.797755 0.106078
O O12 0.874385 0.192935 0.586286
#
# Coordination Sequence:
#
# PCOD9123583 Si02
#       6
#     4   4   4   4   4   2
#     4  10  21  43  63  93 128 174 220 268 334 396
#     4  10  20  39  62  89 128 171 209 266 333 388
#     4  10  21  40  65  94 125 165 221 273 327 391
#     4  10  21  40  65  94 125 165 221 273 327 391
#     4  10  21  40  63  87 126 179 203 267 327 392
#     4  12  20  42  66  92 132 170 228 264 334 388
#
# _framework density 23.465019000000002
#
# number of rings (size 3 to 8) (size 9 to 14) (size 15 to 20)
#    0.000    2.182    3.636    4.364    0.000    2.909 
#    3.273    3.636    0.000    0.000    0.000    0.000 
#    0.000    0.000    0.000    0.000    0.000    0.000 
#
# Total GULP energy -61310.723870 kJ/mol
# GULP energy per Si atom -5573.702170 kJ/mol
# Density = 2.341161 g / cm^3
# Si number density = 23.465019 Si / 1000 Ang^3
#
#
#
# Elastic Constant Matrix: (Units=GPa)
#
#
# Indices 1 2 3 4 5 6 
#
# 1 108.2136 -23.4475 25.2981 0.0000 -3.9052 0.0000
# 2 -23.4475 79.4125 -7.0433 0.0000 6.7418 0.0000
# 3 25.2981 -7.0433 138.7849 0.0000 2.3638 0.0000
# 4 0.0000 0.0000 0.0000 4.9881 0.0000 2.0204
# 5 -3.9052 6.7418 2.3638 0.0000 48.1107 0.0000
# 6 0.0000 0.0000 0.0000 2.0204 0.0000 14.7510
#
#
#
# Elastic Compliance Matrix: (Units=1/GPa)
#
#
# Indices 1 2 3 4 5 6 
#
# 1 0.010281 0.002837 -0.001739 0.000000 0.000522 0.000000
# 2 0.002837 0.013591 0.000201 0.000000 -0.001684 0.000000
# 3 -0.001739 0.000201 0.007542 0.000000 -0.000540 0.000000
# 4 0.000000 0.000000 0.000000 0.212250 0.000000 -0.029071
# 5 0.000522 -0.001684 -0.000540 0.000000 0.021090 0.000000
# 6 0.000000 0.000000 0.000000 -0.029071 0.000000 0.071774
#
#
# Mechanical properties :
#
#
# Convention : Reuss Voigt Hill
#
# Bulk Modulus (GPa) = 29.40093 35.11395 32.25744
# Shear Modulus (GPa) = 14.48155 35.67687 25.07921
#
# Velocity S-wave (km/s) = 2.48696 3.90350 3.27278
# Velocity P-wave (km/s) = 4.56108 5.94250 5.29701
#
# Compressibility (1/GPa) = 0.03401253
#
# Stress axis : x y z
#
# Youngs Moduli (GPa) = 97.26587 73.57822 132.59447
#
# Poissons Ratio (x) = -0.20874 0.23058
# Poissons Ratio (y) = -0.27595 -0.02669
# Poissons Ratio (z) = 0.16914 -0.01481
#
# Static dielectric constant tensor:
#      x y z
#    x 2.010310 0.000000 0.015420 
#    y 0.000000 1.946240 0.000000 
#    z 0.015420 0.000000 1.870960 
# 
# From -- ./inp_files/19666.got.cif
#   From: 2010.05.17/outbox.cif.g08.bks.cpg/sg5_10_cif.got.tgz:19666.got - 2010.06.03 18:56:24.
