data_PCOD9123822
_publ_section_title
;
Structure prediction by ZEFSAII (Michael W. Deem and Ramdas Pophale) SiO2 
 PCOD9123822
Probable space group: C 2
;
_chemical_formula_sum "Si O2"
_cell_formula_units_Z 26
_cell_length_a 12.701761
_cell_length_b 8.069197
_cell_length_c 26.745308
_cell_angle_alpha 90.000000
_cell_angle_beta 152.171292
_cell_angle_gamma 90.000000
_cell_volume 1279.677194
_symmetry_space_group_name_H-M "C 2"
_symmetry_group_IT_number 5
_symmetry_cell_setting 'monoclinic'
loop_
_space_group_symop_operation_xyz
x,y,z
-x,y,-z
1/2+x,1/2+y,z
1/2-x,1/2+y,-z
loop_
_atom_site_type_symbol
_atom_site_label
_atom_site_fract_x
_atom_site_fract_y
_atom_site_fract_z
Si Si1 0.504201 0.975090 0.741101
Si Si2 0.791683 0.668797 0.256927
Si Si3 0.000000 0.043938 0.500000
Si Si4 0.030840 0.114435 0.785674
Si Si5 0.221221 0.283361 0.122400
Si Si6 0.282636 0.784045 0.490797
Si Si7 0.281645 0.120383 0.438114
O O1 0.596394 0.806470 0.803795
O O2 0.620243 0.008734 0.736324
O O3 0.579917 0.145132 0.801045
O O4 0.233707 0.966258 0.620190
O O5 0.630511 0.622221 0.234153
O O6 0.681957 0.776711 0.165988
O O7 0.014066 0.763684 0.369419
O O8 0.907663 0.155260 0.507177
O O9 0.893407 0.067713 0.677613
O O10 0.208645 0.966740 0.865347
O O11 0.000000 0.229264 0.000000
O O12 0.316822 0.747669 0.563237
O O13 0.351869 0.964291 0.501405
O O14 0.500000 0.179250 0.500000
#
# Coordination Sequence:
#
# PCOD9123822 Si02
#       7
#     4   4   2   4   4   4   4
#     4   9  24  41  66 101 138 173 225 278 335 414
#     4   9  22  45  61  98 135 166 237 279 327 415
#     4  10  20  40  64  96 142 182 214 274 344 408
#     4  12  23  44  70  99 131 184 227 274 350 404
#     4  10  24  51  68  97 140 173 233 302 331 392
#     4  11  23  38  61  93 141 182 217 274 339 401
#     4  12  25  37  63  96 137 184 221 272 333 411
#
# _framework density 20.317623999999999
#
# number of rings (size 3 to 8) (size 9 to 14) (size 15 to 20)
#    0.923    0.615    3.846    0.000    7.538    0.615 
#    5.538    0.000    0.000    0.000    0.000    0.000 
#    0.000    0.000    0.000    0.000    0.000    0.000 
#
# Total GULP energy -72498.862988 kJ/mol
# GULP energy per Si atom -5576.835614 kJ/mol
# Density = 2.027138 g / cm^3
# Si number density = 20.317624 Si / 1000 Ang^3
#
#
#
# Elastic Constant Matrix: (Units=GPa)
#
#
# Indices 1 2 3 4 5 6 
#
# 1 138.5617 33.3690 21.5937 0.0000 0.0792 0.0000
# 2 33.3690 115.8959 23.9978 0.0000 9.1200 0.0000
# 3 21.5937 23.9978 74.7184 0.0000 -0.3730 0.0002
# 4 0.0000 0.0000 0.0000 20.4169 0.0002 -3.7107
# 5 0.0792 9.1200 -0.3730 0.0002 10.6350 0.0000
# 6 0.0000 0.0000 0.0002 -3.7107 0.0000 14.0158
#
#
#
# Elastic Compliance Matrix: (Units=1/GPa)
#
#
# Indices 1 2 3 4 5 6 
#
# 1 0.007973 -0.002091 -0.001624 0.000000 0.001677 0.000000
# 2 -0.002091 0.010533 -0.002824 0.000000 -0.009116 0.000000
# 3 -0.001624 -0.002824 0.014775 0.000000 0.002952 0.000000
# 4 0.000000 0.000000 0.000000 0.051455 -0.000001 0.013623
# 5 0.001677 -0.009116 0.002952 -0.000001 0.101938 0.000000
# 6 0.000000 0.000000 0.000000 0.013623 0.000000 0.074955
#
#
# Mechanical properties :
#
#
# Convention : Reuss Voigt Hill
#
# Bulk Modulus (GPa) = 49.50137 54.12189 51.81163
# Shear Modulus (GPa) = 17.76580 25.69456 21.73018
#
# Velocity S-wave (km/s) = 2.96024 3.56004 3.27391
# Velocity P-wave (km/s) = 6.00838 6.60259 6.31248
#
# Compressibility (1/GPa) = 0.02020146
#
# Stress axis : x y z
#
# Youngs Moduli (GPa) = 125.42703 94.94333 67.68330
#
# Poissons Ratio (x) = 0.19855 0.10993
# Poissons Ratio (y) = 0.26229 0.19114
# Poissons Ratio (z) = 0.20371 0.26812
#
# Static dielectric constant tensor:
#      x y z
#    x 1.701090 0.000000 -0.017200 
#    y 0.000000 1.789330 0.000000 
#    z -0.017200 0.000000 1.703560 
# 
# From -- ./inp_files/70373.got.cif
#   From: 2010.05.17/outbox.cif.g08.bks.cpg/sg5_36_cif.got.tgz:70373.got - 2010.06.03 18:56:24.
