data_PCOD9123850
_publ_section_title
;
Structure prediction by ZEFSAII (Michael W. Deem and Ramdas Pophale) SiO2 
 PCOD9123850
Probable space group: C 2
;
_chemical_formula_sum "Si O2"
_cell_formula_units_Z 30
_cell_length_a 12.182764
_cell_length_b 12.666852
_cell_length_c 9.953935
_cell_angle_alpha 90.000000
_cell_angle_beta 63.601719
_cell_angle_gamma 90.000000
_cell_volume 1375.891134
_symmetry_space_group_name_H-M "C 2"
_symmetry_group_IT_number 5
_symmetry_cell_setting 'monoclinic'
loop_
_space_group_symop_operation_xyz
x,y,z
-x,y,-z
1/2+x,1/2+y,z
1/2-x,1/2+y,-z
loop_
_atom_site_type_symbol
_atom_site_label
_atom_site_fract_x
_atom_site_fract_y
_atom_site_fract_z
Si Si1 0.500000 0.832290 0.000000
Si Si2 0.375151 0.145367 0.889530
Si Si3 0.383317 0.866547 0.470985
Si Si4 0.434901 0.682104 0.277701
Si Si5 0.110371 0.506254 0.785959
Si Si6 0.834758 0.068142 0.787353
Si Si7 0.887713 0.886507 0.955883
Si Si8 0.254300 0.511318 0.249381
O O1 0.497469 0.754907 0.127777
O O2 0.393946 0.917967 0.091427
O O3 0.507435 0.095973 0.854779
O O4 0.377120 0.270753 0.900665
O O5 0.339396 0.096157 0.764737
O O6 0.266328 0.113616 0.052340
O O7 0.500000 0.846831 0.500000
O O8 0.349013 0.757381 0.414954
O O9 0.288404 0.933634 0.609832
O O10 0.422688 0.943158 0.328858
O O11 0.550641 0.642440 0.299265
O O12 0.363898 0.586554 0.243372
O O13 0.249329 0.545527 0.706871
O O14 0.892460 0.966988 0.829634
O O15 0.218044 0.932345 0.889826
O O16 0.000000 0.888586 0.000000
#
# Coordination Sequence:
#
# PCOD9123850 Si02
#       8
#     2   4   4   4   4   4   4   4
#     4  10  20  40  66 104 132 174 230 282 334 410
#     4  11  23  38  71  99 140 176 219 284 350 396
#     4  11  26  47  70  94 131 195 237 274 339 423
#     4  11  25  43  70 100 138 183 229 284 358 395
#     4  11  22  42  66 102 142 173 239 276 335 409
#     4  11  23  38  67 106 138 169 224 295 331 412
#     4  11  23  41  69 105 139 172 217 285 361 404
#     4  11  25  48  65 102 142 175 233 293 334 423
#
# _framework density 21.80405
#
# number of rings (size 3 to 8) (size 9 to 14) (size 15 to 20)
#    0.000    1.067    4.000    2.400    7.467    1.067 
#    2.400    0.000    0.000    0.000    0.000    0.000 
#    0.000    0.000    0.000    0.000    0.000    0.000 
#
# Total GULP energy -83669.698665 kJ/mol
# GULP energy per Si atom -5577.979911 kJ/mol
# Density = 2.175442 g / cm^3
# Si number density = 21.804050 Si / 1000 Ang^3
#
#
#
# Elastic Constant Matrix: (Units=GPa)
#
#
# Indices 1 2 3 4 5 6 
#
# 1 113.0889 51.4700 5.3632 0.0000 8.0065 0.0000
# 2 51.4700 158.2506 51.6955 0.0000 -4.4356 0.0000
# 3 5.3632 51.6955 68.7383 0.0000 10.7733 0.0000
# 4 0.0000 0.0000 0.0000 27.0798 0.0000 1.6301
# 5 8.0065 -4.4356 10.7733 0.0000 18.4545 0.0000
# 6 0.0000 0.0000 0.0000 1.6301 0.0000 15.7725
#
#
#
# Elastic Compliance Matrix: (Units=1/GPa)
#
#
# Indices 1 2 3 4 5 6 
#
# 1 0.011867 -0.005696 0.004820 0.000000 -0.009331 0.000000
# 2 -0.005696 0.011825 -0.010216 0.000000 0.011277 0.000000
# 3 0.004820 -0.010216 0.024840 0.000000 -0.019048 0.000000
# 4 0.000000 0.000000 0.000000 0.037159 0.000000 -0.003840
# 5 -0.009331 0.011277 -0.019048 0.000000 0.072066 0.000000
# 6 0.000000 0.000000 0.000000 -0.003840 0.000000 0.063798
#
#
# Mechanical properties :
#
#
# Convention : Reuss Voigt Hill
#
# Bulk Modulus (GPa) = 37.95236 61.90389 49.92813
# Shear Modulus (GPa) = 19.80023 27.69798 23.74910
#
# Velocity S-wave (km/s) = 3.01674 3.56801 3.30389
# Velocity P-wave (km/s) = 5.43858 6.73995 6.12393
#
# Compressibility (1/GPa) = 0.02634882
#
# Stress axis : x y z
#
# Youngs Moduli (GPa) = 84.26737 84.56637 40.25687
#
# Poissons Ratio (x) = 0.48168 -0.19405
# Poissons Ratio (y) = 0.47997 0.41127
# Poissons Ratio (z) = -0.40619 0.86395
#
# Static dielectric constant tensor:
#      x y z
#    x 1.821580 0.000000 0.003760 
#    y 0.000000 1.798000 0.000000 
#    z 0.003760 0.000000 1.830880 
# 
# From -- ./inp_files/39153.got.cif
#   From: 2010.05.17/outbox.cif.g08.bks.cpg/sg5_20_cif.got.tgz:39153.got - 2010.06.03 18:56:24.
