data_PCOD9123130
_publ_section_title
;
Structure prediction by ZEFSAII (Michael W. Deem and Ramdas Pophale) SiO2 
 PCOD9123130
Probable space group: C 2
;
_chemical_formula_sum "Si O2"
_cell_formula_units_Z 24
_cell_length_a 7.833013
_cell_length_b 18.221456
_cell_length_c 9.385534
_cell_angle_alpha 90.000000
_cell_angle_beta 46.884270
_cell_angle_gamma 90.000000
_cell_volume 977.864540
_symmetry_space_group_name_H-M "C 2"
_symmetry_group_IT_number 5
_symmetry_cell_setting 'monoclinic'
loop_
_space_group_symop_operation_xyz
x,y,z
-x,y,-z
1/2+x,1/2+y,z
1/2-x,1/2+y,-z
loop_
_atom_site_type_symbol
_atom_site_label
_atom_site_fract_x
_atom_site_fract_y
_atom_site_fract_z
Si Si1 0.480453 0.203010 0.771626
Si Si2 0.384193 0.706044 0.755784
Si Si3 0.781341 0.859234 0.856314
Si Si4 0.305529 0.445100 0.407589
Si Si5 0.893618 0.371351 0.746632
Si Si6 0.317232 0.596902 0.236815
O O1 0.738473 0.195809 0.692631
O O2 0.406864 0.282087 0.748156
O O3 0.401446 0.138081 0.711840
O O4 0.308501 0.201810 0.007319
O O5 0.484416 0.788210 0.700044
O O6 0.572248 0.649232 0.705685
O O7 0.932252 0.924052 0.699750
O O8 0.500000 0.853615 0.000000
O O9 0.784824 0.877417 0.022520
O O10 0.234617 0.384692 0.328647
O O11 0.280499 0.520600 0.337882
O O12 0.102557 0.430155 0.637381
O O13 0.500000 0.586901 0.000000
#
# Coordination Sequence:
#
# PCOD9123130 Si02
#       6
#     4   4   4   4   4   4
#     4   9  17  34  64  98 125 167 226 275 324 397
#     4   9  17  35  65  93 126 171 222 275 327 390
#     4  11  21  39  68  97 127 172 223 275 326 389
#     4  11  23  40  64  94 134 175 213 269 336 398
#     4  10  21  41  67  91 129 175 223 267 326 397
#     4  10  20  37  62  97 135 172 220 276 339 397
#
# _framework density 24.543277
#
# number of rings (size 3 to 8) (size 9 to 14) (size 15 to 20)
#    0.000    2.000    1.667    4.000    0.000    0.667 
#    9.000    3.333    0.000    0.000    0.000    0.000 
#    0.000    0.000    0.000    0.000    0.000    0.000 
#
# Total GULP energy -67065.005174 kJ/mol
# GULP energy per Si atom -5588.750431 kJ/mol
# Density = 2.448742 g / cm^3
# Si number density = 24.543277 Si / 1000 Ang^3
#
#
#
# Elastic Constant Matrix: (Units=GPa)
#
#
# Indices 1 2 3 4 5 6 
#
# 1 156.0563 62.6227 33.3963 0.0000 -25.2840 0.0000
# 2 62.6227 170.3340 51.1609 0.0000 -9.7295 0.0000
# 3 33.3963 51.1609 98.2041 0.0000 -7.8081 0.0000
# 4 0.0000 0.0000 0.0000 11.4085 0.0000 -8.3524
# 5 -25.2840 -9.7295 -7.8081 0.0000 39.2990 0.0000
# 6 0.0000 0.0000 0.0000 -8.3524 0.0000 26.4001
#
#
#
# Elastic Compliance Matrix: (Units=1/GPa)
#
#
# Indices 1 2 3 4 5 6 
#
# 1 0.008392 -0.002462 -0.001209 0.000000 0.004549 0.000000
# 2 -0.002462 0.007723 -0.003211 0.000000 -0.000310 0.000000
# 3 -0.001209 -0.003211 0.012337 0.000000 0.000878 0.000000
# 4 0.000000 0.000000 0.000000 0.114077 0.000000 0.036091
# 5 0.004549 -0.000310 0.000878 0.000000 0.028471 0.000000
# 6 0.000000 0.000000 0.000000 0.036091 0.000000 0.049297
#
#
# Mechanical properties :
#
#
# Convention : Reuss Voigt Hill
#
# Bulk Modulus (GPa) = 68.08837 79.88380 73.98608
# Shear Modulus (GPa) = 20.92438 33.91582 27.42010
#
# Velocity S-wave (km/s) = 2.92301 3.72140 3.34610
# Velocity P-wave (km/s) = 6.26054 7.14730 6.71857
#
# Compressibility (1/GPa) = 0.01468680
#
# Stress axis : x y z
#
# Youngs Moduli (GPa) = 119.16353 129.48987 81.05971
#
# Poissons Ratio (x) = 0.31882 0.09804
# Poissons Ratio (y) = 0.29339 0.26025
# Poissons Ratio (z) = 0.14412 0.41574
#
# Static dielectric constant tensor:
#      x y z
#    x 2.060790 0.000000 -0.042780 
#    y 0.000000 1.899660 0.000000 
#    z -0.042780 0.000000 2.034940 
# 
# From -- ./inp_files/36783.got.cif
#   From: 2010.05.17/outbox.cif.g08.bks.cpg/sg5_19_cif.got.tgz:36783.got - 2010.06.03 18:56:24.
