data_PCOD9123642
_publ_section_title
;
Structure prediction by ZEFSAII (Michael W. Deem and Ramdas Pophale) SiO2 
 PCOD9123642
Probable space group: C 2
;
_chemical_formula_sum "Si O2"
_cell_formula_units_Z 30
_cell_length_a 9.406096
_cell_length_b 15.434086
_cell_length_c 10.533203
_cell_angle_alpha 90.000000
_cell_angle_beta 106.028397
_cell_angle_gamma 90.000000
_cell_volume 1469.706570
_symmetry_space_group_name_H-M "C 2"
_symmetry_group_IT_number 5
_symmetry_cell_setting 'monoclinic'
loop_
_space_group_symop_operation_xyz
x,y,z
-x,y,-z
1/2+x,1/2+y,z
1/2-x,1/2+y,-z
loop_
_atom_site_type_symbol
_atom_site_label
_atom_site_fract_x
_atom_site_fract_y
_atom_site_fract_z
Si Si1 0.794727 0.727290 0.178602
Si Si2 0.000000 0.296827 0.000000
Si Si3 0.380101 0.417855 0.564920
Si Si4 0.770055 0.592506 0.528909
Si Si5 0.575959 0.059556 0.703614
Si Si6 0.390089 0.857373 0.234224
Si Si7 0.665429 0.773615 0.425725
Si Si8 0.549794 0.358160 0.151206
O O1 0.842312 0.627287 0.185954
O O2 0.750823 0.757757 0.311447
O O3 0.930395 0.785557 0.161576
O O4 0.645882 0.741678 0.063441
O O5 0.036582 0.352769 0.886281
O O6 0.500000 0.377724 0.500000
O O7 0.337105 0.510558 0.497981
O O8 0.240723 0.353601 0.518110
O O9 0.440367 0.421472 0.723489
O O10 0.855153 0.583026 0.415897
O O11 0.690142 0.684640 0.507812
O O12 0.901536 0.581015 0.662017
O O13 0.604443 0.958290 0.727352
O O14 0.498783 0.800178 0.348423
O O15 0.220168 0.826830 0.183390
O O16 0.500000 0.392388 0.000000
#
# Coordination Sequence:
#
# PCOD9123642 Si02
#       8
#     4   2   4   4   4   4   4   4
#     4  10  21  42  66  92 130 172 222 262 336 393
#     4  10  22  42  64  90 126 184 218 264 326 406
#     4  12  23  41  67  98 131 175 224 274 330 392
#     4  10  21  39  62  98 130 161 215 271 342 387
#     4  10  20  39  65  94 126 166 214 277 329 392
#     4  11  22  42  66  93 132 172 221 270 332 388
#     4  10  22  41  69  96 126 171 215 279 331 388
#     4  12  24  42  67  96 133 177 218 269 329 399
#
# _framework density 20.412239
#
# number of rings (size 3 to 8) (size 9 to 14) (size 15 to 20)
#    0.000    1.333    5.333    0.800    1.867    0.533 
#    7.200    0.000    0.000    0.000    0.000    0.000 
#    0.000    0.000    0.000    0.000    0.000    0.000 
#
# Total GULP energy -83723.167817 kJ/mol
# GULP energy per Si atom -5581.544521 kJ/mol
# Density = 2.036578 g / cm^3
# Si number density = 20.412239 Si / 1000 Ang^3
#
#
#
# Elastic Constant Matrix: (Units=GPa)
#
#
# Indices 1 2 3 4 5 6 
#
# 1 134.4221 46.9397 37.5826 0.0000 29.8899 0.0000
# 2 46.9397 134.1023 34.0423 0.0000 31.0564 0.0000
# 3 37.5826 34.0423 93.0111 0.0000 19.0464 0.0000
# 4 0.0000 0.0000 0.0000 18.7964 0.0000 2.7519
# 5 29.8899 31.0564 19.0464 0.0000 40.4307 0.0000
# 6 0.0000 0.0000 0.0000 2.7519 0.0000 27.4616
#
#
#
# Elastic Compliance Matrix: (Units=1/GPa)
#
#
# Indices 1 2 3 4 5 6 
#
# 1 0.009756 -0.001711 -0.002333 0.000000 -0.004799 0.000000
# 2 -0.001711 0.009755 -0.001775 0.000000 -0.005392 0.000000
# 3 -0.002333 -0.001775 0.012962 0.000000 -0.003018 0.000000
# 4 0.000000 0.000000 0.000000 0.053994 0.000000 -0.005411
# 5 -0.004799 -0.005392 -0.003018 0.000000 0.033845 0.000000
# 6 0.000000 0.000000 0.000000 -0.005411 0.000000 0.036957
#
#
# Mechanical properties :
#
#
# Convention : Reuss Voigt Hill
#
# Bulk Modulus (GPa) = 47.99643 66.51831 57.25737
# Shear Modulus (GPa) = 28.43293 33.53580 30.98436
#
# Velocity S-wave (km/s) = 3.73625 4.05770 3.90029
# Velocity P-wave (km/s) = 6.49441 7.38996 6.95661
#
# Compressibility (1/GPa) = 0.02083488
#
# Stress axis : x y z
#
# Youngs Moduli (GPa) = 102.49843 102.50834 77.15025
#
# Poissons Ratio (x) = 0.17542 0.18000
# Poissons Ratio (y) = 0.17541 0.13693
# Poissons Ratio (z) = 0.23914 0.18193
#
# Static dielectric constant tensor:
#      x y z
#    x 1.782750 0.000000 -0.019630 
#    y 0.000000 1.686590 0.000000 
#    z -0.019630 0.000000 1.757870 
# 
# From -- ./inp_files/36117.got.cif
#   From: 2010.05.17/outbox.cif.g08.bks.cpg/sg5_19_cif.got.tgz:36117.got - 2010.06.03 18:56:24.
