data_PCOD9123261
_publ_section_title
;
Structure prediction by ZEFSAII (Michael W. Deem and Ramdas Pophale) SiO2 
 PCOD9123261
Probable space group: C 2
;
_chemical_formula_sum "Si O2"
_cell_formula_units_Z 32
_cell_length_a 7.360429
_cell_length_b 11.312437
_cell_length_c 21.141306
_cell_angle_alpha 90.000000
_cell_angle_beta 46.139047
_cell_angle_gamma 90.000000
_cell_volume 1269.230592
_symmetry_space_group_name_H-M "C 2"
_symmetry_group_IT_number 5
_symmetry_cell_setting 'monoclinic'
loop_
_space_group_symop_operation_xyz
x,y,z
-x,y,-z
1/2+x,1/2+y,z
1/2-x,1/2+y,-z
loop_
_atom_site_type_symbol
_atom_site_label
_atom_site_fract_x
_atom_site_fract_y
_atom_site_fract_z
Si Si1 0.664336 0.235880 0.525218
Si Si2 0.099101 0.520483 0.046276
Si Si3 0.371027 0.456994 0.595946
Si Si4 0.755520 0.637304 0.699678
Si Si5 0.108764 0.176763 0.332538
Si Si6 0.764219 0.276614 0.009531
Si Si7 0.007807 0.335769 0.831840
Si Si8 0.185271 0.394199 0.255703
O O1 0.500000 0.225041 0.500000
O O2 0.583157 0.364950 0.569826
O O3 0.537326 0.142697 0.603127
O O4 0.945185 0.217460 0.433584
O O5 0.314520 0.416080 0.982253
O O6 0.932396 0.447762 0.137906
O O7 0.138010 0.653997 0.061515
O O8 0.000000 0.536688 0.000000
O O9 0.500000 0.497782 0.500000
O O10 0.292288 0.552698 0.666535
O O11 0.105926 0.392082 0.648382
O O12 0.566140 0.648045 0.686100
O O13 0.719815 0.753231 0.750951
O O14 0.705861 0.518145 0.749520
O O15 0.295747 0.278972 0.263859
O O16 0.855297 0.250726 0.916087
O O17 0.000000 0.288236 0.000000
O O18 0.840218 0.374793 0.812584
#
# Coordination Sequence:
#
# PCOD9123261 Si02
#       8
#     4   4   4   4   4   4   4   4
#     4   9  16  34  57  74 109 154 188 231 286 325
#     4   9  20  39  62  88 117 149 194 235 289 350
#     4  11  19  38  60  79 114 154 199 248 282 337
#     4  10  20  38  59  79 119 156 185 238 299 334
#     4  10  21  38  55  82 112 155 201 239 286 341
#     4   9  20  38  62  89 116 150 196 233 287 354
#     4   9  20  37  61  84 118 154 182 241 294 347
#     4  11  21  38  56  84 118 152 193 238 294 339
#
# _framework density 25.212126999999999
#
# number of rings (size 3 to 8) (size 9 to 14) (size 15 to 20)
#    0.750    1.500    5.000    0.750    1.750    0.500 
#    9.000    0.000    0.000    0.000    0.000    0.000 
#    0.000    0.000    0.000    0.000    0.000    0.000 
#
# Total GULP energy -89141.598037 kJ/mol
# GULP energy per Si atom -5571.349877 kJ/mol
# Density = 2.515474 g / cm^3
# Si number density = 25.212127 Si / 1000 Ang^3
#
#
#
# Elastic Constant Matrix: (Units=GPa)
#
#
# Indices 1 2 3 4 5 6 
#
# 1 38.7257 27.1335 20.9714 -0.0010 13.2390 0.0004
# 2 27.1335 143.2060 31.5983 -0.0001 20.0483 0.0003
# 3 20.9714 31.5983 108.8192 -0.0009 23.4554 0.0002
# 4 -0.0010 -0.0001 -0.0009 37.1655 0.0008 6.8520
# 5 13.2390 20.0483 23.4554 0.0008 32.5325 -0.0002
# 6 0.0004 0.0003 0.0002 6.8520 -0.0002 30.1839
#
#
#
# Elastic Compliance Matrix: (Units=1/GPa)
#
#
# Indices 1 2 3 4 5 6 
#
# 1 0.033676 -0.004443 -0.003358 0.000001 -0.008545 -0.000001
# 2 -0.004443 0.008420 -0.001018 0.000000 -0.002647 0.000000
# 3 -0.003358 -0.001018 0.011488 0.000000 -0.006289 0.000000
# 4 0.000001 0.000000 0.000000 0.028082 -0.000001 -0.006375
# 5 -0.008545 -0.002647 -0.006289 -0.000001 0.040381 0.000001
# 6 -0.000001 0.000000 0.000000 -0.006375 0.000001 0.034577
#
#
# Mechanical properties :
#
#
# Convention : Reuss Voigt Hill
#
# Bulk Modulus (GPa) = 27.82061 50.01747 38.91904
# Shear Modulus (GPa) = 26.84653 34.04623 30.44638
#
# Velocity S-wave (km/s) = 3.26671 3.67875 3.47884
# Velocity P-wave (km/s) = 5.02863 6.15841 5.62197
#
# Compressibility (1/GPa) = 0.03594458
#
# Stress axis : x y z
#
# Youngs Moduli (GPa) = 29.69513 118.76463 87.04900
#
# Poissons Ratio (x) = 0.52772 0.29229
# Poissons Ratio (y) = 0.13195 0.08863
# Poissons Ratio (z) = 0.09971 0.12092
#
# Static dielectric constant tensor:
#      x y z
#    x 2.051920 0.000000 -0.060030 
#    y 0.000000 2.082370 0.000000 
#    z -0.060030 0.000000 2.012120 
# 
# From -- ./inp_files/64486.got.cif
#   From: 2010.05.17/outbox.cif.g08.bks.cpg/sg5_33_cif.got.tgz:64486.got - 2010.06.03 18:56:24.
