data_PCOD9123575
_publ_section_title
;
Structure prediction by ZEFSAII (Michael W. Deem and Ramdas Pophale) SiO2 
 PCOD9123575
Probable space group: C 2
;
_chemical_formula_sum "Si O2"
_cell_formula_units_Z 22
_cell_length_a 10.614533
_cell_length_b 9.907949
_cell_length_c 8.170272
_cell_angle_alpha 90.000000
_cell_angle_beta 111.389520
_cell_angle_gamma 90.000000
_cell_volume 800.070042
_symmetry_space_group_name_H-M "C 2"
_symmetry_group_IT_number 5
_symmetry_cell_setting 'monoclinic'
loop_
_space_group_symop_operation_xyz
x,y,z
-x,y,-z
1/2+x,1/2+y,z
1/2-x,1/2+y,-z
loop_
_atom_site_type_symbol
_atom_site_label
_atom_site_fract_x
_atom_site_fract_y
_atom_site_fract_z
Si Si1 0.133677 0.044440 0.247432
Si Si2 0.000000 0.540747 0.000000
Si Si3 0.014729 0.265039 0.679802
Si Si4 0.581488 0.348155 0.683199
Si Si5 0.742992 0.868676 0.959822
Si Si6 0.825004 0.519011 0.630254
O O1 0.051722 0.181901 0.206850
O O2 0.173829 0.983505 0.093823
O O3 0.259122 0.073756 0.431113
O O4 0.034050 0.936713 0.284847
O O5 0.083416 0.603488 0.194867
O O6 0.883975 0.443821 0.018828
O O7 0.928223 0.400884 0.624638
O O8 0.000000 0.190724 0.500000
O O9 0.172041 0.281739 0.786667
O O10 0.500000 0.273803 0.500000
O O11 0.697684 0.446012 0.660824
O O12 0.667029 0.283439 0.871806
#
# Coordination Sequence:
#
# PCOD9123575 Si02
#       6
#     4   2   4   4   4   4
#     4  11  21  37  69  97 133 180 230 273 341 408
#     4   8  18  34  64  84 128 186 206 278 346 372
#     4  11  21  38  68 102 134 183 224 276 347 399
#     4   9  19  38  62  89 137 182 210 287 343 382
#     4  10  20  39  62 103 135 172 233 282 332 408
#     4   9  18  37  61  89 136 177 220 283 330 393
#
# _framework density 27.497596000000001
#
# number of rings (size 3 to 8) (size 9 to 14) (size 15 to 20)
#    0.000    2.182    1.818    2.182    0.000    0.000 
#   19.636    0.000   24.000    0.000    4.727    0.000 
#    0.000    0.000    0.000    0.000    0.000    0.000 
#
# Total GULP energy -61545.549844 kJ/mol
# GULP energy per Si atom -5595.049986 kJ/mol
# Density = 2.743501 g / cm^3
# Si number density = 27.497596 Si / 1000 Ang^3
#
#
#
# Elastic Constant Matrix: (Units=GPa)
#
#
# Indices 1 2 3 4 5 6 
#
# 1 151.4869 26.5226 28.2900 0.0000 0.8339 0.0000
# 2 26.5226 44.6054 7.1845 0.0000 7.1077 0.0000
# 3 28.2900 7.1845 234.2512 0.0000 41.2552 0.0000
# 4 0.0000 0.0000 0.0000 4.9247 0.0000 5.2718
# 5 0.8339 7.1077 41.2552 0.0000 51.1133 0.0000
# 6 0.0000 0.0000 0.0000 5.2718 0.0000 42.1063
#
#
#
# Elastic Compliance Matrix: (Units=1/GPa)
#
#
# Indices 1 2 3 4 5 6 
#
# 1 0.007580 -0.004556 -0.001009 0.000000 0.001324 0.000000
# 2 -0.004556 0.025670 0.000441 0.000000 -0.003851 0.000000
# 3 -0.001009 0.000441 0.005112 0.000000 -0.004171 0.000000
# 4 0.000000 0.000000 0.000000 0.234484 0.000000 -0.029358
# 5 0.001324 -0.003851 -0.004171 0.000000 0.023445 0.000000
# 6 0.000000 0.000000 0.000000 -0.029358 0.000000 0.027425
#
#
# Mechanical properties :
#
#
# Convention : Reuss Voigt Hill
#
# Bulk Modulus (GPa) = 35.56781 61.59307 48.58044
# Shear Modulus (GPa) = 14.56306 44.18527 29.37417
#
# Velocity S-wave (km/s) = 2.30383 4.01294 3.27195
# Velocity P-wave (km/s) = 4.47658 6.62719 5.65506
#
# Compressibility (1/GPa) = 0.02811531
#
# Stress axis : x y z
#
# Youngs Moduli (GPa) = 131.92705 38.95562 195.62709
#
# Poissons Ratio (x) = 0.17746 0.19737
# Poissons Ratio (y) = 0.60100 -0.08630
# Poissons Ratio (z) = 0.13310 -0.01718
#
# Static dielectric constant tensor:
#      x y z
#    x 2.101770 0.000000 -0.033150 
#    y 0.000000 2.100020 0.000000 
#    z -0.033150 0.000000 2.291970 
# 
# From -- ./inp_files/19851.got.cif
#   From: 2010.05.17/outbox.cif.g08.bks.cpg/sg5_10_cif.got.tgz:19851.got - 2010.06.03 18:56:24.
