data_PCOD9123241
_publ_section_title
;
Structure prediction by ZEFSAII (Michael W. Deem and Ramdas Pophale) SiO2 
 PCOD9123241
Probable space group: C 2
;
_chemical_formula_sum "Si O2"
_cell_formula_units_Z 28
_cell_length_a 13.381192
_cell_length_b 8.203578
_cell_length_c 19.232937
_cell_angle_alpha 90.000000
_cell_angle_beta 143.250963
_cell_angle_gamma 90.000000
_cell_volume 1263.196190
_symmetry_space_group_name_H-M "C 2"
_symmetry_group_IT_number 5
_symmetry_cell_setting 'monoclinic'
loop_
_space_group_symop_operation_xyz
x,y,z
-x,y,-z
1/2+x,1/2+y,z
1/2-x,1/2+y,-z
loop_
_atom_site_type_symbol
_atom_site_label
_atom_site_fract_x
_atom_site_fract_y
_atom_site_fract_z
Si Si1 0.848116 0.972840 0.645915
Si Si2 0.500000 0.475286 0.500000
Si Si3 0.990901 0.595563 0.131942
Si Si4 0.960424 0.486123 0.617883
Si Si5 0.153890 0.312375 0.315974
Si Si6 0.500000 0.909146 0.000000
Si Si7 0.811052 0.260569 0.335328
Si Si8 0.850612 0.759666 0.189925
O O1 0.722054 0.025562 0.514636
O O2 0.763660 0.809670 0.631056
O O3 0.037225 0.921483 0.738085
O O4 0.853201 0.121927 0.703070
O O5 0.345032 0.365077 0.433986
O O6 0.425565 0.601024 0.402345
O O7 0.872567 0.686524 0.122898
O O8 0.071527 0.439586 0.216931
O O9 0.935191 0.521392 0.027803
O O10 0.144045 0.718222 0.200625
O O11 0.079139 0.411020 0.626269
O O12 0.055913 0.633203 0.707530
O O13 0.938935 0.345926 0.663455
O O14 0.661456 0.797492 0.105614
#
# Coordination Sequence:
#
# PCOD9123241 Si02
#       8
#     4   2   4   4   4   2   4   4
#     4  11  22  39  66 102 141 183 214 286 353 430
#     4  10  20  38  54  90 142 180 208 274 330 428
#     4   9  24  48  65  99 131 181 241 296 346 413
#     4  11  22  39  64 103 137 178 221 274 360 426
#     4  10  24  35  63  94 140 175 226 286 342 421
#     4  12  26  50  80  90 142 198 236 304 362 390
#     4  10  21  39  64  94 139 175 226 277 345 422
#     4  10  26  47  69 105 141 175 248 290 343 437
#
# _framework density 22.165994000000001
#
# number of rings (size 3 to 8) (size 9 to 14) (size 15 to 20)
#    0.000    1.714    1.429    1.714    8.000    3.429 
#    5.143    0.000    0.000    0.000    0.000    0.000 
#    0.000    0.000    0.000    0.000    0.000    0.000 
#
# Total GULP energy -78130.948262 kJ/mol
# GULP energy per Si atom -5580.782019 kJ/mol
# Density = 2.211554 g / cm^3
# Si number density = 22.165994 Si / 1000 Ang^3
#
#
#
# Elastic Constant Matrix: (Units=GPa)
#
#
# Indices 1 2 3 4 5 6 
#
# 1 64.2690 11.0607 29.6672 0.0000 14.8208 0.0000
# 2 11.0607 87.5981 23.7999 0.0000 17.0869 0.0000
# 3 29.6672 23.7999 67.8283 0.0000 13.8125 0.0000
# 4 0.0000 0.0000 0.0000 27.5375 0.0000 0.8447
# 5 14.8208 17.0869 13.8125 0.0000 36.2940 0.0000
# 6 0.0000 0.0000 0.0000 0.8447 0.0000 24.2465
#
#
#
# Elastic Compliance Matrix: (Units=1/GPa)
#
#
# Indices 1 2 3 4 5 6 
#
# 1 0.020449 0.000700 -0.008045 0.000000 -0.005618 0.000000
# 2 0.000700 0.013398 -0.003972 0.000000 -0.005082 0.000000
# 3 -0.008045 -0.003972 0.020169 0.000000 -0.002520 0.000000
# 4 0.000000 0.000000 0.000000 0.036353 0.000000 -0.001266
# 5 -0.005618 -0.005082 -0.002520 0.000000 0.033198 0.000000
# 6 0.000000 0.000000 0.000000 -0.001266 0.000000 0.041287
#
#
# Mechanical properties :
#
#
# Convention : Reuss Voigt Hill
#
# Bulk Modulus (GPa) = 31.86798 38.75009 35.30904
# Shear Modulus (GPa) = 25.25890 27.96010 26.60950
#
# Velocity S-wave (km/s) = 3.37936 3.55547 3.46853
# Velocity P-wave (km/s) = 5.44380 5.86301 5.65729
#
# Compressibility (1/GPa) = 0.03137946
#
# Stress axis : x y z
#
# Youngs Moduli (GPa) = 48.90332 74.63856 49.58067
#
# Poissons Ratio (x) = -0.05223 0.39890
# Poissons Ratio (y) = -0.03422 0.19695
# Poissons Ratio (z) = 0.39345 0.29649
#
# Static dielectric constant tensor:
#      x y z
#    x 1.850100 0.000000 -0.037690 
#    y 0.000000 1.809330 0.000000 
#    z -0.037690 0.000000 1.831310 
# 
# From -- ./inp_files/41511.got.cif
#   From: 2010.05.17/outbox.cif.g08.bks.cpg/sg5_21_cif.got.tgz:41511.got - 2010.06.03 18:56:24.
