data_PCOD9123503
_publ_section_title
;
Structure prediction by ZEFSAII (Michael W. Deem and Ramdas Pophale) SiO2 
 PCOD9123503
Probable space group: C 2
;
_chemical_formula_sum "Si O2"
_cell_formula_units_Z 28
_cell_length_a 14.925788
_cell_length_b 7.072660
_cell_length_c 13.000747
_cell_angle_alpha 90.000000
_cell_angle_beta 52.553323
_cell_angle_gamma 90.000000
_cell_volume 1089.594373
_symmetry_space_group_name_H-M "C 2"
_symmetry_group_IT_number 5
_symmetry_cell_setting 'monoclinic'
loop_
_space_group_symop_operation_xyz
x,y,z
-x,y,-z
1/2+x,1/2+y,z
1/2-x,1/2+y,-z
loop_
_atom_site_type_symbol
_atom_site_label
_atom_site_fract_x
_atom_site_fract_y
_atom_site_fract_z
Si Si1 0.697691 0.548060 0.167267
Si Si2 0.163561 0.067918 0.410193
Si Si3 0.879644 0.247852 0.118898
Si Si4 0.624051 0.366490 0.008073
Si Si5 0.414547 0.139927 0.474917
Si Si6 0.344936 0.608884 0.362062
Si Si7 0.078022 0.696163 0.749780
O O1 0.625595 0.600586 0.319391
O O2 0.777621 0.372004 0.146386
O O3 0.636582 0.476389 0.107828
O O4 0.771729 0.729032 0.085983
O O5 0.132290 0.175245 0.537752
O O6 0.299857 0.109171 0.307347
O O7 0.118998 0.856386 0.467238
O O8 0.879189 0.237321 0.242663
O O9 0.000000 0.325381 0.000000
O O10 0.875211 0.033034 0.077432
O O11 0.516017 0.229002 0.098769
O O12 0.500000 0.064987 0.500000
O O13 0.288025 0.065476 0.554939
O O14 0.467687 0.110215 0.324993
O O15 0.397853 0.408149 0.303877
#
# Coordination Sequence:
#
# PCOD9123503 Si02
#       7
#     4   4   4   4   4   4   4
#     4  12  26  44  69  99 145 186 236 293 354 416
#     4  10  22  40  66  97 129 177 228 285 345 416
#     4  12  25  44  72 102 142 186 233 289 358 423
#     4  12  26  45  67 102 141 186 237 292 353 420
#     4  10  20  38  67  94 130 179 223 278 353 412
#     4  10  21  41  65  98 132 173 230 283 344 420
#     4  10  22  40  64  94 135 172 231 289 334 417
#
# _framework density 25.697638000000001
#
# number of rings (size 3 to 8) (size 9 to 14) (size 15 to 20)
#    0.000    1.143    4.286    1.714    2.000    0.000 
#    0.000    0.714    0.000    0.000    0.000    0.000 
#    0.000    0.000    0.000    0.000    0.000    0.000 
#
# Total GULP energy -78265.716485 kJ/mol
# GULP energy per Si atom -5590.408320 kJ/mol
# Density = 2.563915 g / cm^3
# Si number density = 25.697638 Si / 1000 Ang^3
#
#
#
# Elastic Constant Matrix: (Units=GPa)
#
#
# Indices 1 2 3 4 5 6 
#
# 1 88.4885 16.1640 63.5603 0.0000 5.7749 0.0000
# 2 16.1640 84.8339 34.8930 0.0000 0.0748 0.0001
# 3 63.5603 34.8930 183.5003 0.0000 43.6935 0.0000
# 4 0.0000 0.0000 0.0000 28.9778 0.0000 5.6191
# 5 5.7749 0.0748 43.6935 0.0000 49.4443 0.0000
# 6 0.0000 0.0001 0.0000 5.6191 0.0000 29.6231
#
#
#
# Elastic Compliance Matrix: (Units=1/GPa)
#
#
# Indices 1 2 3 4 5 6 
#
# 1 0.015583 -0.000429 -0.006184 0.000000 0.003645 0.000000
# 2 -0.000429 0.013090 -0.002973 0.000000 0.002658 0.000000
# 3 -0.006184 -0.002973 0.010112 0.000000 -0.008209 0.000000
# 4 0.000000 0.000000 0.000000 0.035827 0.000000 -0.006796
# 5 0.003645 0.002658 -0.008209 0.000000 0.027049 0.000000
# 6 0.000000 0.000000 0.000000 -0.006796 0.000000 0.035047
#
#
# Mechanical properties :
#
#
# Convention : Reuss Voigt Hill
#
# Bulk Modulus (GPa) = 50.98867 65.11747 58.05307
# Shear Modulus (GPa) = 30.78476 37.75607 34.27042
#
# Velocity S-wave (km/s) = 3.46491 3.83723 3.65581
# Velocity P-wave (km/s) = 5.99102 6.71024 6.36080
#
# Compressibility (1/GPa) = 0.01961220
#
# Stress axis : x y z
#
# Youngs Moduli (GPa) = 64.17095 76.39353 98.89567
#
# Poissons Ratio (x) = 0.03276 0.61159
# Poissons Ratio (y) = 0.02752 0.29406
# Poissons Ratio (z) = 0.39685 0.22715
#
# Static dielectric constant tensor:
#      x y z
#    x 2.036970 0.000000 0.024640 
#    y 0.000000 2.035050 0.000000 
#    z 0.024640 0.000000 2.080150 
# 
# From -- ./inp_files/41873.got.cif
#   From: 2010.05.17/outbox.cif.g08.bks.cpg/sg5_21_cif.got.tgz:41873.got - 2010.06.03 18:56:24.
