data_PCOD9123826
_publ_section_title
;
Structure prediction by ZEFSAII (Michael W. Deem and Ramdas Pophale) SiO2 
 PCOD9123826
Probable space group: C 2
;
_chemical_formula_sum "Si O2"
_cell_formula_units_Z 28
_cell_length_a 7.144205
_cell_length_b 8.103374
_cell_length_c 24.137631
_cell_angle_alpha 90.000000
_cell_angle_beta 132.492988
_cell_angle_gamma 90.000000
_cell_volume 1030.371925
_symmetry_space_group_name_H-M "C 2"
_symmetry_group_IT_number 5
_symmetry_cell_setting 'monoclinic'
loop_
_space_group_symop_operation_xyz
x,y,z
-x,y,-z
1/2+x,1/2+y,z
1/2-x,1/2+y,-z
loop_
_atom_site_type_symbol
_atom_site_label
_atom_site_fract_x
_atom_site_fract_y
_atom_site_fract_z
Si Si1 0.302283 0.987060 0.712724
Si Si2 0.242641 0.498492 0.650842
Si Si3 0.035094 0.843375 0.570893
Si Si4 0.000000 0.389914 0.500000
Si Si5 0.568344 0.163818 0.852000
Si Si6 0.282018 0.477528 0.066759
Si Si7 0.987844 0.143364 0.200622
Si Si8 0.000000 0.950737 0.000000
O O1 0.267918 0.949257 0.640934
O O2 0.390880 0.818356 0.759626
O O3 0.497769 0.118179 0.774968
O O4 0.020619 0.026793 0.678527
O O5 0.072741 0.661910 0.604622
O O6 0.107473 0.353612 0.587240
O O7 0.329392 0.508432 0.732415
O O8 0.000000 0.816209 0.500000
O O9 0.777955 0.937273 0.535863
O O10 0.688500 0.343345 0.879776
O O11 0.297000 0.149427 0.829759
O O12 0.771312 0.051897 0.925089
O O13 0.446716 0.622162 0.126582
O O14 0.372073 0.381892 0.029733
O O15 0.000000 0.535066 0.000000
#
# Coordination Sequence:
#
# PCOD9123826 Si02
#       8
#     4   4   4   2   4   4   4   2
#     4   9  21  42  75 103 142 189 235 290 350 421
#     4   9  19  41  68  98 142 185 231 297 341 410
#     4  10  20  41  73  99 143 191 232 290 353 409
#     4  10  20  40  64  98 140 180 240 286 342 424
#     4  11  23  45  70 103 143 182 237 295 353 418
#     4  12  26  46  72 102 136 186 235 293 358 422
#     4  10  22  45  71  98 143 189 233 292 357 412
#     4  12  26  42  70 106 138 180 242 290 358 430
#
# _framework density 27.174652999999999
#
# number of rings (size 3 to 8) (size 9 to 14) (size 15 to 20)
#    0.000    1.714    2.857    0.857    0.000    4.571 
#   12.857    0.000    3.143    0.857    0.000    0.000 
#    0.000    0.000    0.000    0.000    0.000    0.000 
#
# Total GULP energy -78016.694021 kJ/mol
# GULP energy per Si atom -5572.621002 kJ/mol
# Density = 2.711280 g / cm^3
# Si number density = 27.174653 Si / 1000 Ang^3
#
#
#
# Elastic Constant Matrix: (Units=GPa)
#
#
# Indices 1 2 3 4 5 6 
#
# 1 58.9451 3.7636 48.8439 0.0000 11.8845 0.0000
# 2 3.7636 55.6168 46.4719 0.0000 -3.9771 0.0000
# 3 48.8439 46.4719 252.0678 0.0000 -5.0015 0.0000
# 4 0.0000 0.0000 0.0000 31.8274 0.0000 -5.7379
# 5 11.8845 -3.9771 -5.0015 0.0000 58.7782 0.0000
# 6 0.0000 0.0000 0.0000 -5.7379 0.0000 15.2799
#
#
#
# Elastic Compliance Matrix: (Units=1/GPa)
#
#
# Indices 1 2 3 4 5 6 
#
# 1 0.021636 0.002110 -0.004673 0.000000 -0.004630 0.000000
# 2 0.002110 0.021532 -0.004365 0.000000 0.000659 0.000000
# 3 -0.004673 -0.004365 0.005700 0.000000 0.001135 0.000000
# 4 0.000000 0.000000 0.000000 0.033701 0.000000 0.012655
# 5 -0.004630 0.000659 0.001135 0.000000 0.018090 0.000000
# 6 0.000000 0.000000 0.000000 0.012655 0.000000 0.070198
#
#
# Mechanical properties :
#
#
# Convention : Reuss Voigt Hill
#
# Bulk Modulus (GPa) = 28.56306 62.75429 45.65868
# Shear Modulus (GPa) = 25.46010 39.01378 32.23694
#
# Velocity S-wave (km/s) = 3.06421 3.79313 3.44799
# Velocity P-wave (km/s) = 4.80135 6.50591 5.71751
#
# Compressibility (1/GPa) = 0.03501026
#
# Stress axis : x y z
#
# Youngs Moduli (GPa) = 46.21906 46.44209 175.43588
#
# Poissons Ratio (x) = -0.09798 0.81987
# Poissons Ratio (y) = -0.09751 0.76586
# Poissons Ratio (z) = 0.21600 0.20274
#
# Static dielectric constant tensor:
#      x y z
#    x 2.194760 0.000000 -0.125880 
#    y 0.000000 2.194590 0.000000 
#    z -0.125880 0.000000 2.158840 
# 
# From -- ./inp_files/64400.got.cif
#   From: 2010.05.17/outbox.cif.g08.bks.cpg/sg5_33_cif.got.tgz:64400.got - 2010.06.03 18:56:24.
