data_PCOD9123818
_publ_section_title
;
Structure prediction by ZEFSAII (Michael W. Deem and Ramdas Pophale) SiO2 
 PCOD9123818
Probable space group: C 2
;
_chemical_formula_sum "Si O2"
_cell_formula_units_Z 28
_cell_length_a 8.045903
_cell_length_b 30.732222
_cell_length_c 5.246561
_cell_angle_alpha 90.000000
_cell_angle_beta 63.946872
_cell_angle_gamma 90.000000
_cell_volume 1165.485903
_symmetry_space_group_name_H-M "C 2"
_symmetry_group_IT_number 5
_symmetry_cell_setting 'monoclinic'
loop_
_space_group_symop_operation_xyz
x,y,z
-x,y,-z
1/2+x,1/2+y,z
1/2-x,1/2+y,-z
loop_
_atom_site_type_symbol
_atom_site_label
_atom_site_fract_x
_atom_site_fract_y
_atom_site_fract_z
Si Si1 0.500000 0.481611 0.000000
Si Si2 0.224593 0.834976 0.343366
Si Si3 0.711745 0.047933 0.249956
Si Si4 0.225206 0.784542 0.843686
Si Si5 0.809812 0.644534 0.770984
Si Si6 0.702109 0.686822 0.356346
Si Si7 0.289279 0.434223 0.743833
Si Si8 0.000000 0.499568 0.000000
O O1 0.627232 0.516224 0.756473
O O2 0.340255 0.449984 0.995536
O O3 0.282717 0.816539 0.576666
O O4 0.271346 0.884796 0.253173
O O5 0.000000 0.833893 0.500000
O O6 0.285213 0.803910 0.072729
O O7 0.500000 0.043799 0.500000
O O8 0.782292 0.097359 0.195335
O O9 0.659456 0.030788 0.003249
O O10 0.294092 0.736330 0.736934
O O11 0.000000 0.781880 0.000000
O O12 0.749736 0.683492 0.623451
O O13 0.000000 0.634658 0.500000
O O14 0.807831 0.660198 0.063302
O O15 0.500000 0.666924 0.500000
O O16 0.500000 0.439140 0.500000
O O17 0.125633 0.465310 0.755576
#
# Coordination Sequence:
#
# PCOD9123818 Si02
#       8
#     2   4   4   4   4   4   4   2
#     4  10  22  38  64  92 128 174 216 274 334 392
#     4   9  20  35  65  92 127 167 222 264 319 390
#     4  10  23  40  64  93 132 171 226 272 333 396
#     4  10  20  40  64  93 125 174 217 265 323 402
#     4  11  25  44  71  97 133 180 227 272 331 409
#     4  12  26  44  68 102 138 170 219 283 344 403
#     4  10  21  38  63  92 130 171 217 270 330 389
#     4  10  22  42  60  96 126 172 222 276 324 398
#
# _framework density 24.024314
#
# number of rings (size 3 to 8) (size 9 to 14) (size 15 to 20)
#    0.000    1.714    0.000    3.429   11.000    1.143 
#    2.571    0.000    0.000    0.000    0.000    0.000 
#    0.000    0.000    0.000    0.000    0.000    0.000 
#
# Total GULP energy -77958.800918 kJ/mol
# GULP energy per Si atom -5568.485780 kJ/mol
# Density = 2.396963 g / cm^3
# Si number density = 24.024314 Si / 1000 Ang^3
#
#
#
# Elastic Constant Matrix: (Units=GPa)
#
#
# Indices 1 2 3 4 5 6 
#
# 1 56.8315 4.4491 36.4331 0.0000 -15.3115 0.0000
# 2 4.4491 143.3167 52.9292 0.0000 -2.0085 0.0000
# 3 36.4331 52.9292 94.9146 0.0000 -8.7372 0.0000
# 4 0.0000 0.0000 0.0000 52.6525 0.0000 -14.5873
# 5 -15.3115 -2.0085 -8.7372 0.0000 28.2599 0.0000
# 6 0.0000 0.0000 0.0000 -14.5873 0.0000 32.1721
#
#
#
# Elastic Compliance Matrix: (Units=1/GPa)
#
#
# Indices 1 2 3 4 5 6 
#
# 1 0.027968 0.003603 -0.011658 0.000000 0.011805 0.000000
# 2 0.003603 0.009274 -0.006499 0.000000 0.000602 0.000000
# 3 -0.011658 -0.006499 0.018539 0.000000 -0.001047 0.000000
# 4 0.000000 0.000000 0.000000 0.021721 0.000000 0.009849
# 5 0.011805 0.000602 -0.001047 0.000000 0.041501 0.000000
# 6 0.000000 0.000000 0.000000 0.009849 0.000000 0.035548
#
#
# Mechanical properties :
#
#
# Convention : Reuss Voigt Hill
#
# Bulk Modulus (GPa) = 37.49269 53.63174 45.56221
# Shear Modulus (GPa) = 25.96711 36.03368 31.00040
#
# Velocity S-wave (km/s) = 3.29122 3.87703 3.59608
# Velocity P-wave (km/s) = 5.48479 6.51262 6.02068
#
# Compressibility (1/GPa) = 0.02667187
#
# Stress axis : x y z
#
# Youngs Moduli (GPa) = 35.75535 107.82268 53.94119
#
# Poissons Ratio (x) = -0.38845 0.62884
# Poissons Ratio (y) = -0.12881 0.35059
# Poissons Ratio (z) = 0.41683 0.70078
#
# Static dielectric constant tensor:
#      x y z
#    x 1.868510 0.000000 -0.099640 
#    y 0.000000 1.903010 0.000000 
#    z -0.099640 0.000000 1.910640 
# 
# From -- ./inp_files/3864.got.cif
#   From: 2010.05.17/outbox.cif.g08.bks.cpg/sg5_2_cif.got.tgz:3864.got - 2010.06.03 18:56:24.
