data_PCOD9123561
_publ_section_title
;
Structure prediction by ZEFSAII (Michael W. Deem and Ramdas Pophale) SiO2 
 PCOD9123561
Probable space group: C 2
;
_chemical_formula_sum "Si O2"
_cell_formula_units_Z 26
_cell_length_a 6.191424
_cell_length_b 13.299374
_cell_length_c 17.797895
_cell_angle_alpha 90.000000
_cell_angle_beta 124.535144
_cell_angle_gamma 90.000000
_cell_volume 1207.260241
_symmetry_space_group_name_H-M "C 2"
_symmetry_group_IT_number 5
_symmetry_cell_setting 'monoclinic'
loop_
_space_group_symop_operation_xyz
x,y,z
-x,y,-z
1/2+x,1/2+y,z
1/2-x,1/2+y,-z
loop_
_atom_site_type_symbol
_atom_site_label
_atom_site_fract_x
_atom_site_fract_y
_atom_site_fract_z
Si Si1 0.311659 0.982720 0.744515
Si Si2 0.443884 0.183554 0.151111
Si Si3 0.467951 0.846946 0.906315
Si Si4 0.000000 0.745028 0.000000
Si Si5 0.718023 0.427709 0.415014
Si Si6 0.114859 0.325714 0.702304
Si Si7 0.268983 0.721486 0.515505
O O1 0.313380 0.928996 0.826871
O O2 0.457386 0.900293 0.723440
O O3 0.036421 0.997668 0.645277
O O4 0.477955 0.083255 0.789902
O O5 0.431323 0.176916 0.058456
O O6 0.673407 0.262357 0.212426
O O7 0.185927 0.240867 0.127677
O O8 0.500000 0.876377 0.000000
O O9 0.757581 0.819390 0.935917
O O10 0.757186 0.390431 0.338344
O O11 0.675133 0.326412 0.456369
O O12 0.000000 0.466023 0.500000
O O13 0.930820 0.249698 0.621088
O O14 0.500000 0.682390 0.500000
O O15 0.000000 0.676375 0.500000
#
# Coordination Sequence:
#
# PCOD9123561 Si02
#       7
#     4   4   4   2   4   4   4
#     4  12  22  39  71  90 126 179 215 268 336 394
#     4  11  24  40  63  97 124 168 222 267 327 406
#     4  10  23  44  62  91 131 165 216 277 330 396
#     4  10  22  46  62  88 138 162 206 286 324 392
#     4   9  20  37  66  91 132 177 210 272 335 385
#     4  10  20  39  60  91 127 165 221 267 326 394
#     4   9  17  32  63  89 128 181 214 276 347 386
#
# _framework density 21.536366999999998
#
# number of rings (size 3 to 8) (size 9 to 14) (size 15 to 20)
#    0.000    2.154    4.615    0.000    1.077    1.231 
#    4.154    0.769   27.077    0.000    0.000    0.000 
#    0.000    0.000    0.000    0.000    0.000    0.000 
#
# Total GULP energy -72389.610792 kJ/mol
# GULP energy per Si atom -5568.431599 kJ/mol
# Density = 2.148735 g / cm^3
# Si number density = 21.536367 Si / 1000 Ang^3
#
#
#
# Elastic Constant Matrix: (Units=GPa)
#
#
# Indices 1 2 3 4 5 6 
#
# 1 88.1758 24.2045 34.7256 0.0000 18.2755 0.0000
# 2 24.2045 68.5819 30.9794 0.0000 5.3721 0.0000
# 3 34.7256 30.9794 120.6425 0.0000 13.6236 0.0000
# 4 0.0000 0.0000 0.0000 66.2326 0.0000 -28.7117
# 5 18.2755 5.3721 13.6236 0.0000 42.0603 0.0000
# 6 0.0000 0.0000 0.0000 -28.7117 0.0000 2.8163
#
#
#
# Elastic Compliance Matrix: (Units=1/GPa)
#
#
# Indices 1 2 3 4 5 6 
#
# 1 0.014375 -0.003472 -0.002689 0.000000 -0.004932 0.000000
# 2 -0.003472 0.017357 -0.003506 0.000000 0.000427 0.000000
# 3 -0.002689 -0.003506 0.010152 0.000000 -0.001672 0.000000
# 4 0.000000 0.000000 0.000000 -0.004415 0.000000 -0.045015
# 5 -0.004932 0.000427 -0.001672 0.000000 0.026405 0.000000
# 6 0.000000 0.000000 0.000000 -0.045015 0.000000 -0.103840
#
#
# Mechanical properties :
#
#
# Convention : Reuss Voigt Hill
#
# Bulk Modulus (GPa) = 44.34710 50.80214 47.57462
# Shear Modulus (GPa) = -381.24387 34.72121 -173.26133
#
# Velocity S-wave (km/s) = -13.31944 4.01959 -8.97916
# Velocity P-wave (km/s) = 14.69378 6.72183 9.23916
#
# Compressibility (1/GPa) = 0.02254939
#
# Stress axis : x y z
#
# Youngs Moduli (GPa) = 69.56337 57.61454 98.50217
#
# Poissons Ratio (x) = 0.20006 0.26489
# Poissons Ratio (y) = 0.24155 0.34532
# Poissons Ratio (z) = 0.18707 0.20198
#
# Static dielectric constant tensor:
#      x y z
#    x 1.844420 0.000000 -0.052710 
#    y 0.000000 1.780850 0.000000 
#    z -0.052710 0.000000 1.676530 
# 
# From -- ./inp_files/58814.got.cif
#   From: 2010.05.17/outbox.cif.g08.bks.cpg/sg5_30_cif.got.tgz:58814.got - 2010.06.03 18:56:24.
