data_PCOD9123524
_publ_section_title
;
Structure prediction by ZEFSAII (Michael W. Deem and Ramdas Pophale) SiO2 
 PCOD9123524
Probable space group: C 2
;
_chemical_formula_sum "Si O2"
_cell_formula_units_Z 22
_cell_length_a 7.776830
_cell_length_b 12.692617
_cell_length_c 10.653097
_cell_angle_alpha 90.000000
_cell_angle_beta 123.694641
_cell_angle_gamma 90.000000
_cell_volume 874.895390
_symmetry_space_group_name_H-M "C 2"
_symmetry_group_IT_number 5
_symmetry_cell_setting 'monoclinic'
loop_
_space_group_symop_operation_xyz
x,y,z
-x,y,-z
1/2+x,1/2+y,z
1/2-x,1/2+y,-z
loop_
_atom_site_type_symbol
_atom_site_label
_atom_site_fract_x
_atom_site_fract_y
_atom_site_fract_z
Si Si1 0.000000 0.348630 0.000000
Si Si2 0.438001 0.336485 0.201081
Si Si3 0.048819 0.420044 0.376998
Si Si4 0.332313 0.525129 0.820729
Si Si5 0.039904 0.201529 0.773809
Si Si6 0.500000 0.178634 0.000000
Si Si7 0.000000 0.867164 0.500000
O O1 0.221637 0.400114 0.103519
O O2 0.980523 0.274637 0.111826
O O3 0.607072 0.415740 0.219538
O O4 0.441202 0.243732 0.102315
O O5 0.472443 0.305033 0.358430
O O6 0.288067 0.431301 0.435210
O O7 0.000000 0.450930 0.500000
O O8 0.900886 0.496430 0.232969
O O9 0.998954 0.293645 0.343523
O O10 0.367145 0.614080 0.730411
O O11 0.500000 0.543570 0.000000
O O12 0.265094 0.145294 0.864733
#
# Coordination Sequence:
#
# PCOD9123524 Si02
#       7
#     2   4   4   4   4   2   2
#     4  10  20  38  68  98 134 180 244 294 362 444
#     4  11  21  40  70  99 143 196 238 298 380 432
#     4  12  25  50  73 104 157 199 243 309 383 447
#     4  12  24  44  73 107 145 189 250 322 364 441
#     4  11  22  42  71 106 139 189 242 308 370 435
#     4  10  20  42  70 104 150 188 244 314 378 444
#     4  12  24  42  72 102 138 208 240 286 382 450
#
# _framework density 25.145865000000001
#
# number of rings (size 3 to 8) (size 9 to 14) (size 15 to 20)
#    0.000    0.727    7.273    1.091    0.000    0.727 
#    3.273    0.000    0.000    0.000    0.000    0.000 
#    0.000    0.000    0.000    0.000    0.000    0.000 
#
# Total GULP energy -61324.728062 kJ/mol
# GULP energy per Si atom -5574.975278 kJ/mol
# Density = 2.508863 g / cm^3
# Si number density = 25.145865 Si / 1000 Ang^3
#
#
#
# Elastic Constant Matrix: (Units=GPa)
#
#
# Indices 1 2 3 4 5 6 
#
# 1 150.4994 17.0986 48.5574 0.0000 38.1333 0.0000
# 2 17.0986 67.4051 7.8363 0.0000 20.2174 0.0000
# 3 48.5574 7.8363 110.1863 0.0000 0.9393 0.0000
# 4 0.0000 0.0000 0.0000 9.1928 0.0000 3.3542
# 5 38.1333 20.2174 0.9393 0.0000 79.7249 0.0000
# 6 0.0000 0.0000 0.0000 3.3542 0.0000 26.4649
#
#
#
# Elastic Compliance Matrix: (Units=1/GPa)
#
#
# Indices 1 2 3 4 5 6 
#
# 1 0.009011 -0.000600 -0.003893 0.000000 -0.004112 0.000000
# 2 -0.000600 0.016233 -0.000858 0.000000 -0.003820 0.000000
# 3 -0.003893 -0.000858 0.010836 0.000000 0.001952 0.000000
# 4 0.000000 0.000000 0.000000 0.114055 0.000000 -0.014455
# 5 -0.004112 -0.003820 0.001952 0.000000 0.015456 0.000000
# 6 0.000000 0.000000 0.000000 -0.014455 0.000000 0.039618
#
#
# Mechanical properties :
#
#
# Convention : Reuss Voigt Hill
#
# Bulk Modulus (GPa) = 39.40378 52.78616 46.09497
# Shear Modulus (GPa) = 22.28482 40.04977 31.16730
#
# Velocity S-wave (km/s) = 2.98018 3.99519 3.52442
# Velocity P-wave (km/s) = 5.24843 6.50535 5.91040
#
# Compressibility (1/GPa) = 0.02537828
#
# Stress axis : x y z
#
# Youngs Moduli (GPa) = 110.97975 61.60231 92.28895
#
# Poissons Ratio (x) = 0.03695 0.35929
# Poissons Ratio (y) = 0.06657 0.07915
# Poissons Ratio (z) = 0.43206 0.05283
#
# Static dielectric constant tensor:
#      x y z
#    x 2.029830 0.000000 0.187290 
#    y 0.000000 1.945190 0.000000 
#    z 0.187290 0.000000 1.885940 
# 
# From -- ./inp_files/36011.got.cif
#   From: 2010.05.17/outbox.cif.g08.bks.cpg/sg5_19_cif.got.tgz:36011.got - 2010.06.03 18:56:24.
