data_PCOD9123924
_publ_section_title
;
Structure prediction by ZEFSAII (Michael W. Deem and Ramdas Pophale) SiO2 
 PCOD9123924
Probable space group: C 2
;
_chemical_formula_sum "Si O2"
_cell_formula_units_Z 20
_cell_length_a 5.288836
_cell_length_b 12.749890
_cell_length_c 11.447560
_cell_angle_alpha 90.000000
_cell_angle_beta 94.921091
_cell_angle_gamma 90.000000
_cell_volume 769.087241
_symmetry_space_group_name_H-M "C 2"
_symmetry_group_IT_number 5
_symmetry_cell_setting 'monoclinic'
loop_
_space_group_symop_operation_xyz
x,y,z
-x,y,-z
1/2+x,1/2+y,z
1/2-x,1/2+y,-z
loop_
_atom_site_type_symbol
_atom_site_label
_atom_site_fract_x
_atom_site_fract_y
_atom_site_fract_z
Si Si1 0.612514 0.916960 0.822596
Si Si2 0.087567 0.936734 0.389912
Si Si3 0.500000 0.310766 0.000000
Si Si4 0.134623 0.211225 0.131030
Si Si5 0.500000 0.103890 0.500000
Si Si6 0.211604 0.595049 0.268295
O O1 0.400412 0.830184 0.826531
O O2 0.791327 0.889450 0.939220
O O3 0.760479 0.889108 0.710225
O O4 0.516955 0.036487 0.811726
O O5 0.271081 0.029845 0.444924
O O6 0.000000 0.872585 0.500000
O O7 0.841509 0.990813 0.327101
O O8 0.573780 0.230168 0.898500
O O9 0.952272 0.145979 0.210850
O O10 0.000000 0.193593 0.000000
O O11 0.600059 0.153279 0.380188
#
# Coordination Sequence:
#
# PCOD9123924 Si02
#       6
#     4   4   2   4   2   4
#     4  10  21  41  67  96 137 185 225 288 348 415
#     4   9  18  36  65  94 130 173 225 283 344 418
#     4  10  22  42  66  96 152 182 226 300 348 408
#     4  10  23  43  62  97 141 182 230 292 335 425
#     4   8  18  36  66  94 136 168 222 296 336 422
#     4  10  20  40  69 101 133 182 235 280 355 417
#
# _framework density 26.004853000000001
#
# number of rings (size 3 to 8) (size 9 to 14) (size 15 to 20)
#    0.000    2.400    0.000    1.200    0.000    6.400 
#   16.200    0.000   35.200    0.000    0.000    0.000 
#    0.000    0.000    0.000    0.000    0.000    0.000 
#
# Total GULP energy -55671.682196 kJ/mol
# GULP energy per Si atom -5567.168220 kJ/mol
# Density = 2.594566 g / cm^3
# Si number density = 26.004853 Si / 1000 Ang^3
#
#
#
# Elastic Constant Matrix: (Units=GPa)
#
#
# Indices 1 2 3 4 5 6 
#
# 1 94.6689 24.0385 31.9183 0.0000 -24.2660 0.0000
# 2 24.0385 85.0970 74.3370 0.0000 -15.9959 0.0000
# 3 31.9183 74.3370 150.1607 0.0000 -60.8352 0.0000
# 4 0.0000 0.0000 0.0000 17.6522 0.0000 -32.3627
# 5 -24.2660 -15.9959 -60.8352 0.0000 64.5101 0.0000
# 6 0.0000 0.0000 0.0000 -32.3627 0.0000 8.1590
#
#
#
# Elastic Compliance Matrix: (Units=1/GPa)
#
#
# Indices 1 2 3 4 5 6 
#
# 1 0.012316 -0.003485 0.001027 0.000000 0.004737 0.000000
# 2 -0.003485 0.024084 -0.015040 0.000000 -0.009522 0.000000
# 3 0.001027 -0.015040 0.020281 0.000000 0.015782 0.000000
# 4 0.000000 0.000000 0.000000 -0.009032 0.000000 -0.035826
# 5 0.004737 -0.009522 0.015782 0.000000 0.029805 0.000000
# 6 0.000000 0.000000 0.000000 -0.035826 0.000000 -0.019541
#
#
# Mechanical properties :
#
#
# Convention : Reuss Voigt Hill
#
# Bulk Modulus (GPa) = 46.11782 65.61269 55.86526
# Shear Modulus (GPa) = 49.93152 31.37311 40.65232
#
# Velocity S-wave (km/s) = 4.38663 3.47714 3.95810
# Velocity P-wave (km/s) = 6.59011 6.43478 6.51291
#
# Compressibility (1/GPa) = 0.02168359
#
# Stress axis : x y z
#
# Youngs Moduli (GPa) = 81.19398 41.52150 49.30827
#
# Poissons Ratio (x) = 0.14472 -0.05062
# Poissons Ratio (y) = 0.28300 0.74158
# Poissons Ratio (z) = -0.08335 0.62447
#
# Static dielectric constant tensor:
#      x y z
#    x 2.318460 0.000000 -0.004950 
#    y 0.000000 2.006900 0.000000 
#    z -0.004950 0.000000 2.102440 
# 
# From -- ./inp_files/33258.got.cif
#   From: 2010.05.17/outbox.cif.g08.bks.cpg/sg5_17_cif.got.tgz:33258.got - 2010.06.03 18:56:24.
