data_PCOD9123986
_publ_section_title
;
Structure prediction by ZEFSAII (Michael W. Deem and Ramdas Pophale) SiO2 
 PCOD9123986
Probable space group: C 2
;
_chemical_formula_sum "Si O2"
_cell_formula_units_Z 24
_cell_length_a 20.491030
_cell_length_b 12.995402
_cell_length_c 15.249229
_cell_angle_alpha 90.000000
_cell_angle_beta 161.391791
_cell_angle_gamma 90.000000
_cell_volume 1295.750917
_symmetry_space_group_name_H-M "C 2"
_symmetry_group_IT_number 5
_symmetry_cell_setting 'monoclinic'
loop_
_space_group_symop_operation_xyz
x,y,z
-x,y,-z
1/2+x,1/2+y,z
1/2-x,1/2+y,-z
loop_
_atom_site_type_symbol
_atom_site_label
_atom_site_fract_x
_atom_site_fract_y
_atom_site_fract_z
Si Si1 0.928827 0.305960 0.185337
Si Si2 0.500000 0.063486 0.000000
Si Si3 0.737004 0.130168 0.820743
Si Si4 0.812358 0.389532 0.642459
Si Si5 0.833472 0.899310 0.999603
Si Si6 0.000000 0.215208 0.000000
Si Si7 0.794572 0.762074 0.784265
O O1 0.037578 0.374000 0.248892
O O2 0.106753 0.272725 0.479121
O O3 0.826822 0.208767 0.007129
O O4 0.762569 0.366683 0.030203
O O5 0.644818 0.141888 0.130492
O O6 0.626736 0.990719 0.225788
O O7 0.500000 0.152640 0.500000
O O8 0.868031 0.149075 0.899522
O O9 0.762622 0.013344 0.884298
O O10 0.578470 0.394162 0.316005
O O11 0.854197 0.291274 0.758366
O O12 0.761231 0.819842 0.832567
O O13 0.000000 0.808163 0.000000
#
# Coordination Sequence:
#
# PCOD9123986 Si02
#       7
#     4   2   4   4   4   2   4
#     4  11  23  41  61  87 120 155 197 242 290 347
#     4   9  20  37  66  84 118 155 198 239 296 342
#     4  11  24  40  60  90 119 154 198 239 294 350
#     4  10  20  41  61  89 115 157 196 242 291 346
#     4  12  24  37  64  86 123 154 195 242 295 347
#     4   9  22  39  64  82 120 157 196 243 288 342
#     4  10  21  40  58  87 115 156 194 236 291 341
#
# _framework density 18.522079000000002
#
# number of rings (size 3 to 8) (size 9 to 14) (size 15 to 20)
#    0.500    1.000    1.667    3.500    1.167    2.667 
#    0.000    1.667    0.000    0.000    0.000    0.000 
#    0.000    0.000    0.000    0.000    0.000    0.000 
#
# Total GULP energy -67008.534476 kJ/mol
# GULP energy per Si atom -5584.044540 kJ/mol
# Density = 1.847992 g / cm^3
# Si number density = 18.522079 Si / 1000 Ang^3
#
#
#
# Elastic Constant Matrix: (Units=GPa)
#
#
# Indices 1 2 3 4 5 6 
#
# 1 141.6500 74.6945 42.2924 -0.0004 -1.1899 -0.0005
# 2 74.6945 119.4471 49.5928 -0.0003 -1.0754 -0.0003
# 3 42.2924 49.5928 130.6620 -0.0007 -10.4766 -0.0008
# 4 -0.0004 -0.0003 -0.0007 2.3270 -0.0004 -18.0813
# 5 -1.1899 -1.0754 -10.4766 -0.0004 27.3626 -0.0006
# 6 -0.0005 -0.0003 -0.0008 -18.0813 -0.0006 -3.6373
#
#
#
# Elastic Compliance Matrix: (Units=1/GPa)
#
#
# Indices 1 2 3 4 5 6 
#
# 1 0.010664 -0.006209 -0.001112 0.000000 -0.000206 0.000000
# 2 -0.006209 0.013584 -0.003224 0.000000 -0.000971 0.000000
# 3 -0.001112 -0.003224 0.009515 0.000000 0.003468 0.000000
# 4 0.000000 0.000000 0.000000 0.010845 -0.000001 -0.053910
# 5 -0.000206 -0.000971 0.003468 -0.000001 0.037827 -0.000001
# 6 0.000000 0.000000 0.000000 -0.053910 -0.000001 -0.006938
#
#
# Mechanical properties :
#
#
# Convention : Reuss Voigt Hill
#
# Bulk Modulus (GPa) = 78.90126 80.54649 79.72388
# Shear Modulus (GPa) = 49.59794 20.22241 34.91017
#
# Velocity S-wave (km/s) = 5.18034 3.30782 4.34612
# Velocity P-wave (km/s) = 8.85845 7.62693 8.26566
#
# Compressibility (1/GPa) = 0.01267407
#
# Stress axis : x y z
#
# Youngs Moduli (GPa) = 93.77496 73.61404 105.09808
#
# Poissons Ratio (x) = 0.45705 0.11683
# Poissons Ratio (y) = 0.58223 0.33885
# Poissons Ratio (z) = 0.10424 0.23734
#
# Static dielectric constant tensor:
#      x y z
#    x 1.632130 0.000000 0.004010 
#    y 0.000000 1.606450 0.000000 
#    z 0.004010 0.000000 1.624370 
# 
# From -- ./inp_files/57036.got.cif
#   From: 2010.05.17/outbox.cif.g08.bks.cpg/sg5_29_cif.got.tgz:57036.got - 2010.06.03 18:56:24.
