data_PCOD9123884
_publ_section_title
;
Structure prediction by ZEFSAII (Michael W. Deem and Ramdas Pophale) SiO2 
 PCOD9123884
Probable space group: C 2
;
_chemical_formula_sum "Si O2"
_cell_formula_units_Z 24
_cell_length_a 12.055252
_cell_length_b 9.304942
_cell_length_c 13.830234
_cell_angle_alpha 90.000000
_cell_angle_beta 33.774982
_cell_angle_gamma 90.000000
_cell_volume 862.465486
_symmetry_space_group_name_H-M "C 2"
_symmetry_group_IT_number 5
_symmetry_cell_setting 'monoclinic'
loop_
_space_group_symop_operation_xyz
x,y,z
-x,y,-z
1/2+x,1/2+y,z
1/2-x,1/2+y,-z
loop_
_atom_site_type_symbol
_atom_site_label
_atom_site_fract_x
_atom_site_fract_y
_atom_site_fract_z
Si Si1 0.215265 0.002350 0.289473
Si Si2 0.033847 0.751547 0.861635
Si Si3 0.343275 0.526217 0.025513
Si Si4 0.921161 0.714341 0.660520
Si Si5 0.252932 0.888468 0.541526
Si Si6 0.496584 0.657841 0.725755
O O1 0.396625 0.086860 0.209567
O O2 0.000000 0.013326 0.500000
O O3 0.165800 0.086046 0.226790
O O4 0.246067 0.834197 0.247672
O O5 0.218772 0.835999 0.676642
O O6 0.858401 0.868171 0.964445
O O7 0.000000 0.747978 0.000000
O O8 0.415105 0.635634 0.891421
O O9 0.500000 0.526670 0.000000
O O10 0.152063 0.591098 0.216031
O O11 0.000000 0.660274 0.500000
O O12 0.077971 0.811161 0.605829
O O13 0.444743 0.812783 0.357199
O O14 0.194072 0.054662 0.576972
#
# Coordination Sequence:
#
# PCOD9123884 Si02
#       6
#     4   4   4   4   4   4
#     4  10  20  40  67  94 126 170 215 266 326 384
#     4  10  22  40  62  90 135 169 215 261 317 389
#     4  10  22  42  61  92 131 168 215 266 320 382
#     4  10  22  40  67  93 130 167 216 270 326 380
#     4  10  21  41  62  97 129 170 214 265 323 385
#     4  10  21  40  65  96 133 165 217 264 322 389
#
# _framework density 27.827200999999999
#
# number of rings (size 3 to 8) (size 9 to 14) (size 15 to 20)
#    0.000    2.000    1.667    1.000    2.333    0.667 
#    9.000    3.333    0.000    0.000    0.000    0.000 
#    0.000    0.000    0.000    0.000    0.000    0.000 
#
# Total GULP energy -67037.396104 kJ/mol
# GULP energy per Si atom -5586.449675 kJ/mol
# Density = 2.776387 g / cm^3
# Si number density = 27.827201 Si / 1000 Ang^3
#
#
#
# Elastic Constant Matrix: (Units=GPa)
#
#
# Indices 1 2 3 4 5 6 
#
# 1 89.6896 33.3549 44.1781 -0.0002 21.8146 0.0001
# 2 33.3549 207.6938 87.6698 -0.0002 -6.9571 0.0001
# 3 44.1781 87.6698 172.0331 -0.0007 33.2178 0.0005
# 4 -0.0002 -0.0002 -0.0007 13.5253 0.0004 -4.6543
# 5 21.8146 -6.9571 33.2178 0.0004 42.6629 -0.0002
# 6 0.0001 0.0001 0.0005 -4.6543 -0.0002 43.6175
#
#
#
# Elastic Compliance Matrix: (Units=1/GPa)
#
#
# Indices 1 2 3 4 5 6 
#
# 1 0.014110 -0.001877 -0.001430 0.000000 -0.006408 0.000000
# 2 -0.001877 0.007040 -0.004134 0.000000 0.005327 0.000000
# 3 -0.001430 -0.004134 0.009740 0.000001 -0.007527 0.000000
# 4 0.000000 0.000000 0.000001 0.076754 -0.000001 0.008190
# 5 -0.006408 0.005327 -0.007527 -0.000001 0.033445 0.000000
# 6 0.000000 0.000000 0.000000 0.008190 0.000000 0.023801
#
#
# Mechanical properties :
#
#
# Convention : Reuss Voigt Hill
#
# Bulk Modulus (GPa) = 62.46639 88.86910 75.66775
# Shear Modulus (GPa) = 27.01130 40.24204 33.62667
#
# Velocity S-wave (km/s) = 3.11895 3.80694 3.47999
# Velocity P-wave (km/s) = 5.95543 7.16443 6.58773
#
# Compressibility (1/GPa) = 0.01600861
#
# Stress axis : x y z
#
# Youngs Moduli (GPa) = 70.86932 142.05240 102.66994
#
# Poissons Ratio (x) = 0.26668 0.14677
# Poissons Ratio (y) = 0.13305 0.42443
# Poissons Ratio (z) = 0.10131 0.58723
#
# Static dielectric constant tensor:
#      x y z
#    x 2.322820 0.000000 -0.067190 
#    y 0.000000 2.243670 0.000000 
#    z -0.067190 0.000000 2.179570 
# 
# From -- ./inp_files/54528.got.cif
#   From: 2010.05.17/outbox.cif.g08.bks.cpg/sg5_28_cif.got.tgz:54528.got - 2010.06.03 18:56:24.
