data_PCOD9123713
_publ_section_title
;
Structure prediction by ZEFSAII (Michael W. Deem and Ramdas Pophale) SiO2 
 PCOD9123713
Probable space group: C 2
;
_chemical_formula_sum "Si O2"
_cell_formula_units_Z 30
_cell_length_a 28.129879
_cell_length_b 5.853067
_cell_length_c 8.997386
_cell_angle_alpha 90.000000
_cell_angle_beta 94.992521
_cell_angle_gamma 90.000000
_cell_volume 1475.763940
_symmetry_space_group_name_H-M "C 2"
_symmetry_group_IT_number 5
_symmetry_cell_setting 'monoclinic'
loop_
_space_group_symop_operation_xyz
x,y,z
-x,y,-z
1/2+x,1/2+y,z
1/2-x,1/2+y,-z
loop_
_atom_site_type_symbol
_atom_site_label
_atom_site_fract_x
_atom_site_fract_y
_atom_site_fract_z
Si Si1 0.021158 0.623320 0.756256
Si Si2 0.000000 0.927436 0.500000
Si Si3 0.583999 0.449471 0.975698
Si Si4 0.437337 0.813792 0.806329
Si Si5 0.150416 0.571010 0.063718
Si Si6 0.349276 0.743653 0.205439
Si Si7 0.078397 0.299289 0.548819
Si Si8 0.752004 0.040697 0.084121
O O1 0.054714 0.498183 0.643242
O O2 0.988234 0.780063 0.641742
O O3 0.987467 0.443425 0.827749
O O4 0.051594 0.766565 0.881795
O O5 0.955899 0.081363 0.436614
O O6 0.558482 0.576134 0.104279
O O7 0.631307 0.326589 0.051339
O O8 0.605303 0.622679 0.860707
O O9 0.424966 0.818418 0.628862
O O10 0.392854 0.935283 0.873752
O O11 0.201313 0.539951 0.155411
O O12 0.157599 0.468781 0.898645
O O13 0.368060 0.780928 0.376003
O O14 0.301623 0.593083 0.180273
O O15 0.745865 0.282339 0.986328
#
# Coordination Sequence:
#
# PCOD9123713 Si02
#       8
#     4   2   4   4   4   4   4   4
#     4  12  24  44  66  92 134 184 227 271 333 415
#     4  12  22  40  66  88 128 176 230 268 326 390
#     4  11  23  43  63  94 132 169 223 280 339 395
#     4  11  26  42  61  97 138 177 220 285 345 402
#     4  10  22  41  63  96 130 168 216 281 345 402
#     4  10  21  40  69  96 122 169 227 278 328 417
#     4  12  23  43  65  93 130 176 233 267 326 416
#     4  10  20  39  72 101 131 172 227 286 345 409
#
# _framework density 20.328455000000002
#
# number of rings (size 3 to 8) (size 9 to 14) (size 15 to 20)
#    0.000    1.067    6.667    0.000    1.867    0.533 
#    4.800    0.000    2.933    0.000    0.000    0.000 
#    0.000    0.000    0.000    0.000    0.000    0.000 
#
# Total GULP energy -83665.380778 kJ/mol
# GULP energy per Si atom -5577.692052 kJ/mol
# Density = 2.028219 g / cm^3
# Si number density = 20.328455 Si / 1000 Ang^3
#
#
#
# Elastic Constant Matrix: (Units=GPa)
#
#
# Indices 1 2 3 4 5 6 
#
# 1 88.8634 12.5088 37.5119 0.0000 21.5425 0.0000
# 2 12.5088 72.8113 32.9611 0.0000 5.7836 0.0000
# 3 37.5119 32.9611 105.9131 0.0000 15.4500 0.0000
# 4 0.0000 0.0000 0.0000 37.7380 0.0000 -3.3529
# 5 21.5425 5.7836 15.4500 0.0000 28.2071 0.0000
# 6 0.0000 0.0000 0.0000 -3.3529 0.0000 37.8447
#
#
#
# Elastic Compliance Matrix: (Units=1/GPa)
#
#
# Indices 1 2 3 4 5 6 
#
# 1 0.015238 -0.000056 -0.004003 0.000000 -0.009433 0.000000
# 2 -0.000056 0.015996 -0.004876 0.000000 -0.000566 0.000000
# 3 -0.004003 -0.004876 0.012808 0.000000 -0.002959 0.000000
# 4 0.000000 0.000000 0.000000 0.026709 0.000000 0.002366
# 5 -0.009433 -0.000566 -0.002959 0.000000 0.044393 0.000000
# 6 0.000000 0.000000 0.000000 0.002366 0.000000 0.026633
#
#
# Mechanical properties :
#
#
# Convention : Reuss Voigt Hill
#
# Bulk Modulus (GPa) = 38.20868 48.17239 43.19054
# Shear Modulus (GPa) = 29.69618 33.06503 31.38060
#
# Velocity S-wave (km/s) = 3.82621 4.03741 3.93323
# Velocity P-wave (km/s) = 6.19325 6.74409 6.47453
#
# Compressibility (1/GPa) = 0.02617206
#
# Stress axis : x y z
#
# Youngs Moduli (GPa) = 65.62577 62.51605 78.07332
#
# Poissons Ratio (x) = 0.00352 0.31255
# Poissons Ratio (y) = 0.00369 0.38065
# Poissons Ratio (z) = 0.26272 0.30480
#
# Static dielectric constant tensor:
#      x y z
#    x 1.742200 0.000000 0.004900 
#    y 0.000000 1.854170 0.000000 
#    z 0.004900 0.000000 1.742360 
# 
# From -- ./inp_files/32157.got.cif
#   From: 2010.05.17/outbox.cif.g08.bks.cpg/sg5_17_cif.got.tgz:32157.got - 2010.06.03 18:56:24.
