data_PCOD9123047
_publ_section_title
;
Structure prediction by ZEFSAII (Michael W. Deem and Ramdas Pophale) SiO2 
 PCOD9123047
Probable space group: C 2
;
_chemical_formula_sum "Si O2"
_cell_formula_units_Z 24
_cell_length_a 13.922131
_cell_length_b 9.877103
_cell_length_c 18.412803
_cell_angle_alpha 90.000000
_cell_angle_beta 156.179863
_cell_angle_gamma 90.000000
_cell_volume 1022.570835
_symmetry_space_group_name_H-M "C 2"
_symmetry_group_IT_number 5
_symmetry_cell_setting 'monoclinic'
loop_
_space_group_symop_operation_xyz
x,y,z
-x,y,-z
1/2+x,1/2+y,z
1/2-x,1/2+y,-z
loop_
_atom_site_type_symbol
_atom_site_label
_atom_site_fract_x
_atom_site_fract_y
_atom_site_fract_z
Si Si1 0.373045 0.215890 0.482777
Si Si2 0.973253 0.166322 0.297392
Si Si3 0.716202 0.743599 0.600501
Si Si4 0.220008 0.413259 0.194573
Si Si5 0.970540 0.476170 0.782985
Si Si6 0.575126 0.360816 0.967700
O O1 0.500000 0.153271 0.500000
O O2 0.196564 0.119157 0.403178
O O3 0.596281 0.291460 0.671187
O O4 0.190460 0.343538 0.346069
O O5 0.082229 0.276007 0.431241
O O6 0.749577 0.231375 0.100675
O O7 0.864713 0.036622 0.260987
O O8 0.500000 0.690823 0.500000
O O9 0.871108 0.831467 0.765682
O O10 0.874291 0.616480 0.686233
O O11 0.086650 0.477741 0.171569
O O12 0.000000 0.354845 0.000000
O O13 0.239081 0.461969 0.941967
O O14 0.500000 0.395059 0.000000
#
# Coordination Sequence:
#
# PCOD9123047 Si02
#       6
#     4   4   4   4   4   4
#     4   9  20  38  58  87 123 156 191 248 307 344
#     4  11  21  36  65  91 117 159 202 245 293 355
#     4  12  20  38  66  91 114 156 208 243 288 362
#     4  11  20  35  62  91 113 152 204 247 288 356
#     4  10  20  37  60  86 122 155 196 247 299 352
#     4  11  23  38  60  92 124 154 197 253 301 344
#
# _framework density 23.470258000000001
#
# number of rings (size 3 to 8) (size 9 to 14) (size 15 to 20)
#    0.000    1.333    5.000    2.000    2.333    0.000 
#    0.000    0.000   14.667    1.000    0.000    0.000 
#    0.000    0.000    0.000    0.000    0.000    0.000 
#
# Total GULP energy -66814.522162 kJ/mol
# GULP energy per Si atom -5567.876847 kJ/mol
# Density = 2.341684 g / cm^3
# Si number density = 23.470258 Si / 1000 Ang^3
#
#
#
# Elastic Constant Matrix: (Units=GPa)
#
#
# Indices 1 2 3 4 5 6 
#
# 1 110.1191 11.4881 39.0865 0.0002 48.1183 0.0044
# 2 11.4881 14.4742 11.5113 0.0120 14.1380 -0.0018
# 3 39.0865 11.5113 112.7397 0.0201 23.0195 -0.0043
# 4 0.0002 0.0120 0.0201 18.4247 0.0023 10.2216
# 5 48.1183 14.1380 23.0195 0.0023 47.1884 0.0020
# 6 0.0044 -0.0018 -0.0043 10.2216 0.0020 21.9729
#
#
#
# Elastic Compliance Matrix: (Units=1/GPa)
#
#
# Indices 1 2 3 4 5 6 
#
# 1 0.017443 0.006328 -0.002971 0.000003 -0.018233 -0.000003
# 2 0.006328 0.102012 -0.005611 -0.000083 -0.034279 0.000048
# 3 -0.002971 -0.005611 0.010563 -0.000012 -0.000443 0.000008
# 4 0.000003 -0.000083 -0.000012 0.073155 0.000025 -0.034031
# 5 -0.018233 -0.034279 -0.000443 0.000025 0.050271 -0.000016
# 6 -0.000003 0.000048 0.000008 -0.034031 -0.000016 0.061341
#
#
# Mechanical properties :
#
#
# Convention : Reuss Voigt Hill
#
# Bulk Modulus (GPa) = 7.96740 40.16716 24.06728
# Shear Modulus (GPa) = 13.84554 29.20036 21.52295
#
# Velocity S-wave (km/s) = 2.43146 3.53107 3.03154
# Velocity P-wave (km/s) = 3.35927 5.81170 4.74660
#
# Compressibility (1/GPa) = 0.12551152
#
# Stress axis : x y z
#
# Youngs Moduli (GPa) = 57.33104 9.80281 94.66866
#
# Poissons Ratio (x) = -0.06203 0.28121
# Poissons Ratio (y) = -0.36280 0.53114
# Poissons Ratio (z) = 0.17030 0.05500
#
# Static dielectric constant tensor:
#      x y z
#    x 2.798230 -0.000050 -0.566750 
#    y -0.000050 1.934080 0.000030 
#    z -0.566750 0.000030 2.198480 
# 
# From -- ./inp_files/66107.got.cif
#   From: 2010.05.17/outbox.cif.g08.bks.cpg/sg5_34_cif.got.tgz:66107.got - 2010.06.03 18:56:24.
