data_PCOD9123247
_publ_section_title
;
Structure prediction by ZEFSAII (Michael W. Deem and Ramdas Pophale) SiO2 
 PCOD9123247
Probable space group: C 2
;
_chemical_formula_sum "Si O2"
_cell_formula_units_Z 30
_cell_length_a 9.282109
_cell_length_b 10.332946
_cell_length_c 15.700398
_cell_angle_alpha 90.000000
_cell_angle_beta 78.421948
_cell_angle_gamma 90.000000
_cell_volume 1475.208497
_symmetry_space_group_name_H-M "C 2"
_symmetry_group_IT_number 5
_symmetry_cell_setting 'monoclinic'
loop_
_space_group_symop_operation_xyz
x,y,z
-x,y,-z
1/2+x,1/2+y,z
1/2-x,1/2+y,-z
loop_
_atom_site_type_symbol
_atom_site_label
_atom_site_fract_x
_atom_site_fract_y
_atom_site_fract_z
Si Si1 0.045736 0.457050 0.673778
Si Si2 0.286703 0.502406 0.328497
Si Si3 0.205540 0.373497 0.957688
Si Si4 0.000000 0.949134 0.000000
Si Si5 0.988585 0.461509 0.872468
Si Si6 0.709605 0.617749 0.857398
Si Si7 0.761595 0.748228 0.570768
Si Si8 0.075399 0.749838 0.626553
O O1 0.033051 0.414223 0.773628
O O2 0.153031 0.363066 0.609833
O O3 0.094195 0.608133 0.665809
O O4 0.882676 0.455021 0.652749
O O5 0.307421 0.582837 0.239006
O O6 0.306888 0.606820 0.401268
O O7 0.387591 0.375670 0.322069
O O8 0.130171 0.492664 0.914729
O O9 0.184277 0.261304 0.892057
O O10 0.374458 0.376605 0.962593
O O11 0.111001 0.366514 0.056067
O O12 0.906381 0.033692 0.076497
O O13 0.873964 0.576293 0.866409
O O14 0.817320 0.757118 0.467810
O O15 0.908449 0.756502 0.611799
#
# Coordination Sequence:
#
# PCOD9123247 Si02
#       8
#     4   4   4   2   4   4   4   4
#     4  10  21  39  61  87 120 159 199 244 299 355
#     4  10  22  39  60  87 121 156 199 248 296 356
#     4  10  20  38  58  81 115 149 191 242 287 344
#     4  10  22  34  56  84 106 146 192 228 284 344
#     4   9  20  37  57  83 114 149 190 239 292 344
#     4  10  21  37  56  83 115 150 191 240 293 343
#     4  10  21  38  61  87 118 159 199 245 301 353
#     4  10  22  39  59  88 122 154 199 250 298 356
#
# _framework density 20.336110000000001
#
# number of rings (size 3 to 8) (size 9 to 14) (size 15 to 20)
#    0.000    2.133    0.000    2.400    0.000    9.067 
#    0.000   10.667    0.000    0.000    0.000    0.000 
#    0.000    0.000    0.000    0.000    0.000    0.000 
#
# Total GULP energy -83652.603726 kJ/mol
# GULP energy per Si atom -5576.840248 kJ/mol
# Density = 2.028982 g / cm^3
# Si number density = 20.336110 Si / 1000 Ang^3
#
#
#
# Elastic Constant Matrix: (Units=GPa)
#
#
# Indices 1 2 3 4 5 6 
#
# 1 61.7369 19.9839 14.5113 0.0000 3.6210 0.0000
# 2 19.9839 74.5997 21.7596 0.0000 5.1532 0.0000
# 3 14.5113 21.7596 78.2131 0.0000 -4.6982 0.0000
# 4 0.0000 0.0000 0.0000 34.6439 0.0000 -1.9404
# 5 3.6210 5.1532 -4.6982 0.0000 27.3686 0.0000
# 6 0.0000 0.0000 0.0000 -1.9404 0.0000 18.2019
#
#
#
# Elastic Compliance Matrix: (Units=1/GPa)
#
#
# Indices 1 2 3 4 5 6 
#
# 1 0.018183 -0.004037 -0.002374 0.000000 -0.002053 0.000000
# 2 -0.004037 0.015820 -0.003839 0.000000 -0.003104 0.000000
# 3 -0.002374 -0.003839 0.014506 0.000000 0.003527 0.000000
# 4 0.000000 0.000000 0.000000 0.029038 0.000000 0.003096
# 5 -0.002053 -0.003104 0.003527 0.000000 0.038000 0.000000
# 6 0.000000 0.000000 0.000000 0.003096 0.000000 0.055269
#
#
# Mechanical properties :
#
#
# Convention : Reuss Voigt Hill
#
# Bulk Modulus (GPa) = 35.70104 36.33990 36.02047
# Shear Modulus (GPa) = 24.91878 26.59589 25.75733
#
# Velocity S-wave (km/s) = 3.50429 3.62030 3.56277
# Velocity P-wave (km/s) = 5.82812 5.94843 5.88858
#
# Compressibility (1/GPa) = 0.02801039
#
# Stress axis : x y z
#
# Youngs Moduli (GPa) = 54.99711 63.20972 68.93748
#
# Poissons Ratio (x) = 0.25515 0.16365
# Poissons Ratio (y) = 0.22200 0.26464
# Poissons Ratio (z) = 0.13056 0.24265
#
# Static dielectric constant tensor:
#      x y z
#    x 1.745160 0.000000 0.006220 
#    y 0.000000 1.731880 0.000000 
#    z 0.006220 0.000000 1.718610 
# 
# From -- ./inp_files/50482.got.cif
#   From: 2010.05.17/outbox.cif.g08.bks.cpg/sg5_26_cif.got.tgz:50482.got - 2010.06.03 18:56:24.
