data_PCOD9123421
_publ_section_title
;
Structure prediction by ZEFSAII (Michael W. Deem and Ramdas Pophale) SiO2 
 PCOD9123421
Probable space group: C 2
;
_chemical_formula_sum "Si O2"
_cell_formula_units_Z 22
_cell_length_a 14.930347
_cell_length_b 5.862085
_cell_length_c 11.751934
_cell_angle_alpha 90.000000
_cell_angle_beta 123.120915
_cell_angle_gamma 90.000000
_cell_volume 861.442289
_symmetry_space_group_name_H-M "C 2"
_symmetry_group_IT_number 5
_symmetry_cell_setting 'monoclinic'
loop_
_space_group_symop_operation_xyz
x,y,z
-x,y,-z
1/2+x,1/2+y,z
1/2-x,1/2+y,-z
loop_
_atom_site_type_symbol
_atom_site_label
_atom_site_fract_x
_atom_site_fract_y
_atom_site_fract_z
Si Si1 0.838969 0.075100 0.800343
Si Si2 0.633890 0.803714 0.658624
Si Si3 0.913818 0.554290 0.168832
Si Si4 0.500000 0.204585 0.000000
Si Si5 0.234926 0.925882 0.881610
Si Si6 0.314141 0.633825 0.541576
O O1 0.822983 0.285314 0.871933
O O2 0.883004 0.118159 0.704988
O O3 0.715749 0.008845 0.688698
O O4 0.902821 0.877174 0.907495
O O5 0.703824 0.634228 0.782294
O O6 0.619381 0.674665 0.529042
O O7 0.554285 0.920191 0.695276
O O8 0.879499 0.808570 0.178209
O O9 0.985730 0.565472 0.107083
O O10 0.796389 0.474494 0.041222
O O11 0.255594 0.377242 0.491642
#
# Coordination Sequence:
#
# PCOD9123421 Si02
#       6
#     4   4   4   2   4   4
#     4  10  22  37  61  98 132 167 215 279 334 407
#     4  10  20  38  64  94 122 171 226 278 320 389
#     4  11  22  35  61  94 131 168 215 278 336 403
#     4  12  24  40  56 106 140 172 210 276 362 408
#     4  11  18  38  59  91 120 163 223 263 329 387
#     4  10  20  38  67 103 129 169 233 286 326 391
#
# _framework density 25.538567
#
# number of rings (size 3 to 8) (size 9 to 14) (size 15 to 20)
#    0.000    1.455    5.455    1.091    0.000    0.727 
#    0.000    0.000    0.000    1.091   14.182    0.000 
#    0.000    0.000    0.000    0.000    0.000    0.000 
#
# Total GULP energy -61296.205148 kJ/mol
# GULP energy per Si atom -5572.382286 kJ/mol
# Density = 2.548044 g / cm^3
# Si number density = 25.538567 Si / 1000 Ang^3
#
#
#
# Elastic Constant Matrix: (Units=GPa)
#
#
# Indices 1 2 3 4 5 6 
#
# 1 81.8358 29.5556 19.7781 0.0000 -37.1742 0.0000
# 2 29.5556 94.6197 28.8583 0.0000 -12.0399 0.0000
# 3 19.7781 28.8583 109.3245 0.0000 -39.1779 0.0000
# 4 0.0000 0.0000 0.0000 40.4495 0.0000 -10.9864
# 5 -37.1742 -12.0399 -39.1779 0.0000 52.5069 0.0000
# 6 0.0000 0.0000 0.0000 -10.9864 0.0000 34.9944
#
#
#
# Elastic Compliance Matrix: (Units=1/GPa)
#
#
# Indices 1 2 3 4 5 6 
#
# 1 0.020561 -0.005442 0.003394 0.000000 0.015841 0.000000
# 2 -0.005442 0.012944 -0.003753 0.000000 -0.003685 0.000000
# 3 0.003394 -0.003753 0.013754 0.000000 0.011805 0.000000
# 4 0.000000 0.000000 0.000000 0.027027 0.000000 0.008485
# 5 0.015841 -0.003685 0.011805 0.000000 0.038223 0.000000
# 6 0.000000 0.000000 0.000000 0.008485 0.000000 0.031240
#
#
# Mechanical properties :
#
#
# Convention : Reuss Voigt Hill
#
# Bulk Modulus (GPa) = 28.04502 49.12933 38.58717
# Shear Modulus (GPa) = 29.89781 39.42936 34.66359
#
# Velocity S-wave (km/s) = 3.42525 3.93353 3.68816
# Velocity P-wave (km/s) = 5.16221 6.31738 5.76878
#
# Compressibility (1/GPa) = 0.03565696
#
# Stress axis : x y z
#
# Youngs Moduli (GPa) = 48.63686 77.25514 72.70538
#
# Poissons Ratio (x) = 0.42040 -0.24673
# Poissons Ratio (y) = 0.26467 0.27285
# Poissons Ratio (z) = -0.16505 0.28993
#
# Static dielectric constant tensor:
#      x y z
#    x 2.112850 0.000000 -0.062280 
#    y 0.000000 2.093980 0.000000 
#    z -0.062280 0.000000 1.978420 
# 
# From -- ./inp_files/41075.got.cif
#   From: 2010.05.17/outbox.cif.g08.bks.cpg/sg5_21_cif.got.tgz:41075.got - 2010.06.03 18:56:24.
