data_PCOD9123207
_publ_section_title
;
Structure prediction by ZEFSAII (Michael W. Deem and Ramdas Pophale) SiO2 
 PCOD9123207
Probable space group: C 2
;
_chemical_formula_sum "Si O2"
_cell_formula_units_Z 24
_cell_length_a 8.284705
_cell_length_b 18.489979
_cell_length_c 13.085960
_cell_angle_alpha 90.000000
_cell_angle_beta 149.183367
_cell_angle_gamma 90.000000
_cell_volume 1026.920441
_symmetry_space_group_name_H-M "C 2"
_symmetry_group_IT_number 5
_symmetry_cell_setting 'monoclinic'
loop_
_space_group_symop_operation_xyz
x,y,z
-x,y,-z
1/2+x,1/2+y,z
1/2-x,1/2+y,-z
loop_
_atom_site_type_symbol
_atom_site_label
_atom_site_fract_x
_atom_site_fract_y
_atom_site_fract_z
Si Si1 0.727904 0.180200 0.434617
Si Si2 0.482780 0.570391 0.267945
Si Si3 0.757898 0.807966 0.231876
Si Si4 0.550358 0.051316 0.850196
Si Si5 0.221458 0.392613 0.921065
Si Si6 0.830753 0.918114 0.642287
O O1 0.477462 0.239035 0.334721
O O2 0.550845 0.113584 0.282162
O O3 0.000000 0.203996 0.500000
O O4 0.888264 0.145661 0.621575
O O5 0.712240 0.502398 0.402079
O O6 0.213888 0.548733 0.204528
O O7 0.356217 0.573054 0.083427
O O8 0.003620 0.874345 0.356911
O O9 0.500000 0.804886 0.000000
O O10 0.536936 0.830407 0.206144
O O11 0.588536 0.972176 0.820775
O O12 0.403168 0.410225 0.125581
O O13 0.500000 0.368356 0.000000
O O14 0.500000 0.886816 0.500000
#
# Coordination Sequence:
#
# PCOD9123207 Si02
#       6
#     4   4   4   4   4   4
#     4  10  21  37  71 101 135 181 223 270 347 406
#     4   9  18  37  64 100 135 171 218 283 330 395
#     4  10  21  42  67  91 139 182 216 272 348 403
#     4   9  18  37  66 100 135 166 224 288 331 396
#     4  10  21  38  67  98 126 177 230 276 339 395
#     4  10  20  37  66  94 131 170 222 278 337 396
#
# _framework density 23.370849
#
# number of rings (size 3 to 8) (size 9 to 14) (size 15 to 20)
#    0.000    2.333    1.667    0.500    2.333    0.667 
#    3.000    0.833   44.000    0.000    0.000    0.000 
#    0.000    0.000    0.000    0.000    0.000    0.000 
#
# Total GULP energy -67005.575427 kJ/mol
# GULP energy per Si atom -5583.797952 kJ/mol
# Density = 2.331766 g / cm^3
# Si number density = 23.370849 Si / 1000 Ang^3
#
#
#
# Elastic Constant Matrix: (Units=GPa)
#
#
# Indices 1 2 3 4 5 6 
#
# 1 99.9188 57.7692 30.5142 0.0014 40.8702 0.0017
# 2 57.7692 108.2455 44.7232 0.0023 37.4188 0.0038
# 3 30.5142 44.7232 82.7587 0.0032 14.2045 0.0109
# 4 0.0014 0.0023 0.0032 32.2311 0.0041 24.3121
# 5 40.8702 37.4188 14.2045 0.0041 47.3876 0.0031
# 6 0.0017 0.0038 0.0109 24.3121 0.0031 21.6087
#
#
#
# Elastic Compliance Matrix: (Units=1/GPa)
#
#
# Indices 1 2 3 4 5 6 
#
# 1 0.018000 -0.004948 -0.002076 -0.000002 -0.010995 0.000005
# 2 -0.004948 0.016889 -0.006058 -0.000004 -0.007253 0.000006
# 3 -0.002076 -0.006058 0.015807 0.000026 0.001835 -0.000037
# 4 -0.000002 -0.000004 0.000026 0.205027 -0.000006 -0.230678
# 5 -0.010995 -0.007253 0.001835 -0.000006 0.035763 0.000003
# 6 0.000005 0.000006 -0.000037 -0.230678 0.000003 0.305815
#
#
# Mechanical properties :
#
#
# Convention : Reuss Voigt Hill
#
# Bulk Modulus (GPa) = 40.76037 61.88181 51.32109
# Shear Modulus (GPa) = 7.91588 30.77324 19.34456
#
# Velocity S-wave (km/s) = 1.84240 3.63262 2.88014
# Velocity P-wave (km/s) = 4.69089 6.64306 5.75042
#
# Compressibility (1/GPa) = 0.02453363
#
# Stress axis : x y z
#
# Youngs Moduli (GPa) = 55.55491 59.21064 63.26206
#
# Poissons Ratio (x) = 0.29297 0.13132
# Poissons Ratio (y) = 0.27488 0.38322
# Poissons Ratio (z) = 0.11532 0.35868
#
# Static dielectric constant tensor:
#      x y z
#    x 1.924500 -0.000010 -0.029000 
#    y -0.000010 1.864200 0.000000 
#    z -0.029000 0.000000 1.929640 
# 
# From -- ./inp_files/16429.got.cif
#   From: 2010.05.17/outbox.cif.g08.bks.cpg/sg5_9_cif.got.tgz:16429.got - 2010.06.03 18:56:24.
