data_PCOD9123804
_publ_section_title
;
Structure prediction by ZEFSAII (Michael W. Deem and Ramdas Pophale) SiO2 
 PCOD9123804
Probable space group: C 2
;
_chemical_formula_sum "Si O2"
_cell_formula_units_Z 24
_cell_length_a 13.807162
_cell_length_b 6.604510
_cell_length_c 13.228702
_cell_angle_alpha 90.000000
_cell_angle_beta 87.989098
_cell_angle_gamma 90.000000
_cell_volume 1205.576354
_symmetry_space_group_name_H-M "C 2"
_symmetry_group_IT_number 5
_symmetry_cell_setting 'monoclinic'
loop_
_space_group_symop_operation_xyz
x,y,z
-x,y,-z
1/2+x,1/2+y,z
1/2-x,1/2+y,-z
loop_
_atom_site_type_symbol
_atom_site_label
_atom_site_fract_x
_atom_site_fract_y
_atom_site_fract_z
Si Si1 0.328091 0.511500 0.376223
Si Si2 0.763882 0.629883 0.263528
Si Si3 0.148991 0.753458 0.345762
Si Si4 0.500000 0.844653 0.000000
Si Si5 0.616080 0.933697 0.181186
Si Si6 0.500000 0.398127 0.500000
Si Si7 0.586208 0.789741 0.797103
O O1 0.307257 0.281617 0.345240
O O2 0.228716 0.626620 0.406080
O O3 0.411342 0.522727 0.456069
O O4 0.365786 0.622296 0.273668
O O5 0.691057 0.473465 0.319579
O O6 0.847008 0.490336 0.210477
O O7 0.702975 0.773558 0.189642
O O8 0.140507 0.635917 0.240017
O O9 0.049034 0.769144 0.408996
O O10 0.563729 0.727915 0.913912
O O11 0.424917 0.963658 0.930483
O O12 0.521116 0.840297 0.239749
#
# Coordination Sequence:
#
# PCOD9123804 Si02
#       7
#     4   4   4   2   4   2   4
#     4  10  23  41  62  92 130 165 214 260 314 376
#     4  10  20  40  64  88 134 162 206 268 308 374
#     4  10  23  41  62  92 130 165 214 260 314 376
#     4   8  20  40  62  90 120 164 208 248 326 370
#     4   9  19  41  60  91 124 162 207 263 308 374
#     4  12  24  40  70  92 120 178 204 256 330 360
#     4   9  19  41  60  91 124 162 207 263 308 374
#
# _framework density 19.907489999999999
#
# number of rings (size 3 to 8) (size 9 to 14) (size 15 to 20)
#    1.000    1.333    0.000    2.000    2.333    0.000 
#    9.000    8.333    0.000    0.000    0.000    0.000 
#    0.000    0.000    0.000    0.000    0.000    0.000 
#
# Total GULP energy -66828.835677 kJ/mol
# GULP energy per Si atom -5569.069640 kJ/mol
# Density = 1.986218 g / cm^3
# Si number density = 19.907490 Si / 1000 Ang^3
#
#
#
# Elastic Constant Matrix: (Units=GPa)
#
#
# Indices 1 2 3 4 5 6 
#
# 1 67.8841 6.3350 8.9867 0.0000 23.5486 0.0000
# 2 6.3350 75.8932 18.1544 0.0000 6.3843 0.0000
# 3 8.9867 18.1544 69.9840 0.0000 20.7847 0.0000
# 4 0.0000 0.0000 0.0000 21.4458 0.0000 -6.5735
# 5 23.5486 6.3843 20.7847 0.0000 40.4664 0.0000
# 6 0.0000 0.0000 0.0000 -6.5735 0.0000 27.6187
#
#
#
# Elastic Compliance Matrix: (Units=1/GPa)
#
#
# Indices 1 2 3 4 5 6 
#
# 1 0.018568 -0.000887 0.001196 0.000000 -0.011280 0.000000
# 2 -0.000887 0.014096 -0.003582 0.000000 0.000132 0.000000
# 3 0.001196 -0.003582 0.017822 0.000000 -0.009285 0.000000
# 4 0.000000 0.000000 0.000000 0.050299 0.000000 0.011972
# 5 -0.011280 0.000132 -0.009285 0.000000 0.036024 0.000000
# 6 0.000000 0.000000 0.000000 0.011972 0.000000 0.039057
#
#
# Mechanical properties :
#
#
# Convention : Reuss Voigt Hill
#
# Bulk Modulus (GPa) = 22.75835 31.19038 26.97437
# Shear Modulus (GPa) = 25.37307 29.92520 27.64913
#
# Velocity S-wave (km/s) = 3.57396 3.88134 3.73081
# Velocity P-wave (km/s) = 5.33739 5.98231 5.66903
#
# Compressibility (1/GPa) = 0.04393991
#
# Stress axis : x y z
#
# Youngs Moduli (GPa) = 53.85511 70.94112 56.11011
#
# Poissons Ratio (x) = 0.06293 -0.06709
# Poissons Ratio (y) = 0.04777 0.20099
# Poissons Ratio (z) = -0.06440 0.25411
#
# Static dielectric constant tensor:
#      x y z
#    x 1.728770 0.000000 0.016530 
#    y 0.000000 1.681910 0.000000 
#    z 0.016530 0.000000 1.713680 
# 
# From -- ./inp_files/53681.got.cif
#   From: 2010.05.17/outbox.cif.g08.bks.cpg/sg5_27_cif.got.tgz:53681.got - 2010.06.03 18:56:24.
