data_PCOD9123659
_publ_section_title
;
Structure prediction by ZEFSAII (Michael W. Deem and Ramdas Pophale) SiO2 
 PCOD9123659
Probable space group: C 2
;
_chemical_formula_sum "Si O2"
_cell_formula_units_Z 24
_cell_length_a 14.613633
_cell_length_b 7.414730
_cell_length_c 15.144771
_cell_angle_alpha 90.000000
_cell_angle_beta 38.049142
_cell_angle_gamma 90.000000
_cell_volume 1011.427067
_symmetry_space_group_name_H-M "C 2"
_symmetry_group_IT_number 5
_symmetry_cell_setting 'monoclinic'
loop_
_space_group_symop_operation_xyz
x,y,z
-x,y,-z
1/2+x,1/2+y,z
1/2-x,1/2+y,-z
loop_
_atom_site_type_symbol
_atom_site_label
_atom_site_fract_x
_atom_site_fract_y
_atom_site_fract_z
Si Si1 0.085623 0.919420 0.210195
Si Si2 0.347376 0.731089 0.566087
Si Si3 0.031751 0.826677 0.883886
Si Si4 0.580781 0.760153 0.677838
Si Si5 0.573592 0.921630 0.034877
Si Si6 0.114317 0.797888 0.490524
O O1 0.041889 0.924138 0.141908
O O2 0.979414 0.791651 0.347855
O O3 0.254311 0.872715 0.096895
O O4 0.039869 0.121595 0.270642
O O5 0.500000 0.772587 0.500000
O O6 0.202926 0.787675 0.731256
O O7 0.149381 0.327172 0.532670
O O8 0.340773 0.510549 0.559751
O O9 0.945427 0.636774 0.954762
O O10 0.000000 0.922264 0.000000
O O11 0.498035 0.869577 0.816868
O O12 0.730223 0.695958 0.615885
O O13 0.500000 0.852129 0.000000
O O14 0.000000 0.745966 0.500000
#
# Coordination Sequence:
#
# PCOD9123659 Si02
#       6
#     4   4   4   4   4   4
#     4  11  24  40  61  95 129 160 200 263 316 357
#     4  10  22  39  66  93 119 165 212 251 303 371
#     4  11  24  41  63  91 127 165 206 254 308 377
#     4  11  22  40  68  93 123 161 209 262 306 360
#     4  11  24  41  67  92 121 167 215 248 304 375
#     4  10  20  39  66  91 122 161 211 253 298 371
#
# _framework density 23.728847999999999
#
# number of rings (size 3 to 8) (size 9 to 14) (size 15 to 20)
#    0.000    1.333    3.333    2.000   14.000    0.667 
#    0.000    2.500    0.000    0.000    0.000    0.000 
#    0.000    0.000    0.000    0.000    0.000    0.000 
#
# Total GULP energy -67036.084768 kJ/mol
# GULP energy per Si atom -5586.340397 kJ/mol
# Density = 2.367484 g / cm^3
# Si number density = 23.728848 Si / 1000 Ang^3
#
#
#
# Elastic Constant Matrix: (Units=GPa)
#
#
# Indices 1 2 3 4 5 6 
#
# 1 144.0902 -12.6852 66.3461 0.0000 -13.2434 0.0001
# 2 -12.6852 35.8275 -0.7523 0.0000 -0.7057 0.0001
# 3 66.3461 -0.7523 148.7756 0.0000 -8.8035 0.0001
# 4 0.0000 0.0000 0.0000 22.7387 0.0000 2.8810
# 5 -13.2434 -0.7057 -8.8035 0.0000 58.6679 0.0000
# 6 0.0001 0.0001 0.0001 2.8810 0.0000 20.0488
#
#
#
# Elastic Compliance Matrix: (Units=1/GPa)
#
#
# Indices 1 2 3 4 5 6 
#
# 1 0.009202 0.003204 -0.003998 0.000000 0.001516 0.000000
# 2 0.003204 0.029038 -0.001229 0.000000 0.000888 0.000000
# 3 -0.003998 -0.001229 0.008520 0.000000 0.000361 0.000000
# 4 0.000000 0.000000 0.000000 0.044793 0.000000 -0.006437
# 5 0.001516 0.000888 0.000361 0.000000 0.017452 0.000000
# 6 0.000000 0.000000 0.000000 -0.006437 0.000000 0.050803
#
#
# Mechanical properties :
#
#
# Convention : Reuss Voigt Hill
#
# Bulk Modulus (GPa) = 23.41205 48.27893 35.84549
# Shear Modulus (GPa) = 28.07531 38.67673 33.37602
#
# Velocity S-wave (km/s) = 3.44346 4.04164 3.75448
# Velocity P-wave (km/s) = 5.06930 6.49385 5.82528
#
# Compressibility (1/GPa) = 0.04271305
#
# Stress axis : x y z
#
# Youngs Moduli (GPa) = 108.66850 34.43804 117.37758
#
# Poissons Ratio (x) = -0.11034 0.46926
# Poissons Ratio (y) = -0.34818 0.14431
# Poissons Ratio (z) = 0.43444 0.04234
#
# Static dielectric constant tensor:
#      x y z
#    x 1.916410 0.000000 0.058220 
#    y 0.000000 1.973430 0.000000 
#    z 0.058220 0.000000 1.933900 
# 
# From -- ./inp_files/54078.got.cif
#   From: 2010.05.17/outbox.cif.g08.bks.cpg/sg5_28_cif.got.tgz:54078.got - 2010.06.03 18:56:24.
