data_PCOD9123223
_publ_section_title
;
Structure prediction by ZEFSAII (Michael W. Deem and Ramdas Pophale) SiO2 
 PCOD9123223
Probable space group: C 2
;
_chemical_formula_sum "Si O2"
_cell_formula_units_Z 20
_cell_length_a 8.719268
_cell_length_b 14.385172
_cell_length_c 13.166810
_cell_angle_alpha 90.000000
_cell_angle_beta 32.489460
_cell_angle_gamma 90.000000
_cell_volume 887.088089
_symmetry_space_group_name_H-M "C 2"
_symmetry_group_IT_number 5
_symmetry_cell_setting 'monoclinic'
loop_
_space_group_symop_operation_xyz
x,y,z
-x,y,-z
1/2+x,1/2+y,z
1/2-x,1/2+y,-z
loop_
_atom_site_type_symbol
_atom_site_label
_atom_site_fract_x
_atom_site_fract_y
_atom_site_fract_z
Si Si1 0.500000 0.910161 0.000000
Si Si2 0.146899 0.584995 0.016933
Si Si3 0.930665 0.471393 0.420496
Si Si4 0.500000 0.549273 0.000000
Si Si5 0.269214 0.141107 0.400556
Si Si6 0.987474 0.807815 0.621462
O O1 0.686751 0.853304 0.817509
O O2 0.291269 0.981778 0.058386
O O3 0.399644 0.608073 0.955660
O O4 0.884826 0.582247 0.241298
O O5 0.000000 0.634908 0.000000
O O6 0.745473 0.565265 0.502256
O O7 0.739928 0.384120 0.492515
O O8 0.000000 0.462967 0.500000
O O9 0.228377 0.489293 0.192045
O O10 0.467962 0.222403 0.328077
O O11 0.000000 0.188929 0.500000
O O12 0.000000 0.773050 0.500000
#
# Coordination Sequence:
#
# PCOD9123223 Si02
#       6
#     2   4   4   2   4   4
#     4  10  22  45  72  95 140 184 230 297 354 405
#     4   9  21  41  69  97 129 181 231 279 352 405
#     4  11  23  41  71  98 138 180 231 286 350 416
#     4  10  20  37  68 107 128 176 234 277 346 423
#     4  11  24  43  65 100 139 181 233 287 346 416
#     4  12  25  44  68 104 141 183 232 288 348 422
#
# _framework density 22.545676
#
# number of rings (size 3 to 8) (size 9 to 14) (size 15 to 20)
#    0.600    0.800    0.000    6.600    2.800    3.200 
#    3.600    0.000    2.200    0.000    0.000    0.000 
#    0.000    0.000    0.000    0.000    0.000    0.000 
#
# Total GULP energy -55671.630264 kJ/mol
# GULP energy per Si atom -5567.163026 kJ/mol
# Density = 2.249436 g / cm^3
# Si number density = 22.545676 Si / 1000 Ang^3
#
#
#
# Elastic Constant Matrix: (Units=GPa)
#
#
# Indices 1 2 3 4 5 6 
#
# 1 140.5232 -0.9082 19.3202 0.0078 -5.5180 0.0013
# 2 -0.9082 52.5280 -3.8924 -0.0147 -3.7846 0.0053
# 3 19.3202 -3.8924 84.4493 -0.0163 6.3830 -0.0091
# 4 0.0078 -0.0147 -0.0163 -7.7453 0.0047 5.5724
# 5 -5.5180 -3.7846 6.3830 0.0047 36.0689 0.0067
# 6 0.0013 0.0053 -0.0091 5.5724 0.0067 25.3034
#
#
#
# Elastic Compliance Matrix: (Units=1/GPa)
#
#
# Indices 1 2 3 4 5 6 
#
# 1 0.007423 0.000100 -0.001804 0.000009 0.001465 -0.000004
# 2 0.000100 0.019230 0.000719 -0.000034 0.001906 0.000003
# 3 -0.001804 0.000719 0.012469 -0.000023 -0.002407 0.000010
# 4 0.000009 -0.000034 -0.000023 -0.111453 0.000012 0.024544
# 5 0.001465 0.001906 -0.002407 0.000012 0.028575 -0.000012
# 6 -0.000004 0.000003 0.000010 0.024544 -0.000012 0.034115
#
#
# Mechanical properties :
#
#
# Convention : Reuss Voigt Hill
#
# Bulk Modulus (GPa) = 26.91626 34.05997 30.48812
# Shear Modulus (GPa) = 1061.03662 28.25747 544.64705
#
# Velocity S-wave (km/s) = 21.71723 3.54410 15.55954
# Velocity P-wave (km/s) = 25.31433 5.64689 18.33988
#
# Compressibility (1/GPa) = 0.03715226
#
# Stress axis : x y z
#
# Youngs Moduli (GPa) = 134.72529 52.00261 80.19696
#
# Poissons Ratio (x) = -0.00521 0.14470
# Poissons Ratio (y) = -0.01350 -0.05769
# Poissons Ratio (z) = 0.24308 -0.03741
#
# Static dielectric constant tensor:
#      x y z
#    x 1.890720 0.000000 -0.081890 
#    y 0.000000 1.779520 0.000000 
#    z -0.081890 0.000000 1.886810 
# 
# From -- ./inp_files/51265.got.cif
#   From: 2010.05.17/outbox.cif.g08.bks.cpg/sg5_26_cif.got.tgz:51265.got - 2010.06.03 18:56:24.
