data_PCOD9123536
_publ_section_title
;
Structure prediction by ZEFSAII (Michael W. Deem and Ramdas Pophale) SiO2 
 PCOD9123536
Probable space group: C 2
;
_chemical_formula_sum "Si O2"
_cell_formula_units_Z 26
_cell_length_a 17.704425
_cell_length_b 5.434497
_cell_length_c 25.763892
_cell_angle_alpha 90.000000
_cell_angle_beta 29.974156
_cell_angle_gamma 90.000000
_cell_volume 1238.463406
_symmetry_space_group_name_H-M "C 2"
_symmetry_group_IT_number 5
_symmetry_cell_setting 'monoclinic'
loop_
_space_group_symop_operation_xyz
x,y,z
-x,y,-z
1/2+x,1/2+y,z
1/2-x,1/2+y,-z
loop_
_atom_site_type_symbol
_atom_site_label
_atom_site_fract_x
_atom_site_fract_y
_atom_site_fract_z
Si Si1 0.000000 0.708190 0.500000
Si Si2 0.005293 0.841237 0.693196
Si Si3 0.117749 0.658369 0.763777
Si Si4 0.070879 0.343946 0.200280
Si Si5 0.607000 0.506496 0.347314
Si Si6 0.185277 0.332583 0.452774
Si Si7 0.316769 0.394345 0.981172
O O1 0.899211 0.571058 0.517599
O O2 0.885065 0.849153 0.604889
O O3 0.962955 0.576161 0.742195
O O4 0.187661 0.852317 0.579089
O O5 0.968494 0.079757 0.751385
O O6 0.919262 0.870779 0.690540
O O7 0.232464 0.637669 0.743823
O O8 0.219242 0.751269 0.654919
O O9 0.029407 0.422789 0.790942
O O10 0.986414 0.839462 0.862297
O O11 0.247613 0.346163 0.079328
O O12 0.454370 0.662957 0.447548
O O13 0.272221 0.675635 0.996417
#
# Coordination Sequence:
#
# PCOD9123536 Si02
#       7
#     2   4   4   4   4   4   4
#     4  12  22  40  64  86 130 168 224 270 304 380
#     4  11  27  40  67  92 135 176 212 261 333 385
#     4  10  20  42  66  96 125 167 217 273 317 375
#     4  10  22  45  65  97 128 168 218 268 321 392
#     4  12  25  41  60  98 127 174 218 266 319 387
#     4  11  23  40  60  91 133 167 216 266 317 383
#     4  10  20  38  71 101 126 163 218 273 326 379
#
# _framework density 20.993756000000001
#
# number of rings (size 3 to 8) (size 9 to 14) (size 15 to 20)
#    0.000    1.231    3.077    3.692    6.462    1.231 
#    0.000    0.769    0.000    5.538    0.000    0.000 
#    0.000    0.000    0.000    0.000    0.000    0.000 
#
# Total GULP energy -72415.443283 kJ/mol
# GULP energy per Si atom -5570.418714 kJ/mol
# Density = 2.094597 g / cm^3
# Si number density = 20.993756 Si / 1000 Ang^3
#
#
#
# Elastic Constant Matrix: (Units=GPa)
#
#
# Indices 1 2 3 4 5 6 
#
# 1 84.6191 1.3858 20.6199 0.0144 -12.4014 -0.0142
# 2 1.3858 64.0405 17.8350 0.0129 3.8814 -0.0227
# 3 20.6199 17.8350 94.0788 0.0017 -15.8059 -0.0002
# 4 0.0144 0.0129 0.0017 -6.7501 0.0036 -23.5389
# 5 -12.4014 3.8814 -15.8059 0.0036 16.9874 -0.0044
# 6 -0.0142 -0.0227 -0.0002 -23.5389 -0.0044 3.2020
#
#
#
# Elastic Compliance Matrix: (Units=1/GPa)
#
#
# Indices 1 2 3 4 5 6 
#
# 1 0.013428 -0.000413 -0.001425 -0.000008 0.008572 0.000011
# 2 -0.000413 0.017447 -0.004667 -0.000013 -0.008630 0.000011
# 3 -0.001425 -0.004667 0.014023 0.000003 0.013074 -0.000001
# 4 -0.000008 -0.000013 0.000003 -0.005562 -0.000010 -0.040888
# 5 0.008572 -0.008630 0.013074 -0.000010 0.079261 0.000017
# 6 0.000011 0.000011 -0.000001 -0.040888 0.000017 0.011725
#
#
# Mechanical properties :
#
#
# Convention : Reuss Voigt Hill
#
# Bulk Modulus (GPa) = 31.35986 35.82443 33.59214
# Shear Modulus (GPa) = 32.47581 16.21439 24.34510
#
# Velocity S-wave (km/s) = 3.93737 2.78212 3.40904
# Velocity P-wave (km/s) = 5.96998 5.23657 5.61526
#
# Compressibility (1/GPa) = 0.03188790
#
# Stress axis : x y z
#
# Youngs Moduli (GPa) = 74.47226 57.31694 71.31223
#
# Poissons Ratio (x) = 0.02369 0.10159
# Poissons Ratio (y) = 0.03078 0.33281
# Poissons Ratio (z) = 0.10609 0.26749
#
# Static dielectric constant tensor:
#      x y z
#    x 1.838070 0.000000 -0.025720 
#    y 0.000000 1.850110 0.000000 
#    z -0.025720 0.000000 1.807630 
# 
# From -- ./inp_files/61998.got.cif
#   From: 2010.05.17/outbox.cif.g08.bks.cpg/sg5_31_cif.got.tgz:61998.got - 2010.06.03 18:56:24.
