data_PCOD9123143
_publ_section_title
;
Structure prediction by ZEFSAII (Michael W. Deem and Ramdas Pophale) SiO2 
 PCOD9123143
Probable space group: C 2
;
_chemical_formula_sum "Si O2"
_cell_formula_units_Z 30
_cell_length_a 10.486447
_cell_length_b 14.884919
_cell_length_c 17.906960
_cell_angle_alpha 90.000000
_cell_angle_beta 31.852843
_cell_angle_gamma 90.000000
_cell_volume 1475.082246
_symmetry_space_group_name_H-M "C 2"
_symmetry_group_IT_number 5
_symmetry_cell_setting 'monoclinic'
loop_
_space_group_symop_operation_xyz
x,y,z
-x,y,-z
1/2+x,1/2+y,z
1/2-x,1/2+y,-z
loop_
_atom_site_type_symbol
_atom_site_label
_atom_site_fract_x
_atom_site_fract_y
_atom_site_fract_z
Si Si1 0.451959 0.370280 0.197489
Si Si2 0.500000 0.640474 0.500000
Si Si3 0.353508 0.558571 0.926322
Si Si4 0.640861 0.275133 0.599045
Si Si5 0.204262 0.174712 0.848914
Si Si6 0.268493 0.257578 0.062534
Si Si7 0.048221 0.544886 0.763079
Si Si8 0.012196 0.370453 0.682471
O O1 0.537128 0.472366 0.168090
O O2 0.396888 0.327446 0.304529
O O3 0.211896 0.371075 0.264741
O O4 0.649285 0.311008 0.053072
O O5 0.341635 0.700226 0.521835
O O6 0.682130 0.579647 0.361380
O O7 0.559513 0.593694 0.881658
O O8 0.288126 0.652681 0.920362
O O9 0.110980 0.520809 0.086349
O O10 0.376854 0.233970 0.711101
O O11 0.755899 0.335297 0.477398
O O12 0.397036 0.129929 0.808030
O O13 0.000000 0.223696 0.000000
O O14 0.057983 0.306223 0.213341
O O15 0.500000 0.264397 0.000000
O O16 0.043726 0.467856 0.703398
#
# Coordination Sequence:
#
# PCOD9123143 Si02
#       8
#     4   2   4   4   4   4   4   4
#     4  11  20  40  64  90 126 165 207 250 301 376
#     4  10  20  38  60  86 124 160 202 250 312 360
#     4  11  21  40  66  93 120 159 213 260 305 357
#     4  11  22  40  62  93 126 164 202 251 311 369
#     4   9  19  36  64  89 118 158 210 251 300 366
#     4  10  23  39  64  92 124 160 210 258 303 368
#     4  10  20  37  63  92 116 163 205 251 303 374
#     4  11  21  40  60  91 125 162 205 250 306 374
#
# _framework density 20.337848000000001
#
# number of rings (size 3 to 8) (size 9 to 14) (size 15 to 20)
#    0.000    1.600    4.000    2.400    1.867    0.000 
#    7.200    2.000    0.000    0.000    0.000    0.000 
#    0.000    0.000    0.000    0.000    0.000    0.000 
#
# Total GULP energy -83658.196924 kJ/mol
# GULP energy per Si atom -5577.213128 kJ/mol
# Density = 2.029156 g / cm^3
# Si number density = 20.337848 Si / 1000 Ang^3
#
#
#
# Elastic Constant Matrix: (Units=GPa)
#
#
# Indices 1 2 3 4 5 6 
#
# 1 24.9936 18.5847 29.9727 -0.0006 -3.6052 0.0001
# 2 18.5847 103.9978 72.6098 -0.0093 -1.0135 0.0042
# 3 29.9727 72.6098 164.0574 -0.0146 -5.9874 0.0057
# 4 -0.0006 -0.0093 -0.0146 24.7296 0.0029 1.0012
# 5 -3.6052 -1.0135 -5.9874 0.0029 24.3016 -0.0002
# 6 0.0001 0.0042 0.0057 1.0012 -0.0002 32.8778
#
#
#
# Elastic Compliance Matrix: (Units=1/GPa)
#
#
# Indices 1 2 3 4 5 6 
#
# 1 0.053090 -0.004062 -0.007690 -0.000005 0.005812 0.000002
# 2 -0.004062 0.014248 -0.005615 0.000002 -0.001392 -0.000001
# 3 -0.007690 -0.005615 0.010025 0.000004 0.001095 -0.000001
# 4 -0.000005 0.000002 0.000004 0.040487 -0.000005 -0.001233
# 5 0.005812 -0.001392 0.001095 -0.000005 0.042223 0.000000
# 6 0.000002 -0.000001 -0.000001 -0.001233 0.000000 0.030453
#
#
# Mechanical properties :
#
#
# Convention : Reuss Voigt Hill
#
# Bulk Modulus (GPa) = 23.45701 59.48704 41.47202
# Shear Modulus (GPa) = 20.87940 27.84059 24.36000
#
# Velocity S-wave (km/s) = 3.20758 3.70389 3.46463
# Velocity P-wave (km/s) = 5.02760 6.89961 6.03661
#
# Compressibility (1/GPa) = 0.04263118
#
# Stress axis : x y z
#
# Youngs Moduli (GPa) = 18.83578 70.18530 99.74850
#
# Poissons Ratio (x) = 0.28510 0.76702
# Poissons Ratio (y) = 0.07651 0.56005
# Poissons Ratio (z) = 0.14484 0.39407
#
# Static dielectric constant tensor:
#      x y z
#    x 1.759150 0.000000 0.007670 
#    y 0.000000 1.713300 0.000000 
#    z 0.007670 0.000000 1.781680 
# 
# From -- ./inp_files/60630.got.cif
#   From: 2010.05.17/outbox.cif.g08.bks.cpg/sg5_31_cif.got.tgz:60630.got - 2010.06.03 18:56:24.
