data_PCOD9123297
_publ_section_title
;
Structure prediction by ZEFSAII (Michael W. Deem and Ramdas Pophale) SiO2 
 PCOD9123297
Probable space group: C 2
;
_chemical_formula_sum "Si O2"
_cell_formula_units_Z 32
_cell_length_a 7.871698
_cell_length_b 18.989591
_cell_length_c 15.295868
_cell_angle_alpha 90.000000
_cell_angle_beta 34.576366
_cell_angle_gamma 90.000000
_cell_volume 1297.559291
_symmetry_space_group_name_H-M "C 2"
_symmetry_group_IT_number 5
_symmetry_cell_setting 'monoclinic'
loop_
_space_group_symop_operation_xyz
x,y,z
-x,y,-z
1/2+x,1/2+y,z
1/2-x,1/2+y,-z
loop_
_atom_site_type_symbol
_atom_site_label
_atom_site_fract_x
_atom_site_fract_y
_atom_site_fract_z
Si Si1 0.180361 0.377800 0.515799
Si Si2 0.937878 0.111960 0.319018
Si Si3 0.318728 0.035213 0.416160
Si Si4 0.593257 0.092687 0.133554
Si Si5 0.165033 0.996882 0.099315
Si Si6 0.479165 0.768450 0.750794
Si Si7 0.679250 0.244483 0.047892
Si Si8 0.165123 0.858476 0.179457
O O1 0.119937 0.455999 0.577358
O O2 0.525550 0.373543 0.333318
O O3 0.000000 0.362622 0.500000
O O4 0.117762 0.323687 0.622531
O O5 0.268087 0.105148 0.225597
O O6 0.966826 0.055347 0.230273
O O7 0.874616 0.191491 0.318658
O O8 0.717080 0.083989 0.485171
O O9 0.000000 0.030030 0.500000
O O10 0.533801 0.075367 0.258424
O O11 0.758083 0.163533 0.032191
O O12 0.759598 0.023501 0.027914
O O13 0.026854 0.920756 0.176628
O O14 0.500000 0.000888 0.000000
O O15 0.141119 0.754504 0.861290
O O16 0.420185 0.781407 0.880074
O O17 0.609772 0.279987 0.170562
O O18 0.500000 0.865817 0.000000
#
# Coordination Sequence:
#
# PCOD9123297 Si02
#       8
#     4   4   4   4   4   4   4   4
#     4  12  25  42  61  96 136 172 207 262 329 385
#     4   9  16  33  56  89 117 152 207 264 309 360
#     4  10  22  36  62  94 125 160 218 267 311 373
#     4   9  18  32  60  89 118 153 211 268 307 365
#     4   9  16  32  56  84 113 155 202 259 309 364
#     4  10  21  35  63  91 126 159 210 261 320 378
#     4  10  20  38  60  93 121 164 211 265 313 377
#     4  11  24  39  63  85 127 172 214 258 319 383
#
# _framework density 24.661687000000001
#
# number of rings (size 3 to 8) (size 9 to 14) (size 15 to 20)
#    0.000    2.000    3.750    0.000    5.250    0.500 
#    0.000    0.000    5.500    0.750    0.000    0.000 
#    0.000    0.000    0.000    0.000    0.000    0.000 
#
# Total GULP energy -89251.206558 kJ/mol
# GULP energy per Si atom -5578.200410 kJ/mol
# Density = 2.460556 g / cm^3
# Si number density = 24.661687 Si / 1000 Ang^3
#
#
#
# Elastic Constant Matrix: (Units=GPa)
#
#
# Indices 1 2 3 4 5 6 
#
# 1 73.7081 -18.1316 16.0292 0.0000 -0.4228 0.0003
# 2 -18.1316 111.4221 48.1941 0.0007 24.3762 -0.0003
# 3 16.0292 48.1941 162.8643 -0.0203 26.0030 0.0047
# 4 0.0000 0.0007 -0.0203 35.0571 0.0013 9.2658
# 5 -0.4228 24.3762 26.0030 0.0013 42.6889 -0.0006
# 6 0.0003 -0.0003 0.0047 9.2658 -0.0006 18.2041
#
#
#
# Elastic Compliance Matrix: (Units=1/GPa)
#
#
# Indices 1 2 3 4 5 6 
#
# 1 0.014988 0.003597 -0.002476 -0.000002 -0.000397 0.000001
# 2 0.003597 0.011982 -0.003116 -0.000002 -0.004908 0.000002
# 3 -0.002476 -0.003116 0.007783 0.000006 -0.002986 -0.000005
# 4 -0.000002 -0.000002 0.000006 0.032959 -0.000004 -0.016776
# 5 -0.000397 -0.004908 -0.002986 -0.000004 0.028043 0.000003
# 6 0.000001 0.000002 -0.000005 -0.016776 0.000003 0.063472
#
#
# Mechanical properties :
#
#
# Convention : Reuss Voigt Hill
#
# Bulk Modulus (GPa) = 32.50761 48.90864 40.70813
# Shear Modulus (GPa) = 28.82344 39.31686 34.07015
#
# Velocity S-wave (km/s) = 3.42241 3.99714 3.72089
# Velocity P-wave (km/s) = 5.36910 6.41698 5.91629
#
# Compressibility (1/GPa) = 0.03076203
#
# Stress axis : x y z
#
# Youngs Moduli (GPa) = 66.71988 83.46030 128.49252
#
# Poissons Ratio (x) = -0.30020 0.31816
# Poissons Ratio (y) = -0.23998 0.40038
# Poissons Ratio (z) = 0.16520 0.26006
#
# Static dielectric constant tensor:
#      x y z
#    x 2.123290 -0.000010 -0.114840 
#    y -0.000010 1.957200 0.000010 
#    z -0.114840 0.000010 1.985750 
# 
# From -- ./inp_files/60794.got.cif
#   From: 2010.05.17/outbox.cif.g08.bks.cpg/sg5_31_cif.got.tgz:60794.got - 2010.06.03 18:56:24.
