data_PCOD9123159
_publ_section_title
;
Structure prediction by ZEFSAII (Michael W. Deem and Ramdas Pophale) SiO2 
 PCOD9123159
Probable space group: C 2
;
_chemical_formula_sum "Si O2"
_cell_formula_units_Z 32
_cell_length_a 16.208682
_cell_length_b 11.203322
_cell_length_c 24.815145
_cell_angle_alpha 90.000000
_cell_angle_beta 22.946317
_cell_angle_gamma 90.000000
_cell_volume 1756.828947
_symmetry_space_group_name_H-M "C 2"
_symmetry_group_IT_number 5
_symmetry_cell_setting 'monoclinic'
loop_
_space_group_symop_operation_xyz
x,y,z
-x,y,-z
1/2+x,1/2+y,z
1/2-x,1/2+y,-z
loop_
_atom_site_type_symbol
_atom_site_label
_atom_site_fract_x
_atom_site_fract_y
_atom_site_fract_z
Si Si1 0.277842 0.328750 0.385593
Si Si2 0.659006 0.864119 0.297053
Si Si3 0.669811 0.464882 0.193584
Si Si4 0.792348 0.555162 0.651032
Si Si5 0.402061 0.732895 0.889249
Si Si6 0.059177 0.684797 0.806356
Si Si7 0.530776 0.945620 0.887869
Si Si8 0.247953 0.232467 0.141258
O O1 0.469566 0.380507 0.305427
O O2 0.237504 0.438102 0.368293
O O3 0.338501 0.214534 0.312974
O O4 0.062679 0.312306 0.547697
O O5 0.670651 0.999290 0.311938
O O6 0.848205 0.788844 0.210853
O O7 0.678913 0.838128 0.222284
O O8 0.802426 0.420505 0.165114
O O9 0.633232 0.606672 0.224472
O O10 0.812835 0.464067 0.052890
O O11 0.584185 0.634240 0.774865
O O12 0.000000 0.616243 0.500000
O O13 0.496540 0.842895 0.865199
O O14 0.313276 0.761028 0.883092
O O15 0.193714 0.691172 0.046538
O O16 0.100479 0.562563 0.812971
O O17 0.500000 0.210974 0.000000
#
# Coordination Sequence:
#
# PCOD9123159 Si02
#       8
#     4   4   4   4   4   4   4   4
#     4  10  20  37  64  87 115 162 202 246 296 357
#     4  10  21  39  62  89 116 158 210 244 287 364
#     4  11  18  38  60  87 116 156 201 239 301 363
#     4   9  20  39  62  86 119 161 202 235 300 367
#     4  12  22  36  64  90 123 154 195 254 306 352
#     4  11  19  35  61  91 118 150 203 252 291 352
#     4  11  22  36  60  93 120 152 201 255 302 353
#     4  12  20  37  64  91 113 152 206 254 290 353
#
# _framework density 18.214635999999999
#
# number of rings (size 3 to 8) (size 9 to 14) (size 15 to 20)
#    0.000    1.250    7.500    1.125    1.750    0.000 
#    2.250    3.750    2.750    0.000    0.000    0.000 
#    0.000    0.000    0.000    0.000    0.000    0.000 
#
# Total GULP energy -89206.869812 kJ/mol
# GULP energy per Si atom -5575.429363 kJ/mol
# Density = 1.817318 g / cm^3
# Si number density = 18.214636 Si / 1000 Ang^3
#
#
#
# Elastic Constant Matrix: (Units=GPa)
#
#
# Indices 1 2 3 4 5 6 
#
# 1 95.2796 35.3666 29.9678 -0.0234 -0.7108 0.0120
# 2 35.3666 43.4901 26.8185 0.0042 3.2045 0.0009
# 3 29.9678 26.8185 107.0611 -0.0006 -8.3657 0.0218
# 4 -0.0234 0.0042 -0.0006 22.5971 0.0153 -3.0041
# 5 -0.7108 3.2045 -8.3657 0.0153 22.0204 -0.0073
# 6 0.0120 0.0009 0.0218 -3.0041 -0.0073 24.2954
#
#
#
# Elastic Compliance Matrix: (Units=1/GPa)
#
#
# Indices 1 2 3 4 5 6 
#
# 1 0.015265 -0.011820 -0.001174 0.000016 0.001767 -0.000004
# 2 -0.011820 0.037355 -0.006702 -0.000013 -0.008364 0.000006
# 3 -0.001174 -0.006702 0.011771 -0.000004 0.005409 -0.000009
# 4 0.000016 -0.000013 -0.000004 0.044993 -0.000029 0.005563
# 5 0.001767 -0.008364 0.005409 -0.000029 0.048742 0.000006
# 6 -0.000004 0.000006 -0.000009 0.005563 0.000006 0.041848
#
#
# Mechanical properties :
#
#
# Convention : Reuss Voigt Hill
#
# Bulk Modulus (GPa) = 40.00265 47.79297 43.89781
# Shear Modulus (GPa) = 20.18572 24.02778 22.10675
#
# Velocity S-wave (km/s) = 3.33260 3.63595 3.48757
# Velocity P-wave (km/s) = 6.06776 6.62741 6.35375
#
# Compressibility (1/GPa) = 0.02499834
#
# Stress axis : x y z
#
# Youngs Moduli (GPa) = 65.50778 26.76996 84.95702
#
# Poissons Ratio (x) = 0.31643 0.09974
# Poissons Ratio (y) = 0.77431 0.56941
# Poissons Ratio (z) = 0.07691 0.17942
#
# Static dielectric constant tensor:
#      x y z
#    x 1.653830 0.000000 -0.007800 
#    y 0.000000 1.617850 0.000000 
#    z -0.007800 0.000000 1.647450 
# 
# From -- ./inp_files/70942.got.cif
#   From: 2010.05.17/outbox.cif.g08.bks.cpg/sg5_36_cif.got.tgz:70942.got - 2010.06.03 18:56:24.
