data_PCOD9123543
_publ_section_title
;
Structure prediction by ZEFSAII (Michael W. Deem and Ramdas Pophale) SiO2 
 PCOD9123543
Probable space group: C 2
;
_chemical_formula_sum "Si O2"
_cell_formula_units_Z 28
_cell_length_a 11.928576
_cell_length_b 14.461107
_cell_length_c 8.494465
_cell_angle_alpha 90.000000
_cell_angle_beta 114.625547
_cell_angle_gamma 90.000000
_cell_volume 1332.030406
_symmetry_space_group_name_H-M "C 2"
_symmetry_group_IT_number 5
_symmetry_cell_setting 'monoclinic'
loop_
_space_group_symop_operation_xyz
x,y,z
-x,y,-z
1/2+x,1/2+y,z
1/2-x,1/2+y,-z
loop_
_atom_site_type_symbol
_atom_site_label
_atom_site_fract_x
_atom_site_fract_y
_atom_site_fract_z
Si Si1 0.000000 0.701620 0.500000
Si Si2 0.870624 0.223956 0.010427
Si Si3 0.365606 0.699458 0.370562
Si Si4 0.854958 0.617492 0.143113
Si Si5 0.351845 0.937174 0.953106
Si Si6 0.000000 0.746862 0.000000
Si Si7 0.649988 0.492188 0.565846
Si Si8 0.151423 0.826285 0.363543
O O1 0.042299 0.636722 0.667084
O O2 0.103423 0.770219 0.489082
O O3 0.873868 0.185064 0.188624
O O4 0.768168 0.164046 0.863866
O O5 0.832938 0.331526 0.993384
O O6 0.000000 0.217474 0.000000
O O7 0.500000 0.730099 0.500000
O O8 0.332927 0.602047 0.432368
O O9 0.269817 0.776165 0.364562
O O10 0.834087 0.513527 0.077403
O O11 0.898398 0.677926 0.015884
O O12 0.249372 0.958808 0.757356
O O13 0.500000 0.945450 0.000000
O O14 0.951008 0.810100 0.830314
O O15 0.500000 0.478976 0.500000
O O16 0.676390 0.430559 0.428687
#
# Coordination Sequence:
#
# PCOD9123543 Si02
#       8
#     2   4   4   4   4   2   4   4
#     4  10  24  36  72 106 136 172 240 304 336 406
#     4  11  25  45  71 100 142 187 229 286 354 426
#     4  11  26  46  68  99 144 188 224 288 357 420
#     4  11  21  46  69 100 139 182 240 290 351 414
#     4  11  24  43  72 101 137 190 232 291 359 414
#     4  10  20  38  74 102 136 178 234 304 342 406
#     4  11  24  45  72 100 140 189 233 288 357 417
#     4  11  22  44  73 102 137 186 237 285 353 421
#
# _framework density 21.020541999999999
#
# number of rings (size 3 to 8) (size 9 to 14) (size 15 to 20)
#    0.000    1.143    4.286    0.857   10.000    0.000 
#    3.857    0.000    7.857    0.000    0.000    0.000 
#    0.000    0.000    0.000    0.000    0.000    0.000 
#
# Total GULP energy -78188.452047 kJ/mol
# GULP energy per Si atom -5584.889432 kJ/mol
# Density = 2.097270 g / cm^3
# Si number density = 21.020542 Si / 1000 Ang^3
#
#
#
# Elastic Constant Matrix: (Units=GPa)
#
#
# Indices 1 2 3 4 5 6 
#
# 1 68.5596 37.2622 19.0438 0.0000 6.6467 0.0000
# 2 37.2622 116.6260 11.5856 0.0000 -0.6401 0.0000
# 3 19.0438 11.5856 61.4717 0.0000 7.7931 0.0000
# 4 0.0000 0.0000 0.0000 28.3292 0.0000 -10.2319
# 5 6.6467 -0.6401 7.7931 0.0000 33.5564 0.0000
# 6 0.0000 0.0000 0.0000 -10.2319 0.0000 15.9193
#
#
#
# Elastic Compliance Matrix: (Units=1/GPa)
#
#
# Indices 1 2 3 4 5 6 
#
# 1 0.019220 -0.005708 -0.004515 0.000000 -0.002867 0.000000
# 2 -0.005708 0.010444 -0.000380 0.000000 0.001418 0.000000
# 3 -0.004515 -0.000380 0.018160 0.000000 -0.003330 0.000000
# 4 0.000000 0.000000 0.000000 0.045971 0.000000 0.029547
# 5 -0.002867 0.001418 -0.003330 0.000000 0.031169 0.000000
# 6 0.000000 0.000000 0.000000 0.029547 0.000000 0.081808
#
#
# Mechanical properties :
#
#
# Convention : Reuss Voigt Hill
#
# Bulk Modulus (GPa) = 37.56811 42.49337 40.03074
# Shear Modulus (GPa) = 21.11035 27.47870 24.29452
#
# Velocity S-wave (km/s) = 3.17246 3.61949 3.40332
# Velocity P-wave (km/s) = 5.59734 6.14220 5.87609
#
# Compressibility (1/GPa) = 0.02661832
#
# Stress axis : x y z
#
# Youngs Moduli (GPa) = 52.02811 95.75160 55.06548
#
# Poissons Ratio (x) = 0.54656 0.24863
# Poissons Ratio (y) = 0.29698 0.02091
# Poissons Ratio (z) = 0.23491 0.03636
#
# Static dielectric constant tensor:
#      x y z
#    x 1.800300 0.000000 0.061720 
#    y 0.000000 1.730250 0.000000 
#    z 0.061720 0.000000 1.821770 
# 
# From -- ./inp_files/20762.got.cif
#   From: 2010.05.17/outbox.cif.g08.bks.cpg/sg5_11_cif.got.tgz:20762.got - 2010.06.03 18:56:24.
