data_PCOD9123735
_publ_section_title
;
Structure prediction by ZEFSAII (Michael W. Deem and Ramdas Pophale) SiO2 
 PCOD9123735
Probable space group: C 2
;
_chemical_formula_sum "Si O2"
_cell_formula_units_Z 20
_cell_length_a 18.830843
_cell_length_b 6.341065
_cell_length_c 8.940585
_cell_angle_alpha 90.000000
_cell_angle_beta 129.362133
_cell_angle_gamma 90.000000
_cell_volume 825.397774
_symmetry_space_group_name_H-M "C 2"
_symmetry_group_IT_number 5
_symmetry_cell_setting 'monoclinic'
loop_
_space_group_symop_operation_xyz
x,y,z
-x,y,-z
1/2+x,1/2+y,z
1/2-x,1/2+y,-z
loop_
_atom_site_type_symbol
_atom_site_label
_atom_site_fract_x
_atom_site_fract_y
_atom_site_fract_z
Si Si1 0.670231 0.194670 0.552596
Si Si2 0.155327 0.272398 0.402897
Si Si3 0.115908 0.480702 0.907687
Si Si4 0.500000 0.202548 0.500000
Si Si5 0.500000 0.739830 0.000000
Si Si6 0.231659 0.306590 0.811716
O O1 0.748639 0.298004 0.557112
O O2 0.587667 0.304322 0.533072
O O3 0.624155 0.015461 0.384506
O O4 0.728850 0.046847 0.746417
O O5 0.177172 0.199950 0.600725
O O6 0.077496 0.139181 0.213006
O O7 0.180892 0.320096 0.902281
O O8 0.047514 0.560474 0.688842
O O9 0.064652 0.370712 0.974737
O O10 0.174936 0.680177 0.043127
#
# Coordination Sequence:
#
# PCOD9123735 Si02
#       6
#     4   4   4   2   2   4
#     4   9  20  40  62  88 126 159 206 255 302 368
#     4  10  21  40  61  93 121 164 207 256 305 368
#     4  11  21  40  64  93 121 167 209 253 312 373
#     4  10  20  40  60  90 120 164 206 248 306 376
#     4  12  22  34  72  90 122 170 210 250 316 372
#     4   9  23  38  65  89 127 160 208 252 312 367
#
# _framework density 24.230743
#
# number of rings (size 3 to 8) (size 9 to 14) (size 15 to 20)
#    1.200    0.800    2.000    1.200    5.600    0.000 
#    0.000    3.000    0.000    1.200    0.000    0.000 
#    0.000    0.000    0.000    0.000    0.000    0.000 
#
# Total GULP energy -55693.431734 kJ/mol
# GULP energy per Si atom -5569.343173 kJ/mol
# Density = 2.417559 g / cm^3
# Si number density = 24.230743 Si / 1000 Ang^3
#
#
#
# Elastic Constant Matrix: (Units=GPa)
#
#
# Indices 1 2 3 4 5 6 
#
# 1 145.7228 39.1928 -28.8527 0.0000 -8.8706 0.0000
# 2 39.1928 27.3590 12.5931 0.0000 -1.2107 0.0000
# 3 -28.8527 12.5931 135.0899 0.0000 -4.3761 0.0000
# 4 0.0000 0.0000 0.0000 -7.8290 0.0000 5.5528
# 5 -8.8706 -1.2107 -4.3761 0.0000 42.9753 0.0000
# 6 0.0000 0.0000 0.0000 5.5528 0.0000 33.5247
#
#
#
# Elastic Compliance Matrix: (Units=1/GPa)
#
#
# Indices 1 2 3 4 5 6 
#
# 1 0.014110 -0.022482 0.005200 0.000000 0.002809 0.000000
# 2 -0.022482 0.074034 -0.011825 0.000000 -0.003759 0.000000
# 3 0.005200 -0.011825 0.009671 0.000000 0.001725 0.000000
# 4 0.000000 0.000000 0.000000 -0.114302 0.000000 0.018932
# 5 0.002809 -0.003759 0.001725 0.000000 0.023919 0.000000
# 6 0.000000 0.000000 0.000000 0.018932 0.000000 0.026693
#
#
# Mechanical properties :
#
#
# Convention : Reuss Voigt Hill
#
# Bulk Modulus (GPa) = 25.25142 39.33757 32.29449
# Shear Modulus (GPa) = 47.37636 32.75008 40.06322
#
# Velocity S-wave (km/s) = 4.42658 3.68039 4.07062
# Velocity P-wave (km/s) = 6.04731 5.85920 5.95400
#
# Compressibility (1/GPa) = 0.03960174
#
# Stress axis : x y z
#
# Youngs Moduli (GPa) = 70.87388 13.50732 103.39791
#
# Poissons Ratio (x) = 0.30367 -0.53770
# Poissons Ratio (y) = 1.59338 1.22268
# Poissons Ratio (z) = -0.36857 0.15972
#
# Static dielectric constant tensor:
#      x y z
#    x 1.951290 0.000000 0.017680 
#    y 0.000000 1.987520 0.000000 
#    z 0.017680 0.000000 2.008790 
# 
# From -- ./inp_files/26630.got.cif
#   From: 2010.05.17/outbox.cif.g08.bks.cpg/sg5_14_cif.got.tgz:26630.got - 2010.06.03 18:56:24.
