data_PCOD9123117
_publ_section_title
;
Structure prediction by ZEFSAII (Michael W. Deem and Ramdas Pophale) SiO2 
 PCOD9123117
Probable space group: C 2
;
_chemical_formula_sum "Si O2"
_cell_formula_units_Z 20
_cell_length_a 8.137928
_cell_length_b 23.670514
_cell_length_c 7.427529
_cell_angle_alpha 90.000000
_cell_angle_beta 37.458089
_cell_angle_gamma 90.000000
_cell_volume 870.159155
_symmetry_space_group_name_H-M "C 2"
_symmetry_group_IT_number 5
_symmetry_cell_setting 'monoclinic'
loop_
_space_group_symop_operation_xyz
x,y,z
-x,y,-z
1/2+x,1/2+y,z
1/2-x,1/2+y,-z
loop_
_atom_site_type_symbol
_atom_site_label
_atom_site_fract_x
_atom_site_fract_y
_atom_site_fract_z
Si Si1 0.940198 0.083360 0.337708
Si Si2 0.718944 0.861600 0.653557
Si Si3 0.777482 0.760601 0.343203
Si Si4 0.944091 0.652572 0.832399
Si Si5 0.296865 0.463688 0.321984
O O1 0.641601 0.107105 0.575508
O O2 0.000000 0.079776 0.500000
O O3 0.946497 0.020909 0.252451
O O4 0.145143 0.128649 0.073533
O O5 0.668383 0.813263 0.550445
O O6 0.750573 0.921278 0.526684
O O7 0.000000 0.846528 0.500000
O O8 0.500000 0.863865 0.000000
O O9 0.500000 0.734228 0.500000
O O10 0.944518 0.714398 0.314562
O O11 0.000000 0.778381 0.000000
O O12 0.000000 0.652909 0.000000
O O13 0.000000 0.475289 0.500000
O O14 0.500000 0.436112 0.000000
#
# Coordination Sequence:
#
# PCOD9123117 Si02
#       5
#     4   4   4   4   4
#     4  10  20  37  62  91 124 165 213 259 309 377
#     4  12  26  44  66  97 131 173 219 269 329 391
#     4  11  21  40  68  98 131 172 217 267 317 383
#     4   9  18  34  61  92 122 164 212 253 306 379
#     4  12  25  43  65  94 130 172 217 272 329 386
#
# _framework density 22.984300000000001
#
# number of rings (size 3 to 8) (size 9 to 14) (size 15 to 20)
#    0.000    1.200    0.000    8.400    0.000    2.400 
#    0.000    4.000    0.000    0.000    0.000    0.000 
#    0.000    0.000    0.000    0.000    0.000    0.000 
#
# Total GULP energy -55929.779684 kJ/mol
# GULP energy per Si atom -5592.977968 kJ/mol
# Density = 2.293199 g / cm^3
# Si number density = 22.984300 Si / 1000 Ang^3
#
#
#
# Elastic Constant Matrix: (Units=GPa)
#
#
# Indices 1 2 3 4 5 6 
#
# 1 68.7964 13.6322 35.2373 0.0000 -2.7863 0.0000
# 2 13.6322 113.0160 29.3643 0.0000 20.7306 0.0000
# 3 35.2373 29.3643 181.5693 0.0000 8.6239 0.0000
# 4 0.0000 0.0000 0.0000 33.1928 0.0000 0.8122
# 5 -2.7863 20.7306 8.6239 0.0000 35.4735 0.0000
# 6 0.0000 0.0000 0.0000 0.8122 0.0000 20.7486
#
#
#
# Elastic Compliance Matrix: (Units=1/GPa)
#
#
# Indices 1 2 3 4 5 6 
#
# 1 0.016588 -0.001766 -0.003080 0.000000 0.003084 0.000000
# 2 -0.001766 0.010434 -0.001061 0.000000 -0.005978 0.000000
# 3 -0.003080 -0.001061 0.006332 0.000000 -0.001161 0.000000
# 4 0.000000 0.000000 0.000000 0.030156 0.000000 -0.001180
# 5 0.003084 -0.005978 -0.001161 0.000000 0.032208 0.000000
# 6 0.000000 0.000000 0.000000 -0.001180 0.000000 0.048242
#
#
# Mechanical properties :
#
#
# Convention : Reuss Voigt Hill
#
# Bulk Modulus (GPa) = 46.42611 57.76104 52.09357
# Shear Modulus (GPa) = 30.68346 36.89282 33.78814
#
# Velocity S-wave (km/s) = 3.65769 4.01076 3.83829
# Velocity P-wave (km/s) = 6.17100 6.82887 6.50825
#
# Compressibility (1/GPa) = 0.02153961
#
# Stress axis : x y z
#
# Youngs Moduli (GPa) = 60.28388 95.84487 157.92813
#
# Poissons Ratio (x) = 0.16929 0.48644
# Poissons Ratio (y) = 0.10648 0.16750
# Poissons Ratio (z) = 0.18568 0.10166
#
# Static dielectric constant tensor:
#      x y z
#    x 1.879220 0.000000 0.023730 
#    y 0.000000 1.867510 0.000000 
#    z 0.023730 0.000000 1.824650 
# 
# From -- ./inp_files/17273.got.cif
#   From: 2010.05.17/outbox.cif.g08.bks.cpg/sg5_9_cif.got.tgz:17273.got - 2010.06.03 18:56:24.
