data_PCOD9123791
_publ_section_title
;
Structure prediction by ZEFSAII (Michael W. Deem and Ramdas Pophale) SiO2 
 PCOD9123791
Probable space group: C 2
;
_chemical_formula_sum "Si O2"
_cell_formula_units_Z 26
_cell_length_a 7.870247
_cell_length_b 12.429193
_cell_length_c 11.099502
_cell_angle_alpha 90.000000
_cell_angle_beta 75.497403
_cell_angle_gamma 90.000000
_cell_volume 1051.165958
_symmetry_space_group_name_H-M "C 2"
_symmetry_group_IT_number 5
_symmetry_cell_setting 'monoclinic'
loop_
_space_group_symop_operation_xyz
x,y,z
-x,y,-z
1/2+x,1/2+y,z
1/2-x,1/2+y,-z
loop_
_atom_site_type_symbol
_atom_site_label
_atom_site_fract_x
_atom_site_fract_y
_atom_site_fract_z
Si Si1 0.389467 0.232100 0.778395
Si Si2 0.196727 0.932474 0.063321
Si Si3 0.956691 0.376000 0.842158
Si Si4 0.500000 0.333695 0.500000
Si Si5 0.697622 0.534135 0.568283
Si Si6 0.951429 0.544254 0.334561
Si Si7 0.006657 0.139493 0.809711
O O1 0.413504 0.331079 0.865404
O O2 0.420213 0.269482 0.630953
O O3 0.517547 0.131139 0.775082
O O4 0.195524 0.180549 0.827486
O O5 0.378683 0.908110 0.101956
O O6 0.096216 0.041640 0.110719
O O7 0.275434 0.932177 0.914628
O O8 0.045078 0.421385 0.706236
O O9 0.907496 0.251904 0.839643
O O10 0.633651 0.415364 0.543860
O O11 0.871372 0.541717 0.618515
O O12 0.552000 0.597850 0.667649
O O13 0.776015 0.579841 0.431398
#
# Coordination Sequence:
#
# PCOD9123791 Si02
#       7
#     4   4   4   2   4   4   4
#     4  10  21  38  66  92 132 171 214 270 337 385
#     4  10  21  41  65  98 123 177 224 260 329 399
#     4  10  23  41  65  90 139 171 213 278 324 389
#     4  12  20  40  70  94 128 178 218 270 336 400
#     4  10  21  38  65  95 127 166 221 268 328 399
#     4  10  22  41  60  96 136 168 211 279 334 384
#     4  10  20  40  63  95 125 163 225 260 320 396
#
# _framework density 24.734438000000001
#
# number of rings (size 3 to 8) (size 9 to 14) (size 15 to 20)
#    0.000    1.846    1.538    3.692    2.154    0.000 
#    5.538    4.615    0.000    0.000    0.000    0.000 
#    0.000    0.000    0.000    0.000    0.000    0.000 
#
# Total GULP energy -72420.705879 kJ/mol
# GULP energy per Si atom -5570.823529 kJ/mol
# Density = 2.467814 g / cm^3
# Si number density = 24.734438 Si / 1000 Ang^3
#
#
#
# Elastic Constant Matrix: (Units=GPa)
#
#
# Indices 1 2 3 4 5 6 
#
# 1 72.0562 23.5625 17.3517 0.0000 -6.1165 0.0000
# 2 23.5625 156.0072 51.9249 0.0000 -27.1269 0.0000
# 3 17.3517 51.9249 111.0591 0.0000 -41.0841 0.0000
# 4 0.0000 0.0000 0.0000 91.1595 0.0000 -46.5953
# 5 -6.1165 -27.1269 -41.0841 0.0000 27.1760 0.0000
# 6 0.0000 0.0000 0.0000 -46.5953 0.0000 45.0939
#
#
#
# Elastic Compliance Matrix: (Units=1/GPa)
#
#
# Indices 1 2 3 4 5 6 
#
# 1 0.014836 -0.001836 -0.002047 0.000000 -0.001588 0.000000
# 2 -0.001836 0.008133 -0.001510 0.000000 0.005423 0.000000
# 3 -0.002047 -0.001510 0.021105 0.000000 0.029939 0.000000
# 4 0.000000 0.000000 0.000000 0.023249 0.000000 0.024023
# 5 -0.001588 0.005423 0.029939 0.000000 0.087114 0.000000
# 6 0.000000 0.000000 0.000000 0.024023 0.000000 0.046999
#
#
# Mechanical properties :
#
#
# Convention : Reuss Voigt Hill
#
# Bulk Modulus (GPa) = 30.03954 58.31116 44.17535
# Shear Modulus (GPa) = 22.38975 49.10476 35.74726
#
# Velocity S-wave (km/s) = 3.01193 4.46048 3.80576
# Velocity P-wave (km/s) = 4.92613 7.08194 6.10003
#
# Compressibility (1/GPa) = 0.03328946
#
# Stress axis : x y z
#
# Youngs Moduli (GPa) = 67.40139 122.96319 47.38185
#
# Poissons Ratio (x) = 0.22570 0.09700
# Poissons Ratio (y) = 0.12372 0.07152
# Poissons Ratio (z) = 0.13799 0.18561
#
# Static dielectric constant tensor:
#      x y z
#    x 1.824730 0.000000 -0.344120 
#    y 0.000000 1.971250 0.000000 
#    z -0.344120 0.000000 1.132360 
# 
# From -- ./inp_files/50223.got.cif
#   From: 2010.05.17/outbox.cif.g08.bks.cpg/sg5_26_cif.got.tgz:50223.got - 2010.06.03 18:56:24.
