data_PCOD9123855
_publ_section_title
;
Structure prediction by ZEFSAII (Michael W. Deem and Ramdas Pophale) SiO2 
 PCOD9123855
Probable space group: C 2
;
_chemical_formula_sum "Si O2"
_cell_formula_units_Z 22
_cell_length_a 7.710032
_cell_length_b 17.663238
_cell_length_c 7.869469
_cell_angle_alpha 90.000000
_cell_angle_beta 107.114692
_cell_angle_gamma 90.000000
_cell_volume 1024.239468
_symmetry_space_group_name_H-M "C 2"
_symmetry_group_IT_number 5
_symmetry_cell_setting 'monoclinic'
loop_
_space_group_symop_operation_xyz
x,y,z
-x,y,-z
1/2+x,1/2+y,z
1/2-x,1/2+y,-z
loop_
_atom_site_type_symbol
_atom_site_label
_atom_site_fract_x
_atom_site_fract_y
_atom_site_fract_z
Si Si1 0.500000 0.528240 0.500000
Si Si2 0.000000 0.853363 0.000000
Si Si3 0.653227 0.264535 0.763149
Si Si4 0.272569 0.910735 0.615641
Si Si5 0.218289 0.111562 0.297370
Si Si6 0.500000 0.704225 0.000000
Si Si7 0.680106 0.948185 0.772642
O O1 0.621246 0.469024 0.644020
O O2 0.651729 0.579782 0.456507
O O3 0.176628 0.906246 0.066530
O O4 0.001236 0.800154 0.166580
O O5 0.712195 0.326079 0.642061
O O6 0.642219 0.181073 0.680087
O O7 0.820690 0.254128 0.945119
O O8 0.471549 0.927435 0.746146
O O9 0.283512 0.924343 0.415145
O O10 0.288328 0.038583 0.216103
O O11 0.035268 0.148604 0.167014
#
# Coordination Sequence:
#
# PCOD9123855 Si02
#       7
#     2   2   4   4   4   2   4
#     4  10  20  40  66  90 122 166 206 258 314 362
#     4  12  23  40  62  91 128 170 208 254 315 364
#     4  10  21  39  58  88 123 164 207 257 303 365
#     4  10  21  41  65  94 122 162 213 254 308 375
#     4   9  20  39  59  90 123 162 204 257 303 369
#     4   8  19  38  58  79 130 154 210 242 313 346
#     4  10  22  40  65  93 125 165 209 251 311 375
#
# _framework density 21.479351000000001
#
# number of rings (size 3 to 8) (size 9 to 14) (size 15 to 20)
#    1.091    1.091    0.000    3.818    0.000    1.455 
#    3.273    9.091    0.000    0.000    0.000    0.000 
#    0.000    0.000    0.000    0.000    0.000    0.000 
#
# Total GULP energy -61256.906985 kJ/mol
# GULP energy per Si atom -5568.809726 kJ/mol
# Density = 2.143046 g / cm^3
# Si number density = 21.479351 Si / 1000 Ang^3
#
#
#
# Elastic Constant Matrix: (Units=GPa)
#
#
# Indices 1 2 3 4 5 6 
#
# 1 82.3309 42.0980 11.6882 0.0000 8.8327 0.0000
# 2 42.0980 187.5090 27.7930 0.0000 -14.8452 0.0000
# 3 11.6882 27.7930 48.8545 0.0000 15.9935 0.0000
# 4 0.0000 0.0000 0.0000 41.0927 0.0000 -4.8201
# 5 8.8327 -14.8452 15.9935 0.0000 29.4941 0.0000
# 6 0.0000 0.0000 0.0000 -4.8201 0.0000 36.3465
#
#
#
# Elastic Compliance Matrix: (Units=1/GPa)
#
#
# Indices 1 2 3 4 5 6 
#
# 1 0.014818 -0.004042 0.001062 0.000000 -0.007048 0.000000
# 2 -0.004042 0.007857 -0.006314 0.000000 0.008589 0.000000
# 3 0.001062 -0.006314 0.030337 0.000000 -0.019947 0.000000
# 4 0.000000 0.000000 0.000000 0.024720 0.000000 0.003278
# 5 -0.007048 0.008589 -0.019947 0.000000 0.051155 0.000000
# 6 0.000000 0.000000 0.000000 0.003278 0.000000 0.027948
#
#
# Mechanical properties :
#
#
# Convention : Reuss Voigt Hill
#
# Bulk Modulus (GPa) = 29.05086 53.53920 41.29503
# Shear Modulus (GPa) = 26.75255 37.19434 31.97344
#
# Velocity S-wave (km/s) = 3.53299 4.16580 3.86238
# Velocity P-wave (km/s) = 5.49519 6.93675 6.25762
#
# Compressibility (1/GPa) = 0.03442239
#
# Stress axis : x y z
#
# Youngs Moduli (GPa) = 67.48346 127.28312 32.96314
#
# Poissons Ratio (x) = 0.51451 -0.03500
# Poissons Ratio (y) = 0.27279 0.20813
# Poissons Ratio (z) = -0.07165 0.80368
#
# Static dielectric constant tensor:
#      x y z
#    x 1.740460 0.000000 0.058600 
#    y 0.000000 1.763060 0.000000 
#    z 0.058600 0.000000 1.752620 
# 
# From -- ./inp_files/15841.got.cif
#   From: 2010.05.17/outbox.cif.g08.bks.cpg/sg5_8_cif.got.tgz:15841.got - 2010.06.03 18:56:24.
