data_PCOD9123949
_publ_section_title
;
Structure prediction by ZEFSAII (Michael W. Deem and Ramdas Pophale) SiO2 
 PCOD9123949
Probable space group: C 2
;
_chemical_formula_sum "Si O2"
_cell_formula_units_Z 28
_cell_length_a 14.659780
_cell_length_b 17.059864
_cell_length_c 5.453645
_cell_angle_alpha 90.000000
_cell_angle_beta 63.035821
_cell_angle_gamma 90.000000
_cell_volume 1215.651261
_symmetry_space_group_name_H-M "C 2"
_symmetry_group_IT_number 5
_symmetry_cell_setting 'monoclinic'
loop_
_space_group_symop_operation_xyz
x,y,z
-x,y,-z
1/2+x,1/2+y,z
1/2-x,1/2+y,-z
loop_
_atom_site_type_symbol
_atom_site_label
_atom_site_fract_x
_atom_site_fract_y
_atom_site_fract_z
Si Si1 0.741186 0.672270 0.719419
Si Si2 0.317181 0.030418 0.911651
Si Si3 0.389921 0.478159 0.756296
Si Si4 0.142760 0.385571 0.474234
Si Si5 0.383283 0.705382 0.626006
Si Si6 0.000000 0.913599 0.000000
Si Si7 0.841503 0.834626 0.532052
Si Si8 0.500000 0.987232 0.000000
O O1 0.802176 0.593614 0.715245
O O2 0.675728 0.674077 0.546561
O O3 0.820044 0.744523 0.603156
O O4 0.671527 0.689184 0.046247
O O5 0.330889 0.945227 0.774357
O O6 0.414399 0.039319 0.967877
O O7 0.208462 0.028130 0.186975
O O8 0.500000 0.495001 0.500000
O O9 0.414259 0.475155 0.012155
O O10 0.360844 0.387656 0.744240
O O11 0.113496 0.299799 0.413775
O O12 0.241488 0.369737 0.522152
O O13 0.057277 0.429946 0.738654
O O14 0.500000 0.676160 0.500000
O O15 0.060088 0.856596 0.746837
#
# Coordination Sequence:
#
# PCOD9123949 Si02
#       8
#     4   4   4   4   4   2   4   2
#     4  11  28  44  74 104 159 198 233 310 379 443
#     4  12  25  47  70 107 153 191 249 301 379 448
#     4  10  21  40  70 103 135 184 243 306 360 428
#     4  11  24  43  78 104 142 188 253 309 364 435
#     4  11  25  48  75 110 146 195 257 307 371 441
#     4  10  20  40  71 105 130 186 244 302 360 421
#     4  10  21  42  72 105 143 186 248 300 365 440
#     4  12  26  44  77 107 140 198 246 316 368 437
#
# _framework density 23.032923
#
# number of rings (size 3 to 8) (size 9 to 14) (size 15 to 20)
#    0.000    1.143    2.857    2.571   10.000    0.571 
#    2.571    5.714    0.000    0.000    0.000    0.000 
#    0.000    0.000    0.000    0.000    0.000    0.000 
#
# Total GULP energy -78203.934196 kJ/mol
# GULP energy per Si atom -5585.995300 kJ/mol
# Density = 2.298050 g / cm^3
# Si number density = 23.032923 Si / 1000 Ang^3
#
#
#
# Elastic Constant Matrix: (Units=GPa)
#
#
# Indices 1 2 3 4 5 6 
#
# 1 175.7152 66.7106 36.1042 0.0000 -1.0681 0.0000
# 2 66.7106 109.7968 19.5181 0.0000 7.7703 0.0000
# 3 36.1042 19.5181 107.5535 0.0000 -5.4288 0.0000
# 4 0.0000 0.0000 0.0000 25.2860 0.0000 24.0926
# 5 -1.0681 7.7703 -5.4288 0.0000 35.6241 0.0000
# 6 0.0000 0.0000 0.0000 24.0926 0.0000 -3.3606
#
#
#
# Elastic Compliance Matrix: (Units=1/GPa)
#
#
# Indices 1 2 3 4 5 6 
#
# 1 0.007750 -0.004466 -0.001744 0.000000 0.000941 0.000000
# 2 -0.004466 0.012180 -0.000859 0.000000 -0.002922 0.000000
# 3 -0.001744 -0.000859 0.010124 0.000000 0.001678 0.000000
# 4 0.000000 0.000000 0.000000 0.005050 0.000000 0.036206
# 5 0.000941 -0.002922 0.001678 0.000000 0.028992 0.000000
# 6 0.000000 0.000000 0.000000 0.036206 0.000000 -0.038000
#
#
# Mechanical properties :
#
#
# Convention : Reuss Voigt Hill
#
# Bulk Modulus (GPa) = 62.82249 70.85905 66.84077
# Shear Modulus (GPa) = 109.79446 29.55875 69.67660
#
# Velocity S-wave (km/s) = 6.91173 3.58624 5.50605
# Velocity P-wave (km/s) = 9.54098 6.92670 8.33695
#
# Compressibility (1/GPa) = 0.01591787
#
# Stress axis : x y z
#
# Youngs Moduli (GPa) = 129.02514 82.09916 98.77885
#
# Poissons Ratio (x) = 0.36662 0.17225
# Poissons Ratio (y) = 0.57618 0.08484
# Poissons Ratio (z) = 0.22500 0.07051
#
# Static dielectric constant tensor:
#      x y z
#    x 1.938650 0.000000 0.033560 
#    y 0.000000 1.853180 0.000000 
#    z 0.033560 0.000000 1.908990 
# 
# From -- ./inp_files/7270.got.cif
#   From: 2010.05.17/outbox.cif.g08.bks.cpg/sg5_4_cif.got.tgz:7270.got - 2010.06.03 18:56:24.
