data_PCOD9123627
_publ_section_title
;
Structure prediction by ZEFSAII (Michael W. Deem and Ramdas Pophale) SiO2 
 PCOD9123627
Probable space group: C 2
;
_chemical_formula_sum "Si O2"
_cell_formula_units_Z 32
_cell_length_a 8.763963
_cell_length_b 11.534079
_cell_length_c 21.545439
_cell_angle_alpha 90.000000
_cell_angle_beta 139.108918
_cell_angle_gamma 90.000000
_cell_volume 1425.706631
_symmetry_space_group_name_H-M "C 2"
_symmetry_group_IT_number 5
_symmetry_cell_setting 'monoclinic'
loop_
_space_group_symop_operation_xyz
x,y,z
-x,y,-z
1/2+x,1/2+y,z
1/2-x,1/2+y,-z
loop_
_atom_site_type_symbol
_atom_site_label
_atom_site_fract_x
_atom_site_fract_y
_atom_site_fract_z
Si Si1 0.099398 0.925220 0.184207
Si Si2 0.876430 0.015597 0.305400
Si Si3 0.686997 0.300194 0.793927
Si Si4 0.445077 0.116018 0.335468
Si Si5 0.247979 0.174329 0.394971
Si Si6 0.359249 0.188605 0.863350
Si Si7 0.436048 0.657434 0.543344
Si Si8 0.140641 0.149378 0.931703
O O1 0.933213 0.867437 0.185829
O O2 0.185483 0.820210 0.169008
O O3 0.960259 0.019268 0.099904
O O4 0.310868 0.998922 0.278026
O O5 0.734936 0.106298 0.219724
O O6 0.890111 0.053470 0.381615
O O7 0.146747 0.043044 0.370135
O O8 0.797684 0.893103 0.257002
O O9 0.533262 0.194983 0.719103
O O10 0.936286 0.240901 0.884186
O O11 0.272563 0.187882 0.329544
O O12 0.685315 0.104520 0.446596
O O13 0.500000 0.194180 0.500000
O O14 0.087813 0.230294 0.400189
O O15 0.232170 0.163889 0.889171
O O16 0.634434 0.167489 0.956696
O O17 0.500000 0.721798 0.500000
#
# Coordination Sequence:
#
# PCOD9123627 Si02
#       8
#     4   4   4   4   4   4   4   4
#     4  11  23  44  69  99 131 174 220 282 331 395
#     4  10  20  39  64  94 127 175 220 268 322 398
#     4  11  22  40  72  96 130 178 222 276 339 390
#     4  10  20  41  61  96 136 172 226 271 331 399
#     4   8  16  36  63  82 130 176 212 271 321 380
#     4  11  24  43  70  94 132 177 213 274 344 388
#     4   9  20  36  59  93 137 175 220 272 321 390
#     4  10  25  46  65  98 133 170 221 277 337 409
#
# _framework density 22.44501
#
# number of rings (size 3 to 8) (size 9 to 14) (size 15 to 20)
#    0.750    1.250    2.500    0.750    3.500    1.500 
#    4.500    2.500    0.000    0.000    0.000    0.000 
#    0.000    0.000    0.000    0.000    0.000    0.000 
#
# Total GULP energy -89072.766081 kJ/mol
# GULP energy per Si atom -5567.047880 kJ/mol
# Density = 2.239392 g / cm^3
# Si number density = 22.445010 Si / 1000 Ang^3
#
#
#
# Elastic Constant Matrix: (Units=GPa)
#
#
# Indices 1 2 3 4 5 6 
#
# 1 38.5274 15.7440 1.8966 0.0000 -8.7941 0.0000
# 2 15.7440 95.2241 12.6585 0.0000 -1.4336 0.0000
# 3 1.8966 12.6585 101.2652 0.0000 10.8061 0.0000
# 4 0.0000 0.0000 0.0000 0.7121 0.0000 -1.5164
# 5 -8.7941 -1.4336 10.8061 0.0000 25.9661 0.0000
# 6 0.0000 0.0000 0.0000 -1.5164 0.0000 29.0136
#
#
#
# Elastic Compliance Matrix: (Units=1/GPa)
#
#
# Indices 1 2 3 4 5 6 
#
# 1 0.030323 -0.004710 -0.001096 0.000000 0.010466 0.000000
# 2 -0.004710 0.011446 -0.001297 0.000000 -0.000423 0.000000
# 3 -0.001096 -0.001297 0.010575 0.000000 -0.004844 0.000000
# 4 0.000000 0.000000 0.000000 1.580215 0.000000 0.082591
# 5 0.010466 -0.000423 -0.004844 0.000000 0.044049 0.000000
# 6 0.000000 0.000000 0.000000 0.082591 0.000000 0.038783
#
#
# Mechanical properties :
#
#
# Convention : Reuss Voigt Hill
#
# Bulk Modulus (GPa) = 26.22131 32.84611 29.53371
# Shear Modulus (GPa) = 2.86975 24.78618 13.82797
#
# Velocity S-wave (km/s) = 1.13197 3.32672 2.48479
# Velocity P-wave (km/s) = 3.66283 5.42419 4.62807
#
# Compressibility (1/GPa) = 0.03813692
#
# Stress axis : x y z
#
# Youngs Moduli (GPa) = 32.97801 87.36346 94.56587
#
# Poissons Ratio (x) = 0.41151 0.10364
# Poissons Ratio (y) = 0.15534 0.12269
# Poissons Ratio (z) = 0.03614 0.11335
#
# Static dielectric constant tensor:
#      x y z
#    x 2.004530 0.000000 0.015280 
#    y 0.000000 1.810000 0.000000 
#    z 0.015280 0.000000 1.832770 
# 
# From -- ./inp_files/64565.got.cif
#   From: 2010.05.17/outbox.cif.g08.bks.cpg/sg5_33_cif.got.tgz:64565.got - 2010.06.03 18:56:24.
