data_PCOD9123312
_publ_section_title
;
Structure prediction by ZEFSAII (Michael W. Deem and Ramdas Pophale) SiO2 
 PCOD9123312
Probable space group: C 2
;
_chemical_formula_sum "Si O2"
_cell_formula_units_Z 26
_cell_length_a 15.352095
_cell_length_b 9.390786
_cell_length_c 7.636363
_cell_angle_alpha 90.000000
_cell_angle_beta 85.125745
_cell_angle_gamma 90.000000
_cell_volume 1096.939608
_symmetry_space_group_name_H-M "C 2"
_symmetry_group_IT_number 5
_symmetry_cell_setting 'monoclinic'
loop_
_space_group_symop_operation_xyz
x,y,z
-x,y,-z
1/2+x,1/2+y,z
1/2-x,1/2+y,-z
loop_
_atom_site_type_symbol
_atom_site_label
_atom_site_fract_x
_atom_site_fract_y
_atom_site_fract_z
Si Si1 0.998335 0.966470 0.198067
Si Si2 0.500000 0.241086 0.500000
Si Si3 0.421948 0.766302 0.144167
Si Si4 0.265278 0.258191 0.999392
Si Si5 0.197462 0.337952 0.548368
Si Si6 0.179956 0.601339 0.352573
Si Si7 0.694123 0.519198 0.198636
O O1 0.091279 0.037513 0.238395
O O2 0.978706 0.844875 0.340056
O O3 0.936557 0.102618 0.195414
O O4 0.000000 0.906021 0.000000
O O5 0.586576 0.151199 0.443052
O O6 0.334479 0.773588 0.046108
O O7 0.394461 0.842841 0.329349
O O8 0.500000 0.811335 0.000000
O O9 0.314395 0.162250 0.844910
O O10 0.301466 0.417071 0.976299
O O11 0.254627 0.156777 0.166368
O O12 0.189165 0.431560 0.375593
O O13 0.240432 0.181795 0.557178
O O14 0.266938 0.423606 0.655687
#
# Coordination Sequence:
#
# PCOD9123312 Si02
#       7
#     4   2   4   4   4   4   4
#     4  11  21  38  70  97 125 173 219 265 325 378
#     4  12  24  44  62  98 140 160 224 278 306 400
#     4   9  18  37  64  90 121 160 215 262 310 382
#     4  10  20  38  61  88 124 158 209 270 305 383
#     4  10  23  41  63  91 125 171 208 266 321 383
#     4  10  24  43  61  91 133 165 212 269 324 378
#     4  10  20  39  60  95 121 162 221 256 321 380
#
# _framework density 23.702309
#
# number of rings (size 3 to 8) (size 9 to 14) (size 15 to 20)
#    0.000    2.154    6.154    0.000    4.308    2.462 
#    5.538    2.308    0.000    0.000    0.000    0.000 
#    0.000    0.000    0.000    0.000    0.000    0.000 
#
# Total GULP energy -72533.522611 kJ/mol
# GULP energy per Si atom -5579.501739 kJ/mol
# Density = 2.364836 g / cm^3
# Si number density = 23.702309 Si / 1000 Ang^3
#
#
#
# Elastic Constant Matrix: (Units=GPa)
#
#
# Indices 1 2 3 4 5 6 
#
# 1 98.3328 3.2184 10.1668 0.0000 -32.9074 0.0000
# 2 3.2184 73.3497 7.4874 0.0000 -5.4868 0.0000
# 3 10.1668 7.4874 69.4422 0.0000 -7.5517 0.0000
# 4 0.0000 0.0000 0.0000 45.2834 0.0000 -14.8904
# 5 -32.9074 -5.4868 -7.5517 0.0000 27.3590 0.0000
# 6 0.0000 0.0000 0.0000 -14.8904 0.0000 15.0454
#
#
#
# Elastic Compliance Matrix: (Units=1/GPa)
#
#
# Indices 1 2 3 4 5 6 
#
# 1 0.017075 0.000828 -0.000348 0.000000 0.020607 0.000000
# 2 0.000828 0.013983 -0.001253 0.000000 0.003454 0.000000
# 3 -0.000348 -0.001253 0.014963 0.000000 0.003460 0.000000
# 4 0.000000 0.000000 0.000000 0.032737 0.000000 0.032400
# 5 0.020607 0.003454 0.003460 0.000000 0.062985 0.000000
# 6 0.000000 0.000000 0.000000 0.032400 0.000000 0.098531
#
#
# Mechanical properties :
#
#
# Convention : Reuss Voigt Hill
#
# Bulk Modulus (GPa) = 22.48514 31.42999 26.95757
# Shear Modulus (GPa) = 19.48206 32.22105 25.85156
#
# Velocity S-wave (km/s) = 2.87007 3.69101 3.30612
# Velocity P-wave (km/s) = 4.52661 5.60837 5.09627
#
# Compressibility (1/GPa) = 0.04447381
#
# Stress axis : x y z
#
# Youngs Moduli (GPa) = 58.56590 71.51386 66.83231
#
# Poissons Ratio (x) = -0.05920 0.02327
# Poissons Ratio (y) = -0.04848 0.08376
# Poissons Ratio (z) = 0.02039 0.08963
#
# Static dielectric constant tensor:
#      x y z
#    x 1.868010 0.000000 -0.016750 
#    y 0.000000 1.947090 0.000000 
#    z -0.016750 0.000000 2.008490 
# 
# From -- ./inp_files/23354.got.cif
#   From: 2010.05.17/outbox.cif.g08.bks.cpg/sg5_12_cif.got.tgz:23354.got - 2010.06.03 18:56:24.
