data_PCOD9123364
_publ_section_title
;
Structure prediction by ZEFSAII (Michael W. Deem and Ramdas Pophale) SiO2 
 PCOD9123364
Probable space group: C 2
;
_chemical_formula_sum "Si O2"
_cell_formula_units_Z 28
_cell_length_a 12.595932
_cell_length_b 9.708888
_cell_length_c 18.920688
_cell_angle_alpha 90.000000
_cell_angle_beta 145.635106
_cell_angle_gamma 90.000000
_cell_volume 1306.083442
_symmetry_space_group_name_H-M "C 2"
_symmetry_group_IT_number 5
_symmetry_cell_setting 'monoclinic'
loop_
_space_group_symop_operation_xyz
x,y,z
-x,y,-z
1/2+x,1/2+y,z
1/2-x,1/2+y,-z
loop_
_atom_site_type_symbol
_atom_site_label
_atom_site_fract_x
_atom_site_fract_y
_atom_site_fract_z
Si Si1 0.066096 0.246890 0.461883
Si Si2 0.219536 0.973894 0.875780
Si Si3 0.126457 0.119392 0.357998
Si Si4 0.481931 0.206558 0.736209
Si Si5 0.922743 0.536200 0.843856
Si Si6 0.461398 0.040915 0.368960
Si Si7 0.299373 0.303845 0.358821
O O1 0.044814 0.131909 0.391100
O O2 0.291454 0.271606 0.596365
O O3 0.000000 0.192541 0.500000
O O4 0.938286 0.379445 0.371956
O O5 0.320897 0.048001 0.864461
O O6 0.152663 0.816181 0.827357
O O7 0.364965 0.990065 0.019447
O O8 0.018323 0.047204 0.773017
O O9 0.334156 0.061115 0.482461
O O10 0.165291 0.272076 0.351230
O O11 0.528594 0.081866 0.707823
O O12 0.438951 0.154084 0.792256
O O13 0.801996 0.414499 0.743489
O O14 0.333771 0.158656 0.335953
O O15 0.500000 0.347011 0.500000
#
# Coordination Sequence:
#
# PCOD9123364 Si02
#       7
#     4   4   4   4   4   4   4
#     4  11  21  36  62  96 130 164 219 280 343 396
#     4  11  24  44  62  91 137 172 228 273 331 399
#     4  10  21  36  61  90 129 172 207 274 331 399
#     4  11  23  41  65  95 132 174 226 274 338 408
#     4  11  25  42  66  92 129 181 220 277 331 401
#     4  10  20  38  62  96 132 166 214 275 341 395
#     4  10  21  39  66  96 129 166 219 275 339 397
#
# _framework density 21.438141000000002
#
# number of rings (size 3 to 8) (size 9 to 14) (size 15 to 20)
#    0.000    1.429    2.857    3.000    2.000    2.857 
#    0.000    0.000    0.000    0.000    0.000    0.000 
#    0.000    0.000    0.000    0.000    0.000    0.000 
#
# Total GULP energy -78050.675154 kJ/mol
# GULP energy per Si atom -5575.048225 kJ/mol
# Density = 2.138935 g / cm^3
# Si number density = 21.438141 Si / 1000 Ang^3
#
#
#
# Elastic Constant Matrix: (Units=GPa)
#
#
# Indices 1 2 3 4 5 6 
#
# 1 71.3689 13.4244 2.5067 0.0000 -9.1682 0.0000
# 2 13.4244 47.2007 26.1713 0.0000 1.6123 0.0000
# 3 2.5067 26.1713 122.9740 0.0001 5.7582 0.0000
# 4 0.0000 0.0000 0.0001 23.2239 0.0000 0.0751
# 5 -9.1682 1.6123 5.7582 0.0000 27.4898 0.0000
# 6 0.0000 0.0000 0.0000 0.0751 0.0000 23.5743
#
#
#
# Elastic Compliance Matrix: (Units=1/GPa)
#
#
# Indices 1 2 3 4 5 6 
#
# 1 0.015606 -0.004883 0.000468 0.000000 0.005393 0.000000
# 2 -0.004883 0.025551 -0.005243 0.000000 -0.002029 0.000000
# 3 0.000468 -0.005243 0.009308 0.000000 -0.001486 0.000000
# 4 0.000000 0.000000 0.000000 0.043059 0.000000 -0.000137
# 5 0.005393 -0.002029 -0.001486 0.000000 0.038606 0.000000
# 6 0.000000 0.000000 0.000000 -0.000137 0.000000 0.042419
#
#
# Mechanical properties :
#
#
# Convention : Reuss Voigt Hill
#
# Bulk Modulus (GPa) = 32.10213 36.19427 34.14820
# Shear Modulus (GPa) = 24.47993 28.15371 26.31682
#
# Velocity S-wave (km/s) = 3.38285 3.62781 3.50747
# Velocity P-wave (km/s) = 5.50137 5.87093 5.68915
#
# Compressibility (1/GPa) = 0.03115059
#
# Stress axis : x y z
#
# Youngs Moduli (GPa) = 64.07589 39.13691 107.43786
#
# Poissons Ratio (x) = 0.19109 -0.05033
# Poissons Ratio (y) = 0.31286 0.56333
# Poissons Ratio (z) = -0.03002 0.20521
#
# Static dielectric constant tensor:
#      x y z
#    x 1.895950 0.000000 0.005730 
#    y 0.000000 1.849720 0.000000 
#    z 0.005730 0.000000 1.771330 
# 
# From -- ./inp_files/66004.got.cif
#   From: 2010.05.17/outbox.cif.g08.bks.cpg/sg5_34_cif.got.tgz:66004.got - 2010.06.03 18:56:24.
