data_PCOD9123250
_publ_section_title
;
Structure prediction by ZEFSAII (Michael W. Deem and Ramdas Pophale) SiO2 
 PCOD9123250
Probable space group: C 2
;
_chemical_formula_sum "Si O2"
_cell_formula_units_Z 28
_cell_length_a 14.107553
_cell_length_b 16.044530
_cell_length_c 8.121677
_cell_angle_alpha 90.000000
_cell_angle_beta 132.654339
_cell_angle_gamma 90.000000
_cell_volume 1352.011535
_symmetry_space_group_name_H-M "C 2"
_symmetry_group_IT_number 5
_symmetry_cell_setting 'monoclinic'
loop_
_space_group_symop_operation_xyz
x,y,z
-x,y,-z
1/2+x,1/2+y,z
1/2-x,1/2+y,-z
loop_
_atom_site_type_symbol
_atom_site_label
_atom_site_fract_x
_atom_site_fract_y
_atom_site_fract_z
Si Si1 0.857279 0.442750 0.365994
Si Si2 0.254183 0.269739 0.297088
Si Si3 0.639445 0.940114 0.240025
Si Si4 0.860013 0.036467 0.292416
Si Si5 0.474596 0.222787 0.787899
Si Si6 0.861000 0.870811 0.111879
Si Si7 0.186456 0.623376 0.846355
O O1 0.845501 0.451363 0.547553
O O2 0.842444 0.534719 0.269842
O O3 0.000000 0.411023 0.500000
O O4 0.759062 0.383559 0.151776
O O5 0.152283 0.340403 0.223567
O O6 0.333355 0.239167 0.549961
O O7 0.334115 0.321314 0.250802
O O8 0.231237 0.183755 0.174567
O O9 0.759641 0.989413 0.297568
O O10 0.500000 0.966623 0.000000
O O11 0.899154 0.963140 0.209854
O O12 0.000000 0.071492 0.500000
O O13 0.772963 0.105969 0.106578
O O14 0.535581 0.314887 0.856201
O O15 0.554273 0.166115 0.752428
O O16 0.500000 0.188302 0.000000
#
# Coordination Sequence:
#
# PCOD9123250 Si02
#       7
#     4   4   4   4   4   4   4
#     4  11  21  37  60  89 123 161 205 255 307 364
#     4  10  20  38  58  83 120 157 197 249 302 357
#     4  11  23  40  65  93 122 161 211 258 305 364
#     4  10  21  40  64  89 122 161 202 255 312 367
#     4  11  21  35  59  89 119 159 208 252 301 369
#     4   9  18  34  57  83 113 155 201 245 298 355
#     4  10  22  38  58  86 123 162 201 252 312 366
#
# _framework density 20.709883000000001
#
# number of rings (size 3 to 8) (size 9 to 14) (size 15 to 20)
#    0.000    1.714    0.000    7.714    0.000    2.857 
#    0.000   10.714    0.000    0.000    0.000    0.000 
#    0.000    0.000    0.000    0.000    0.000    0.000 
#
# Total GULP energy -78030.209494 kJ/mol
# GULP energy per Si atom -5573.586392 kJ/mol
# Density = 2.066275 g / cm^3
# Si number density = 20.709883 Si / 1000 Ang^3
#
#
#
# Elastic Constant Matrix: (Units=GPa)
#
#
# Indices 1 2 3 4 5 6 
#
# 1 67.8479 -1.4531 31.5842 0.0000 -10.9545 0.0000
# 2 -1.4531 12.7213 -7.7722 0.0000 -2.5905 0.0000
# 3 31.5842 -7.7722 90.9466 0.0000 -10.7817 0.0000
# 4 0.0000 0.0000 0.0000 26.8635 0.0000 -2.8185
# 5 -10.9545 -2.5905 -10.7817 0.0000 31.7874 0.0000
# 6 0.0000 0.0000 0.0000 -2.8185 0.0000 174.9213
#
#
#
# Elastic Compliance Matrix: (Units=1/GPa)
#
#
# Indices 1 2 3 4 5 6 
#
# 1 0.018129 -0.000647 -0.005852 0.000000 0.004210 0.000000
# 2 -0.000647 0.085839 0.008714 0.000000 0.009728 0.000000
# 3 -0.005852 0.008714 0.014188 0.000000 0.003506 0.000000
# 4 0.000000 0.000000 0.000000 0.037288 0.000000 0.000601
# 5 0.004210 0.009728 0.003506 0.000000 0.034892 0.000000
# 6 0.000000 0.000000 0.000000 0.000601 0.000000 0.005727
#
#
# Mechanical properties :
#
#
# Convention : Reuss Voigt Hill
#
# Bulk Modulus (GPa) = 8.15764 24.02596 16.09180
# Shear Modulus (GPa) = 21.50584 56.65824 39.08204
#
# Velocity S-wave (km/s) = 3.22597 5.23617 4.34881
# Velocity P-wave (km/s) = 4.22178 6.94140 5.74484
#
# Compressibility (1/GPa) = 0.12258441
#
# Stress axis : x y z
#
# Youngs Moduli (GPa) = 55.16040 11.64975 70.48189
#
# Poissons Ratio (x) = 0.00754 0.41247
# Poissons Ratio (y) = 0.03570 -0.61416
# Poissons Ratio (z) = 0.32280 -0.10151
#
# Static dielectric constant tensor:
#      x y z
#    x 0.657600 0.000000 1.556860 
#    y 0.000000 1.740410 0.000000 
#    z 1.556860 0.000000 -0.395680 
# 
# From -- ./inp_files/25234.got.cif
#   From: 2010.05.17/outbox.cif.g08.bks.cpg/sg5_13_cif.got.tgz:25234.got - 2010.06.03 18:56:24.
