data_PCOD9123481
_publ_section_title
;
Structure prediction by ZEFSAII (Michael W. Deem and Ramdas Pophale) SiO2 
 PCOD9123481
Probable space group: C 2
;
_chemical_formula_sum "Si O2"
_cell_formula_units_Z 22
_cell_length_a 11.508417
_cell_length_b 10.005056
_cell_length_c 9.517233
_cell_angle_alpha 90.000000
_cell_angle_beta 50.273556
_cell_angle_gamma 90.000000
_cell_volume 842.813062
_symmetry_space_group_name_H-M "C 2"
_symmetry_group_IT_number 5
_symmetry_cell_setting 'monoclinic'
loop_
_space_group_symop_operation_xyz
x,y,z
-x,y,-z
1/2+x,1/2+y,z
1/2-x,1/2+y,-z
loop_
_atom_site_type_symbol
_atom_site_label
_atom_site_fract_x
_atom_site_fract_y
_atom_site_fract_z
Si Si1 0.637299 0.600460 0.315910
Si Si2 0.500000 0.758528 0.000000
Si Si3 0.469197 0.867936 0.324876
Si Si4 0.347536 0.398593 0.271857
Si Si5 0.048649 0.620206 0.799734
Si Si6 0.357992 0.527395 0.977141
O O1 0.500000 0.528947 0.500000
O O2 0.566336 0.744326 0.315110
O O3 0.769004 0.607842 0.328482
O O4 0.709376 0.529657 0.124408
O O5 0.554883 0.836226 0.820778
O O6 0.358495 0.669990 0.053158
O O7 0.312449 0.887270 0.529705
O O8 0.525350 0.022211 0.258564
O O9 0.456707 0.276599 0.231180
O O10 0.461718 0.520848 0.205573
O O11 0.325120 0.415393 0.119229
O O12 0.000000 0.607442 0.000000
#
# Coordination Sequence:
#
# PCOD9123481 Si02
#       6
#     4   2   4   4   4   4
#     4  11  23  43  70  96 131 185 235 273 345 420
#     4   8  18  36  58  94 128 178 226 278 340 402
#     4  11  22  40  66  99 135 179 235 281 340 420
#     4  10  20  38  66  94 135 175 223 290 345 396
#     4  12  24  42  65 100 136 177 224 296 343 394
#     4   9  20  39  64  94 134 183 225 280 349 415
#
# _framework density 26.103058999999998
#
# number of rings (size 3 to 8) (size 9 to 14) (size 15 to 20)
#    0.000    1.818    4.545    1.091    5.091    1.455 
#    0.000    0.000    0.000    3.273    0.000    0.000 
#    0.000    0.000    0.000    0.000    0.000    0.000 
#
# Total GULP energy -61272.581794 kJ/mol
# GULP energy per Si atom -5570.234709 kJ/mol
# Density = 2.604365 g / cm^3
# Si number density = 26.103059 Si / 1000 Ang^3
#
#
#
# Elastic Constant Matrix: (Units=GPa)
#
#
# Indices 1 2 3 4 5 6 
#
# 1 70.8617 6.6395 3.9223 0.0000 14.8470 0.0000
# 2 6.6395 91.1463 15.1021 0.0000 15.3799 0.0000
# 3 3.9223 15.1021 157.0356 0.0000 16.4380 0.0000
# 4 0.0000 0.0000 0.0000 35.2863 0.0000 7.5994
# 5 14.8470 15.3799 16.4380 0.0000 48.3095 0.0000
# 6 0.0000 0.0000 0.0000 7.5994 0.0000 32.0651
#
#
#
# Elastic Compliance Matrix: (Units=1/GPa)
#
#
# Indices 1 2 3 4 5 6 
#
# 1 0.015096 -0.000350 0.000135 0.000000 -0.004574 0.000000
# 2 -0.000350 0.011689 -0.000764 0.000000 -0.003354 0.000000
# 3 0.000135 -0.000764 0.006654 0.000000 -0.002062 0.000000
# 4 0.000000 0.000000 0.000000 0.029864 0.000000 -0.007078
# 5 -0.004574 -0.003354 -0.002062 0.000000 0.023875 0.000000
# 6 0.000000 0.000000 0.000000 -0.007078 0.000000 0.032864
#
#
# Mechanical properties :
#
#
# Convention : Reuss Voigt Hill
#
# Bulk Modulus (GPa) = 31.76559 41.15240 36.45899
# Shear Modulus (GPa) = 37.73758 42.69084 40.21421
#
# Velocity S-wave (km/s) = 3.80638 4.04849 3.92930
# Velocity P-wave (km/s) = 5.61371 6.13622 5.88077
#
# Compressibility (1/GPa) = 0.03148061
#
# Stress axis : x y z
#
# Youngs Moduli (GPa) = 66.24429 85.54734 150.28571
#
# Poissons Ratio (x) = 0.02997 -0.02035
# Poissons Ratio (y) = 0.02320 0.11487
# Poissons Ratio (z) = -0.00897 0.06539
#
# Static dielectric constant tensor:
#      x y z
#    x 2.246220 0.000000 -0.145930 
#    y 0.000000 2.238650 0.000000 
#    z -0.145930 0.000000 2.195820 
# 
# From -- ./inp_files/39065.got.cif
#   From: 2010.05.17/outbox.cif.g08.bks.cpg/sg5_20_cif.got.tgz:39065.got - 2010.06.03 18:56:24.
