data_PCOD9123177
_publ_section_title
;
Structure prediction by ZEFSAII (Michael W. Deem and Ramdas Pophale) SiO2 
 PCOD9123177
Probable space group: C 2
;
_chemical_formula_sum "Si O2"
_cell_formula_units_Z 22
_cell_length_a 29.527938
_cell_length_b 4.739317
_cell_length_c 8.811911
_cell_angle_alpha 90.000000
_cell_angle_beta 139.141704
_cell_angle_gamma 90.000000
_cell_volume 806.720694
_symmetry_space_group_name_H-M "C 2"
_symmetry_group_IT_number 5
_symmetry_cell_setting 'monoclinic'
loop_
_space_group_symop_operation_xyz
x,y,z
-x,y,-z
1/2+x,1/2+y,z
1/2-x,1/2+y,-z
loop_
_atom_site_type_symbol
_atom_site_label
_atom_site_fract_x
_atom_site_fract_y
_atom_site_fract_z
Si Si1 0.109765 0.981910 0.304951
Si Si2 0.000000 0.533653 0.500000
Si Si3 0.796661 0.878325 0.086620
Si Si4 0.260846 0.853421 0.630036
Si Si5 0.375983 0.298797 0.001123
Si Si6 0.085749 0.518912 0.444058
O O1 0.190006 0.893417 0.541167
O O2 0.103652 0.940620 0.108084
O O3 0.059730 0.777017 0.272894
O O4 0.102817 0.288575 0.359642
O O5 0.039801 0.382261 0.461906
O O6 0.055180 0.717028 0.733406
O O7 0.854745 0.683583 0.311446
O O8 0.731411 0.666657 0.913069
O O9 0.829384 0.963155 0.007599
O O10 0.258183 0.532187 0.570503
O O11 0.330380 0.011765 0.857029
#
# Coordination Sequence:
#
# PCOD9123177 Si02
#       6
#     4   2   4   4   4   4
#     4  11  23  43  72 104 134 181 240 302 351 402
#     4  10  26  50  70 102 146 198 234 282 358 436
#     4  11  23  40  68 105 145 188 231 287 358 425
#     4  10  20  37  65 101 136 170 220 288 353 402
#     4  10  23  43  71 103 145 185 235 289 349 422
#     4  11  24  45  69  99 141 184 239 290 350 423
#
# _framework density 27.270900000000001
#
# number of rings (size 3 to 8) (size 9 to 14) (size 15 to 20)
#    0.000    1.455    0.000    5.455    0.000    8.727 
#    0.000   16.364    0.000    0.000    0.000    0.000 
#    0.000    0.000    0.000    0.000    0.000    0.000 
#
# Total GULP energy -61457.433458 kJ/mol
# GULP energy per Si atom -5587.039405 kJ/mol
# Density = 2.720883 g / cm^3
# Si number density = 27.270900 Si / 1000 Ang^3
#
#
#
# Elastic Constant Matrix: (Units=GPa)
#
#
# Indices 1 2 3 4 5 6 
#
# 1 183.9581 44.0069 54.7872 0.0000 -39.0239 0.0000
# 2 44.0069 118.6791 7.5229 0.0000 -24.0312 0.0000
# 3 54.7872 7.5229 136.0100 0.0000 -25.6233 0.0000
# 4 0.0000 0.0000 0.0000 21.5498 0.0000 -23.6233
# 5 -39.0239 -24.0312 -25.6233 0.0000 44.2537 0.0000
# 6 0.0000 0.0000 0.0000 -23.6233 0.0000 29.7522
#
#
#
# Elastic Compliance Matrix: (Units=1/GPa)
#
#
# Indices 1 2 3 4 5 6 
#
# 1 0.007392 -0.001721 -0.002055 0.000000 0.004394 0.000000
# 2 -0.001721 0.009898 0.000979 0.000000 0.004424 0.000000
# 3 -0.002055 0.000979 0.008850 0.000000 0.003844 0.000000
# 4 0.000000 0.000000 0.000000 0.358044 0.000000 0.284287
# 5 0.004394 0.004424 0.003844 0.000000 0.031100 0.000000
# 6 0.000000 0.000000 0.000000 0.284287 0.000000 0.259335
#
#
# Mechanical properties :
#
#
# Convention : Reuss Voigt Hill
#
# Bulk Modulus (GPa) = 48.66767 72.36456 60.51611
# Shear Modulus (GPa) = 7.27738 41.26652 24.27195
#
# Velocity S-wave (km/s) = 1.63534 3.89422 2.98658
# Velocity P-wave (km/s) = 4.63147 6.84200 5.84224
#
# Compressibility (1/GPa) = 0.02054752
#
# Stress axis : x y z
#
# Youngs Moduli (GPa) = 135.28653 101.03017 112.99345
#
# Poissons Ratio (x) = 0.17386 0.23215
# Poissons Ratio (y) = 0.23282 -0.11065
# Poissons Ratio (z) = 0.27795 -0.09894
#
# Static dielectric constant tensor:
#      x y z
#    x 2.186520 0.000000 0.012840 
#    y 0.000000 2.183040 0.000000 
#    z 0.012840 0.000000 2.239840 
# 
# From -- ./inp_files/31457.got.cif
#   From: 2010.05.17/outbox.cif.g08.bks.cpg/sg5_16_cif.got.tgz:31457.got - 2010.06.03 18:56:24.
