data_PCOD9123146
_publ_section_title
;
Structure prediction by ZEFSAII (Michael W. Deem and Ramdas Pophale) SiO2 
 PCOD9123146
Probable space group: C 2
;
_chemical_formula_sum "Si O2"
_cell_formula_units_Z 30
_cell_length_a 16.588543
_cell_length_b 13.794160
_cell_length_c 11.805672
_cell_angle_alpha 90.000000
_cell_angle_beta 149.285153
_cell_angle_gamma 90.000000
_cell_volume 1379.799399
_symmetry_space_group_name_H-M "C 2"
_symmetry_group_IT_number 5
_symmetry_cell_setting 'monoclinic'
loop_
_space_group_symop_operation_xyz
x,y,z
-x,y,-z
1/2+x,1/2+y,z
1/2-x,1/2+y,-z
loop_
_atom_site_type_symbol
_atom_site_label
_atom_site_fract_x
_atom_site_fract_y
_atom_site_fract_z
Si Si1 0.384481 0.122290 0.755231
Si Si2 0.500000 0.429316 0.000000
Si Si3 0.344178 0.485178 0.256559
Si Si4 0.092246 0.310691 0.716774
Si Si5 0.824983 0.400470 0.748983
Si Si6 0.155634 0.648342 0.926467
Si Si7 0.278285 0.808852 0.462102
Si Si8 0.708358 0.494257 0.057843
O O1 0.238556 0.195138 0.584262
O O2 0.338458 0.009827 0.712179
O O3 0.500000 0.146165 0.000000
O O4 0.475788 0.152815 0.749320
O O5 0.639284 0.363893 0.224629
O O6 0.580075 0.494563 0.000213
O O7 0.500000 0.525260 0.500000
O O8 0.280253 0.405071 0.265003
O O9 0.216148 0.569410 0.092336
O O10 0.369235 0.459671 0.155666
O O11 0.235008 0.242297 0.929535
O O12 0.167650 0.410471 0.764957
O O13 0.000000 0.264144 0.500000
O O14 0.957305 0.336331 0.644469
O O15 0.760067 0.334076 0.571478
O O16 0.000000 0.372667 0.000000
O O17 0.201169 0.593136 0.865415
#
# Coordination Sequence:
#
# PCOD9123146 Si02
#       8
#     4   2   4   4   4   4   4   4
#     4  11  19  40  65  96 128 165 219 273 311 374
#     4  12  22  42  60 100 134 168 212 266 334 378
#     4  10  20  37  63  93 121 160 211 257 317 363
#     4  12  22  39  65  94 126 166 219 267 314 371
#     4  11  22  42  68  92 129 167 215 264 319 380
#     4  10  22  38  64  93 125 164 212 267 316 366
#     4  12  25  36  67 100 130 165 214 271 323 382
#     4  10  23  41  64  93 133 166 209 269 318 383
#
# _framework density 21.742291999999999
#
# number of rings (size 3 to 8) (size 9 to 14) (size 15 to 20)
#    0.800    0.267    4.667    4.400    1.867    0.000 
#    0.000    0.000   11.733    0.800    0.000    0.000 
#    0.000    0.000    0.000    0.000    0.000    0.000 
#
# Total GULP energy -83681.028994 kJ/mol
# GULP energy per Si atom -5578.735266 kJ/mol
# Density = 2.169281 g / cm^3
# Si number density = 21.742292 Si / 1000 Ang^3
#
#
#
# Elastic Constant Matrix: (Units=GPa)
#
#
# Indices 1 2 3 4 5 6 
#
# 1 153.2339 10.7078 17.2866 0.0000 0.2623 0.0000
# 2 10.7078 56.0349 11.3721 0.0000 -5.4954 0.0000
# 3 17.2866 11.3721 39.9715 0.0000 -15.6680 0.0000
# 4 0.0000 0.0000 0.0000 6.8736 0.0000 8.0795
# 5 0.2623 -5.4954 -15.6680 0.0000 29.4049 0.0000
# 6 0.0000 0.0000 0.0000 8.0795 0.0000 5.2730
#
#
#
# Elastic Compliance Matrix: (Units=1/GPa)
#
#
# Indices 1 2 3 4 5 6 
#
# 1 0.006997 -0.000810 -0.003640 0.000000 -0.002153 0.000000
# 2 -0.000810 0.019050 -0.004641 0.000000 0.001095 0.000000
# 3 -0.003640 -0.004641 0.034867 0.000000 0.017744 0.000000
# 4 0.000000 0.000000 0.000000 -0.181618 0.000000 0.278281
# 5 -0.002153 0.001095 0.017744 0.000000 0.043686 0.000000
# 6 0.000000 0.000000 0.000000 0.278281 0.000000 -0.236747
#
#
# Mechanical properties :
#
#
# Convention : Reuss Voigt Hill
#
# Bulk Modulus (GPa) = 23.40019 36.44148 29.92084
# Shear Modulus (GPa) = -17.77204 22.30189 2.26492
#
# Velocity S-wave (km/s) = -2.86211 3.20619 1.02175
# Velocity P-wave (km/s) = 0.36929 5.52297 3.89659
#
# Compressibility (1/GPa) = 0.04273470
#
# Stress axis : x y z
#
# Youngs Moduli (GPa) = 142.92227 52.49378 28.68012
#
# Poissons Ratio (x) = 0.04250 0.10438
# Poissons Ratio (y) = 0.11570 0.13309
# Poissons Ratio (z) = 0.52017 0.24360
#
# Static dielectric constant tensor:
#      x y z
#    x 2.030200 0.000000 0.064240 
#    y 0.000000 1.772820 0.000000 
#    z 0.064240 0.000000 1.835640 
# 
# From -- ./inp_files/44934.got.cif
#   From: 2010.05.17/outbox.cif.g08.bks.cpg/sg5_23_cif.got.tgz:44934.got - 2010.06.03 18:56:24.
