data_PCOD9123549
_publ_section_title
;
Structure prediction by ZEFSAII (Michael W. Deem and Ramdas Pophale) SiO2 
 PCOD9123549
Probable space group: C 2
;
_chemical_formula_sum "Si O2"
_cell_formula_units_Z 32
_cell_length_a 12.133401
_cell_length_b 7.963323
_cell_length_c 23.220623
_cell_angle_alpha 90.000000
_cell_angle_beta 52.309624
_cell_angle_gamma 90.000000
_cell_volume 1775.441296
_symmetry_space_group_name_H-M "C 2"
_symmetry_group_IT_number 5
_symmetry_cell_setting 'monoclinic'
loop_
_space_group_symop_operation_xyz
x,y,z
-x,y,-z
1/2+x,1/2+y,z
1/2-x,1/2+y,-z
loop_
_atom_site_type_symbol
_atom_site_label
_atom_site_fract_x
_atom_site_fract_y
_atom_site_fract_z
Si Si1 0.373226 0.902480 0.582257
Si Si2 0.878628 0.782618 0.136667
Si Si3 0.874068 0.236097 0.699883
Si Si4 0.074507 0.063933 0.792945
Si Si5 0.105915 0.608477 0.316989
Si Si6 0.565604 0.426418 0.669558
Si Si7 0.812039 0.257852 0.906065
Si Si8 0.091830 0.501662 0.023592
O O1 0.500000 0.864978 0.500000
O O2 0.350201 0.761409 0.639145
O O3 0.225799 0.925934 0.598421
O O4 0.407142 0.066841 0.610680
O O5 0.765746 0.709134 0.218362
O O6 0.792152 0.836808 0.107672
O O7 0.992090 0.644486 0.083243
O O8 0.944787 0.943257 0.146234
O O9 0.925354 0.424831 0.700886
O O10 0.982076 0.088761 0.674875
O O11 0.229864 0.139589 0.746565
O O12 0.952460 0.197888 0.829999
O O13 0.070080 0.949869 0.737247
O O14 0.012662 0.758352 0.324496
O O15 0.857347 0.372335 0.944736
O O16 0.726063 0.096370 0.955343
O O17 0.000000 0.427872 0.000000
#
# Coordination Sequence:
#
# PCOD9123549 Si02
#       8
#     4   4   4   4   4   4   4   4
#     4   9  21  42  58  89 129 153 202 252 287 366
#     4  10  20  39  55  84 115 146 198 252 289 350
#     4   9  20  39  57  91 119 152 206 243 295 358
#     4  10  21  36  56  86 116 145 199 250 288 361
#     4   8  21  37  55  91 114 155 202 240 296 356
#     4  11  19  39  62  82 123 155 190 253 301 348
#     4  11  22  38  59  81 117 157 191 245 303 348
#     4  10  24  38  56  85 115 155 199 240 299 362
#
# _framework density 18.023686999999999
#
# number of rings (size 3 to 8) (size 9 to 14) (size 15 to 20)
#    0.750    1.500    2.500    0.750    1.750    4.000 
#    4.500    0.625    0.000    0.000    0.000    0.000 
#    0.000    0.000    0.000    0.000    0.000    0.000 
#
# Total GULP energy -89105.277275 kJ/mol
# GULP energy per Si atom -5569.079830 kJ/mol
# Density = 1.798266 g / cm^3
# Si number density = 18.023687 Si / 1000 Ang^3
#
#
#
# Elastic Constant Matrix: (Units=GPa)
#
#
# Indices 1 2 3 4 5 6 
#
# 1 60.0013 20.9013 2.2770 0.0000 -5.2850 0.0000
# 2 20.9013 39.6775 -4.2296 0.0000 -9.3704 0.0000
# 3 2.2770 -4.2296 61.9855 0.0000 -7.0663 0.0000
# 4 0.0000 0.0000 0.0000 7.6857 0.0000 -1.7067
# 5 -5.2850 -9.3704 -7.0663 0.0000 20.4121 0.0000
# 6 0.0000 0.0000 0.0000 -1.7067 0.0000 28.2372
#
#
#
# Elastic Compliance Matrix: (Units=1/GPa)
#
#
# Indices 1 2 3 4 5 6 
#
# 1 0.020552 -0.011059 -0.001543 0.000000 -0.000290 0.000000
# 2 -0.011059 0.034989 0.004475 0.000000 0.014748 0.000000
# 3 -0.001543 0.004475 0.017369 0.000000 0.007668 0.000000
# 4 0.000000 0.000000 0.000000 0.131882 0.000000 0.007971
# 5 -0.000290 0.014748 0.007668 0.000000 0.058340 0.000000
# 6 0.000000 0.000000 0.000000 0.007971 0.000000 0.035896
#
#
# Mechanical properties :
#
#
# Convention : Reuss Voigt Hill
#
# Bulk Modulus (GPa) = 17.65036 22.17352 19.91194
# Shear Modulus (GPa) = 14.96262 20.78137 17.87199
#
# Velocity S-wave (km/s) = 2.88438 3.39927 3.15236
# Velocity P-wave (km/s) = 4.57242 5.26649 4.93168
#
# Compressibility (1/GPa) = 0.05665607
#
# Stress axis : x y z
#
# Youngs Moduli (GPa) = 48.65762 28.58053 57.57405
#
# Poissons Ratio (x) = 0.31608 0.08881
# Poissons Ratio (y) = 0.53811 -0.25764
# Poissons Ratio (z) = 0.07506 -0.12790
#
# Static dielectric constant tensor:
#      x y z
#    x 1.629520 0.000000 0.015590 
#    y 0.000000 1.595350 0.000000 
#    z 0.015590 0.000000 1.628470 
# 
# From -- ./inp_files/68221.got.cif
#   From: 2010.05.17/outbox.cif.g08.bks.cpg/sg5_35_cif.got.tgz:68221.got - 2010.06.03 18:56:24.
