data_PCOD9123725
_publ_section_title
;
Structure prediction by ZEFSAII (Michael W. Deem and Ramdas Pophale) SiO2 
 PCOD9123725
Probable space group: C 2
;
_chemical_formula_sum "Si O2"
_cell_formula_units_Z 30
_cell_length_a 21.428403
_cell_length_b 14.364227
_cell_length_c 16.491749
_cell_angle_alpha 90.000000
_cell_angle_beta 17.426801
_cell_angle_gamma 90.000000
_cell_volume 1520.256719
_symmetry_space_group_name_H-M "C 2"
_symmetry_group_IT_number 5
_symmetry_cell_setting 'monoclinic'
loop_
_space_group_symop_operation_xyz
x,y,z
-x,y,-z
1/2+x,1/2+y,z
1/2-x,1/2+y,-z
loop_
_atom_site_type_symbol
_atom_site_label
_atom_site_fract_x
_atom_site_fract_y
_atom_site_fract_z
Si Si1 0.584391 0.871800 0.094272
Si Si2 0.593073 0.049528 0.189198
Si Si3 0.257306 0.850942 0.272862
Si Si4 0.875844 0.875031 0.393179
Si Si5 0.239042 0.139113 0.727962
Si Si6 0.500000 0.830469 0.500000
Si Si7 0.769491 0.248416 0.935144
Si Si8 0.694170 0.484628 0.913199
O O1 0.352425 0.842680 0.352012
O O2 0.662857 0.800429 0.065763
O O3 0.568216 0.974892 0.150139
O O4 0.736030 0.879054 0.828826
O O5 0.374217 0.087020 0.493605
O O6 0.693903 0.994162 0.139262
O O7 0.731113 0.139448 0.996549
O O8 0.141489 0.903489 0.489935
O O9 0.180388 0.744139 0.366752
O O10 0.500000 0.852755 0.000000
O O11 0.051485 0.794854 0.175730
O O12 0.962226 0.954086 0.225405
O O13 0.237047 0.079548 0.812687
O O14 0.000000 0.144239 0.000000
O O15 0.436051 0.771327 0.657895
O O16 0.306555 0.901264 0.725142
#
# Coordination Sequence:
#
# PCOD9123725 Si02
#       8
#     4   4   4   4   4   2   4   4
#     4  11  22  41  65  90 124 169 204 251 320 368
#     4  12  22  39  61  94 123 162 212 253 309 370
#     4   9  20  37  60  88 123 157 204 253 303 364
#     4  10  21  41  62  89 126 162 199 259 307 363
#     4  11  20  34  60  95 120 155 206 260 307 363
#     4  10  20  40  60  76 128 158 196 258 304 354
#     4  11  23  42  61  91 127 163 206 262 305 370
#     4  11  20  37  60  88 123 157 204 259 303 364
#
# _framework density 19.733509999999999
#
# number of rings (size 3 to 8) (size 9 to 14) (size 15 to 20)
#    0.000    1.333    5.333    1.600    0.000    0.533 
#    4.800    2.000    0.000    0.000    0.000    0.000 
#    0.000    0.000    0.000    0.000    0.000    0.000 
#
# Total GULP energy -83701.343946 kJ/mol
# GULP energy per Si atom -5580.089596 kJ/mol
# Density = 1.968860 g / cm^3
# Si number density = 19.733510 Si / 1000 Ang^3
#
#
#
# Elastic Constant Matrix: (Units=GPa)
#
#
# Indices 1 2 3 4 5 6 
#
# 1 78.4933 23.6920 34.3460 -0.0012 15.4737 0.0024
# 2 23.6920 66.4395 34.9562 -0.0050 16.6623 0.0055
# 3 34.3460 34.9562 108.2875 0.0069 21.1815 0.0078
# 4 -0.0012 -0.0050 0.0069 34.9677 -0.0025 12.1255
# 5 15.4737 16.6623 21.1815 -0.0025 39.5523 -0.0033
# 6 0.0024 0.0055 0.0078 12.1255 -0.0033 10.5292
#
#
#
# Elastic Compliance Matrix: (Units=1/GPa)
#
#
# Indices 1 2 3 4 5 6 
#
# 1 0.015758 -0.003058 -0.003415 0.000001 -0.003048 -0.000002
# 2 -0.003058 0.019667 -0.004459 0.000010 -0.004701 -0.000019
# 3 -0.003415 -0.004459 0.012431 -0.000002 -0.003443 -0.000005
# 4 0.000001 0.000010 -0.000002 0.047610 -0.000005 -0.054828
# 5 -0.003048 -0.004701 -0.003443 -0.000005 0.030299 0.000021
# 6 -0.000002 -0.000019 -0.000005 -0.054828 0.000021 0.158115
#
#
# Mechanical properties :
#
#
# Convention : Reuss Voigt Hill
#
# Bulk Modulus (GPa) = 38.47452 48.80097 43.63774
# Shear Modulus (GPa) = 15.90294 27.69159 21.79726
#
# Velocity S-wave (km/s) = 2.84189 3.75010 3.32713
# Velocity P-wave (km/s) = 5.50526 6.59808 6.07629
#
# Compressibility (1/GPa) = 0.02599123
#
# Stress axis : x y z
#
# Youngs Moduli (GPa) = 63.45986 50.84705 80.44710
#
# Poissons Ratio (x) = 0.15551 0.27469
# Poissons Ratio (y) = 0.19408 0.35873
# Poissons Ratio (z) = 0.21669 0.22673
#
# Static dielectric constant tensor:
#      x y z
#    x 1.727970 0.000000 0.005200 
#    y 0.000000 1.695020 0.000010 
#    z 0.005200 0.000010 1.750790 
# 
# From -- ./inp_files/20392.got.cif
#   From: 2010.05.17/outbox.cif.g08.bks.cpg/sg5_11_cif.got.tgz:20392.got - 2010.06.03 18:56:24.
