data_PCOD9123305
_publ_section_title
;
Structure prediction by ZEFSAII (Michael W. Deem and Ramdas Pophale) SiO2 
 PCOD9123305
Probable space group: C 2
;
_chemical_formula_sum "Si O2"
_cell_formula_units_Z 28
_cell_length_a 8.660913
_cell_length_b 11.168818
_cell_length_c 15.667933
_cell_angle_alpha 90.000000
_cell_angle_beta 122.118086
_cell_angle_gamma 90.000000
_cell_volume 1283.637777
_symmetry_space_group_name_H-M "C 2"
_symmetry_group_IT_number 5
_symmetry_cell_setting 'monoclinic'
loop_
_space_group_symop_operation_xyz
x,y,z
-x,y,-z
1/2+x,1/2+y,z
1/2-x,1/2+y,-z
loop_
_atom_site_type_symbol
_atom_site_label
_atom_site_fract_x
_atom_site_fract_y
_atom_site_fract_z
Si Si1 0.123965 0.143680 0.226779
Si Si2 0.128050 0.544277 0.306161
Si Si3 0.464522 0.444400 0.299532
Si Si4 0.767780 0.439804 0.157888
Si Si5 0.522423 0.220175 0.406135
Si Si6 0.370476 0.805931 0.042416
Si Si7 0.519297 0.264530 0.848254
O O1 0.317394 0.199831 0.309390
O O2 0.979566 0.237588 0.148878
O O3 0.160362 0.056178 0.157236
O O4 0.057436 0.060787 0.285385
O O5 0.301993 0.485297 0.313649
O O6 0.961775 0.450534 0.263018
O O7 0.144843 0.615143 0.400476
O O8 0.055273 0.648194 0.221094
O O9 0.584589 0.350155 0.389623
O O10 0.412585 0.363201 0.201565
O O11 0.804372 0.427455 0.068586
O O12 0.645413 0.328485 0.151001
O O13 0.500000 0.216399 0.500000
O O14 0.500000 0.824374 0.000000
O O15 0.189560 0.738957 0.958438
#
# Coordination Sequence:
#
# PCOD9123305 Si02
#       7
#     4   4   4   4   4   4   4
#     4  10  23  41  59  84 119 155 193 244 295 344
#     4  10  20  38  61  85 116 153 189 232 291 348
#     4  10  21  39  63  88 117 153 194 240 291 344
#     4  10  21  37  55  79 117 155 191 235 283 334
#     4  10  22  41  62  86 115 146 190 246 300 357
#     4  12  22  36  57  84 119 158 201 240 279 336
#     4  10  22  36  54  86 120 154 195 235 276 337
#
# _framework density 21.813009000000001
#
# number of rings (size 3 to 8) (size 9 to 14) (size 15 to 20)
#    0.000    1.714    0.000    5.571    0.000    6.857 
#    0.000    5.714    0.000    0.000    0.000    0.000 
#    0.000    0.000    0.000    0.000    0.000    0.000 
#
# Total GULP energy -78202.427974 kJ/mol
# GULP energy per Si atom -5585.887712 kJ/mol
# Density = 2.176336 g / cm^3
# Si number density = 21.813009 Si / 1000 Ang^3
#
#
#
# Elastic Constant Matrix: (Units=GPa)
#
#
# Indices 1 2 3 4 5 6 
#
# 1 125.8663 47.9151 16.4688 0.0000 -22.9639 0.0000
# 2 47.9151 66.0747 28.2500 0.0000 -20.4504 0.0000
# 3 16.4688 28.2500 51.4642 0.0000 -28.3220 0.0000
# 4 0.0000 0.0000 0.0000 15.9409 0.0000 -10.0840
# 5 -22.9639 -20.4504 -28.3220 0.0000 26.2057 0.0000
# 6 0.0000 0.0000 0.0000 -10.0840 0.0000 39.8549
#
#
#
# Elastic Compliance Matrix: (Units=1/GPa)
#
#
# Indices 1 2 3 4 5 6 
#
# 1 0.012408 -0.008337 0.007426 0.000000 0.012392 0.000000
# 2 -0.008337 0.026305 -0.011093 0.000000 0.001233 0.000000
# 3 0.007426 -0.011093 0.054194 0.000000 0.056421 0.000000
# 4 0.000000 0.000000 0.000000 0.074686 0.000000 0.018897
# 5 0.012392 0.001233 0.056421 0.000000 0.110959 0.000000
# 6 0.000000 0.000000 0.000000 0.018897 0.000000 0.029872
#
#
# Mechanical properties :
#
#
# Convention : Reuss Voigt Hill
#
# Bulk Modulus (GPa) = 14.51425 47.63031 31.07228
# Shear Modulus (GPa) = 14.06876 26.45171 20.26023
#
# Velocity S-wave (km/s) = 2.54238 3.48610 3.05095
# Velocity P-wave (km/s) = 3.90982 6.17147 5.16593
#
# Compressibility (1/GPa) = 0.06889782
#
# Stress axis : x y z
#
# Youngs Moduli (GPa) = 80.59225 38.01618 18.45238
#
# Poissons Ratio (x) = 0.31695 -0.13702
# Poissons Ratio (y) = 0.67192 0.20469
# Poissons Ratio (z) = -0.59845 0.42170
#
# Static dielectric constant tensor:
#      x y z
#    x 1.813480 0.000000 -0.016680 
#    y 0.000000 1.835860 0.000000 
#    z -0.016680 0.000000 1.800780 
# 
# From -- ./inp_files/50274.got.cif
#   From: 2010.05.17/outbox.cif.g08.bks.cpg/sg5_26_cif.got.tgz:50274.got - 2010.06.03 18:56:24.
