data_PCOD9123263
_publ_section_title
;
Structure prediction by ZEFSAII (Michael W. Deem and Ramdas Pophale) SiO2 
 PCOD9123263
Probable space group: C 2
;
_chemical_formula_sum "Si O2"
_cell_formula_units_Z 24
_cell_length_a 16.586823
_cell_length_b 11.683238
_cell_length_c 4.898542
_cell_angle_alpha 90.000000
_cell_angle_beta 65.336383
_cell_angle_gamma 90.000000
_cell_volume 862.678250
_symmetry_space_group_name_H-M "C 2"
_symmetry_group_IT_number 5
_symmetry_cell_setting 'monoclinic'
loop_
_space_group_symop_operation_xyz
x,y,z
-x,y,-z
1/2+x,1/2+y,z
1/2-x,1/2+y,-z
loop_
_atom_site_type_symbol
_atom_site_label
_atom_site_fract_x
_atom_site_fract_y
_atom_site_fract_z
Si Si1 0.887377 0.799730 0.304471
Si Si2 0.610651 0.159277 0.212848
Si Si3 0.419362 0.894523 0.813535
Si Si4 0.712471 0.585065 0.792301
Si Si5 0.310265 0.863948 0.477404
Si Si6 0.405747 0.547082 0.525169
O O1 0.906399 0.760958 0.973490
O O2 0.779640 0.800619 0.475431
O O3 0.918230 0.923333 0.362860
O O4 0.922696 0.699284 0.446068
O O5 0.581120 0.032696 0.172846
O O6 0.716543 0.149265 0.117028
O O7 0.500000 0.863665 0.500000
O O8 0.338273 0.846107 0.748318
O O9 0.392999 0.856291 0.153677
O O10 0.775580 0.496029 0.538752
O O11 0.644853 0.620113 0.640735
O O12 0.651214 0.531133 0.117977
O O13 0.500000 0.592736 0.500000
#
# Coordination Sequence:
#
# PCOD9123263 Si02
#       6
#     4   4   4   4   4   4
#     4  11  21  36  60  88 118 154 197 248 303 359
#     4  11  21  36  59  88 119 154 194 249 306 357
#     4  11  22  38  60  87 118 154 196 245 301 358
#     4  10  20  38  60  84 118 165 214 245 287 369
#     4  10  20  38  59  82 113 158 207 237 280 362
#     4  11  22  38  60  89 123 163 205 250 306 367
#
# _framework density 27.820336000000001
#
# number of rings (size 3 to 8) (size 9 to 14) (size 15 to 20)
#    0.000    1.333    0.000   11.000    0.000    0.667 
#    0.000    3.333    0.000   15.000    0.000    0.000 
#    0.000    0.000    0.000    0.000    0.000    0.000 
#
# Total GULP energy -67139.697422 kJ/mol
# GULP energy per Si atom -5594.974785 kJ/mol
# Density = 2.775702 g / cm^3
# Si number density = 27.820336 Si / 1000 Ang^3
#
#
#
# Elastic Constant Matrix: (Units=GPa)
#
#
# Indices 1 2 3 4 5 6 
#
# 1 116.1895 5.4305 48.0166 0.0000 6.3851 0.0000
# 2 5.4305 83.4387 28.1422 0.0000 -2.0303 0.0000
# 3 48.0166 28.1422 185.9923 0.0000 -4.5542 0.0000
# 4 0.0000 0.0000 0.0000 43.3903 0.0000 12.3458
# 5 6.3851 -2.0303 -4.5542 0.0000 65.3401 0.0000
# 6 0.0000 0.0000 0.0000 12.3458 0.0000 29.5940
#
#
#
# Elastic Compliance Matrix: (Units=1/GPa)
#
#
# Indices 1 2 3 4 5 6 
#
# 1 0.009720 0.000206 -0.002568 0.000000 -0.001122 0.000000
# 2 0.000206 0.012638 -0.001960 0.000000 0.000236 0.000000
# 3 -0.002568 -0.001960 0.006352 0.000000 0.000633 0.000000
# 4 0.000000 0.000000 0.000000 0.026151 0.000000 -0.010909
# 5 -0.001122 0.000236 0.000633 0.000000 0.015466 0.000000
# 6 0.000000 0.000000 0.000000 -0.010909 0.000000 0.038342
#
#
# Mechanical properties :
#
#
# Convention : Reuss Voigt Hill
#
# Bulk Modulus (GPa) = 49.83411 60.97768 55.40589
# Shear Modulus (GPa) = 40.32275 47.93363 44.12819
#
# Velocity S-wave (km/s) = 3.81123 4.15537 3.98701
# Velocity P-wave (km/s) = 6.10893 6.70737 6.41513
#
# Compressibility (1/GPa) = 0.02006658
#
# Stress axis : x y z
#
# Youngs Moduli (GPa) = 102.88125 79.12562 157.44175
#
# Poissons Ratio (x) = -0.01632 0.40432
# Poissons Ratio (y) = -0.02122 0.30854
# Poissons Ratio (z) = 0.26420 0.15506
#
# Static dielectric constant tensor:
#      x y z
#    x 2.305210 0.000000 -0.063680 
#    y 0.000000 2.221750 0.000000 
#    z -0.063680 0.000000 2.020760 
# 
# From -- ./inp_files/8427.got.cif
#   From: 2010.05.17/outbox.cif.g08.bks.cpg/sg5_5_cif.got.tgz:8427.got - 2010.06.03 18:56:24.
