data_PCOD9123198
_publ_section_title
;
Structure prediction by ZEFSAII (Michael W. Deem and Ramdas Pophale) SiO2 
 PCOD9123198
Probable space group: C 2
;
_chemical_formula_sum "Si O2"
_cell_formula_units_Z 26
_cell_length_a 19.290761
_cell_length_b 7.439436
_cell_length_c 13.513811
_cell_angle_alpha 90.000000
_cell_angle_beta 150.259736
_cell_angle_gamma 90.000000
_cell_volume 962.075761
_symmetry_space_group_name_H-M "C 2"
_symmetry_group_IT_number 5
_symmetry_cell_setting 'monoclinic'
loop_
_space_group_symop_operation_xyz
x,y,z
-x,y,-z
1/2+x,1/2+y,z
1/2-x,1/2+y,-z
loop_
_atom_site_type_symbol
_atom_site_label
_atom_site_fract_x
_atom_site_fract_y
_atom_site_fract_z
Si Si1 0.750462 0.334080 0.578203
Si Si2 0.476393 0.434157 0.319435
Si Si3 0.751416 0.922323 0.642202
Si Si4 0.286723 0.959451 0.888226
Si Si5 0.449760 0.002227 0.294926
Si Si6 0.500000 0.995329 0.000000
Si Si7 0.185132 0.032129 0.081355
O O1 0.641521 0.455547 0.505991
O O2 0.740697 0.129369 0.596099
O O3 0.709432 0.329552 0.411499
O O4 0.906114 0.394745 0.799830
O O5 0.372277 0.506357 0.276029
O O6 0.469432 0.217792 0.326914
O O7 0.410602 0.493517 0.132095
O O8 0.849717 0.936791 0.859178
O O9 0.589266 0.884694 0.467260
O O10 0.374246 0.066151 0.913981
O O11 0.297163 0.745649 0.876862
O O12 0.371283 0.977313 0.094578
O O13 0.337264 0.958401 0.238791
#
# Coordination Sequence:
#
# PCOD9123198 Si02
#       7
#     4   4   4   4   4   2   4
#     4  11  25  39  62  87 124 155 205 249 297 354
#     4   9  22  39  59  95 121 152 197 255 293 349
#     4  11  22  40  58  93 119 160 201 245 300 353
#     4  10  20  38  65  87 121 157 202 235 300 360
#     4   9  19  39  60  88 123 159 195 249 292 356
#     4  12  22  40  62  90 112 168 198 246 300 358
#     4  10  20  37  66  87 121 159 200 241 300 354
#
# _framework density 27.024895999999998
#
# number of rings (size 3 to 8) (size 9 to 14) (size 15 to 20)
#    0.000    1.846    3.077    0.462    2.154    1.231 
#    2.769    0.000    0.000    0.000    0.000    0.000 
#    0.000    0.000    0.000    0.000    0.000    0.000 
#
# Total GULP energy -72641.734492 kJ/mol
# GULP energy per Si atom -5587.825730 kJ/mol
# Density = 2.696339 g / cm^3
# Si number density = 27.024896 Si / 1000 Ang^3
#
#
#
# Elastic Constant Matrix: (Units=GPa)
#
#
# Indices 1 2 3 4 5 6 
#
# 1 192.2563 22.1208 44.7277 0.0000 3.7149 0.0000
# 2 22.1208 66.1731 -1.2403 0.0000 19.3934 0.0000
# 3 44.7277 -1.2403 92.9456 0.0000 26.0333 0.0000
# 4 0.0000 0.0000 0.0000 2.3763 0.0000 -1.9639
# 5 3.7149 19.3934 26.0333 0.0000 44.3896 0.0000
# 6 0.0000 0.0000 0.0000 -1.9639 0.0000 12.1758
#
#
#
# Elastic Compliance Matrix: (Units=1/GPa)
#
#
# Indices 1 2 3 4 5 6 
#
# 1 0.006446 -0.003174 -0.004046 0.000000 0.003220 0.000000
# 2 -0.003174 0.019532 0.004911 0.000000 -0.011148 0.000000
# 3 -0.004046 0.004911 0.015888 0.000000 -0.011124 0.000000
# 4 0.000000 0.000000 0.000000 0.485556 0.000000 0.078319
# 5 0.003220 -0.011148 -0.011124 0.000000 0.033653 0.000000
# 6 0.000000 0.000000 0.000000 0.078319 0.000000 0.094763
#
#
# Mechanical properties :
#
#
# Convention : Reuss Voigt Hill
#
# Bulk Modulus (GPa) = 26.84890 53.62125 40.23508
# Shear Modulus (GPa) = 7.43083 30.83945 19.13514
#
# Velocity S-wave (km/s) = 1.66000 3.38176 2.66382
# Velocity P-wave (km/s) = 3.69196 5.92730 4.93778
#
# Compressibility (1/GPa) = 0.03724547
#
# Stress axis : x y z
#
# Youngs Moduli (GPa) = 155.14116 51.19758 62.94250
#
# Poissons Ratio (x) = 0.16252 0.25468
# Poissons Ratio (y) = 0.49248 -0.30909
# Poissons Ratio (z) = 0.62774 -0.25141
#
# Static dielectric constant tensor:
#      x y z
#    x 2.172970 0.000000 0.054380 
#    y 0.000000 2.079240 0.000000 
#    z 0.054380 0.000000 2.210490 
# 
# From -- ./inp_files/56779.got.cif
#   From: 2010.05.17/outbox.cif.g08.bks.cpg/sg5_29_cif.got.tgz:56779.got - 2010.06.03 18:56:24.
