data_PCOD9123904
_publ_section_title
;
Structure prediction by ZEFSAII (Michael W. Deem and Ramdas Pophale) SiO2 
 PCOD9123904
Probable space group: C 2
;
_chemical_formula_sum "Si O2"
_cell_formula_units_Z 22
_cell_length_a 17.890757
_cell_length_b 11.567261
_cell_length_c 15.117869
_cell_angle_alpha 90.000000
_cell_angle_beta 19.590924
_cell_angle_gamma 90.000000
_cell_volume 1049.026384
_symmetry_space_group_name_H-M "C 2"
_symmetry_group_IT_number 5
_symmetry_cell_setting 'monoclinic'
loop_
_space_group_symop_operation_xyz
x,y,z
-x,y,-z
1/2+x,1/2+y,z
1/2-x,1/2+y,-z
loop_
_atom_site_type_symbol
_atom_site_label
_atom_site_fract_x
_atom_site_fract_y
_atom_site_fract_z
Si Si1 0.643164 0.755720 0.252347
Si Si2 0.781155 0.342672 0.290309
Si Si3 0.863050 0.998962 0.790940
Si Si4 0.000000 0.128438 0.000000
Si Si5 0.565329 0.853855 0.689131
Si Si6 0.489517 0.464307 0.847868
O O1 0.500000 0.781710 0.500000
O O2 0.692859 0.618934 0.194540
O O3 0.505252 0.777013 0.315317
O O4 0.852117 0.844161 0.014347
O O5 0.572570 0.427580 0.518368
O O6 0.817591 0.307920 0.352752
O O7 0.000000 0.399595 0.000000
O O8 0.789113 0.216661 0.237531
O O9 0.919198 0.017646 0.832277
O O10 0.651593 0.915967 0.030695
O O11 0.954412 0.049288 0.967388
O O12 0.747546 0.941402 0.448360
#
# Coordination Sequence:
#
# PCOD9123904 Si02
#       6
#     4   4   4   2   4   4
#     4  11  24  39  62  94 128 169 211 257 319 380
#     4   9  22  39  65  94 122 162 217 260 317 363
#     4  10  23  41  64  92 130 166 214 261 315 381
#     4  10  20  40  68  90 124 166 212 266 310 376
#     4  10  22  42  61  89 128 165 210 261 313 381
#     4  10  22  42  62  91 126 169 212 259 321 372
#
# _framework density 20.971827999999999
#
# number of rings (size 3 to 8) (size 9 to 14) (size 15 to 20)
#    0.545    1.455    0.000    2.182    2.545    7.273 
#    0.000    5.455    0.000    0.000    0.000    0.000 
#    0.000    0.000    0.000    0.000    0.000    0.000 
#
# Total GULP energy -61319.455202 kJ/mol
# GULP energy per Si atom -5574.495927 kJ/mol
# Density = 2.092410 g / cm^3
# Si number density = 20.971828 Si / 1000 Ang^3
#
#
#
# Elastic Constant Matrix: (Units=GPa)
#
#
# Indices 1 2 3 4 5 6 
#
# 1 68.9108 32.7477 26.3832 0.0016 21.8182 -0.0009
# 2 32.7477 106.4988 53.3956 0.0006 12.2921 -0.0004
# 3 26.3832 53.3956 118.8754 0.0008 17.0891 -0.0010
# 4 0.0016 0.0006 0.0008 9.9610 0.0000 18.8796
# 5 21.8182 12.2921 17.0891 0.0000 28.3361 -0.0001
# 6 -0.0009 -0.0004 -0.0010 18.8796 -0.0001 31.9177
#
#
#
# Elastic Compliance Matrix: (Units=1/GPa)
#
#
# Indices 1 2 3 4 5 6 
#
# 1 0.021426 -0.004638 -0.000646 0.000033 -0.014096 -0.000019
# 2 -0.004638 0.013245 -0.005045 -0.000005 0.000868 0.000003
# 3 -0.000646 -0.005045 0.011426 0.000008 -0.004205 -0.000005
# 4 0.000033 -0.000005 0.000008 -0.828886 -0.000025 0.490294
# 5 -0.014096 0.000868 -0.004205 -0.000025 0.048304 0.000015
# 6 -0.000019 0.000003 -0.000005 0.490294 0.000015 -0.258683
#
#
# Mechanical properties :
#
#
# Convention : Reuss Voigt Hill
#
# Bulk Modulus (GPa) = 39.30729 57.70421 48.50575
# Shear Modulus (GPa) = -5.18655 26.16018 10.48682
#
# Velocity S-wave (km/s) = -1.57432 3.53568 2.23859
# Velocity P-wave (km/s) = 3.93433 6.65153 5.46452
#
# Compressibility (1/GPa) = 0.02544057
#
# Stress axis : x y z
#
# Youngs Moduli (GPa) = 46.67304 75.50049 87.51986
#
# Poissons Ratio (x) = 0.35013 0.05652
# Poissons Ratio (y) = 0.21645 0.44152
# Poissons Ratio (z) = 0.03014 0.38088
#
# Static dielectric constant tensor:
#      x y z
#    x 1.822300 0.000000 0.007310 
#    y 0.000000 1.732200 0.000000 
#    z 0.007310 0.000000 1.784140 
# 
# From -- ./inp_files/55959.got.cif
#   From: 2010.05.17/outbox.cif.g08.bks.cpg/sg5_28_cif.got.tgz:55959.got - 2010.06.03 18:56:24.
