data_PCOD9123314
_publ_section_title
;
Structure prediction by ZEFSAII (Michael W. Deem and Ramdas Pophale) SiO2 
 PCOD9123314
Probable space group: C 2
;
_chemical_formula_sum "Si O2"
_cell_formula_units_Z 30
_cell_length_a 9.420973
_cell_length_b 11.371712
_cell_length_c 14.069971
_cell_angle_alpha 90.000000
_cell_angle_beta 126.934744
_cell_angle_gamma 90.000000
_cell_volume 1204.857598
_symmetry_space_group_name_H-M "C 2"
_symmetry_group_IT_number 5
_symmetry_cell_setting 'monoclinic'
loop_
_space_group_symop_operation_xyz
x,y,z
-x,y,-z
1/2+x,1/2+y,z
1/2-x,1/2+y,-z
loop_
_atom_site_type_symbol
_atom_site_label
_atom_site_fract_x
_atom_site_fract_y
_atom_site_fract_z
Si Si1 0.890003 0.390610 0.575399
Si Si2 0.883874 0.595077 0.685030
Si Si3 0.034916 0.802261 0.167408
Si Si4 0.269892 0.495429 0.195226
Si Si5 0.500000 0.682791 0.500000
Si Si6 0.318151 0.773129 0.735447
Si Si7 0.267068 0.715882 0.086334
Si Si8 0.155903 0.018957 0.324260
O O1 0.985378 0.504033 0.659267
O O2 0.779361 0.345392 0.622227
O O3 0.784361 0.443885 0.443594
O O4 0.998412 0.277301 0.586066
O O5 0.947890 0.725621 0.729778
O O6 0.872144 0.541617 0.785500
O O7 0.682542 0.611791 0.566844
O O8 0.180537 0.764921 0.148123
O O9 0.078684 0.935377 0.210631
O O10 0.848877 0.770790 0.044039
O O11 0.252472 0.355656 0.206899
O O12 0.242795 0.573570 0.089132
O O13 0.468552 0.537511 0.305216
O O14 0.529477 0.755169 0.837725
O O15 0.266628 0.640106 0.685276
#
# Coordination Sequence:
#
# PCOD9123314 Si02
#       8
#     4   4   4   4   2   4   4   4
#     4  11  22  36  64  94 126 171 214 259 323 391
#     4  10  20  38  61  89 117 170 216 258 317 388
#     4  10  20  40  65  90 125 169 212 265 332 375
#     4   9  20  41  66  90 125 165 214 269 328 378
#     4  12  20  38  64  86 132 168 208 266 322 384
#     4  10  22  42  64  96 128 169 220 269 323 390
#     4   9  20  43  70  88 120 169 221 271 316 397
#     4  11  22  39  61  95 136 167 206 271 331 385
#
# _framework density 24.899208999999999
#
# number of rings (size 3 to 8) (size 9 to 14) (size 15 to 20)
#    0.000    1.867    1.333    4.000    0.000    1.600 
#   24.000    1.333    5.867    0.000    0.000    0.000 
#    0.000    0.000    0.000    0.000    0.000    0.000 
#
# Total GULP energy -83700.021940 kJ/mol
# GULP energy per Si atom -5580.001463 kJ/mol
# Density = 2.484254 g / cm^3
# Si number density = 24.899209 Si / 1000 Ang^3
#
#
#
# Elastic Constant Matrix: (Units=GPa)
#
#
# Indices 1 2 3 4 5 6 
#
# 1 48.8618 52.1309 9.4572 0.0000 2.5147 0.0000
# 2 52.1309 202.8935 52.2508 0.0000 -12.5401 0.0000
# 3 9.4572 52.2508 111.2202 0.0000 4.1923 0.0000
# 4 0.0000 0.0000 0.0000 40.4373 0.0000 -5.6233
# 5 2.5147 -12.5401 4.1923 0.0000 26.9954 0.0000
# 6 0.0000 0.0000 0.0000 -5.6233 0.0000 52.4452
#
#
#
# Elastic Compliance Matrix: (Units=1/GPa)
#
#
# Indices 1 2 3 4 5 6 
#
# 1 0.029511 -0.008456 0.001725 0.000000 -0.006945 0.000000
# 2 -0.008456 0.008288 -0.003369 0.000000 0.005161 0.000000
# 3 0.001725 -0.003369 0.010554 0.000000 -0.003365 0.000000
# 4 0.000000 0.000000 0.000000 0.025104 0.000000 0.002692
# 5 -0.006945 0.005161 -0.003365 0.000000 0.040610 0.000000
# 6 0.000000 0.000000 0.000000 0.002692 0.000000 0.019356
#
#
# Mechanical properties :
#
#
# Convention : Reuss Voigt Hill
#
# Bulk Modulus (GPa) = 35.52023 65.62815 50.57419
# Shear Modulus (GPa) = 30.67330 40.58470 35.62900
#
# Velocity S-wave (km/s) = 3.51365 4.04166 3.78687
# Velocity P-wave (km/s) = 5.54595 6.94224 6.28300
#
# Compressibility (1/GPa) = 0.02815297
#
# Stress axis : x y z
#
# Youngs Moduli (GPa) = 33.88547 120.65657 94.74944
#
# Poissons Ratio (x) = 1.02027 -0.16344
# Poissons Ratio (y) = 0.28654 0.31923
# Poissons Ratio (z) = -0.05845 0.40651
#
# Static dielectric constant tensor:
#      x y z
#    x 2.118070 0.000000 -0.043200 
#    y 0.000000 2.055430 0.000000 
#    z -0.043200 0.000000 1.967280 
# 
# From -- ./inp_files/52897.got.cif
#   From: 2010.05.17/outbox.cif.g08.bks.cpg/sg5_27_cif.got.tgz:52897.got - 2010.06.03 18:56:24.
