data_PCOD9123379
_publ_section_title
;
Structure prediction by ZEFSAII (Michael W. Deem and Ramdas Pophale) SiO2 
 PCOD9123379
Probable space group: C 2
;
_chemical_formula_sum "Si O2"
_cell_formula_units_Z 20
_cell_length_a 14.361107
_cell_length_b 11.840333
_cell_length_c 11.706225
_cell_angle_alpha 90.000000
_cell_angle_beta 152.396176
_cell_angle_gamma 90.000000
_cell_volume 922.322334
_symmetry_space_group_name_H-M "C 2"
_symmetry_group_IT_number 5
_symmetry_cell_setting 'monoclinic'
loop_
_space_group_symop_operation_xyz
x,y,z
-x,y,-z
1/2+x,1/2+y,z
1/2-x,1/2+y,-z
loop_
_atom_site_type_symbol
_atom_site_label
_atom_site_fract_x
_atom_site_fract_y
_atom_site_fract_z
Si Si1 0.627567 0.564300 0.000427
Si Si2 0.532725 0.491897 0.407191
Si Si3 0.680797 0.038194 0.471224
Si Si4 0.612540 0.242824 0.792585
Si Si5 0.601464 0.859837 0.718058
O O1 0.620816 0.543961 0.853406
O O2 0.391410 0.557587 0.768891
O O3 0.745135 0.680602 0.145607
O O4 0.758559 0.458847 0.182293
O O5 0.500000 0.530276 0.500000
O O6 0.744660 0.521463 0.578019
O O7 0.496294 0.357194 0.363545
O O8 0.545387 0.147895 0.341293
O O9 0.562632 0.927297 0.384692
O O10 0.759747 0.282588 0.053896
O O11 0.500000 0.800518 0.500000
#
# Coordination Sequence:
#
# PCOD9123379 Si02
#       5
#     4   4   4   4   4
#     4   8  20  38  59  84 128 156 201 253 307 358
#     4   9  20  40  63  87 121 161 205 255 305 365
#     4   9  21  40  63  85 131 159 199 257 320 350
#     4  10  20  38  63  91 119 162 205 258 299 370
#     4  10  21  38  60  89 126 159 205 248 300 375
#
# _framework density 21.684391999999999
#
# number of rings (size 3 to 8) (size 9 to 14) (size 15 to 20)
#    1.200    1.600    0.000    0.000    2.800    4.800 
#    0.000   11.000    0.000    0.000    0.000    0.000 
#    0.000    0.000    0.000    0.000    0.000    0.000 
#
# Total GULP energy -55754.273972 kJ/mol
# GULP energy per Si atom -5575.427397 kJ/mol
# Density = 2.163504 g / cm^3
# Si number density = 21.684392 Si / 1000 Ang^3
#
#
#
# Elastic Constant Matrix: (Units=GPa)
#
#
# Indices 1 2 3 4 5 6 
#
# 1 116.9732 22.0931 36.3292 0.0000 13.3656 0.0000
# 2 22.0931 83.7024 8.5242 0.0000 15.6294 0.0000
# 3 36.3292 8.5242 79.5882 0.0000 16.3395 0.0000
# 4 0.0000 0.0000 0.0000 21.5844 0.0000 6.4013
# 5 13.3656 15.6294 16.3395 0.0000 42.4288 0.0000
# 6 0.0000 0.0000 0.0000 6.4013 0.0000 9.3563
#
#
#
# Elastic Compliance Matrix: (Units=1/GPa)
#
#
# Indices 1 2 3 4 5 6 
#
# 1 0.010399 -0.002151 -0.004350 0.000000 -0.000808 0.000000
# 2 -0.002151 0.013289 0.000461 0.000000 -0.004395 0.000000
# 3 -0.004350 0.000461 0.015478 0.000000 -0.004760 0.000000
# 4 0.000000 0.000000 0.000000 0.058123 0.000000 -0.039766
# 5 -0.000808 -0.004395 -0.004760 0.000000 0.027276 0.000000
# 6 0.000000 0.000000 0.000000 -0.039766 0.000000 0.134086
#
#
# Mechanical properties :
#
#
# Convention : Reuss Voigt Hill
#
# Bulk Modulus (GPa) = 36.92103 46.01744 41.46923
# Shear Modulus (GPa) = 17.87252 28.89508 23.38380
#
# Velocity S-wave (km/s) = 2.87402 3.65434 3.28742
# Velocity P-wave (km/s) = 5.29876 6.25085 5.79439
#
# Compressibility (1/GPa) = 0.02708484
#
# Stress axis : x y z
#
# Youngs Moduli (GPa) = 96.16643 75.25301 64.60631
#
# Poissons Ratio (x) = 0.16185 0.28106
# Poissons Ratio (y) = 0.20683 -0.02977
# Poissons Ratio (z) = 0.41836 -0.03468
#
# Static dielectric constant tensor:
#      x y z
#    x 1.860080 0.000000 -0.026560 
#    y 0.000000 1.760310 0.000000 
#    z -0.026560 0.000000 1.829240 
# 
# From -- ./inp_files/42593.got.cif
#   From: 2010.05.17/outbox.cif.g08.bks.cpg/sg5_22_cif.got.tgz:42593.got - 2010.06.03 18:56:24.
