data_PCOD9123516
_publ_section_title
;
Structure prediction by ZEFSAII (Michael W. Deem and Ramdas Pophale) SiO2 
 PCOD9123516
Probable space group: C 2
;
_chemical_formula_sum "Si O2"
_cell_formula_units_Z 28
_cell_length_a 21.435071
_cell_length_b 7.954755
_cell_length_c 23.193926
_cell_angle_alpha 90.000000
_cell_angle_beta 160.184572
_cell_angle_gamma 90.000000
_cell_volume 1340.647186
_symmetry_space_group_name_H-M "C 2"
_symmetry_group_IT_number 5
_symmetry_cell_setting 'monoclinic'
loop_
_space_group_symop_operation_xyz
x,y,z
-x,y,-z
1/2+x,1/2+y,z
1/2-x,1/2+y,-z
loop_
_atom_site_type_symbol
_atom_site_label
_atom_site_fract_x
_atom_site_fract_y
_atom_site_fract_z
Si Si1 0.727393 0.530440 0.347105
Si Si2 0.000000 0.541352 0.000000
Si Si3 0.474988 0.031963 0.751766
Si Si4 0.058060 0.707592 0.162435
Si Si5 0.652823 0.274039 0.450804
Si Si6 0.500000 0.205136 0.500000
Si Si7 0.814682 0.817998 0.224469
Si Si8 0.819317 0.016429 0.969009
O O1 0.710722 0.331142 0.323022
O O2 0.820336 0.611193 0.484046
O O3 0.838261 0.599321 0.388911
O O4 0.514374 0.589678 0.160761
O O5 0.106910 0.647848 0.141178
O O6 0.138423 0.431424 0.081983
O O7 0.482181 0.062938 0.826180
O O8 0.395660 0.202064 0.653442
O O9 0.333401 0.885089 0.613062
O O10 0.670182 0.006159 0.890138
O O11 0.879687 0.830188 0.001798
O O12 0.475314 0.374698 0.320376
O O13 0.410734 0.305511 0.370049
O O14 0.752569 0.637388 0.144245
#
# Coordination Sequence:
#
# PCOD9123516 Si02
#       8
#     4   2   4   4   4   2   4   4
#     4   9  21  40  62  94 122 165 212 251 318 370
#     4  12  26  42  62  92 134 162 220 262 306 380
#     4  11  23  42  66  94 133 163 209 264 315 378
#     4  10  26  39  62  99 122 167 213 259 318 364
#     4  10  23  41  66  96 126 165 211 260 322 373
#     4  10  20  38  68  84 124 166 214 254 310 374
#     4  10  23  40  64  89 121 171 213 256 312 373
#     4   9  23  41  67  90 123 168 216 252 317 375
#
# _framework density 20.885435000000001
#
# number of rings (size 3 to 8) (size 9 to 14) (size 15 to 20)
#    0.857    1.143    0.000    1.714   10.000    2.286 
#    2.571    0.000    0.000    0.000    0.000    0.000 
#    0.000    0.000    0.000    0.000    0.000    0.000 
#
# Total GULP energy -78052.590283 kJ/mol
# GULP energy per Si atom -5575.185020 kJ/mol
# Density = 2.083790 g / cm^3
# Si number density = 20.885435 Si / 1000 Ang^3
#
#
#
# Elastic Constant Matrix: (Units=GPa)
#
#
# Indices 1 2 3 4 5 6 
#
# 1 102.0820 18.2419 15.6315 0.0001 -2.0885 0.0000
# 2 18.2419 33.0910 8.0523 0.0011 14.9737 -0.0001
# 3 15.6315 8.0523 78.6058 0.0005 18.9090 0.0004
# 4 0.0001 0.0011 0.0005 22.4355 -0.0008 3.3577
# 5 -2.0885 14.9737 18.9090 -0.0008 32.5704 0.0002
# 6 0.0000 -0.0001 0.0004 3.3577 0.0002 10.3723
#
#
#
# Elastic Compliance Matrix: (Units=1/GPa)
#
#
# Indices 1 2 3 4 5 6 
#
# 1 0.011984 -0.008856 -0.003069 0.000001 0.006621 0.000000
# 2 -0.008856 0.044711 0.002629 -0.000003 -0.022649 0.000002
# 3 -0.003069 0.002629 0.015576 -0.000001 -0.010448 0.000000
# 4 0.000001 -0.000003 -0.000001 0.046842 0.000003 -0.015163
# 5 0.006621 -0.022649 -0.010448 0.000003 0.047606 -0.000002
# 6 0.000000 0.000002 0.000000 -0.015163 -0.000002 0.101320
#
#
# Mechanical properties :
#
#
# Convention : Reuss Voigt Hill
#
# Bulk Modulus (GPa) = 18.62879 33.07002 25.84940
# Shear Modulus (GPa) = 16.41920 24.53248 20.47584
#
# Velocity S-wave (km/s) = 2.80689 3.43099 3.13451
# Velocity P-wave (km/s) = 4.40950 5.61819 5.05013
#
# Compressibility (1/GPa) = 0.05368035
#
# Stress axis : x y z
#
# Youngs Moduli (GPa) = 83.44503 22.36603 64.20126
#
# Poissons Ratio (x) = 0.19807 0.19702
# Poissons Ratio (y) = 0.73897 -0.16881
# Poissons Ratio (z) = 0.25607 -0.05881
#
# Static dielectric constant tensor:
#      x y z
#    x 1.737380 0.000000 0.012460 
#    y 0.000000 1.772210 0.000000 
#    z 0.012460 0.000000 1.773250 
# 
# From -- ./inp_files/67373.got.cif
#   From: 2010.05.17/outbox.cif.g08.bks.cpg/sg5_34_cif.got.tgz:67373.got - 2010.06.03 18:56:24.
