data_PCOD9123259
_publ_section_title
;
Structure prediction by ZEFSAII (Michael W. Deem and Ramdas Pophale) SiO2 
 PCOD9123259
Probable space group: C 2
;
_chemical_formula_sum "Si O2"
_cell_formula_units_Z 30
_cell_length_a 8.779091
_cell_length_b 12.735228
_cell_length_c 12.368100
_cell_angle_alpha 90.000000
_cell_angle_beta 84.164732
_cell_angle_gamma 90.000000
_cell_volume 1375.634427
_symmetry_space_group_name_H-M "C 2"
_symmetry_group_IT_number 5
_symmetry_cell_setting 'monoclinic'
loop_
_space_group_symop_operation_xyz
x,y,z
-x,y,-z
1/2+x,1/2+y,z
1/2-x,1/2+y,-z
loop_
_atom_site_type_symbol
_atom_site_label
_atom_site_fract_x
_atom_site_fract_y
_atom_site_fract_z
Si Si1 0.951973 0.942870 0.325971
Si Si2 0.794233 0.860950 0.538271
Si Si3 0.500000 0.166448 0.500000
Si Si4 0.779733 0.421631 0.835657
Si Si5 0.047439 0.490342 0.665345
Si Si6 0.189715 0.045413 0.193485
Si Si7 0.839798 0.846262 0.952679
Si Si8 0.170500 0.615068 0.027021
O O1 0.841455 0.941246 0.438022
O O2 0.857676 0.891977 0.235025
O O3 0.095878 0.881504 0.366341
O O4 0.029073 0.047322 0.269702
O O5 0.852104 0.744839 0.498396
O O6 0.628952 0.899783 0.587654
O O7 0.478767 0.085714 0.600484
O O8 0.757325 0.535275 0.893321
O O9 0.927712 0.433921 0.751854
O O10 0.784273 0.351598 0.941993
O O11 0.175730 0.546486 0.729696
O O12 0.193141 0.930736 0.135589
O O13 0.227236 0.118613 0.089111
O O14 0.850539 0.727099 0.916230
O O15 0.000000 0.874367 0.000000
O O16 0.000000 0.579417 0.000000
#
# Coordination Sequence:
#
# PCOD9123259 Si02
#       8
#     4   4   2   4   4   4   4   4
#     4   9  18  36  61  84 117 161 200 248 311 361
#     4   9  22  41  64  94 124 162 215 257 305 394
#     4  10  22  42  70  94 124 172 214 262 326 380
#     4  11  21  36  63  94 122 160 202 261 313 369
#     4  11  22  39  65  93 129 163 208 264 320 372
#     4  10  20  38  58  89 121 159 202 253 304 373
#     4  10  21  38  61  86 120 166 206 249 307 378
#     4  10  21  36  57  90 123 160 209 251 302 379
#
# _framework density 21.808119999999999
#
# number of rings (size 3 to 8) (size 9 to 14) (size 15 to 20)
#    0.000    2.133    2.667    0.800    0.000    5.333 
#    0.000    5.333    0.000   21.600    0.000    0.000 
#    0.000    0.000    0.000    0.000    0.000    0.000 
#
# Total GULP energy -83551.478754 kJ/mol
# GULP energy per Si atom -5570.098584 kJ/mol
# Density = 2.175848 g / cm^3
# Si number density = 21.808120 Si / 1000 Ang^3
#
#
#
# Elastic Constant Matrix: (Units=GPa)
#
#
# Indices 1 2 3 4 5 6 
#
# 1 32.1826 16.6353 24.7173 0.0000 -22.0636 0.0000
# 2 16.6353 71.2193 18.5948 0.0000 2.0509 0.0000
# 3 24.7173 18.5948 106.5595 0.0000 -16.7826 0.0000
# 4 0.0000 0.0000 0.0000 6.0623 0.0000 5.4452
# 5 -22.0636 2.0509 -16.7826 0.0000 50.0019 0.0000
# 6 0.0000 0.0000 0.0000 5.4452 0.0000 17.6835
#
#
#
# Elastic Compliance Matrix: (Units=1/GPa)
#
#
# Indices 1 2 3 4 5 6 
#
# 1 0.060701 -0.012808 -0.007965 0.000000 0.024637 0.000000
# 2 -0.012808 0.017528 -0.001152 0.000000 -0.006757 0.000000
# 3 -0.007965 -0.001152 0.011494 0.000000 0.000391 0.000000
# 4 0.000000 0.000000 0.000000 0.228019 0.000000 -0.070213
# 5 0.024637 -0.006757 0.000391 0.000000 0.031279 0.000000
# 6 0.000000 0.000000 0.000000 -0.070213 0.000000 0.078170
#
#
# Mechanical properties :
#
#
# Convention : Reuss Voigt Hill
#
# Bulk Modulus (GPa) = 21.79914 36.65069 29.22492
# Shear Modulus (GPa) = 10.28102 24.75048 17.51575
#
# Velocity S-wave (km/s) = 2.17360 3.37251 2.83711
# Velocity P-wave (km/s) = 4.03943 5.65753 4.91551
#
# Compressibility (1/GPa) = 0.04587336
#
# Stress axis : x y z
#
# Youngs Moduli (GPa) = 16.47424 57.05083 86.99824
#
# Poissons Ratio (x) = 0.73072 0.69293
# Poissons Ratio (y) = 0.21101 0.10022
# Poissons Ratio (z) = 0.13121 0.06572
#
# Static dielectric constant tensor:
#      x y z
#    x 1.872660 0.000000 -0.057560 
#    y 0.000000 1.779540 0.000000 
#    z -0.057560 0.000000 1.828480 
# 
# From -- ./inp_files/36178.got.cif
#   From: 2010.05.17/outbox.cif.g08.bks.cpg/sg5_19_cif.got.tgz:36178.got - 2010.06.03 18:56:24.
