data_PCOD9123745
_publ_section_title
;
Structure prediction by ZEFSAII (Michael W. Deem and Ramdas Pophale) SiO2 
 PCOD9123745
Probable space group: C 2
;
_chemical_formula_sum "Si O2"
_cell_formula_units_Z 32
_cell_length_a 18.915492
_cell_length_b 11.564890
_cell_length_c 8.310166
_cell_angle_alpha 90.000000
_cell_angle_beta 52.973315
_cell_angle_gamma 90.000000
_cell_volume 1451.325980
_symmetry_space_group_name_H-M "C 2"
_symmetry_group_IT_number 5
_symmetry_cell_setting 'monoclinic'
loop_
_space_group_symop_operation_xyz
x,y,z
-x,y,-z
1/2+x,1/2+y,z
1/2-x,1/2+y,-z
loop_
_atom_site_type_symbol
_atom_site_label
_atom_site_fract_x
_atom_site_fract_y
_atom_site_fract_z
Si Si1 0.608205 0.169730 0.946149
Si Si2 0.794654 0.119410 0.558818
Si Si3 0.961644 0.539402 0.269923
Si Si4 0.094511 0.108695 0.305628
Si Si5 0.088594 0.295351 0.811183
Si Si6 0.785110 0.540780 0.656724
Si Si7 0.846908 0.895329 0.963490
Si Si8 0.211544 0.267964 0.930189
O O1 0.713280 0.162027 0.779857
O O2 0.574056 0.131454 0.816003
O O3 0.563197 0.080457 0.134276
O O4 0.593902 0.298960 0.029811
O O5 0.857307 0.059619 0.601557
O O6 0.853106 0.218695 0.390800
O O7 0.751125 0.044576 0.476803
O O8 0.948626 0.410988 0.219437
O O9 0.891490 0.541410 0.509730
O O10 0.000000 0.146189 0.500000
O O11 0.097175 0.005661 0.172116
O O12 0.146611 0.216418 0.156241
O O13 0.151717 0.327172 0.874888
O O14 0.000000 0.231845 0.000000
O O15 0.752956 0.656466 0.786837
O O16 0.732429 0.438736 0.813169
O O17 0.792005 0.839836 0.891985
#
# Coordination Sequence:
#
# PCOD9123745 Si02
#       8
#     4   4   4   4   4   4   4   4
#     4  10  20  40  60  95 129 166 202 272 316 384
#     4  10  21  41  67  87 132 165 216 270 314 391
#     4  10  21  37  65  95 130 153 224 266 315 378
#     4  11  24  43  59  94 127 166 221 264 323 383
#     4  11  21  38  67  98 122 165 216 270 327 373
#     4   9  22  41  61  96 120 172 222 257 319 393
#     4  11  23  41  67  88 132 177 211 259 339 385
#     4  10  23  40  65  90 131 169 213 265 327 393
#
# _framework density 22.048802999999999
#
# number of rings (size 3 to 8) (size 9 to 14) (size 15 to 20)
#    0.000    1.750    2.500    1.500    3.500    1.000 
#    4.500    0.000    0.000    0.000    0.000    0.000 
#    0.000    0.000    0.000    0.000    0.000    0.000 
#
# Total GULP energy -89267.509807 kJ/mol
# GULP energy per Si atom -5579.219363 kJ/mol
# Density = 2.199862 g / cm^3
# Si number density = 22.048803 Si / 1000 Ang^3
#
#
#
# Elastic Constant Matrix: (Units=GPa)
#
#
# Indices 1 2 3 4 5 6 
#
# 1 22.8653 3.2386 16.9214 0.0000 2.9781 0.0000
# 2 3.2386 71.3555 22.4899 0.0000 -2.4734 0.0000
# 3 16.9214 22.4899 130.4525 0.0000 -25.6499 0.0000
# 4 0.0000 0.0000 0.0000 21.1519 0.0000 -3.8076
# 5 2.9781 -2.4734 -25.6499 0.0000 34.0952 0.0000
# 6 0.0000 0.0000 0.0000 -3.8076 0.0000 26.8942
#
#
#
# Elastic Compliance Matrix: (Units=1/GPa)
#
#
# Indices 1 2 3 4 5 6 
#
# 1 0.051809 0.000078 -0.008946 0.000000 -0.011249 0.000000
# 2 0.000078 0.014848 -0.002769 0.000000 -0.001013 0.000000
# 3 -0.008946 -0.002769 0.011052 0.000000 0.008895 0.000000
# 4 0.000000 0.000000 0.000000 0.048513 0.000000 0.006868
# 5 -0.011249 -0.001013 0.008895 0.000000 0.036931 0.000000
# 6 0.000000 0.000000 0.000000 0.006868 0.000000 0.038155
#
#
# Mechanical properties :
#
#
# Convention : Reuss Voigt Hill
#
# Bulk Modulus (GPa) = 18.37011 34.44146 26.40579
# Shear Modulus (GPa) = 20.59923 28.56314 24.58118
#
# Velocity S-wave (km/s) = 3.05988 3.60314 3.34256
# Velocity P-wave (km/s) = 4.56437 5.74148 5.18643
#
# Compressibility (1/GPa) = 0.05443624
#
# Stress axis : x y z
#
# Youngs Moduli (GPa) = 19.30177 67.34696 90.47815
#
# Poissons Ratio (x) = -0.00526 0.80938
# Poissons Ratio (y) = -0.00151 0.25055
# Poissons Ratio (z) = 0.17267 0.18649
#
# Static dielectric constant tensor:
#      x y z
#    x 1.892970 0.000000 -0.040610 
#    y 0.000000 1.787460 0.000000 
#    z -0.040610 0.000000 1.879840 
# 
# From -- ./inp_files/29611.got.cif
#   From: 2010.05.17/outbox.cif.g08.bks.cpg/sg5_15_cif.got.tgz:29611.got - 2010.06.03 18:56:24.
