data_PCOD9123616
_publ_section_title
;
Structure prediction by ZEFSAII (Michael W. Deem and Ramdas Pophale) SiO2 
 PCOD9123616
Probable space group: C 2
;
_chemical_formula_sum "Si O2"
_cell_formula_units_Z 20
_cell_length_a 7.707285
_cell_length_b 25.191517
_cell_length_c 8.662590
_cell_angle_alpha 90.000000
_cell_angle_beta 145.209642
_cell_angle_gamma 90.000000
_cell_volume 959.658075
_symmetry_space_group_name_H-M "C 2"
_symmetry_group_IT_number 5
_symmetry_cell_setting 'monoclinic'
loop_
_space_group_symop_operation_xyz
x,y,z
-x,y,-z
1/2+x,1/2+y,z
1/2-x,1/2+y,-z
loop_
_atom_site_type_symbol
_atom_site_label
_atom_site_fract_x
_atom_site_fract_y
_atom_site_fract_z
Si Si1 0.821648 0.247710 0.663667
Si Si2 0.525925 0.197468 0.838401
Si Si3 0.166376 0.593518 0.783670
Si Si4 0.000000 0.994128 0.000000
Si Si5 0.500000 0.922796 0.500000
Si Si6 0.844323 0.374145 0.722684
O O1 0.500000 0.226701 0.500000
O O2 0.847575 0.309964 0.714136
O O3 0.136827 0.221495 0.944325
O O4 0.735197 0.233981 0.425321
O O5 0.500000 0.196959 0.000000
O O6 0.492306 0.136961 0.754776
O O7 0.000000 0.585977 0.500000
O O8 0.500000 0.617948 0.000000
O O9 0.263559 0.534737 0.911844
O O10 0.199188 0.958562 0.258631
O O11 0.466966 0.893403 0.643493
O O12 0.500000 0.391817 0.500000
O O13 0.000000 0.388959 0.000000
#
# Coordination Sequence:
#
# PCOD9123616 Si02
#       6
#     4   4   4   2   2   4
#     4  11  23  42  62  92 132 183 217 259 330 411
#     4  12  24  36  62  99 135 169 218 273 331 390
#     4  10  20  39  64  84 124 166 220 259 314 409
#     4  10  22  42  68  98 116 178 236 260 342 402
#     4  12  24  44  76  96 132 182 220 298 338 380
#     4  11  25  45  67 102 139 174 229 276 336 412
#
# _framework density 20.840758000000001
#
# number of rings (size 3 to 8) (size 9 to 14) (size 15 to 20)
#    0.600    0.400    1.000    7.800    2.800    0.000 
#    0.000    3.000    0.000    0.000    0.000    0.000 
#    0.000    0.000    0.000    0.000    0.000    0.000 
#
# Total GULP energy -55692.787604 kJ/mol
# GULP energy per Si atom -5569.278760 kJ/mol
# Density = 2.079332 g / cm^3
# Si number density = 20.840758 Si / 1000 Ang^3
#
#
#
# Elastic Constant Matrix: (Units=GPa)
#
#
# Indices 1 2 3 4 5 6 
#
# 1 102.5279 28.3964 36.3769 0.0000 -15.9275 0.0000
# 2 28.3964 69.4131 41.0537 0.0000 -5.7960 0.0000
# 3 36.3769 41.0537 183.6182 0.0000 -6.7657 0.0000
# 4 0.0000 0.0000 0.0000 34.7111 0.0000 0.4044
# 5 -15.9275 -5.7960 -6.7657 0.0000 34.9806 0.0000
# 6 0.0000 0.0000 0.0000 0.4044 0.0000 -8.5571
#
#
#
# Elastic Compliance Matrix: (Units=1/GPa)
#
#
# Indices 1 2 3 4 5 6 
#
# 1 0.011978 -0.003704 -0.001376 0.000000 0.004574 0.000000
# 2 -0.003704 0.017894 -0.003243 0.000000 0.000651 0.000000
# 3 -0.001376 -0.003243 0.006447 0.000000 0.000083 0.000000
# 4 0.000000 0.000000 0.000000 0.028793 0.000000 0.001361
# 5 0.004574 0.000651 0.000083 0.000000 0.030794 0.000000
# 6 0.000000 0.000000 0.000000 0.001361 0.000000 -0.116798
#
#
# Mechanical properties :
#
#
# Convention : Reuss Voigt Hill
#
# Bulk Modulus (GPa) = 50.83291 63.02370 56.92830
# Shear Modulus (GPa) = 2161.69868 28.87575 1095.28722
#
# Velocity S-wave (km/s) = 32.24124 3.72633 22.94976
# Velocity P-wave (km/s) = 37.55583 6.98715 27.01167
#
# Compressibility (1/GPa) = 0.01967229
#
# Stress axis : x y z
#
# Youngs Moduli (GPa) = 83.48459 55.88375 155.11405
#
# Poissons Ratio (x) = 0.20701 0.21348
# Poissons Ratio (y) = 0.30925 0.50303
# Poissons Ratio (z) = 0.11490 0.18123
#
# Static dielectric constant tensor:
#      x y z
#    x 1.834850 0.000000 -0.043160 
#    y 0.000000 1.759290 0.000000 
#    z -0.043160 0.000000 1.807990 
# 
# From -- ./inp_files/17343.got.cif
#   From: 2010.05.17/outbox.cif.g08.bks.cpg/sg5_9_cif.got.tgz:17343.got - 2010.06.03 18:56:24.
