data_PCOD9123196
_publ_section_title
;
Structure prediction by ZEFSAII (Michael W. Deem and Ramdas Pophale) SiO2 
 PCOD9123196
Probable space group: C 2
;
_chemical_formula_sum "Si O2"
_cell_formula_units_Z 26
_cell_length_a 5.688639
_cell_length_b 18.132552
_cell_length_c 11.304408
_cell_angle_alpha 90.000000
_cell_angle_beta 73.491266
_cell_angle_gamma 90.000000
_cell_volume 1117.975995
_symmetry_space_group_name_H-M "C 2"
_symmetry_group_IT_number 5
_symmetry_cell_setting 'monoclinic'
loop_
_space_group_symop_operation_xyz
x,y,z
-x,y,-z
1/2+x,1/2+y,z
1/2-x,1/2+y,-z
loop_
_atom_site_type_symbol
_atom_site_label
_atom_site_fract_x
_atom_site_fract_y
_atom_site_fract_z
Si Si1 0.000000 0.000000 0.500000
Si Si2 0.894093 0.776041 0.247113
Si Si3 0.706936 0.563114 0.680404
Si Si4 0.647452 0.115969 0.776709
Si Si5 0.000000 0.501888 0.000000
Si Si6 0.257372 0.375106 0.667813
Si Si7 0.744539 0.924305 0.150696
Si Si8 0.000000 0.299785 0.500000
O O1 0.905813 0.948441 0.618575
O O2 0.789073 0.043461 0.460206
O O3 0.909807 0.699700 0.177251
O O4 0.870820 0.847584 0.166559
O O5 0.667850 0.764054 0.373540
O O6 0.117157 0.803182 0.296283
O O7 0.442466 0.605704 0.720639
O O8 0.691870 0.491297 0.769654
O O9 0.949915 0.603453 0.697459
O O10 0.578668 0.055274 0.883385
O O11 0.776094 0.453163 0.980362
O O12 0.176271 0.351893 0.548909
O O13 0.035208 0.401219 0.779127
#
# Coordination Sequence:
#
# PCOD9123196 Si02
#       8
#     2   4   4   4   2   4   4   2
#     4  12  18  39  66 104 135 194 226 282 336 421
#     4  11  23  43  69 103 143 183 234 294 350 434
#     4  11  25  45  68 102 144 188 235 290 353 430
#     4  11  28  48  68 102 148 187 231 300 361 427
#     4  10  24  52  70 100 134 190 234 304 368 400
#     4  11  20  39  67 103 137 178 239 294 336 413
#     4  10  23  43  73  97 131 182 247 300 339 421
#     4  10  20  37  66 100 143 184 220 278 364 397
#
# _framework density 23.256312999999999
#
# number of rings (size 3 to 8) (size 9 to 14) (size 15 to 20)
#    0.000    1.231    3.077    2.769    4.308    4.923 
#    5.538    0.000    0.000    0.000    0.000    0.000 
#    0.000    0.000    0.000    0.000    0.000    0.000 
#
# Total GULP energy -72471.764680 kJ/mol
# GULP energy per Si atom -5574.751129 kJ/mol
# Density = 2.320338 g / cm^3
# Si number density = 23.256313 Si / 1000 Ang^3
#
#
#
# Elastic Constant Matrix: (Units=GPa)
#
#
# Indices 1 2 3 4 5 6 
#
# 1 117.7910 34.9776 22.0809 0.0000 29.9400 0.0000
# 2 34.9776 144.1775 26.4746 0.0000 26.9153 0.0000
# 3 22.0809 26.4746 59.8950 0.0000 31.4079 0.0000
# 4 0.0000 0.0000 0.0000 1.2512 0.0000 50.8904
# 5 29.9400 26.9153 31.4079 0.0000 43.9146 0.0000
# 6 0.0000 0.0000 0.0000 50.8904 0.0000 -66.5726
#
#
#
# Elastic Compliance Matrix: (Units=1/GPa)
#
#
# Indices 1 2 3 4 5 6 
#
# 1 0.010503 -0.001372 0.000077 0.000000 -0.006375 0.000000
# 2 -0.001372 0.008098 -0.001538 0.000000 -0.002927 0.000000
# 3 0.000077 -0.001538 0.027011 0.000000 -0.018428 0.000000
# 4 0.000000 0.000000 0.000000 0.024904 0.000000 0.019038
# 5 -0.006375 -0.002927 -0.018428 0.000000 0.042092 0.000000
# 6 0.000000 0.000000 0.000000 0.019038 0.000000 -0.000468
#
#
# Mechanical properties :
#
#
# Convention : Reuss Voigt Hill
#
# Bulk Modulus (GPa) = 25.03433 54.32553 39.67993
# Shear Modulus (GPa) = 38.13278 11.60732 24.87005
#
# Velocity S-wave (km/s) = 4.05368 2.23649 3.27370
# Velocity P-wave (km/s) = 5.71819 5.48447 5.60255
#
# Compressibility (1/GPa) = 0.03994514
#
# Stress axis : x y z
#
# Youngs Moduli (GPa) = 95.21126 123.49107 37.02241
#
# Poissons Ratio (x) = 0.16945 -0.00287
# Poissons Ratio (y) = 0.13064 0.05696
# Poissons Ratio (z) = -0.00738 0.18999
#
# Static dielectric constant tensor:
#      x y z
#    x 2.039690 0.000000 -0.088530 
#    y 0.000000 1.880150 0.000000 
#    z -0.088530 0.000000 2.026710 
# 
# From -- ./inp_files/33547.got.cif
#   From: 2010.05.17/outbox.cif.g08.bks.cpg/sg5_17_cif.got.tgz:33547.got - 2010.06.03 18:56:24.
