data_PCOD9123243
_publ_section_title
;
Structure prediction by ZEFSAII (Michael W. Deem and Ramdas Pophale) SiO2 
 PCOD9123243
Probable space group: C 2
;
_chemical_formula_sum "Si O2"
_cell_formula_units_Z 26
_cell_length_a 21.177988
_cell_length_b 13.800286
_cell_length_c 6.621745
_cell_angle_alpha 90.000000
_cell_angle_beta 49.132885
_cell_angle_gamma 90.000000
_cell_volume 1463.519933
_symmetry_space_group_name_H-M "C 2"
_symmetry_group_IT_number 5
_symmetry_cell_setting 'monoclinic'
loop_
_space_group_symop_operation_xyz
x,y,z
-x,y,-z
1/2+x,1/2+y,z
1/2-x,1/2+y,-z
loop_
_atom_site_type_symbol
_atom_site_label
_atom_site_fract_x
_atom_site_fract_y
_atom_site_fract_z
Si Si1 0.775852 0.919460 0.090390
Si Si2 0.066881 0.923483 0.530795
Si Si3 0.834649 0.735898 0.174149
Si Si4 0.307065 0.736170 0.827960
Si Si5 0.575998 0.625853 0.713210
Si Si6 0.221562 0.122042 0.720121
Si Si7 0.500000 0.280367 0.000000
O O1 0.816316 0.851326 0.182335
O O2 0.701842 0.851791 0.162463
O O3 0.751072 0.022751 0.229949
O O4 0.844226 0.928061 0.768730
O O5 0.000000 0.897497 0.500000
O O6 0.055501 0.846818 0.734067
O O7 0.046558 0.029560 0.659895
O O8 0.781958 0.700517 0.086834
O O9 0.790066 0.682705 0.453542
O O10 0.933115 0.723902 0.001193
O O11 0.380898 0.698343 0.532952
O O12 0.314064 0.691703 0.032367
O O13 0.648450 0.595862 0.717272
O O14 0.500000 0.668060 0.000000
#
# Coordination Sequence:
#
# PCOD9123243 Si02
#       7
#     4   4   4   4   4   4   2
#     4  10  20  38  57  84 115 154 192 229 288 344
#     4  12  20  32  55  89 122 144 182 237 304 350
#     4   9  22  36  54  88 113 150 195 228 290 346
#     4   9  21  37  51  86 114 151 195 229 284 341
#     4  11  22  33  56  89 117 147 189 232 295 351
#     4  11  20  40  59  79 122 154 190 243 281 342
#     4  12  20  34  58  88 120 150 186 242 292 352
#
# _framework density 17.765388999999999
#
# number of rings (size 3 to 8) (size 9 to 14) (size 15 to 20)
#    0.923    0.615    3.846    2.769    0.000    0.000 
#    0.000    0.000    1.692    0.000    4.000    0.000 
#    0.000    0.000    0.000    0.000    0.000    0.000 
#
# Total GULP energy -72378.947246 kJ/mol
# GULP energy per Si atom -5567.611327 kJ/mol
# Density = 1.772495 g / cm^3
# Si number density = 17.765389 Si / 1000 Ang^3
#
#
#
# Elastic Constant Matrix: (Units=GPa)
#
#
# Indices 1 2 3 4 5 6 
#
# 1 15.6024 -13.6432 -0.3285 0.0000 3.1125 0.0000
# 2 -13.6432 44.9918 23.5182 0.0000 6.3257 0.0000
# 3 -0.3285 23.5182 71.2364 0.0000 6.6558 0.0000
# 4 0.0000 0.0000 0.0000 24.6830 0.0000 -4.6401
# 5 3.1125 6.3257 6.6558 0.0000 26.3197 0.0000
# 6 0.0000 0.0000 0.0000 -4.6401 0.0000 13.4333
#
#
#
# Elastic Compliance Matrix: (Units=1/GPa)
#
#
# Indices 1 2 3 4 5 6 
#
# 1 0.101775 0.039079 -0.010683 0.000000 -0.018726 0.000000
# 2 0.039079 0.042354 -0.012720 0.000000 -0.011584 0.000000
# 3 -0.010683 -0.012720 0.018215 0.000000 -0.000286 0.000000
# 4 0.000000 0.000000 0.000000 0.043327 0.000000 0.014966
# 5 -0.018726 -0.011584 -0.000286 0.000000 0.043065 0.000000
# 6 0.000000 0.000000 0.000000 0.014966 0.000000 0.079611
#
#
# Mechanical properties :
#
#
# Convention : Reuss Voigt Hill
#
# Bulk Modulus (GPa) = 5.16275 16.76931 10.96603
# Shear Modulus (GPa) = 13.82892 21.03948 17.43420
#
# Velocity S-wave (km/s) = 2.79304 3.44509 3.13606
# Velocity P-wave (km/s) = 3.64881 5.02839 4.39309
#
# Compressibility (1/GPa) = 0.19369530
#
# Stress axis : x y z
#
# Youngs Moduli (GPa) = 9.82561 23.61038 54.90060
#
# Poissons Ratio (x) = -0.92266 0.58648
# Poissons Ratio (y) = -0.38397 0.69836
# Poissons Ratio (z) = 0.10496 0.30033
#
# Static dielectric constant tensor:
#      x y z
#    x 1.636760 0.000000 0.010590 
#    y 0.000000 1.590230 0.000000 
#    z 0.010590 0.000000 1.611090 
# 
# From -- ./inp_files/9734.got.cif
#   From: 2010.05.17/outbox.cif.g08.bks.cpg/sg5_5_cif.got.tgz:9734.got - 2010.06.03 18:56:24.
