data_PCOD9123279
_publ_section_title
;
Structure prediction by ZEFSAII (Michael W. Deem and Ramdas Pophale) SiO2 
 PCOD9123279
Probable space group: C 2
;
_chemical_formula_sum "Si O2"
_cell_formula_units_Z 22
_cell_length_a 18.012107
_cell_length_b 6.181109
_cell_length_c 12.765990
_cell_angle_alpha 90.000000
_cell_angle_beta 142.699970
_cell_angle_gamma 90.000000
_cell_volume 861.291239
_symmetry_space_group_name_H-M "C 2"
_symmetry_group_IT_number 5
_symmetry_cell_setting 'monoclinic'
loop_
_space_group_symop_operation_xyz
x,y,z
-x,y,-z
1/2+x,1/2+y,z
1/2-x,1/2+y,-z
loop_
_atom_site_type_symbol
_atom_site_label
_atom_site_fract_x
_atom_site_fract_y
_atom_site_fract_z
Si Si1 0.051455 0.577450 0.876817
Si Si2 0.019977 0.193731 0.365113
Si Si3 0.628454 0.476036 0.299526
Si Si4 0.386431 0.283840 0.245814
Si Si5 0.500000 0.811276 0.000000
Si Si6 0.855439 0.555565 0.411662
O O1 0.024336 0.378846 0.766444
O O2 0.938145 0.741585 0.777051
O O3 0.142357 0.718512 0.906258
O O4 0.084971 0.470191 0.025182
O O5 0.116215 0.054556 0.404612
O O6 0.092921 0.313626 0.538206
O O7 0.909223 0.038280 0.273182
O O8 0.555919 0.647273 0.146267
O O9 0.760947 0.517756 0.399387
O O10 0.311747 0.163091 0.253704
O O11 0.526213 0.197189 0.423965
#
# Coordination Sequence:
#
# PCOD9123279 Si02
#       6
#     4   4   4   4   2   4
#     4   9  19  37  58  80 116 159 203 250 299 350
#     4   9  20  34  57  87 123 157 194 248 301 360
#     4  10  21  35  62  90 119 158 209 256 295 358
#     4   9  20  37  54  87 130 159 193 243 313 371
#     4  10  20  38  60  82 116 162 204 258 298 348
#     4  10  21  34  59  90 125 159 200 242 309 370
#
# _framework density 25.543044999999999
#
# number of rings (size 3 to 8) (size 9 to 14) (size 15 to 20)
#    0.000    2.545    0.000    0.545    7.636    7.273 
#    0.000    0.000   16.000    0.000    0.000    0.000 
#    0.000    0.000    0.000    0.000    0.000    0.000 
#
# Total GULP energy -61257.479945 kJ/mol
# GULP energy per Si atom -5568.861813 kJ/mol
# Density = 2.548491 g / cm^3
# Si number density = 25.543045 Si / 1000 Ang^3
#
#
#
# Elastic Constant Matrix: (Units=GPa)
#
#
# Indices 1 2 3 4 5 6 
#
# 1 132.3636 67.8126 29.2978 0.0000 -23.6156 0.0000
# 2 67.8126 160.3431 31.5690 0.0000 -19.8297 0.0000
# 3 29.2978 31.5690 28.5564 0.0000 -8.4462 0.0000
# 4 0.0000 0.0000 0.0000 19.2960 0.0000 -18.0730
# 5 -23.6156 -19.8297 -8.4462 0.0000 37.4000 0.0000
# 6 0.0000 0.0000 0.0000 -18.0730 0.0000 48.6508
#
#
#
# Elastic Compliance Matrix: (Units=1/GPa)
#
#
# Indices 1 2 3 4 5 6 
#
# 1 0.011354 -0.002872 -0.007291 0.000000 0.004000 0.000000
# 2 -0.002872 0.008904 -0.006469 0.000000 0.001447 0.000000
# 3 -0.007291 -0.006469 0.050658 0.000000 0.003407 0.000000
# 4 0.000000 0.000000 0.000000 0.079478 0.000000 0.029525
# 5 0.004000 0.001447 0.003407 0.000000 0.030800 0.000000
# 6 0.000000 0.000000 0.000000 0.029525 0.000000 0.031523
#
#
# Mechanical properties :
#
#
# Convention : Reuss Voigt Hill
#
# Bulk Modulus (GPa) = 26.55884 64.29135 45.42510
# Shear Modulus (GPa) = 19.34026 33.90825 26.62426
#
# Velocity S-wave (km/s) = 2.75465 3.64743 3.23201
# Velocity P-wave (km/s) = 4.53185 6.55460 5.63474
#
# Compressibility (1/GPa) = 0.03765224
#
# Stress axis : x y z
#
# Youngs Moduli (GPa) = 88.07852 112.31408 19.74038
#
# Poissons Ratio (x) = 0.32251 0.14392
# Poissons Ratio (y) = 0.25292 0.12770
# Poissons Ratio (z) = 0.64216 0.72655
#
# Static dielectric constant tensor:
#      x y z
#    x 2.182130 0.000000 0.025340 
#    y 0.000000 2.117350 0.000000 
#    z 0.025340 0.000000 2.134640 
# 
# From -- ./inp_files/56439.got.cif
#   From: 2010.05.17/outbox.cif.g08.bks.cpg/sg5_29_cif.got.tgz:56439.got - 2010.06.03 18:56:24.
