data_PCOD9123257
_publ_section_title
;
Structure prediction by ZEFSAII (Michael W. Deem and Ramdas Pophale) SiO2 
 PCOD9123257
Probable space group: C 2
;
_chemical_formula_sum "Si O2"
_cell_formula_units_Z 30
_cell_length_a 11.271971
_cell_length_b 9.523866
_cell_length_c 27.763250
_cell_angle_alpha 90.000000
_cell_angle_beta 28.715677
_cell_angle_gamma 90.000000
_cell_volume 1432.002663
_symmetry_space_group_name_H-M "C 2"
_symmetry_group_IT_number 5
_symmetry_cell_setting 'monoclinic'
loop_
_space_group_symop_operation_xyz
x,y,z
-x,y,-z
1/2+x,1/2+y,z
1/2-x,1/2+y,-z
loop_
_atom_site_type_symbol
_atom_site_label
_atom_site_fract_x
_atom_site_fract_y
_atom_site_fract_z
Si Si1 0.000000 0.302611 0.500000
Si Si2 0.081434 0.732989 0.893296
Si Si3 0.432616 0.188739 0.287876
Si Si4 0.647015 0.893564 0.551196
Si Si5 0.735950 0.483448 0.773082
Si Si6 0.490892 0.594135 0.383680
Si Si7 0.210142 0.947719 0.218735
Si Si8 0.096850 0.241614 0.127844
O O1 0.241785 0.212092 0.400467
O O2 0.046607 0.387900 0.532094
O O3 0.130938 0.839502 0.832080
O O4 0.137220 0.572085 0.859798
O O5 0.271260 0.770080 0.868630
O O6 0.807557 0.747348 0.011991
O O7 0.574269 0.336929 0.232314
O O8 0.626519 0.070122 0.233357
O O9 0.260203 0.146944 0.304886
O O10 0.441528 0.954938 0.659533
O O11 0.681110 0.731582 0.554215
O O12 0.891103 0.985614 0.459000
O O13 0.527098 0.588131 0.827986
O O14 0.514397 0.522551 0.323710
O O15 0.386066 0.852937 0.189718
#
# Coordination Sequence:
#
# PCOD9123257 Si02
#       8
#     2   4   4   4   4   4   4   4
#     4  10  20  38  58  88 130 168 202 252 306 362
#     4  11  23  43  64  96 123 163 214 263 317 377
#     4  10  22  39  62  87 126 171 203 255 310 361
#     4  11  23  38  62  91 130 166 211 253 308 371
#     4  11  22  41  64  93 124 167 213 259 310 382
#     4  11  23  41  62  94 127 169 207 258 304 376
#     4  11  22  42  65  92 126 169 206 256 318 370
#     4  10  25  41  66  92 130 161 206 271 320 367
#
# _framework density 20.949680000000001
#
# number of rings (size 3 to 8) (size 9 to 14) (size 15 to 20)
#    0.000    1.333    2.667    3.200    5.600    0.000 
#    0.000    0.000    0.000    6.400    0.000    0.000 
#    0.000    0.000    0.000    0.000    0.000    0.000 
#
# Total GULP energy -83831.962849 kJ/mol
# GULP energy per Si atom -5588.797523 kJ/mol
# Density = 2.090200 g / cm^3
# Si number density = 20.949680 Si / 1000 Ang^3
#
#
#
# Elastic Constant Matrix: (Units=GPa)
#
#
# Indices 1 2 3 4 5 6 
#
# 1 30.4574 20.3134 -0.7665 0.0069 7.0521 -0.0014
# 2 20.3134 118.0179 26.4812 -0.0006 -1.3164 0.0002
# 3 -0.7665 26.4812 46.7344 0.0077 10.2803 -0.0006
# 4 0.0069 -0.0006 0.0077 27.4169 -0.0048 3.8392
# 5 7.0521 -1.3164 10.2803 -0.0048 29.2609 0.0004
# 6 -0.0014 0.0002 -0.0006 3.8392 0.0004 22.9655
#
#
#
# Elastic Compliance Matrix: (Units=1/GPa)
#
#
# Indices 1 2 3 4 5 6 
#
# 1 0.042667 -0.009560 0.009183 -0.000017 -0.013940 0.000006
# 2 -0.009560 0.012031 -0.008236 0.000006 0.005739 -0.000002
# 3 0.009183 -0.008236 0.029027 -0.000014 -0.012782 0.000004
# 4 -0.000017 0.000006 -0.000014 0.037348 0.000015 -0.006244
# 5 -0.013940 0.005739 -0.012782 0.000015 0.042284 -0.000005
# 6 0.000006 -0.000002 0.000004 -0.006244 -0.000005 0.044587
#
#
# Mechanical properties :
#
#
# Convention : Reuss Voigt Hill
#
# Bulk Modulus (GPa) = 15.03791 31.91844 23.47817
# Shear Modulus (GPa) = 20.21539 25.87413 23.04476
#
# Velocity S-wave (km/s) = 3.10973 3.51816 3.32023
# Velocity P-wave (km/s) = 4.48192 5.63667 5.09214
#
# Compressibility (1/GPa) = 0.06649862
#
# Stress axis : x y z
#
# Youngs Moduli (GPa) = 23.43715 83.11964 34.45102
#
# Poissons Ratio (x) = 0.79462 -0.31637
# Poissons Ratio (y) = 0.22406 0.28375
# Poissons Ratio (z) = -0.21523 0.68460
#
# Static dielectric constant tensor:
#      x y z
#    x 1.745740 0.000000 -0.016690 
#    y 0.000000 1.773560 0.000000 
#    z -0.016690 0.000000 1.726540 
# 
# From -- ./inp_files/63790.got.cif
#   From: 2010.05.17/outbox.cif.g08.bks.cpg/sg5_32_cif.got.tgz:63790.got - 2010.06.03 18:56:24.
