data_PCOD9123332
_publ_section_title
;
Structure prediction by ZEFSAII (Michael W. Deem and Ramdas Pophale) SiO2 
 PCOD9123332
Probable space group: C 2
;
_chemical_formula_sum "Si O2"
_cell_formula_units_Z 30
_cell_length_a 15.166874
_cell_length_b 9.575186
_cell_length_c 23.866769
_cell_angle_alpha 90.000000
_cell_angle_beta 151.088184
_cell_angle_gamma 90.000000
_cell_volume 1675.714767
_symmetry_space_group_name_H-M "C 2"
_symmetry_group_IT_number 5
_symmetry_cell_setting 'monoclinic'
loop_
_space_group_symop_operation_xyz
x,y,z
-x,y,-z
1/2+x,1/2+y,z
1/2-x,1/2+y,-z
loop_
_atom_site_type_symbol
_atom_site_label
_atom_site_fract_x
_atom_site_fract_y
_atom_site_fract_z
Si Si1 0.215282 0.104860 0.426957
Si Si2 0.947473 0.575111 0.669090
Si Si3 0.593761 0.209574 0.182922
Si Si4 0.515157 0.365241 0.763499
Si Si5 0.666130 0.086811 0.049014
Si Si6 0.638310 0.798358 0.764281
Si Si7 0.000000 0.738510 0.500000
Si Si8 0.185109 0.005257 0.624548
O O1 0.325640 0.077113 0.545348
O O2 0.364340 0.157720 0.464906
O O3 0.056100 0.218304 0.352325
O O4 0.118561 0.971612 0.344098
O O5 0.821019 0.515275 0.648409
O O6 0.021352 0.726450 0.728478
O O7 0.104060 0.461185 0.751534
O O8 0.553478 0.307248 0.214179
O O9 0.715028 0.283160 0.203436
O O10 0.722400 0.083179 0.273890
O O11 0.418151 0.138546 0.056488
O O12 0.699872 0.453658 0.876522
O O13 0.777269 0.217977 0.135842
O O14 0.500000 0.059664 0.000000
O O15 0.124046 0.848215 0.604015
O O16 0.000000 0.078434 0.500000
#
# Coordination Sequence:
#
# PCOD9123332 Si02
#       8
#     4   4   4   4   4   4   2   4
#     4  11  22  37  57  86 123 156 193 241 295 356
#     4  11  21  37  58  86 118 157 190 243 299 356
#     4  10  21  38  63  87 116 156 202 246 297 350
#     4  10  24  39  58  92 119 152 202 246 299 352
#     4   9  21  42  62  80 114 160 201 242 296 353
#     4  10  20  38  62  82 117 159 197 242 296 352
#     4  10  22  36  54  86 120 154 194 236 290 350
#     4   9  19  36  56  84 115 153 197 230 295 352
#
# _framework density 17.902808
#
# number of rings (size 3 to 8) (size 9 to 14) (size 15 to 20)
#    0.400    1.600    1.333    1.600    1.867    5.333 
#    1.200    3.333    0.000    0.000    0.000    0.000 
#    0.000    0.000    0.000    0.000    0.000    0.000 
#
# Total GULP energy -83563.030808 kJ/mol
# GULP energy per Si atom -5570.868721 kJ/mol
# Density = 1.786206 g / cm^3
# Si number density = 17.902808 Si / 1000 Ang^3
#
#
#
# Elastic Constant Matrix: (Units=GPa)
#
#
# Indices 1 2 3 4 5 6 
#
# 1 33.9287 43.3153 32.7556 0.0009 1.2180 0.0007
# 2 43.3153 146.0113 62.3840 -0.0011 2.4503 -0.0008
# 3 32.7556 62.3840 97.7996 -0.0037 -4.7455 -0.0031
# 4 0.0009 -0.0011 -0.0037 -6.8117 -0.0004 -16.0075
# 5 1.2180 2.4503 -4.7455 -0.0004 24.9026 -0.0003
# 6 0.0007 -0.0008 -0.0031 -16.0075 -0.0003 -4.5757
#
#
#
# Elastic Compliance Matrix: (Units=1/GPa)
#
#
# Indices 1 2 3 4 5 6 
#
# 1 0.055208 -0.011461 -0.011361 0.000004 -0.003738 0.000005
# 2 -0.011461 0.011903 -0.003819 0.000000 -0.001338 0.000000
# 3 -0.011361 -0.003819 0.016665 -0.000003 0.004107 -0.000003
# 4 0.000004 0.000000 -0.000003 0.020330 -0.000001 -0.071122
# 5 -0.003738 -0.001338 0.004107 -0.000001 0.041254 -0.000002
# 6 0.000005 0.000000 -0.000003 -0.071122 -0.000002 0.030265
#
#
# Mechanical properties :
#
#
# Convention : Reuss Voigt Hill
#
# Bulk Modulus (GPa) = 32.79340 61.62770 47.21055
# Shear Modulus (GPa) = 20.91430 11.98870 16.45150
#
# Velocity S-wave (km/s) = 3.42162 2.59058 3.03468
# Velocity P-wave (km/s) = 5.82814 6.59138 6.22148
#
# Compressibility (1/GPa) = 0.03049394
#
# Stress axis : x y z
#
# Youngs Moduli (GPa) = 18.11342 84.01348 60.00440
#
# Poissons Ratio (x) = 0.96287 0.68172
# Poissons Ratio (y) = 0.20760 0.22915
# Poissons Ratio (z) = 0.20579 0.32084
#
# Static dielectric constant tensor:
#      x y z
#    x 1.978460 0.000000 -0.028880 
#    y 0.000000 1.614820 0.000000 
#    z -0.028880 0.000000 1.636000 
# 
# From -- ./inp_files/68718.got.cif
#   From: 2010.05.17/outbox.cif.g08.bks.cpg/sg5_35_cif.got.tgz:68718.got - 2010.06.03 18:56:24.
