data_PCOD9123812
_publ_section_title
;
Structure prediction by ZEFSAII (Michael W. Deem and Ramdas Pophale) SiO2 
 PCOD9123812
Probable space group: C 2
;
_chemical_formula_sum "Si O2"
_cell_formula_units_Z 30
_cell_length_a 16.483018
_cell_length_b 13.506547
_cell_length_c 11.364533
_cell_angle_alpha 90.000000
_cell_angle_beta 32.498465
_cell_angle_gamma 90.000000
_cell_volume 1359.348841
_symmetry_space_group_name_H-M "C 2"
_symmetry_group_IT_number 5
_symmetry_cell_setting 'monoclinic'
loop_
_space_group_symop_operation_xyz
x,y,z
-x,y,-z
1/2+x,1/2+y,z
1/2-x,1/2+y,-z
loop_
_atom_site_type_symbol
_atom_site_label
_atom_site_fract_x
_atom_site_fract_y
_atom_site_fract_z
Si Si1 0.081397 0.283200 0.576279
Si Si2 0.821907 0.812938 0.717655
Si Si3 0.768294 0.896758 0.155492
Si Si4 0.139197 0.397527 0.743560
Si Si5 0.500000 0.539390 0.000000
Si Si6 0.256757 0.220830 0.031682
Si Si7 0.621719 0.571309 0.602064
Si Si8 0.291622 0.506671 0.906190
O O1 0.161335 0.350152 0.382696
O O2 0.077103 0.343848 0.703146
O O3 0.161978 0.177121 0.496726
O O4 0.915433 0.253012 0.736548
O O5 0.740634 0.818206 0.692563
O O6 0.000000 0.801369 0.500000
O O7 0.790761 0.921402 0.811353
O O8 0.768390 0.731139 0.876637
O O9 0.849132 0.805524 0.986461
O O10 0.879223 0.967781 0.088313
O O11 0.705749 0.963150 0.125059
O O12 0.248644 0.489025 0.574144
O O13 0.000000 0.425091 0.000000
O O14 0.578027 0.591671 0.792628
O O15 0.280416 0.109890 0.043601
O O16 0.465651 0.530679 0.731972
#
# Coordination Sequence:
#
# PCOD9123812 Si02
#       8
#     4   4   4   4   2   4   4   4
#     4  11  23  40  64  94 124 167 214 255 327 377
#     4  11  22  40  63  91 126 163 209 257 312 379
#     4  10  21  38  64  90 126 158 211 272 306 376
#     4  12  24  42  62  95 134 163 207 268 318 374
#     4  10  20  40  64  92 128 164 222 252 318 380
#     4  10  22  40  64  92 120 170 210 261 311 378
#     4  10  22  40  65  94 122 174 210 263 312 382
#     4   9  21  40  67  89 120 168 219 251 315 381
#
# _framework density 22.069389999999999
#
# number of rings (size 3 to 8) (size 9 to 14) (size 15 to 20)
#    0.000    1.600    4.000    0.400    2.800    1.067 
#    1.200    4.000    0.000    0.000    0.000    0.000 
#    0.000    0.000    0.000    0.000    0.000    0.000 
#
# Total GULP energy -83792.524742 kJ/mol
# GULP energy per Si atom -5586.168316 kJ/mol
# Density = 2.201916 g / cm^3
# Si number density = 22.069390 Si / 1000 Ang^3
#
#
#
# Elastic Constant Matrix: (Units=GPa)
#
#
# Indices 1 2 3 4 5 6 
#
# 1 59.8316 -9.2092 9.6813 0.0000 14.2617 0.0000
# 2 -9.2092 76.3500 15.4162 0.0000 -0.4845 0.0000
# 3 9.6813 15.4162 88.4001 0.0000 14.8674 0.0000
# 4 0.0000 0.0000 0.0000 20.0735 0.0000 -5.3462
# 5 14.2617 -0.4845 14.8674 0.0000 24.4192 0.0000
# 6 0.0000 0.0000 0.0000 -5.3462 0.0000 3.2059
#
#
#
# Elastic Compliance Matrix: (Units=1/GPa)
#
#
# Indices 1 2 3 4 5 6 
#
# 1 0.019860 0.002474 -0.000740 0.000000 -0.011099 0.000000
# 2 0.002474 0.013964 -0.002796 0.000000 0.000534 0.000000
# 3 -0.000740 -0.002796 0.013166 0.000000 -0.007639 0.000000
# 4 0.000000 0.000000 0.000000 0.089620 0.000000 0.149451
# 5 -0.011099 0.000534 -0.007639 0.000000 0.052096 0.000000
# 6 0.000000 0.000000 0.000000 0.149451 0.000000 0.561149
#
#
# Mechanical properties :
#
#
# Convention : Reuss Voigt Hill
#
# Bulk Modulus (GPa) = 22.28827 28.48426 25.38626
# Shear Modulus (GPa) = 6.51948 23.45260 14.98604
#
# Velocity S-wave (km/s) = 1.72061 3.26341 2.60867
# Velocity P-wave (km/s) = 3.75079 5.20908 4.53888
#
# Compressibility (1/GPa) = 0.04486664
#
# Stress axis : x y z
#
# Youngs Moduli (GPa) = 50.35285 71.61280 75.95544
#
# Poissons Ratio (x) = -0.17720 0.05619
# Poissons Ratio (y) = -0.12459 0.21237
# Poissons Ratio (z) = 0.03725 0.20023
#
# Static dielectric constant tensor:
#      x y z
#    x 1.951500 0.000000 0.026420 
#    y 0.000000 1.829120 0.000000 
#    z 0.026420 0.000000 1.852300 
# 
# From -- ./inp_files/20361.got.cif
#   From: 2010.05.17/outbox.cif.g08.bks.cpg/sg5_11_cif.got.tgz:20361.got - 2010.06.03 18:56:24.
