data_PCOD9123433
_publ_section_title
;
Structure prediction by ZEFSAII (Michael W. Deem and Ramdas Pophale) SiO2 
 PCOD9123433
Probable space group: C 2
;
_chemical_formula_sum "Si O2"
_cell_formula_units_Z 26
_cell_length_a 9.697196
_cell_length_b 20.066504
_cell_length_c 8.970636
_cell_angle_alpha 90.000000
_cell_angle_beta 133.859169
_cell_angle_gamma 90.000000
_cell_volume 1258.645818
_symmetry_space_group_name_H-M "C 2"
_symmetry_group_IT_number 5
_symmetry_cell_setting 'monoclinic'
loop_
_space_group_symop_operation_xyz
x,y,z
-x,y,-z
1/2+x,1/2+y,z
1/2-x,1/2+y,-z
loop_
_atom_site_type_symbol
_atom_site_label
_atom_site_fract_x
_atom_site_fract_y
_atom_site_fract_z
Si Si1 0.887353 0.659430 0.190150
Si Si2 0.619341 0.955802 0.437892
Si Si3 0.638468 0.019375 0.966437
Si Si4 0.297839 0.687051 0.650516
Si Si5 0.805664 0.309663 0.447409
Si Si6 0.538952 0.558089 0.358156
Si Si7 0.500000 0.242763 0.000000
O O1 0.858754 0.581324 0.144741
O O2 0.744447 0.688759 0.205895
O O3 0.099080 0.667449 0.418185
O O4 0.882865 0.696162 0.027557
O O5 0.500000 0.966188 0.500000
O O6 0.725306 0.885116 0.522622
O O7 0.461590 0.957918 0.189220
O O8 0.770717 0.014584 0.521855
O O9 0.500000 0.037916 0.000000
O O10 0.856867 0.013330 0.177699
O O11 0.339022 0.758055 0.607316
O O12 0.441140 0.626938 0.717861
O O13 0.638401 0.284974 0.211240
O O14 0.000000 0.310382 0.500000
O O15 0.500000 0.577173 0.500000
#
# Coordination Sequence:
#
# PCOD9123433 Si02
#       7
#     4   4   4   4   4   4   2
#     4  10  20  38  65 101 137 168 215 285 333 388
#     4  11  25  46  65  97 139 177 224 278 336 402
#     4  12  23  41  68  99 133 175 224 277 339 394
#     4  10  21  40  66 101 133 173 221 280 332 395
#     4  10  24  44  67  92 137 180 219 273 336 403
#     4  12  24  41  72  98 132 181 227 280 336 401
#     4  10  22  42  66  98 132 178 220 268 340 402
#
# _framework density 20.657122000000001
#
# number of rings (size 3 to 8) (size 9 to 14) (size 15 to 20)
#    0.000    1.231    3.846    1.385    4.308    4.923 
#    5.538    3.077    0.000    0.000    0.000    0.000 
#    0.000    0.000    0.000    0.000    0.000    0.000 
#
# Total GULP energy -72637.922829 kJ/mol
# GULP energy per Si atom -5587.532525 kJ/mol
# Density = 2.061011 g / cm^3
# Si number density = 20.657122 Si / 1000 Ang^3
#
#
#
# Elastic Constant Matrix: (Units=GPa)
#
#
# Indices 1 2 3 4 5 6 
#
# 1 108.2583 41.2762 26.6312 0.0000 -15.1830 0.0000
# 2 41.2762 95.3239 19.3105 0.0000 -17.0852 0.0000
# 3 26.6312 19.3105 74.9096 0.0000 -2.9456 0.0000
# 4 0.0000 0.0000 0.0000 33.1208 0.0000 -1.2621
# 5 -15.1830 -17.0852 -2.9456 0.0000 41.2358 0.0000
# 6 0.0000 0.0000 0.0000 -1.2621 0.0000 5.7941
#
#
#
# Elastic Compliance Matrix: (Units=1/GPa)
#
#
# Indices 1 2 3 4 5 6 
#
# 1 0.011899 -0.004086 -0.003080 0.000000 0.002468 0.000000
# 2 -0.004086 0.013327 -0.001830 0.000000 0.003887 0.000000
# 3 -0.003080 -0.001830 0.014883 0.000000 -0.000829 0.000000
# 4 0.000000 0.000000 0.000000 0.030445 0.000000 0.006632
# 5 0.002468 0.003887 -0.000829 0.000000 0.026711 0.000000
# 6 0.000000 0.000000 0.000000 0.006632 0.000000 0.174034
#
#
# Mechanical properties :
#
#
# Convention : Reuss Voigt Hill
#
# Bulk Modulus (GPa) = 45.21265 50.32528 47.76896
# Shear Modulus (GPa) = 16.85410 28.78174 22.81792
#
# Velocity S-wave (km/s) = 2.85949 3.73675 3.32716
# Velocity P-wave (km/s) = 5.73035 6.55994 6.15913
#
# Compressibility (1/GPa) = 0.02211771
#
# Stress axis : x y z
#
# Youngs Moduli (GPa) = 84.04176 75.03461 67.18850
#
# Poissons Ratio (x) = 0.30659 0.20693
# Poissons Ratio (y) = 0.34340 0.12296
# Poissons Ratio (z) = 0.25883 0.13732
#
# Static dielectric constant tensor:
#      x y z
#    x 1.737740 0.000000 0.004860 
#    y 0.000000 1.716820 0.000000 
#    z 0.004860 0.000000 1.781670 
# 
# From -- ./inp_files/16736.got.cif
#   From: 2010.05.17/outbox.cif.g08.bks.cpg/sg5_9_cif.got.tgz:16736.got - 2010.06.03 18:56:24.
