data_PCOD9123886
_publ_section_title
;
Structure prediction by ZEFSAII (Michael W. Deem and Ramdas Pophale) SiO2 
 PCOD9123886
Probable space group: C 2
;
_chemical_formula_sum "Si O2"
_cell_formula_units_Z 24
_cell_length_a 8.366908
_cell_length_b 18.712518
_cell_length_c 14.596476
_cell_angle_alpha 90.000000
_cell_angle_beta 151.444146
_cell_angle_gamma 90.000000
_cell_volume 1092.413307
_symmetry_space_group_name_H-M "C 2"
_symmetry_group_IT_number 5
_symmetry_cell_setting 'monoclinic'
loop_
_space_group_symop_operation_xyz
x,y,z
-x,y,-z
1/2+x,1/2+y,z
1/2-x,1/2+y,-z
loop_
_atom_site_type_symbol
_atom_site_label
_atom_site_fract_x
_atom_site_fract_y
_atom_site_fract_z
Si Si1 0.986916 0.265870 0.718161
Si Si2 0.596652 0.600784 0.802572
Si Si3 0.662535 0.338732 0.267532
Si Si4 0.870093 0.825844 0.300113
Si Si5 0.611844 0.489164 0.658601
Si Si6 0.086706 0.987147 0.937980
O O1 0.654651 0.278566 0.490776
O O2 0.943073 0.311907 0.789799
O O3 0.003125 0.182886 0.749328
O O4 0.273298 0.292762 0.792174
O O5 0.480860 0.549294 0.661544
O O6 0.479837 0.560335 0.834974
O O7 0.000000 0.599902 0.000000
O O8 0.378779 0.312162 0.196039
O O9 0.574435 0.418933 0.192609
O O10 0.000000 0.337078 0.500000
O O11 0.992253 0.908006 0.372215
O O12 0.500000 0.506336 0.500000
O O13 0.012508 0.484689 0.869492
O O14 0.000000 0.985633 0.000000
#
# Coordination Sequence:
#
# PCOD9123886 Si02
#       6
#     4   4   4   4   4   4
#     4  10  21  41  62  99 136 169 219 275 336 403
#     4  10  24  45  63  93 139 175 215 282 346 391
#     4  10  22  41  71 101 132 173 230 281 335 401
#     4  10  20  40  67  95 128 175 221 268 336 400
#     4  11  22  43  69  94 135 175 226 281 338 397
#     4  11  24  41  68 103 129 179 234 275 332 404
#
# _framework density 21.969707
#
# number of rings (size 3 to 8) (size 9 to 14) (size 15 to 20)
#    0.000    1.667    3.333    1.000    2.333    4.000 
#   15.000    0.000    0.000    0.000    0.000    0.000 
#    0.000    0.000    0.000    0.000    0.000    0.000 
#
# Total GULP energy -67054.015959 kJ/mol
# GULP energy per Si atom -5587.834663 kJ/mol
# Density = 2.191970 g / cm^3
# Si number density = 21.969707 Si / 1000 Ang^3
#
#
#
# Elastic Constant Matrix: (Units=GPa)
#
#
# Indices 1 2 3 4 5 6 
#
# 1 184.5073 55.6769 26.3594 -0.0119 -38.4482 -0.0028
# 2 55.6769 158.5641 27.4370 -0.0571 -27.4230 0.0006
# 3 26.3594 27.4370 57.0797 -0.1021 -11.1536 0.0136
# 4 -0.0119 -0.0571 -0.1021 35.9580 -0.0203 1.6731
# 5 -38.4482 -27.4230 -11.1536 -0.0203 36.7869 0.0019
# 6 -0.0028 0.0006 0.0136 1.6731 0.0019 27.9247
#
#
#
# Elastic Compliance Matrix: (Units=1/GPa)
#
#
# Indices 1 2 3 4 5 6 
#
# 1 0.007316 -0.001213 -0.001571 0.000000 0.006266 0.000001
# 2 -0.001213 0.007817 -0.002451 0.000007 0.003816 0.000000
# 3 -0.001571 -0.002451 0.019926 0.000054 0.002572 -0.000013
# 4 0.000000 0.000007 0.000054 0.027888 0.000037 -0.001671
# 5 0.006266 0.003816 0.002572 0.000037 0.037356 -0.000005
# 6 0.000001 0.000000 -0.000013 -0.001671 -0.000005 0.035911
#
#
# Mechanical properties :
#
#
# Convention : Reuss Voigt Hill
#
# Bulk Modulus (GPa) = 40.67178 68.78864 54.73021
# Shear Modulus (GPa) = 32.28280 39.51243 35.89762
#
# Velocity S-wave (km/s) = 3.83746 4.24547 4.04661
# Velocity P-wave (km/s) = 6.17962 7.44383 6.84099
#
# Compressibility (1/GPa) = 0.02458707
#
# Stress axis : x y z
#
# Youngs Moduli (GPa) = 136.68487 127.93050 50.18598
#
# Poissons Ratio (x) = 0.15524 0.07884
# Poissons Ratio (y) = 0.16586 0.12303
# Poissons Ratio (z) = 0.21473 0.31361
#
# Static dielectric constant tensor:
#      x y z
#    x 1.875310 -0.000010 0.046710 
#    y -0.000010 1.741590 -0.000020 
#    z 0.046710 -0.000020 1.842160 
# 
# From -- ./inp_files/51437.got.cif
#   From: 2010.05.17/outbox.cif.g08.bks.cpg/sg5_26_cif.got.tgz:51437.got - 2010.06.03 18:56:24.
