data_PCOD9123396
_publ_section_title
;
Structure prediction by ZEFSAII (Michael W. Deem and Ramdas Pophale) SiO2 
 PCOD9123396
Probable space group: C 2
;
_chemical_formula_sum "Si O2"
_cell_formula_units_Z 20
_cell_length_a 10.818351
_cell_length_b 15.895200
_cell_length_c 8.525818
_cell_angle_alpha 90.000000
_cell_angle_beta 38.079884
_cell_angle_gamma 90.000000
_cell_volume 904.230197
_symmetry_space_group_name_H-M "C 2"
_symmetry_group_IT_number 5
_symmetry_cell_setting 'monoclinic'
loop_
_space_group_symop_operation_xyz
x,y,z
-x,y,-z
1/2+x,1/2+y,z
1/2-x,1/2+y,-z
loop_
_atom_site_type_symbol
_atom_site_label
_atom_site_fract_x
_atom_site_fract_y
_atom_site_fract_z
Si Si1 0.185043 0.681510 0.574016
Si Si2 0.874733 0.821847 0.783739
Si Si3 0.500000 0.623879 0.500000
Si Si4 0.414616 0.499451 0.862855
Si Si5 0.500000 0.736568 0.000000
Si Si6 0.183027 0.518955 0.397094
O O1 0.312294 0.672571 0.607346
O O2 0.097280 0.593550 0.592994
O O3 0.016638 0.753820 0.731691
O O4 0.358455 0.693853 0.270310
O O5 0.827159 0.908078 0.919024
O O6 0.663842 0.784933 0.940205
O O7 0.000000 0.842327 0.500000
O O8 0.412102 0.562769 0.721422
O O9 0.647834 0.477252 0.666410
O O10 0.310495 0.543265 0.114858
O O11 0.000000 0.470396 0.500000
#
# Coordination Sequence:
#
# PCOD9123396 Si02
#       6
#     4   4   2   4   2   4
#     4  10  21  39  62  91 122 162 208 250 308 379
#     4  10  21  39  63  90 122 162 207 256 309 371
#     4  10  20  40  64  92 128 158 202 264 310 362
#     4  10  21  40  62  90 128 157 209 259 304 365
#     4  10  20  38  64  80 122 166 204 240 316 362
#     4  10  21  39  64  87 120 169 208 244 309 379
#
# _framework density 22.118262000000001
#
# number of rings (size 3 to 8) (size 9 to 14) (size 15 to 20)
#    0.000    2.000    1.000    4.200    0.000    3.200 
#    9.000    4.000    0.000    0.000    0.000    0.000 
#    0.000    0.000    0.000    0.000    0.000    0.000 
#
# Total GULP energy -55711.030019 kJ/mol
# GULP energy per Si atom -5571.103002 kJ/mol
# Density = 2.206792 g / cm^3
# Si number density = 22.118262 Si / 1000 Ang^3
#
#
#
# Elastic Constant Matrix: (Units=GPa)
#
#
# Indices 1 2 3 4 5 6 
#
# 1 182.9167 49.8173 26.5089 -0.0006 -18.6896 0.0003
# 2 49.8173 47.5045 -3.3939 -0.0002 -1.5034 0.0000
# 3 26.5089 -3.3939 33.2914 -0.0006 -13.5775 0.0004
# 4 -0.0006 -0.0002 -0.0006 9.8937 0.0005 3.5874
# 5 -18.6896 -1.5034 -13.5775 0.0005 39.1134 -0.0005
# 6 0.0003 0.0000 0.0004 3.5874 -0.0005 19.5825
#
#
#
# Elastic Compliance Matrix: (Units=1/GPa)
#
#
# Indices 1 2 3 4 5 6 
#
# 1 0.009740 -0.010764 -0.008299 0.000000 0.001360 0.000000
# 2 -0.010764 0.033213 0.012092 0.000001 0.000331 0.000000
# 3 -0.008299 0.012092 0.042462 0.000002 0.011239 -0.000001
# 4 0.000000 0.000001 0.000002 0.108266 -0.000001 -0.019834
# 5 0.001360 0.000331 0.011239 -0.000001 0.030131 0.000001
# 6 0.000000 0.000000 -0.000001 -0.019834 0.000001 0.054700
#
#
# Mechanical properties :
#
#
# Convention : Reuss Voigt Hill
#
# Bulk Modulus (GPa) = 13.99109 45.50860 29.74984
# Shear Modulus (GPa) = 15.80886 26.43660 21.12273
#
# Velocity S-wave (km/s) = 2.67637 3.46097 3.09364
# Velocity P-wave (km/s) = 3.98621 6.04904 5.12254
#
# Compressibility (1/GPa) = 0.07147407
#
# Stress axis : x y z
#
# Youngs Moduli (GPa) = 102.66716 30.10841 23.55028
#
# Poissons Ratio (x) = 0.32410 0.19544
# Poissons Ratio (y) = 1.10514 -0.28477
# Poissons Ratio (z) = 0.85200 -0.36407
#
# Static dielectric constant tensor:
#      x y z
#    x 1.858200 0.000000 -0.037370 
#    y 0.000000 1.811630 0.000000 
#    z -0.037370 0.000000 1.839280 
# 
# From -- ./inp_files/15602.got.cif
#   From: 2010.05.17/outbox.cif.g08.bks.cpg/sg5_8_cif.got.tgz:15602.got - 2010.06.03 18:56:24.
