data_PCOD9123289
_publ_section_title
;
Structure prediction by ZEFSAII (Michael W. Deem and Ramdas Pophale) SiO2 
 PCOD9123289
Probable space group: C 2
;
_chemical_formula_sum "Si O2"
_cell_formula_units_Z 26
_cell_length_a 18.232540
_cell_length_b 18.294547
_cell_length_c 11.867112
_cell_angle_alpha 90.000000
_cell_angle_beta 158.738399
_cell_angle_gamma 90.000000
_cell_volume 1435.402512
_symmetry_space_group_name_H-M "C 2"
_symmetry_group_IT_number 5
_symmetry_cell_setting 'monoclinic'
loop_
_space_group_symop_operation_xyz
x,y,z
-x,y,-z
1/2+x,1/2+y,z
1/2-x,1/2+y,-z
loop_
_atom_site_type_symbol
_atom_site_label
_atom_site_fract_x
_atom_site_fract_y
_atom_site_fract_z
Si Si1 0.240330 0.130250 0.348388
Si Si2 0.243448 0.301374 0.326353
Si Si3 0.569945 0.405731 0.221494
Si Si4 0.000000 0.873071 0.500000
Si Si5 0.180720 0.016196 0.828535
Si Si6 0.929087 0.520564 0.769246
Si Si7 0.216646 0.516440 0.784601
O O1 0.284117 0.215055 0.393663
O O2 0.325838 0.097196 0.586931
O O3 0.316025 0.078035 0.356134
O O4 0.000000 0.121231 0.000000
O O5 0.368671 0.344252 0.601326
O O6 0.334574 0.329825 0.337201
O O7 0.000000 0.313696 0.000000
O O8 0.766650 0.458819 0.502598
O O9 0.500000 0.375982 0.000000
O O10 0.384789 0.458750 0.989440
O O11 0.110682 0.931376 0.741272
O O12 0.000000 0.052639 0.500000
O O13 0.375632 0.014217 0.029737
O O14 0.211036 0.050019 0.993486
O O15 0.000000 0.514338 0.000000
O O16 0.000000 0.480452 0.500000
#
# Coordination Sequence:
#
# PCOD9123289 Si02
#       7
#     4   4   4   2   4   4   4
#     4  11  24  41  59  92 125 171 206 256 319 382
#     4  11  25  41  63  91 131 167 211 255 327 381
#     4  12  21  40  66  90 120 162 214 259 313 370
#     4  10  20  38  60  88 124 158 204 264 302 366
#     4  10  21  34  58  96 119 149 215 264 302 363
#     4  12  21  37  64  89 122 162 212 260 317 370
#     4  12  20  37  62  93 124 155 211 264 307 369
#
# _framework density 18.113385999999998
#
# number of rings (size 3 to 8) (size 9 to 14) (size 15 to 20)
#    0.462    0.308    6.154    3.231    1.077    0.615 
#    0.000    0.000    0.000    0.923    0.000    0.000 
#    0.000    0.000    0.000    0.000    0.000    0.000 
#
# Total GULP energy -72468.736863 kJ/mol
# GULP energy per Si atom -5574.518220 kJ/mol
# Density = 1.807216 g / cm^3
# Si number density = 18.113386 Si / 1000 Ang^3
#
#
#
# Elastic Constant Matrix: (Units=GPa)
#
#
# Indices 1 2 3 4 5 6 
#
# 1 89.5291 21.8989 33.2408 -0.0001 -13.6610 0.0000
# 2 21.8989 76.9574 29.2117 0.0000 -0.5891 0.0000
# 3 33.2408 29.2117 103.6810 -0.0001 -2.7080 0.0000
# 4 -0.0001 0.0000 -0.0001 154.7147 0.0000 31.3994
# 5 -13.6610 -0.5891 -2.7080 0.0000 46.7450 0.0000
# 6 0.0000 0.0000 0.0000 31.3994 0.0000 30.2394
#
#
#
# Elastic Compliance Matrix: (Units=1/GPa)
#
#
# Indices 1 2 3 4 5 6 
#
# 1 0.013687 -0.002506 -0.003584 0.000000 0.003761 0.000000
# 2 -0.002506 0.015009 -0.003445 0.000000 -0.000743 0.000000
# 3 -0.003584 -0.003445 0.011754 0.000000 -0.000410 0.000000
# 4 0.000000 0.000000 0.000000 0.008189 0.000000 -0.008503
# 5 0.003761 -0.000743 -0.000410 0.000000 0.022459 0.000000
# 6 0.000000 0.000000 0.000000 -0.008503 0.000000 0.041899
#
#
# Mechanical properties :
#
#
# Convention : Reuss Voigt Hill
#
# Bulk Modulus (GPa) = 46.77012 48.76338 47.76675
# Shear Modulus (GPa) = 35.92145 58.72757 47.32451
#
# Velocity S-wave (km/s) = 4.45808 5.70023 5.11698
# Velocity P-wave (km/s) = 7.23714 8.38469 7.83196
#
# Compressibility (1/GPa) = 0.02138117
#
# Stress axis : x y z
#
# Youngs Moduli (GPa) = 73.06250 66.62625 85.07824
#
# Poissons Ratio (x) = 0.16693 0.30492
# Poissons Ratio (y) = 0.18306 0.29308
# Poissons Ratio (z) = 0.26185 0.22952
#
# Static dielectric constant tensor:
#      x y z
#    x 1.452620 0.000000 0.050610 
#    y 0.000000 1.610450 0.000000 
#    z 0.050610 0.000000 1.638880 
# 
# From -- ./inp_files/16182.got.cif
#   From: 2010.05.17/outbox.cif.g08.bks.cpg/sg5_9_cif.got.tgz:16182.got - 2010.06.03 18:56:24.
