data_PCOD9123502
_publ_section_title
;
Structure prediction by ZEFSAII (Michael W. Deem and Ramdas Pophale) SiO2 
 PCOD9123502
Probable space group: C 2
;
_chemical_formula_sum "Si O2"
_cell_formula_units_Z 26
_cell_length_a 7.847587
_cell_length_b 15.202293
_cell_length_c 13.903408
_cell_angle_alpha 90.000000
_cell_angle_beta 132.735078
_cell_angle_gamma 90.000000
_cell_volume 1218.310182
_symmetry_space_group_name_H-M "C 2"
_symmetry_group_IT_number 5
_symmetry_cell_setting 'monoclinic'
loop_
_space_group_symop_operation_xyz
x,y,z
-x,y,-z
1/2+x,1/2+y,z
1/2-x,1/2+y,-z
loop_
_atom_site_type_symbol
_atom_site_label
_atom_site_fract_x
_atom_site_fract_y
_atom_site_fract_z
Si Si1 0.000000 0.067451 0.000000
Si Si2 0.724397 0.595810 0.890532
Si Si3 0.144533 0.978141 0.344938
Si Si4 0.256395 0.099872 0.559204
Si Si5 0.588879 0.959935 0.749562
Si Si6 0.282537 0.290389 0.616461
Si Si7 0.213610 0.782107 0.157980
O O1 0.108714 0.116219 0.950043
O O2 0.794225 0.005571 0.886011
O O3 0.589867 0.513473 0.793945
O O4 0.690137 0.684277 0.816723
O O5 0.000000 0.579744 0.000000
O O6 0.327872 0.963266 0.329480
O O7 0.124823 0.883327 0.388755
O O8 0.233622 0.054867 0.447506
O O9 0.364373 0.197561 0.602976
O O10 0.000000 0.111819 0.500000
O O11 0.376626 0.026776 0.673123
O O12 0.594221 0.858442 0.782518
O O13 0.359680 0.289252 0.758357
O O14 0.000000 0.294266 0.500000
O O15 0.000000 0.792434 0.000000
#
# Coordination Sequence:
#
# PCOD9123502 Si02
#       7
#     2   4   4   4   4   4   4
#     4  10  22  38  62  94 126 178 210 268 322 386
#     4  10  22  38  69  93 135 168 227 265 327 387
#     4  10  21  41  62  94 117 176 215 268 327 391
#     4  11  23  37  65  94 127 165 216 273 331 380
#     4  10  21  40  65  87 129 167 218 262 326 394
#     4  10  21  39  64  93 124 173 223 258 330 407
#     4  10  20  38  67  94 122 177 216 260 331 400
#
# _framework density 21.341035000000002
#
# number of rings (size 3 to 8) (size 9 to 14) (size 15 to 20)
#    0.000    1.846    0.769    4.154    6.462    0.000 
#    0.000    4.615    3.385    0.923    0.000    0.000 
#    0.000    0.000    0.000    0.000    0.000    0.000 
#
# Total GULP energy -72512.118364 kJ/mol
# GULP energy per Si atom -5577.855259 kJ/mol
# Density = 2.129246 g / cm^3
# Si number density = 21.341035 Si / 1000 Ang^3
#
#
#
# Elastic Constant Matrix: (Units=GPa)
#
#
# Indices 1 2 3 4 5 6 
#
# 1 32.5587 27.2635 10.1512 0.0000 4.1085 0.0000
# 2 27.2635 178.5376 37.4415 0.0000 9.2001 0.0000
# 3 10.1512 37.4415 95.6617 0.0000 1.4488 0.0000
# 4 0.0000 0.0000 0.0000 21.7957 0.0000 1.1019
# 5 4.1085 9.2001 1.4488 0.0000 34.4271 0.0000
# 6 0.0000 0.0000 0.0000 1.1019 0.0000 27.7805
#
#
#
# Elastic Compliance Matrix: (Units=1/GPa)
#
#
# Indices 1 2 3 4 5 6 
#
# 1 0.035775 -0.004933 -0.001822 0.000000 -0.002874 0.000000
# 2 -0.004933 0.006864 -0.002146 0.000000 -0.001155 0.000000
# 3 -0.001822 -0.002146 0.011482 0.000000 0.000308 0.000000
# 4 0.000000 0.000000 0.000000 0.045973 0.000000 -0.001823
# 5 -0.002874 -0.001155 0.000308 0.000000 0.029686 0.000000
# 6 0.000000 0.000000 0.000000 -0.001823 0.000000 0.036069
#
#
# Mechanical properties :
#
#
# Convention : Reuss Voigt Hill
#
# Bulk Modulus (GPa) = 27.53300 50.71892 39.12596
# Shear Modulus (GPa) = 25.54205 32.26077 28.90141
#
# Velocity S-wave (km/s) = 3.46331 3.89225 3.68403
# Velocity P-wave (km/s) = 5.37793 6.63453 6.03900
#
# Compressibility (1/GPa) = 0.03632006
#
# Stress axis : x y z
#
# Youngs Moduli (GPa) = 27.95238 145.69209 87.09326
#
# Poissons Ratio (x) = 0.71867 0.15869
# Poissons Ratio (y) = 0.13788 0.18686
# Poissons Ratio (z) = 0.05093 0.31258
#
# Static dielectric constant tensor:
#      x y z
#    x 1.798520 0.000000 -0.040260 
#    y 0.000000 1.834400 0.000000 
#    z -0.040260 0.000000 1.791830 
# 
# From -- ./inp_files/50842.got.cif
#   From: 2010.05.17/outbox.cif.g08.bks.cpg/sg5_26_cif.got.tgz:50842.got - 2010.06.03 18:56:24.
