data_PCOD9123109
_publ_section_title
;
Structure prediction by ZEFSAII (Michael W. Deem and Ramdas Pophale) SiO2 
 PCOD9123109
Probable space group: C 2
;
_chemical_formula_sum "Si O2"
_cell_formula_units_Z 20
_cell_length_a 24.052335
_cell_length_b 5.357395
_cell_length_c 8.342275
_cell_angle_alpha 90.000000
_cell_angle_beta 133.750520
_cell_angle_gamma 90.000000
_cell_volume 776.511179
_symmetry_space_group_name_H-M "C 2"
_symmetry_group_IT_number 5
_symmetry_cell_setting 'monoclinic'
loop_
_space_group_symop_operation_xyz
x,y,z
-x,y,-z
1/2+x,1/2+y,z
1/2-x,1/2+y,-z
loop_
_atom_site_type_symbol
_atom_site_label
_atom_site_fract_x
_atom_site_fract_y
_atom_site_fract_z
Si Si1 0.474815 0.662070 0.211063
Si Si2 0.711973 0.299640 0.277740
Si Si3 0.592402 0.152493 0.786606
Si Si4 0.378341 0.592709 0.695502
Si Si5 0.725243 0.102184 0.861036
O O1 0.562368 0.618415 0.330443
O O2 0.445897 0.418206 0.249576
O O3 0.424915 0.678757 0.946610
O O4 0.459369 0.916749 0.274192
O O5 0.663919 0.140451 0.054892
O O6 0.653543 0.324323 0.309637
O O7 0.796659 0.214788 0.492645
O O8 0.731456 0.556193 0.219678
O O9 0.633823 0.147662 0.696000
O O10 0.762245 0.337173 0.024522
#
# Coordination Sequence:
#
# PCOD9123109 Si02
#       5
#     4   4   4   4   4
#     4  10  22  38  60  86 121 157 189 238 300 353
#     4  10  21  37  62  90 118 154 201 246 287 346
#     4  10  20  39  61  84 114 156 199 239 289 347
#     4  10  21  36  58  90 122 153 193 241 296 351
#     4  10  20  37  62  89 116 152 200 247 290 340
#
# _framework density 25.756229000000001
#
# number of rings (size 3 to 8) (size 9 to 14) (size 15 to 20)
#    0.000    2.000    0.000    4.800    0.000    9.600 
#    0.000    1.000    0.000    7.200    0.000    0.000 
#    0.000    0.000    0.000    0.000    0.000    0.000 
#
# Total GULP energy -55876.722121 kJ/mol
# GULP energy per Si atom -5587.672212 kJ/mol
# Density = 2.569761 g / cm^3
# Si number density = 25.756229 Si / 1000 Ang^3
#
#
#
# Elastic Constant Matrix: (Units=GPa)
#
#
# Indices 1 2 3 4 5 6 
#
# 1 208.9202 46.1822 27.7930 0.0000 27.5384 0.0000
# 2 46.1822 119.9885 26.6110 0.0000 -8.1471 0.0000
# 3 27.7930 26.6110 128.1669 0.0000 27.5708 0.0000
# 4 0.0000 0.0000 0.0000 -46.5607 0.0000 -19.8262
# 5 27.5384 -8.1471 27.5708 0.0000 30.4440 0.0000
# 6 0.0000 0.0000 0.0000 -19.8262 0.0000 34.6632
#
#
#
# Elastic Compliance Matrix: (Units=1/GPa)
#
#
# Indices 1 2 3 4 5 6 
#
# 1 0.006330 -0.003124 0.000854 0.000000 -0.007335 0.000000
# 2 -0.003124 0.010921 -0.003511 0.000000 0.008928 0.000000
# 3 0.000854 -0.003511 0.010823 0.000000 -0.011513 0.000000
# 4 0.000000 0.000000 0.000000 -0.017271 0.000000 -0.009878
# 5 -0.007335 0.008928 -0.011513 0.000000 0.052298 0.000000
# 6 0.000000 0.000000 0.000000 -0.009878 0.000000 0.023199
#
#
# Mechanical properties :
#
#
# Convention : Reuss Voigt Hill
#
# Bulk Modulus (GPa) = 60.55847 73.13867 66.84857
# Shear Modulus (GPa) = 48.37158 27.47525 37.92342
#
# Velocity S-wave (km/s) = 4.33835 3.26965 3.84135
# Velocity P-wave (km/s) = 6.97555 6.53546 6.75909
#
# Compressibility (1/GPa) = 0.01651297
#
# Stress axis : x y z
#
# Youngs Moduli (GPa) = 157.96818 91.56442 92.39805
#
# Poissons Ratio (x) = 0.28604 -0.07889
# Poissons Ratio (y) = 0.49348 0.32438
# Poissons Ratio (z) = -0.13488 0.32145
#
# Static dielectric constant tensor:
#      x y z
#    x 2.140040 0.000000 -0.107620 
#    y 0.000000 2.020240 0.000000 
#    z -0.107620 0.000000 2.181960 
# 
# From -- ./inp_files/30355.got.cif
#   From: 2010.05.17/outbox.cif.g08.bks.cpg/sg5_16_cif.got.tgz:30355.got - 2010.06.03 18:56:24.
