data_PCOD9123611
_publ_section_title
;
Structure prediction by ZEFSAII (Michael W. Deem and Ramdas Pophale) SiO2 
 PCOD9123611
Probable space group: C 2
;
_chemical_formula_sum "Si O2"
_cell_formula_units_Z 30
_cell_length_a 29.486010
_cell_length_b 5.749298
_cell_length_c 8.753718
_cell_angle_alpha 90.000000
_cell_angle_beta 111.937670
_cell_angle_gamma 90.000000
_cell_volume 1376.511440
_symmetry_space_group_name_H-M "C 2"
_symmetry_group_IT_number 5
_symmetry_cell_setting 'monoclinic'
loop_
_space_group_symop_operation_xyz
x,y,z
-x,y,-z
1/2+x,1/2+y,z
1/2-x,1/2+y,-z
loop_
_atom_site_type_symbol
_atom_site_label
_atom_site_fract_x
_atom_site_fract_y
_atom_site_fract_z
Si Si1 0.078766 0.136340 0.599853
Si Si2 0.000000 0.973141 0.000000
Si Si3 0.079800 0.866802 0.321652
Si Si4 0.751124 0.633362 0.414904
Si Si5 0.885481 0.742143 0.125884
Si Si6 0.562067 0.833164 0.876256
Si Si7 0.854073 0.522888 0.392607
Si Si8 0.851792 0.077002 0.848471
O O1 0.052424 0.311951 0.681140
O O2 0.127048 0.258914 0.591000
O O3 0.055033 0.020645 0.424191
O O4 0.093076 0.943991 0.741029
O O5 0.972302 0.158899 0.075654
O O6 0.036959 0.820800 0.147687
O O7 0.107798 0.662081 0.448308
O O8 0.119296 0.009641 0.270053
O O9 0.742412 0.387016 0.495558
O O10 0.800737 0.577249 0.386793
O O11 0.702000 0.662833 0.254519
O O12 0.930573 0.609201 0.103036
O O13 0.857823 0.594965 0.219658
O O14 0.851520 0.846706 0.952766
O O15 0.615352 0.754847 0.011704
#
# Coordination Sequence:
#
# PCOD9123611 Si02
#       8
#     4   2   4   4   4   4   4   4
#     4   9  19  39  65  89 128 175 224 283 348 419
#     4  10  22  38  66 100 136 184 238 282 352 434
#     4  10  20  39  63  95 134 180 224 293 342 417
#     4  12  26  42  67 104 139 188 247 294 349 429
#     4   9  20  40  62  90 130 179 225 289 355 412
#     4   9  20  40  64  92 132 179 225 291 352 420
#     4  10  21  41  67  92 133 188 231 286 359 417
#     4  10  21  39  62  92 136 179 228 294 348 406
#
# _framework density 21.794225000000001
#
# number of rings (size 3 to 8) (size 9 to 14) (size 15 to 20)
#    0.000    2.133    1.333    0.800    3.733    2.667 
#    7.200   10.667    0.000   12.800    0.000    0.000 
#    0.000    0.000    0.000    0.000    0.000    0.000 
#
# Total GULP energy -83516.222339 kJ/mol
# GULP energy per Si atom -5567.748156 kJ/mol
# Density = 2.174462 g / cm^3
# Si number density = 21.794225 Si / 1000 Ang^3
#
#
#
# Elastic Constant Matrix: (Units=GPa)
#
#
# Indices 1 2 3 4 5 6 
#
# 1 93.9288 10.7511 50.6932 0.0000 4.5524 0.0000
# 2 10.7511 64.8419 29.2831 0.0000 -7.0679 0.0000
# 3 50.6932 29.2831 147.3040 0.0000 -5.5392 0.0000
# 4 0.0000 0.0000 0.0000 23.9661 0.0000 -7.6932
# 5 4.5524 -7.0679 -5.5392 0.0000 37.3240 0.0000
# 6 0.0000 0.0000 0.0000 -7.6932 0.0000 28.9758
#
#
#
# Elastic Compliance Matrix: (Units=1/GPa)
#
#
# Indices 1 2 3 4 5 6 
#
# 1 0.013279 -0.000392 -0.004581 0.000000 -0.002374 0.000000
# 2 -0.000392 0.017235 -0.003185 0.000000 0.002839 0.000000
# 3 -0.004581 -0.003185 0.009047 0.000000 0.001298 0.000000
# 4 0.000000 0.000000 0.000000 0.045613 0.000000 0.012111
# 5 -0.002374 0.002839 0.001298 0.000000 0.027812 0.000000
# 6 0.000000 0.000000 0.000000 0.012111 0.000000 0.037727
#
#
# Mechanical properties :
#
#
# Convention : Reuss Voigt Hill
#
# Bulk Modulus (GPa) = 43.01843 54.16995 48.59419
# Shear Modulus (GPa) = 28.60804 32.40967 30.50885
#
# Velocity S-wave (km/s) = 3.62697 3.86045 3.74553
# Velocity P-wave (km/s) = 6.10911 6.69178 6.40707
#
# Compressibility (1/GPa) = 0.02324585
#
# Stress axis : x y z
#
# Youngs Moduli (GPa) = 75.30885 58.02252 110.53199
#
# Poissons Ratio (x) = 0.02272 0.50636
# Poissons Ratio (y) = 0.02948 0.35201
# Poissons Ratio (z) = 0.34500 0.18478
#
# Static dielectric constant tensor:
#      x y z
#    x 1.831540 0.000000 -0.043320 
#    y 0.000000 1.986300 0.000000 
#    z -0.043320 0.000000 1.802690 
# 
# From -- ./inp_files/32306.got.cif
#   From: 2010.05.17/outbox.cif.g08.bks.cpg/sg5_17_cif.got.tgz:32306.got - 2010.06.03 18:56:24.
