data_PCOD9123754
_publ_section_title
;
Structure prediction by ZEFSAII (Michael W. Deem and Ramdas Pophale) SiO2 
 PCOD9123754
Probable space group: C 2
;
_chemical_formula_sum "Si O2"
_cell_formula_units_Z 28
_cell_length_a 9.516807
_cell_length_b 11.427981
_cell_length_c 14.337404
_cell_angle_alpha 90.000000
_cell_angle_beta 57.242634
_cell_angle_gamma 90.000000
_cell_volume 1311.328554
_symmetry_space_group_name_H-M "C 2"
_symmetry_group_IT_number 5
_symmetry_cell_setting 'monoclinic'
loop_
_space_group_symop_operation_xyz
x,y,z
-x,y,-z
1/2+x,1/2+y,z
1/2-x,1/2+y,-z
loop_
_atom_site_type_symbol
_atom_site_label
_atom_site_fract_x
_atom_site_fract_y
_atom_site_fract_z
Si Si1 0.304567 0.002550 0.098641
Si Si2 0.172043 0.155637 0.306078
Si Si3 0.938621 0.350150 0.782349
Si Si4 0.689795 0.527910 0.949012
Si Si5 0.281134 0.669380 0.496729
Si Si6 0.876094 0.423811 0.460026
Si Si7 0.349878 0.752383 0.128719
O O1 0.261773 0.057763 0.213104
O O2 0.252968 0.866990 0.129351
O O3 0.500000 0.009721 0.000000
O O4 0.205339 0.066136 0.051245
O O5 0.180312 0.268793 0.237420
O O6 0.242963 0.163121 0.383518
O O7 0.972306 0.144727 0.395600
O O8 0.822620 0.425237 0.890910
O O9 0.030683 0.428408 0.672348
O O10 0.070906 0.279233 0.798797
O O11 0.737184 0.628868 0.857768
O O12 0.500000 0.489171 0.000000
O O13 0.187885 0.553716 0.492252
O O14 0.254788 0.809401 0.487429
O O15 0.000000 0.386918 0.500000
O O16 0.500000 0.741608 0.000000
#
# Coordination Sequence:
#
# PCOD9123754 Si02
#       7
#     4   4   4   4   4   4   4
#     4  11  22  40  65  95 137 179 220 272 336 403
#     4  10  21  42  68  93 134 174 215 281 332 391
#     4  11  21  42  67  92 133 181 213 280 339 391
#     4  11  24  40  62  97 133 177 227 267 334 403
#     4  10  22  45  69  96 133 175 226 280 341 392
#     4  11  23  45  69  97 135 173 226 283 338 401
#     4  10  20  40  61  87 134 171 218 270 325 388
#
# _framework density 21.352391000000001
#
# number of rings (size 3 to 8) (size 9 to 14) (size 15 to 20)
#    0.000    1.429    5.714    2.571    0.000    4.000 
#    5.143    0.000    0.000    0.000    0.000    0.000 
#    0.000    0.000    0.000    0.000    0.000    0.000 
#
# Total GULP energy -77986.546196 kJ/mol
# GULP energy per Si atom -5570.467585 kJ/mol
# Density = 2.130379 g / cm^3
# Si number density = 21.352391 Si / 1000 Ang^3
#
#
#
# Elastic Constant Matrix: (Units=GPa)
#
#
# Indices 1 2 3 4 5 6 
#
# 1 60.8203 19.5999 13.7877 0.0000 17.1855 0.0000
# 2 19.5999 108.1516 8.2805 0.0000 -5.0527 0.0000
# 3 13.7877 8.2805 83.7323 0.0000 25.5934 0.0000
# 4 0.0000 0.0000 0.0000 31.6095 0.0000 5.0701
# 5 17.1855 -5.0527 25.5934 0.0000 15.7082 0.0000
# 6 0.0000 0.0000 0.0000 5.0701 0.0000 32.7540
#
#
#
# Elastic Compliance Matrix: (Units=1/GPa)
#
#
# Indices 1 2 3 4 5 6 
#
# 1 0.035991 -0.011049 0.016510 0.000000 -0.069829 0.000000
# 2 -0.011049 0.013388 -0.008995 0.000000 0.031051 0.000000
# 3 0.016510 -0.008995 0.032907 0.000000 -0.074572 0.000000
# 4 0.000000 0.000000 0.000000 0.032442 0.000000 -0.005022
# 5 -0.069829 0.031051 -0.074572 0.000000 0.271545 0.000000
# 6 0.000000 0.000000 0.000000 -0.005022 0.000000 0.031308
#
#
# Mechanical properties :
#
#
# Convention : Reuss Voigt Hill
#
# Bulk Modulus (GPa) = 13.29475 37.33781 25.31628
# Shear Modulus (GPa) = 11.11799 30.08343 20.60071
#
# Velocity S-wave (km/s) = 2.28434 3.75761 3.10949
# Velocity P-wave (km/s) = 3.63283 6.02914 4.97735
#
# Compressibility (1/GPa) = 0.07521768
#
# Stress axis : x y z
#
# Youngs Moduli (GPa) = 27.78495 74.69395 30.38836
#
# Poissons Ratio (x) = 0.82528 -0.50172
# Poissons Ratio (y) = 0.30699 0.27336
# Poissons Ratio (z) = -0.45873 0.67191
#
# Static dielectric constant tensor:
#      x y z
#    x 1.804420 0.000000 -0.000870 
#    y 0.000000 1.884130 0.000000 
#    z -0.000870 0.000000 1.754420 
# 
# From -- ./inp_files/50402.got.cif
#   From: 2010.05.17/outbox.cif.g08.bks.cpg/sg5_26_cif.got.tgz:50402.got - 2010.06.03 18:56:24.
