data_PCOD9123764
_publ_section_title
;
Structure prediction by ZEFSAII (Michael W. Deem and Ramdas Pophale) SiO2 
 PCOD9123764
Probable space group: C 2
;
_chemical_formula_sum "Si O2"
_cell_formula_units_Z 30
_cell_length_a 8.868219
_cell_length_b 11.708569
_cell_length_c 13.282941
_cell_angle_alpha 90.000000
_cell_angle_beta 64.379038
_cell_angle_gamma 90.000000
_cell_volume 1243.609998
_symmetry_space_group_name_H-M "C 2"
_symmetry_group_IT_number 5
_symmetry_cell_setting 'monoclinic'
loop_
_space_group_symop_operation_xyz
x,y,z
-x,y,-z
1/2+x,1/2+y,z
1/2-x,1/2+y,-z
loop_
_atom_site_type_symbol
_atom_site_label
_atom_site_fract_x
_atom_site_fract_y
_atom_site_fract_z
Si Si1 0.910102 0.850620 0.722671
Si Si2 0.011306 0.361512 0.616603
Si Si3 0.839700 0.799663 0.178455
Si Si4 0.500000 0.489900 0.500000
Si Si5 0.602987 0.083695 0.292600
Si Si6 0.741880 0.554321 0.167693
Si Si7 0.689588 0.498212 0.954826
Si Si8 0.121872 0.126535 0.631684
O O1 0.972943 0.908907 0.602689
O O2 0.927838 0.717062 0.699021
O O3 0.016159 0.859609 0.796764
O O4 0.742723 0.925763 0.792034
O O5 0.830686 0.324753 0.711979
O O6 0.038893 0.489768 0.647741
O O7 0.000000 0.358538 0.500000
O O8 0.134429 0.263641 0.621679
O O9 0.855674 0.662760 0.163601
O O10 0.818299 0.864538 0.077595
O O11 0.624603 0.579949 0.517274
O O12 0.696628 0.054291 0.162809
O O13 0.733369 0.069176 0.346580
O O14 0.555835 0.594269 0.262118
O O15 0.750843 0.532952 0.046540
O O16 0.500000 0.541581 0.000000
#
# Coordination Sequence:
#
# PCOD9123764 Si02
#       8
#     4   4   4   2   4   4   4   4
#     4  11  24  42  60  99 135 170 219 275 334 394
#     4  10  21  41  62  90 125 172 215 269 325 383
#     4  10  23  41  67  96 128 170 225 271 322 407
#     4  10  20  40  62  86 122 174 222 260 330 396
#     4  11  25  38  62 100 134 164 221 272 328 404
#     4  10  21  39  67  92 123 172 219 264 329 393
#     4  11  19  40  69  91 124 175 214 272 336 386
#     4  10  20  40  64  91 121 171 222 263 323 396
#
# _framework density 24.123318999999999
#
# number of rings (size 3 to 8) (size 9 to 14) (size 15 to 20)
#    0.000    1.600    3.333    2.400    2.800    3.200 
#    0.000    1.333    0.000    0.800    0.000    0.000 
#    0.000    0.000    0.000    0.000    0.000    0.000 
#
# Total GULP energy -83726.238980 kJ/mol
# GULP energy per Si atom -5581.749265 kJ/mol
# Density = 2.406841 g / cm^3
# Si number density = 24.123319 Si / 1000 Ang^3
#
#
#
# Elastic Constant Matrix: (Units=GPa)
#
#
# Indices 1 2 3 4 5 6 
#
# 1 48.3067 21.0104 25.2322 0.0000 14.2657 0.0000
# 2 21.0104 220.3750 55.7757 0.0000 14.2715 0.0000
# 3 25.2322 55.7757 127.8940 0.0000 19.6429 0.0000
# 4 0.0000 0.0000 0.0000 20.8635 0.0000 11.2195
# 5 14.2657 14.2715 19.6429 0.0000 30.6842 0.0000
# 6 0.0000 0.0000 0.0000 11.2195 0.0000 20.6616
#
#
#
# Elastic Compliance Matrix: (Units=1/GPa)
#
#
# Indices 1 2 3 4 5 6 
#
# 1 0.025569 -0.001032 -0.003152 0.000000 -0.009390 0.000000
# 2 -0.001032 0.005173 -0.001948 0.000000 -0.000679 0.000000
# 3 -0.003152 -0.001948 0.009900 0.000000 -0.003966 0.000000
# 4 0.000000 0.000000 0.000000 0.067699 0.000000 -0.036762
# 5 -0.009390 -0.000679 -0.003966 0.000000 0.039810 0.000000
# 6 0.000000 0.000000 0.000000 -0.036762 0.000000 0.068361
#
#
# Mechanical properties :
#
#
# Convention : Reuss Voigt Hill
#
# Bulk Modulus (GPa) = 35.23944 66.73469 50.98707
# Shear Modulus (GPa) = 20.98753 34.07902 27.53328
#
# Velocity S-wave (km/s) = 2.95279 3.76267 3.38206
# Velocity P-wave (km/s) = 5.12495 6.82649 6.03598
#
# Compressibility (1/GPa) = 0.02837729
#
# Stress axis : x y z
#
# Youngs Moduli (GPa) = 39.10922 193.30584 101.01414
#
# Poissons Ratio (x) = 0.19946 0.31844
# Poissons Ratio (y) = 0.04035 0.19679
# Poissons Ratio (z) = 0.12329 0.37659
#
# Static dielectric constant tensor:
#      x y z
#    x 1.929070 0.000000 -0.015460 
#    y 0.000000 2.018670 0.000000 
#    z -0.015460 0.000000 1.888100 
# 
# From -- ./inp_files/39141.got.cif
#   From: 2010.05.17/outbox.cif.g08.bks.cpg/sg5_20_cif.got.tgz:39141.got - 2010.06.03 18:56:24.
