data_PCOD9123663
_publ_section_title
;
Structure prediction by ZEFSAII (Michael W. Deem and Ramdas Pophale) SiO2 
 PCOD9123663
Probable space group: C 2
;
_chemical_formula_sum "Si O2"
_cell_formula_units_Z 28
_cell_length_a 8.927535
_cell_length_b 12.646805
_cell_length_c 13.474826
_cell_angle_alpha 90.000000
_cell_angle_beta 117.703233
_cell_angle_gamma 90.000000
_cell_volume 1346.973569
_symmetry_space_group_name_H-M "C 2"
_symmetry_group_IT_number 5
_symmetry_cell_setting 'monoclinic'
loop_
_space_group_symop_operation_xyz
x,y,z
-x,y,-z
1/2+x,1/2+y,z
1/2-x,1/2+y,-z
loop_
_atom_site_type_symbol
_atom_site_label
_atom_site_fract_x
_atom_site_fract_y
_atom_site_fract_z
Si Si1 0.948591 0.428990 0.089521
Si Si2 0.399832 0.517388 0.062572
Si Si3 0.006735 0.116718 0.613903
Si Si4 0.635143 0.388597 0.456599
Si Si5 0.034609 0.338625 0.321737
Si Si6 0.647435 0.349852 0.241229
Si Si7 0.315759 0.124972 0.835130
O O1 0.034407 0.371287 0.207457
O O2 0.026747 0.546957 0.114591
O O3 0.747097 0.441937 0.028493
O O4 0.000000 0.380217 0.000000
O O5 0.527167 0.443466 0.165295
O O6 0.301795 0.598137 0.105510
O O7 0.500000 0.564999 0.000000
O O8 0.951498 0.211946 0.666456
O O9 0.000000 0.158787 0.500000
O O10 0.197749 0.092741 0.705548
O O11 0.901172 0.010257 0.583401
O O12 0.500000 0.358688 0.500000
O O13 0.817584 0.381184 0.563341
O O14 0.611753 0.326149 0.346398
O O15 0.848217 0.374621 0.300435
O O16 0.631962 0.245638 0.167422
#
# Coordination Sequence:
#
# PCOD9123663 Si02
#       7
#     4   4   4   4   4   4   4
#     4  10  22  40  67 100 137 182 232 292 344 408
#     4  11  22  42  68  99 139 180 236 282 346 409
#     4  10  20  39  66  96 127 179 226 278 350 419
#     4  11  23  41  70 100 138 176 232 297 351 420
#     4  11  22  40  67  99 135 184 232 284 358 416
#     4  11  23  44  70 100 133 188 228 294 352 418
#     4  10  22  43  70  97 136 180 235 285 353 412
#
# _framework density 20.787341999999999
#
# number of rings (size 3 to 8) (size 9 to 14) (size 15 to 20)
#    0.000    1.429    2.857    3.857    2.000    1.714 
#    0.000    8.571    0.000    0.857    0.000    0.000 
#    0.000    0.000    0.000    0.000    0.000    0.000 
#
# Total GULP energy -78152.875092 kJ/mol
# GULP energy per Si atom -5582.348221 kJ/mol
# Density = 2.074003 g / cm^3
# Si number density = 20.787342 Si / 1000 Ang^3
#
#
#
# Elastic Constant Matrix: (Units=GPa)
#
#
# Indices 1 2 3 4 5 6 
#
# 1 91.5597 28.8590 38.8332 0.0000 -7.9584 0.0000
# 2 28.8590 71.2787 33.6702 0.0000 -8.6556 0.0000
# 3 38.8332 33.6702 132.6415 0.0000 -8.7153 0.0000
# 4 0.0000 0.0000 0.0000 22.9800 0.0000 -2.2073
# 5 -7.9584 -8.6556 -8.7153 0.0000 52.2007 0.0000
# 6 0.0000 0.0000 0.0000 -2.2073 0.0000 23.8916
#
#
#
# Elastic Compliance Matrix: (Units=1/GPa)
#
#
# Indices 1 2 3 4 5 6 
#
# 1 0.013477 -0.003988 -0.002873 0.000000 0.000914 0.000000
# 2 -0.003988 0.017328 -0.003116 0.000000 0.001745 0.000000
# 3 -0.002873 -0.003116 0.009210 0.000000 0.000583 0.000000
# 4 0.000000 0.000000 0.000000 0.043906 0.000000 0.004056
# 5 0.000914 0.001745 0.000583 0.000000 0.019683 0.000000
# 6 0.000000 0.000000 0.000000 0.004056 0.000000 0.042230
#
#
# Mechanical properties :
#
#
# Convention : Reuss Voigt Hill
#
# Bulk Modulus (GPa) = 49.85272 55.35609 52.60440
# Shear Modulus (GPa) = 28.98957 32.75563 30.87260
#
# Velocity S-wave (km/s) = 3.73846 3.97388 3.85796
# Velocity P-wave (km/s) = 6.53216 6.90964 6.72355
#
# Compressibility (1/GPa) = 0.02005909
#
# Stress axis : x y z
#
# Youngs Moduli (GPa) = 74.20085 57.70945 108.58173
#
# Poissons Ratio (x) = 0.23016 0.31197
# Poissons Ratio (y) = 0.29594 0.33838
# Poissons Ratio (z) = 0.21319 0.17984
#
# Static dielectric constant tensor:
#      x y z
#    x 1.781250 0.000000 -0.027600 
#    y 0.000000 1.754070 0.000000 
#    z -0.027600 0.000000 1.785650 
# 
# From -- ./inp_files/36490.got.cif
#   From: 2010.05.17/outbox.cif.g08.bks.cpg/sg5_19_cif.got.tgz:36490.got - 2010.06.03 18:56:24.
