data_PCOD9123945
_publ_section_title
;
Structure prediction by ZEFSAII (Michael W. Deem and Ramdas Pophale) SiO2 
 PCOD9123945
Probable space group: C 2
;
_chemical_formula_sum "Si O2"
_cell_formula_units_Z 18
_cell_length_a 7.010560
_cell_length_b 12.504649
_cell_length_c 7.896996
_cell_angle_alpha 90.000000
_cell_angle_beta 71.583584
_cell_angle_gamma 90.000000
_cell_volume 656.831828
_symmetry_space_group_name_H-M "C 2"
_symmetry_group_IT_number 5
_symmetry_cell_setting 'monoclinic'
loop_
_space_group_symop_operation_xyz
x,y,z
-x,y,-z
1/2+x,1/2+y,z
1/2-x,1/2+y,-z
loop_
_atom_site_type_symbol
_atom_site_label
_atom_site_fract_x
_atom_site_fract_y
_atom_site_fract_z
Si Si1 0.600128 0.184450 0.163629
Si Si2 0.653123 0.402667 0.082935
Si Si3 0.006388 0.269708 0.221763
Si Si4 0.353148 0.990093 0.343537
Si Si5 0.000000 0.108477 0.500000
O O1 0.824726 0.337972 0.928252
O O2 0.742471 0.980588 0.818127
O O3 0.500000 0.171640 0.000000
O O4 0.833982 0.203627 0.164005
O O5 0.500000 0.457139 0.000000
O O6 0.907041 0.367134 0.354314
O O7 0.534674 0.308057 0.215126
O O8 0.021004 0.581126 0.284189
O O9 0.088899 0.184513 0.330560
O O10 0.178104 0.033025 0.511736
#
# Coordination Sequence:
#
# PCOD9123945 Si02
#       5
#     4   4   4   4   2
#     4  10  20  40  71 102 138 185 243 300 351 420
#     4  10  22  44  74 107 143 186 248 311 357 427
#     4  11  26  45  68 105 149 190 242 302 363 438
#     4  11  25  43  68 102 142 193 243 292 365 436
#     4  12  28  44  66 104 150 196 234 290 376 444
#
# _framework density 27.404274000000001
#
# number of rings (size 3 to 8) (size 9 to 14) (size 15 to 20)
#    0.000    1.333    0.000    6.667    0.000   11.556 
#    0.000    2.222    0.000    0.000    0.000    0.000 
#    0.000    0.000    0.000    0.000    0.000    0.000 
#
# Total GULP energy -50137.219964 kJ/mol
# GULP energy per Si atom -5570.802218 kJ/mol
# Density = 2.734190 g / cm^3
# Si number density = 27.404274 Si / 1000 Ang^3
#
#
#
# Elastic Constant Matrix: (Units=GPa)
#
#
# Indices 1 2 3 4 5 6 
#
# 1 144.1861 55.3233 50.3229 0.0000 19.2452 0.0000
# 2 55.3233 190.1924 30.7656 0.0000 -19.1793 0.0000
# 3 50.3229 30.7656 61.2556 0.0000 8.6164 0.0000
# 4 0.0000 0.0000 0.0000 20.3761 0.0000 -16.4293
# 5 19.2452 -19.1793 8.6164 0.0000 48.4969 0.0000
# 6 0.0000 0.0000 0.0000 -16.4293 0.0000 58.0124
#
#
#
# Elastic Compliance Matrix: (Units=1/GPa)
#
#
# Indices 1 2 3 4 5 6 
#
# 1 0.010902 -0.002414 -0.007181 0.000000 -0.004005 0.000000
# 2 -0.002414 0.006667 -0.001919 0.000000 0.003936 0.000000
# 3 -0.007181 -0.001919 0.023481 0.000000 -0.002081 0.000000
# 4 0.000000 0.000000 0.000000 0.063600 0.000000 0.018012
# 5 -0.004005 0.003936 -0.002081 0.000000 0.024135 0.000000
# 6 0.000000 0.000000 0.000000 0.018012 0.000000 0.022339
#
#
# Mechanical properties :
#
#
# Convention : Reuss Voigt Hill
#
# Bulk Modulus (GPa) = 55.48502 74.27309 64.87905
# Shear Modulus (GPa) = 27.75304 42.65858 35.20581
#
# Velocity S-wave (km/s) = 3.18579 3.94971 3.58814
# Velocity P-wave (km/s) = 5.81577 6.92545 6.39472
#
# Compressibility (1/GPa) = 0.01802288
#
# Stress axis : x y z
#
# Youngs Moduli (GPa) = 91.72284 149.98694 42.58735
#
# Poissons Ratio (x) = 0.36201 0.30582
# Poissons Ratio (y) = 0.22138 0.08174
# Poissons Ratio (z) = 0.65866 0.28788
#
# Static dielectric constant tensor:
#      x y z
#    x 2.234390 0.000000 -0.032300 
#    y 0.000000 2.050830 0.000000 
#    z -0.032300 0.000000 2.320770 
# 
# From -- ./inp_files/14222.got.cif
#   From: 2010.05.17/outbox.cif.g08.bks.cpg/sg5_8_cif.got.tgz:14222.got - 2010.06.03 18:56:24.
