data_PCOD9123210
_publ_section_title
;
Structure prediction by ZEFSAII (Michael W. Deem and Ramdas Pophale) SiO2 
 PCOD9123210
Probable space group: C 2
;
_chemical_formula_sum "Si O2"
_cell_formula_units_Z 32
_cell_length_a 20.938662
_cell_length_b 7.209180
_cell_length_c 15.597063
_cell_angle_alpha 90.000000
_cell_angle_beta 138.464156
_cell_angle_gamma 90.000000
_cell_volume 1561.166031
_symmetry_space_group_name_H-M "C 2"
_symmetry_group_IT_number 5
_symmetry_cell_setting 'monoclinic'
loop_
_space_group_symop_operation_xyz
x,y,z
-x,y,-z
1/2+x,1/2+y,z
1/2-x,1/2+y,-z
loop_
_atom_site_type_symbol
_atom_site_label
_atom_site_fract_x
_atom_site_fract_y
_atom_site_fract_z
Si Si1 0.668884 0.804640 0.300417
Si Si2 0.263984 0.971696 0.811630
Si Si3 0.540773 0.159130 0.305050
Si Si4 0.556704 0.765467 0.417844
Si Si5 0.137162 0.302499 0.691070
Si Si6 0.685060 0.486855 0.433715
Si Si7 0.580340 0.226016 0.656769
Si Si8 0.973538 0.477762 0.071004
O O1 0.713738 0.893303 0.260650
O O2 0.695946 0.595877 0.355051
O O3 0.553828 0.822220 0.174016
O O4 0.715907 0.935346 0.420214
O O5 0.165890 0.870060 0.735757
O O6 0.236841 0.189086 0.795290
O O7 0.361837 0.923873 0.960051
O O8 0.558675 0.963771 0.372189
O O9 0.491215 0.123568 0.164054
O O10 0.629619 0.293134 0.375233
O O11 0.472842 0.255350 0.306888
O O12 0.603085 0.778244 0.558607
O O13 0.444870 0.722128 0.326830
O O14 0.618094 0.621238 0.424203
O O15 0.129883 0.522278 0.701109
O O16 0.500000 0.239779 0.500000
O O17 0.000000 0.539611 0.000000
#
# Coordination Sequence:
#
# PCOD9123210 Si02
#       8
#     4   4   4   4   4   4   4   4
#     4  11  24  40  66  90 128 170 219 271 323 380
#     4  11  24  43  64  91 134 177 211 260 328 386
#     4  11  22  44  66  95 134 164 213 273 325 385
#     4  10  20  37  67 100 133 157 205 274 334 387
#     4  10  20  38  66 101 132 165 202 266 335 394
#     4  12  23  39  67 100 123 167 217 277 335 372
#     4  11  22  39  70 105 129 159 211 276 331 390
#     4  10  24  49  61  84 130 179 222 263 302 388
#
# _framework density 20.497501
#
# number of rings (size 3 to 8) (size 9 to 14) (size 15 to 20)
#    0.000    1.250    5.000    2.250    1.750    0.000 
#   11.250    0.625    0.000    0.000    0.000    0.000 
#    0.000    0.000    0.000    0.000    0.000    0.000 
#
# Total GULP energy -89249.069815 kJ/mol
# GULP energy per Si atom -5578.066863 kJ/mol
# Density = 2.045085 g / cm^3
# Si number density = 20.497501 Si / 1000 Ang^3
#
#
#
# Elastic Constant Matrix: (Units=GPa)
#
#
# Indices 1 2 3 4 5 6 
#
# 1 71.7561 28.7801 40.6878 0.0000 6.4338 0.0000
# 2 28.7801 91.7637 44.0768 0.0000 15.2458 0.0000
# 3 40.6878 44.0768 112.6343 0.0000 14.1301 0.0000
# 4 0.0000 0.0000 0.0000 13.2889 0.0000 9.5927
# 5 6.4338 15.2458 14.1301 0.0000 32.3582 0.0000
# 6 0.0000 0.0000 0.0000 9.5927 0.0000 32.3782
#
#
#
# Elastic Compliance Matrix: (Units=1/GPa)
#
#
# Indices 1 2 3 4 5 6 
#
# 1 0.018236 -0.003175 -0.005372 0.000000 0.000216 0.000000
# 2 -0.003175 0.014553 -0.003985 0.000000 -0.004485 0.000000
# 3 -0.005372 -0.003985 0.012705 0.000000 -0.002602 0.000000
# 4 0.000000 0.000000 0.000000 0.095722 0.000000 -0.028360
# 5 0.000216 -0.004485 -0.002602 0.000000 0.034111 0.000000
# 6 0.000000 0.000000 0.000000 -0.028360 0.000000 0.039287
#
#
# Mechanical properties :
#
#
# Convention : Reuss Voigt Hill
#
# Bulk Modulus (GPa) = 48.95009 55.91596 52.43302
# Shear Modulus (GPa) = 20.28489 26.44570 23.36529
#
# Velocity S-wave (km/s) = 3.14925 3.59582 3.37992
# Velocity P-wave (km/s) = 6.09562 6.67671 6.39277
#
# Compressibility (1/GPa) = 0.02042897
#
# Stress axis : x y z
#
# Youngs Moduli (GPa) = 54.83533 68.71563 78.70926
#
# Poissons Ratio (x) = 0.21817 0.42285
# Poissons Ratio (y) = 0.17410 0.31368
# Poissons Ratio (z) = 0.29459 0.27385
#
# Static dielectric constant tensor:
#      x y z
#    x 1.796880 0.000000 0.022160 
#    y 0.000000 1.765870 0.000000 
#    z 0.022160 0.000000 1.724710 
# 
# From -- ./inp_files/56824.got.cif
#   From: 2010.05.17/outbox.cif.g08.bks.cpg/sg5_29_cif.got.tgz:56824.got - 2010.06.03 18:56:24.
