data_PCOD9123916
_publ_section_title
;
Structure prediction by ZEFSAII (Michael W. Deem and Ramdas Pophale) SiO2 
 PCOD9123916
Probable space group: C 2
;
_chemical_formula_sum "Si O2"
_cell_formula_units_Z 26
_cell_length_a 12.653016
_cell_length_b 12.622992
_cell_length_c 9.595411
_cell_angle_alpha 90.000000
_cell_angle_beta 127.789516
_cell_angle_gamma 90.000000
_cell_volume 1211.138681
_symmetry_space_group_name_H-M "C 2"
_symmetry_group_IT_number 5
_symmetry_cell_setting 'monoclinic'
loop_
_space_group_symop_operation_xyz
x,y,z
-x,y,-z
1/2+x,1/2+y,z
1/2-x,1/2+y,-z
loop_
_atom_site_type_symbol
_atom_site_label
_atom_site_fract_x
_atom_site_fract_y
_atom_site_fract_z
Si Si1 0.901264 0.913720 0.544248
Si Si2 0.246340 0.232274 0.284398
Si Si3 0.500000 0.613554 0.000000
Si Si4 0.461774 0.015369 0.123598
Si Si5 0.277473 0.443934 0.891968
Si Si6 0.315129 0.021706 0.471003
Si Si7 0.405462 0.257255 0.130805
O O1 0.784084 0.843048 0.381709
O O2 0.000000 0.948117 0.500000
O O3 0.983723 0.834905 0.711485
O O4 0.827340 0.005429 0.567966
O O5 0.094827 0.191346 0.165451
O O6 0.331179 0.142471 0.434298
O O7 0.299359 0.234872 0.169032
O O8 0.605821 0.533063 0.014470
O O9 0.321198 0.968064 0.060286
O O10 0.569404 0.989571 0.330300
O O11 0.453374 0.143481 0.118756
O O12 0.500000 0.979117 0.000000
O O13 0.198019 0.457155 0.683129
O O14 0.338627 0.328076 0.957471
#
# Coordination Sequence:
#
# PCOD9123916 Si02
#       7
#     4   4   2   4   4   4   4
#     4  10  23  39  70  98 140 187 237 282 349 424
#     4  10  21  39  69  98 136 188 229 289 353 411
#     4  10  20  40  68  96 140 174 238 288 346 404
#     4  12  27  43  70 103 146 180 236 296 349 416
#     4  11  25  43  72 102 133 189 237 286 351 422
#     4  11  23  46  68 101 140 188 230 292 352 418
#     4  11  22  43  70 102 137 183 243 280 349 423
#
# _framework density 21.467400999999999
#
# number of rings (size 3 to 8) (size 9 to 14) (size 15 to 20)
#    0.000    1.231    4.615    2.308    7.538    1.231 
#    0.000    0.000    0.000    0.000    0.000    0.000 
#    0.000    0.000    0.000    0.000    0.000    0.000 
#
# Total GULP energy -72663.274543 kJ/mol
# GULP energy per Si atom -5589.482657 kJ/mol
# Density = 2.141854 g / cm^3
# Si number density = 21.467401 Si / 1000 Ang^3
#
#
#
# Elastic Constant Matrix: (Units=GPa)
#
#
# Indices 1 2 3 4 5 6 
#
# 1 114.1829 29.9113 46.4414 0.0000 -2.8505 0.0000
# 2 29.9113 50.1033 9.5709 0.0000 -4.8331 0.0000
# 3 46.4414 9.5709 95.5366 0.0000 -4.1282 0.0000
# 4 0.0000 0.0000 0.0000 32.1194 0.0000 -2.7621
# 5 -2.8505 -4.8331 -4.1282 0.0000 33.9999 0.0000
# 6 0.0000 0.0000 0.0000 -2.7621 0.0000 30.5739
#
#
#
# Elastic Compliance Matrix: (Units=1/GPa)
#
#
# Indices 1 2 3 4 5 6 
#
# 1 0.012728 -0.006591 -0.005551 0.000000 -0.000544 0.000000
# 2 -0.006591 0.024003 0.000928 0.000000 0.002972 0.000000
# 3 -0.005551 0.000928 0.013127 0.000000 0.001260 0.000000
# 4 0.000000 0.000000 0.000000 0.031378 0.000000 0.002835
# 5 -0.000544 0.002972 0.001260 0.000000 0.029942 0.000000
# 6 0.000000 0.000000 0.000000 0.002835 0.000000 0.032964
#
#
# Mechanical properties :
#
#
# Convention : Reuss Voigt Hill
#
# Bulk Modulus (GPa) = 36.45555 47.96332 42.20944
# Shear Modulus (GPa) = 28.45553 30.93193 29.69373
#
# Velocity S-wave (km/s) = 3.64472 3.80001 3.72318
# Velocity P-wave (km/s) = 5.89327 6.45324 6.17960
#
# Compressibility (1/GPa) = 0.02743066
#
# Stress axis : x y z
#
# Youngs Moduli (GPa) = 78.56410 41.66146 76.17923
#
# Poissons Ratio (x) = 0.27459 0.42284
# Poissons Ratio (y) = 0.51781 -0.07067
# Poissons Ratio (z) = 0.43608 -0.03865
#
# Static dielectric constant tensor:
#      x y z
#    x 1.789280 0.000000 0.014810 
#    y 0.000000 1.749190 0.000000 
#    z 0.014810 0.000000 1.804820 
# 
# From -- ./inp_files/20480.got.cif
#   From: 2010.05.17/outbox.cif.g08.bks.cpg/sg5_11_cif.got.tgz:20480.got - 2010.06.03 18:56:24.
