data_PCOD9123749
_publ_section_title
;
Structure prediction by ZEFSAII (Michael W. Deem and Ramdas Pophale) SiO2 
 PCOD9123749
Probable space group: C 2
;
_chemical_formula_sum "Si O2"
_cell_formula_units_Z 30
_cell_length_a 27.414794
_cell_length_b 9.167584
_cell_length_c 5.308598
_cell_angle_alpha 90.000000
_cell_angle_beta 110.199294
_cell_angle_gamma 90.000000
_cell_volume 1252.139572
_symmetry_space_group_name_H-M "C 2"
_symmetry_group_IT_number 5
_symmetry_cell_setting 'monoclinic'
loop_
_space_group_symop_operation_xyz
x,y,z
-x,y,-z
1/2+x,1/2+y,z
1/2-x,1/2+y,-z
loop_
_atom_site_type_symbol
_atom_site_label
_atom_site_fract_x
_atom_site_fract_y
_atom_site_fract_z
Si Si1 0.336630 0.460630 0.126984
Si Si2 0.466311 0.680355 0.682894
Si Si3 0.000000 0.715116 0.000000
Si Si4 0.778422 0.015253 0.529119
Si Si5 0.655588 0.019537 0.311136
Si Si6 0.066471 0.507847 0.480460
Si Si7 0.633779 0.700940 0.175045
Si Si8 0.089943 0.735056 0.892738
O O1 0.300019 0.460962 0.301848
O O2 0.380985 0.340985 0.243504
O O3 0.301526 0.431986 0.814200
O O4 0.365214 0.609996 0.083791
O O5 0.500000 0.618534 0.500000
O O6 0.409169 0.638222 0.704683
O O7 0.454111 0.846155 0.572946
O O8 0.500000 0.682875 0.000000
O O9 0.962233 0.609957 0.773548
O O10 0.042183 0.816389 0.938295
O O11 0.717033 0.021140 0.425616
O O12 0.808428 0.170195 0.612010
O O13 0.631270 0.874090 0.136791
O O14 0.628104 0.010100 0.533224
O O15 0.633762 0.164517 0.144208
O O16 0.060468 0.596829 0.723073
#
# Coordination Sequence:
#
# PCOD9123749 Si02
#       8
#     4   4   2   4   4   4   4   4
#     4  10  26  44  68  91 143 176 223 274 331 400
#     4  11  23  39  69 101 136 176 221 281 340 390
#     4  10  20  40  60  98 130 178 216 278 336 398
#     4  10  25  45  67  97 139 179 221 277 334 398
#     4  10  24  41  71 101 130 178 226 280 338 398
#     4  10  22  38  64 102 136 170 224 283 339 403
#     4   9  25  45  68  99 137 174 232 271 336 402
#     4  11  24  40  71  97 138 174 231 274 346 401
#
# _framework density 23.95899
#
# number of rings (size 3 to 8) (size 9 to 14) (size 15 to 20)
#    0.800    1.067    0.667    1.200   13.067    2.133 
#    1.200    0.000    0.000    0.000    0.000    0.000 
#    0.000    0.000    0.000    0.000    0.000    0.000 
#
# Total GULP energy -83596.728071 kJ/mol
# GULP energy per Si atom -5573.115205 kJ/mol
# Density = 2.390446 g / cm^3
# Si number density = 23.958990 Si / 1000 Ang^3
#
#
#
# Elastic Constant Matrix: (Units=GPa)
#
#
# Indices 1 2 3 4 5 6 
#
# 1 203.8855 22.7832 41.7851 0.0000 -12.2361 0.0000
# 2 22.7832 41.2718 6.3690 0.0000 4.0652 0.0000
# 3 41.7851 6.3690 94.7444 0.0000 -15.9251 0.0000
# 4 0.0000 0.0000 0.0000 11.2094 0.0000 3.1554
# 5 -12.2361 4.0652 -15.9251 0.0000 31.6278 0.0000
# 6 0.0000 0.0000 0.0000 3.1554 0.0000 -151.6612
#
#
#
# Elastic Compliance Matrix: (Units=1/GPa)
#
#
# Indices 1 2 3 4 5 6 
#
# 1 0.005761 -0.003015 -0.002074 0.000000 0.001572 0.000000
# 2 -0.003015 0.026620 -0.001345 0.000000 -0.005265 0.000000
# 3 -0.002074 -0.001345 0.012513 0.000000 0.005671 0.000000
# 4 0.000000 0.000000 0.000000 0.088691 0.000000 0.001845
# 5 0.001572 -0.005265 0.005671 0.000000 0.035758 0.000000
# 6 0.000000 0.000000 0.000000 0.001845 0.000000 -0.006555
#
#
# Mechanical properties :
#
#
# Convention : Reuss Voigt Hill
#
# Bulk Modulus (GPa) = 31.22386 53.53073 42.37729
# Shear Modulus (GPa) = 26.83394 -3.83385 11.50005
#
# Velocity S-wave (km/s) = 3.35026 -1.26635 2.19324
# Velocity P-wave (km/s) = 5.29398 4.50033 4.91320
#
# Compressibility (1/GPa) = 0.03202679
#
# Stress axis : x y z
#
# Youngs Moduli (GPa) = 173.58082 37.56551 79.91726
#
# Poissons Ratio (x) = 0.11326 0.16574
# Poissons Ratio (y) = 0.52336 0.10747
# Poissons Ratio (z) = 0.35998 0.05052
#
# Static dielectric constant tensor:
#      x y z
#    x 2.306460 0.000000 0.270220 
#    y 0.000000 1.911020 0.000000 
#    z 0.270220 0.000000 2.222250 
# 
# From -- ./inp_files/10883.got.cif
#   From: 2010.05.17/outbox.cif.g08.bks.cpg/sg5_6_cif.got.tgz:10883.got - 2010.06.03 18:56:24.
