data_PCOD9123391
_publ_section_title
;
Structure prediction by ZEFSAII (Michael W. Deem and Ramdas Pophale) SiO2 
 PCOD9123391
Probable space group: C 2
;
_chemical_formula_sum "Si O2"
_cell_formula_units_Z 26
_cell_length_a 16.523358
_cell_length_b 7.149594
_cell_length_c 16.680191
_cell_angle_alpha 90.000000
_cell_angle_beta 35.119262
_cell_angle_gamma 90.000000
_cell_volume 1133.600925
_symmetry_space_group_name_H-M "C 2"
_symmetry_group_IT_number 5
_symmetry_cell_setting 'monoclinic'
loop_
_space_group_symop_operation_xyz
x,y,z
-x,y,-z
1/2+x,1/2+y,z
1/2-x,1/2+y,-z
loop_
_atom_site_type_symbol
_atom_site_label
_atom_site_fract_x
_atom_site_fract_y
_atom_site_fract_z
Si Si1 0.418842 0.664310 0.201564
Si Si2 0.967084 0.270746 0.438440
Si Si3 0.245291 0.367769 0.116085
Si Si4 0.000000 0.889771 0.000000
Si Si5 0.110350 0.681945 0.484335
Si Si6 0.494907 0.453044 0.304322
Si Si7 0.209927 0.300389 0.958637
O O1 0.416885 0.524514 0.128273
O O2 0.266430 0.752088 0.338128
O O3 0.463303 0.531153 0.241208
O O4 0.541400 0.817579 0.086712
O O5 0.876139 0.456913 0.519860
O O6 0.917418 0.104133 0.423335
O O7 0.000000 0.198607 0.500000
O O8 0.110289 0.332214 0.278855
O O9 0.383642 0.281956 0.044345
O O10 0.263914 0.591910 0.095499
O O11 0.232365 0.300323 0.035992
O O12 0.000000 0.717282 0.500000
O O13 0.059483 0.761316 0.611398
O O14 0.665617 0.433191 0.175057
#
# Coordination Sequence:
#
# PCOD9123391 Si02
#       7
#     4   4   4   2   4   4   4
#     4  11  25  41  71 105 134 184 237 281 349 420
#     4  11  23  42  70  99 139 179 233 283 348 408
#     4  11  20  40  69  96 135 179 225 279 347 403
#     4  10  20  38  64 100 134 172 230 274 340 410
#     4  11  26  47  72 102 142 188 226 290 359 411
#     4  12  24  44  71 101 141 179 237 286 343 423
#     4  11  21  42  69  97 136 181 226 287 339 414
#
# _framework density 22.935760999999999
#
# number of rings (size 3 to 8) (size 9 to 14) (size 15 to 20)
#    0.000    0.923    6.154    2.308    4.308    0.000 
#    0.000    0.000   10.154    0.923    0.000    0.000 
#    0.000    0.000    0.000    0.000    0.000    0.000 
#
# Total GULP energy -72573.649741 kJ/mol
# GULP energy per Si atom -5582.588442 kJ/mol
# Density = 2.288356 g / cm^3
# Si number density = 22.935761 Si / 1000 Ang^3
#
#
#
# Elastic Constant Matrix: (Units=GPa)
#
#
# Indices 1 2 3 4 5 6 
#
# 1 70.6550 17.1692 15.4927 0.0000 -1.9190 0.0000
# 2 17.1692 52.2053 0.3762 0.0001 4.2900 -0.0002
# 3 15.4927 0.3762 95.8098 0.0000 -8.7327 0.0000
# 4 0.0000 0.0001 0.0000 32.0091 0.0000 9.2818
# 5 -1.9190 4.2900 -8.7327 0.0000 59.4637 0.0000
# 6 0.0000 -0.0002 0.0000 9.2818 0.0000 9.7427
#
#
#
# Elastic Compliance Matrix: (Units=1/GPa)
#
#
# Indices 1 2 3 4 5 6 
#
# 1 0.016005 -0.005289 -0.002519 0.000000 0.000528 0.000000
# 2 -0.005289 0.021021 0.000627 0.000000 -0.001595 0.000001
# 3 -0.002519 0.000627 0.010978 0.000000 0.001486 0.000000
# 4 0.000000 0.000000 0.000000 0.043166 0.000000 -0.041124
# 5 0.000528 -0.001595 0.001486 0.000000 0.017167 0.000000
# 6 0.000000 0.000001 0.000000 -0.041124 0.000000 0.141819
#
#
# Mechanical properties :
#
#
# Convention : Reuss Voigt Hill
#
# Bulk Modulus (GPa) = 29.72453 31.63849 30.68151
# Shear Modulus (GPa) = 18.13354 32.61856 25.37605
#
# Velocity S-wave (km/s) = 2.81485 3.77526 3.32986
# Velocity P-wave (km/s) = 4.85310 5.72955 5.30944
#
# Compressibility (1/GPa) = 0.03364225
#
# Stress axis : x y z
#
# Youngs Moduli (GPa) = 62.47949 47.57111 91.09418
#
# Poissons Ratio (x) = 0.25161 0.22948
# Poissons Ratio (y) = 0.33046 -0.05715
# Poissons Ratio (z) = 0.15740 -0.02984
#
# Static dielectric constant tensor:
#      x y z
#    x 1.950960 0.000000 -0.068070 
#    y 0.000000 1.897680 0.000000 
#    z -0.068070 0.000000 1.876350 
# 
# From -- ./inp_files/54294.got.cif
#   From: 2010.05.17/outbox.cif.g08.bks.cpg/sg5_28_cif.got.tgz:54294.got - 2010.06.03 18:56:24.
