data_PCOD9123466
_publ_section_title
;
Structure prediction by ZEFSAII (Michael W. Deem and Ramdas Pophale) SiO2 
 PCOD9123466
Probable space group: C 2
;
_chemical_formula_sum "Si O2"
_cell_formula_units_Z 22
_cell_length_a 12.252926
_cell_length_b 7.921896
_cell_length_c 23.437683
_cell_angle_alpha 90.000000
_cell_angle_beta 155.927403
_cell_angle_gamma 90.000000
_cell_volume 927.963212
_symmetry_space_group_name_H-M "C 2"
_symmetry_group_IT_number 5
_symmetry_cell_setting 'monoclinic'
loop_
_space_group_symop_operation_xyz
x,y,z
-x,y,-z
1/2+x,1/2+y,z
1/2-x,1/2+y,-z
loop_
_atom_site_type_symbol
_atom_site_label
_atom_site_fract_x
_atom_site_fract_y
_atom_site_fract_z
Si Si1 0.814313 0.973640 0.531939
Si Si2 0.394932 0.494099 0.074782
Si Si3 0.000000 0.948317 0.000000
Si Si4 0.418202 0.913960 0.701306
Si Si5 0.370164 0.160768 0.365001
Si Si6 0.132333 0.622748 0.207253
O O1 0.670463 0.988708 0.401311
O O2 0.972666 0.797264 0.599724
O O3 0.573484 0.002456 0.461498
O O4 0.056254 0.104071 0.660263
O O5 0.588484 0.612704 0.202243
O O6 0.508592 0.307816 0.140991
O O7 0.437819 0.543224 0.028777
O O8 0.076002 0.510552 0.929500
O O9 0.725598 0.856271 0.852944
O O10 0.237115 0.755290 0.630452
O O11 0.373534 0.049959 0.730711
#
# Coordination Sequence:
#
# PCOD9123466 Si02
#       6
#     4   4   2   4   4   4
#     4  11  22  41  65  99 134 175 221 279 339 395
#     4  11  21  40  65  94 131 181 222 277 337 396
#     4  10  20  38  66  90 126 180 218 270 338 392
#     4  10  22  42  67  95 137 179 220 275 343 400
#     4  11  22  40  67  97 132 175 226 270 339 406
#     4  10  21  37  66  94 131 177 225 274 333 404
#
# _framework density 23.707837000000001
#
# number of rings (size 3 to 8) (size 9 to 14) (size 15 to 20)
#    0.000    1.455    1.818    6.545    0.000    0.000 
#    0.000    7.273    8.000    1.091    0.000    0.000 
#    0.000    0.000    0.000    0.000    0.000    0.000 
#
# Total GULP energy -61375.977480 kJ/mol
# GULP energy per Si atom -5579.634316 kJ/mol
# Density = 2.365388 g / cm^3
# Si number density = 23.707837 Si / 1000 Ang^3
#
#
#
# Elastic Constant Matrix: (Units=GPa)
#
#
# Indices 1 2 3 4 5 6 
#
# 1 67.6429 2.4779 32.0644 0.0006 10.6153 0.0006
# 2 2.4779 43.7816 19.5406 0.0008 -2.5599 0.0002
# 3 32.0644 19.5406 233.7552 0.0103 15.1906 0.0001
# 4 0.0006 0.0008 0.0103 50.1404 -0.0013 1.9679
# 5 10.6153 -2.5599 15.1906 -0.0013 36.3772 -0.0002
# 6 0.0006 0.0002 0.0001 1.9679 -0.0002 31.8037
#
#
#
# Elastic Compliance Matrix: (Units=1/GPa)
#
#
# Indices 1 2 3 4 5 6 
#
# 1 0.016346 -0.000282 -0.001961 0.000000 -0.003971 0.000000
# 2 -0.000282 0.023966 -0.002138 0.000000 0.002662 0.000000
# 3 -0.001961 -0.002138 0.004829 -0.000001 -0.001595 0.000000
# 4 0.000000 0.000000 -0.000001 0.019993 0.000001 -0.001237
# 5 -0.003971 0.002662 -0.001595 0.000001 0.029502 0.000000
# 6 0.000000 0.000000 0.000000 -0.001237 0.000000 0.031519
#
#
# Mechanical properties :
#
#
# Convention : Reuss Voigt Hill
#
# Bulk Modulus (GPa) = 27.48697 50.37171 38.92934
# Shear Modulus (GPa) = 34.00340 43.07070 38.53705
#
# Velocity S-wave (km/s) = 3.79128 4.26693 4.03612
# Velocity P-wave (km/s) = 5.54836 6.75045 6.17871
#
# Compressibility (1/GPa) = 0.03638087
#
# Stress axis : x y z
#
# Youngs Moduli (GPa) = 61.17536 41.72521 207.07100
#
# Poissons Ratio (x) = 0.01178 0.40598
# Poissons Ratio (y) = 0.01727 0.44265
# Poissons Ratio (z) = 0.11994 0.08920
#
# Static dielectric constant tensor:
#      x y z
#    x 1.905990 0.000000 0.043040 
#    y 0.000000 1.975560 0.000000 
#    z 0.043040 0.000000 1.987810 
# 
# From -- ./inp_files/71874.got.cif
#   From: 2010.05.17/outbox.cif.g08.bks.cpg/sg5_36_cif.got.tgz:71874.got - 2010.06.03 18:56:24.
