data_PCOD9123671
_publ_section_title
;
Structure prediction by ZEFSAII (Michael W. Deem and Ramdas Pophale) SiO2 
 PCOD9123671
Probable space group: C 2
;
_chemical_formula_sum "Si O2"
_cell_formula_units_Z 24
_cell_length_a 9.709582
_cell_length_b 18.083240
_cell_length_c 9.396548
_cell_angle_alpha 90.000000
_cell_angle_beta 45.462610
_cell_angle_gamma 90.000000
_cell_volume 1176.003140
_symmetry_space_group_name_H-M "C 2"
_symmetry_group_IT_number 5
_symmetry_cell_setting 'monoclinic'
loop_
_space_group_symop_operation_xyz
x,y,z
-x,y,-z
1/2+x,1/2+y,z
1/2-x,1/2+y,-z
loop_
_atom_site_type_symbol
_atom_site_label
_atom_site_fract_x
_atom_site_fract_y
_atom_site_fract_z
Si Si1 0.578634 0.126790 0.102152
Si Si2 0.608345 0.522895 0.194427
Si Si3 0.709496 0.998644 0.626565
Si Si4 0.936629 0.765024 0.385062
Si Si5 0.636704 0.370760 0.035130
Si Si6 0.049480 0.342888 0.630944
O O1 0.464131 0.056828 0.249860
O O2 0.522972 0.197436 0.233378
O O3 0.500000 0.139802 0.000000
O O4 0.798762 0.099454 0.925816
O O5 0.384627 0.525346 0.399374
O O6 0.716662 0.499678 0.263210
O O7 0.648366 0.458392 0.052014
O O8 0.643215 0.918025 0.624790
O O9 0.706812 0.778209 0.536198
O O10 0.000000 0.756909 0.500000
O O11 0.035205 0.837673 0.247023
O O12 0.500000 0.354785 0.000000
O O13 0.845098 0.334828 0.858147
O O14 0.000000 0.351693 0.500000
#
# Coordination Sequence:
#
# PCOD9123671 Si02
#       6
#     4   4   4   4   4   4
#     4  10  23  42  66  93 132 177 220 269 330 396
#     4  10  20  39  67  99 133 170 215 276 327 395
#     4  10  20  39  67 101 128 170 222 269 331 395
#     4  12  27  45  65  99 140 177 221 280 334 399
#     4  12  23  42  70 102 131 175 227 277 334 398
#     4  12  24  41  71 101 133 178 223 279 334 394
#
# _framework density 20.408110000000001
#
# number of rings (size 3 to 8) (size 9 to 14) (size 15 to 20)
#    0.000    1.000    5.000    1.500    0.000    4.000 
#    6.000    0.000    0.000    0.000    0.000    0.000 
#    0.000    0.000    0.000    0.000    0.000    0.000 
#
# Total GULP energy -67083.355840 kJ/mol
# GULP energy per Si atom -5590.279653 kJ/mol
# Density = 2.036166 g / cm^3
# Si number density = 20.408110 Si / 1000 Ang^3
#
#
#
# Elastic Constant Matrix: (Units=GPa)
#
#
# Indices 1 2 3 4 5 6 
#
# 1 68.7282 34.6934 55.8406 0.0000 -11.8890 0.0000
# 2 34.6934 75.2554 28.4613 0.0000 6.0489 0.0000
# 3 55.8406 28.4613 118.0280 0.0000 -18.7687 0.0000
# 4 0.0000 0.0000 0.0000 29.6892 0.0000 3.1363
# 5 -11.8890 6.0489 -18.7687 0.0000 36.7392 0.0000
# 6 0.0000 0.0000 0.0000 3.1363 0.0000 12.2064
#
#
#
# Elastic Compliance Matrix: (Units=1/GPa)
#
#
# Indices 1 2 3 4 5 6 
#
# 1 0.028996 -0.009878 -0.010433 0.000000 0.005680 0.000000
# 2 -0.009878 0.018731 -0.000917 0.000000 -0.006749 0.000000
# 3 -0.010433 -0.000917 0.014277 0.000000 0.004068 0.000000
# 4 0.000000 0.000000 0.000000 0.034622 0.000000 -0.008896
# 5 0.005680 -0.006749 0.004068 0.000000 0.032246 0.000000
# 6 0.000000 0.000000 0.000000 -0.008896 0.000000 0.084210
#
#
# Mechanical properties :
#
#
# Convention : Reuss Voigt Hill
#
# Bulk Modulus (GPa) = 51.15645 55.55579 53.35612
# Shear Modulus (GPa) = 19.08016 25.26139 22.17077
#
# Velocity S-wave (km/s) = 3.06098 3.52207 3.29959
# Velocity P-wave (km/s) = 6.13302 6.61978 6.38104
#
# Compressibility (1/GPa) = 0.01954788
#
# Stress axis : x y z
#
# Youngs Moduli (GPa) = 34.48797 53.38738 70.04517
#
# Poissons Ratio (x) = 0.52736 0.73079
# Poissons Ratio (y) = 0.34067 0.06420
# Poissons Ratio (z) = 0.35982 0.04893
#
# Static dielectric constant tensor:
#      x y z
#    x 1.714150 0.000000 -0.023680 
#    y 0.000000 1.723400 0.000000 
#    z -0.023680 0.000000 1.722750 
# 
# From -- ./inp_files/16682.got.cif
#   From: 2010.05.17/outbox.cif.g08.bks.cpg/sg5_9_cif.got.tgz:16682.got - 2010.06.03 18:56:24.
