data_PCOD9123604
_publ_section_title
;
Structure prediction by ZEFSAII (Michael W. Deem and Ramdas Pophale) SiO2 
 PCOD9123604
Probable space group: C 2
;
_chemical_formula_sum "Si O2"
_cell_formula_units_Z 32
_cell_length_a 17.673002
_cell_length_b 12.211552
_cell_length_c 8.440465
_cell_angle_alpha 90.000000
_cell_angle_beta 128.346931
_cell_angle_gamma 90.000000
_cell_volume 1428.605459
_symmetry_space_group_name_H-M "C 2"
_symmetry_group_IT_number 5
_symmetry_cell_setting 'monoclinic'
loop_
_space_group_symop_operation_xyz
x,y,z
-x,y,-z
1/2+x,1/2+y,z
1/2-x,1/2+y,-z
loop_
_atom_site_type_symbol
_atom_site_label
_atom_site_fract_x
_atom_site_fract_y
_atom_site_fract_z
Si Si1 0.098909 0.140390 0.027579
Si Si2 0.446643 0.876406 0.100579
Si Si3 0.977925 0.717161 0.652896
Si Si4 0.249219 0.733436 0.209847
Si Si5 0.777164 0.617450 0.493903
Si Si6 0.428833 0.400933 0.057509
Si Si7 0.352030 0.064712 0.100233
Si Si8 0.872769 0.432069 0.451438
O O1 0.187264 0.146058 0.265210
O O2 0.087878 0.252737 0.918624
O O3 0.000000 0.135536 0.000000
O O4 0.104061 0.023557 0.947293
O O5 0.523079 0.915296 0.333502
O O6 0.355793 0.957565 0.995717
O O7 0.500000 0.883867 0.000000
O O8 0.871326 0.686595 0.564956
O O9 0.000000 0.697855 0.500000
O O10 0.008645 0.840059 0.729705
O O11 0.053575 0.634022 0.832805
O O12 0.243853 0.654082 0.355008
O O13 0.339380 0.813532 0.348394
O O14 0.162330 0.822896 0.094735
O O15 0.232615 0.652062 0.039714
O O16 0.805885 0.490575 0.498296
O O17 0.500000 0.402026 0.000000
O O18 0.361240 0.016546 0.289312
#
# Coordination Sequence:
#
# PCOD9123604 Si02
#       8
#     4   4   4   4   4   4   4   4
#     4  10  23  42  62  95 140 178 224 288 353 399
#     4  11  22  42  69  97 135 183 237 284 342 416
#     4  11  21  39  67 100 132 171 231 281 344 402
#     4  11  24  40  69 102 131 182 236 283 347 410
#     4  12  22  41  71 100 130 182 234 288 335 419
#     4  10  20  39  63  92 135 175 216 286 344 402
#     4  11  24  41  67 100 139 180 225 291 349 407
#     4  12  24  45  67 101 145 181 229 295 347 413
#
# _framework density 22.399467999999999
#
# number of rings (size 3 to 8) (size 9 to 14) (size 15 to 20)
#    0.000    1.000    5.000    2.625    0.000    1.000 
#    0.000    2.500    0.000    0.000    0.000    0.000 
#    0.000    0.000    0.000    0.000    0.000    0.000 
#
# Total GULP energy -89369.972118 kJ/mol
# GULP energy per Si atom -5585.623257 kJ/mol
# Density = 2.234849 g / cm^3
# Si number density = 22.399468 Si / 1000 Ang^3
#
#
#
# Elastic Constant Matrix: (Units=GPa)
#
#
# Indices 1 2 3 4 5 6 
#
# 1 40.6512 13.4583 15.5631 0.0000 3.1653 0.0000
# 2 13.4583 179.6261 51.6845 0.0000 -7.4097 0.0000
# 3 15.5631 51.6845 78.1716 0.0000 6.9781 0.0000
# 4 0.0000 0.0000 0.0000 40.1583 0.0000 13.6968
# 5 3.1653 -7.4097 6.9781 0.0000 33.4986 0.0000
# 6 0.0000 0.0000 0.0000 13.6968 0.0000 21.0852
#
#
#
# Elastic Compliance Matrix: (Units=1/GPa)
#
#
# Indices 1 2 3 4 5 6 
#
# 1 0.026771 -0.000725 -0.004698 0.000000 -0.001711 0.000000
# 2 -0.000725 0.007109 -0.004792 0.000000 0.002639 0.000000
# 3 -0.004698 -0.004792 0.017272 0.000000 -0.004214 0.000000
# 4 0.000000 0.000000 0.000000 0.031989 0.000000 -0.020780
# 5 -0.001711 0.002639 -0.004214 0.000000 0.031475 0.000000
# 6 0.000000 0.000000 0.000000 -0.020780 0.000000 0.060925
#
#
# Mechanical properties :
#
#
# Convention : Reuss Voigt Hill
#
# Bulk Modulus (GPa) = 32.54812 51.09564 41.82188
# Shear Modulus (GPa) = 24.24704 33.46462 28.85583
#
# Velocity S-wave (km/s) = 3.29368 3.86941 3.59310
# Velocity P-wave (km/s) = 5.38765 6.54399 5.99377
#
# Compressibility (1/GPa) = 0.03072374
#
# Stress axis : x y z
#
# Youngs Moduli (GPa) = 37.35350 140.66757 57.89769
#
# Poissons Ratio (x) = 0.10193 0.27200
# Poissons Ratio (y) = 0.02707 0.27742
# Poissons Ratio (z) = 0.17549 0.67401
#
# Static dielectric constant tensor:
#      x y z
#    x 1.981870 0.000000 0.209490 
#    y 0.000000 1.846240 0.000000 
#    z 0.209490 0.000000 2.246080 
# 
# From -- ./inp_files/29621.got.cif
#   From: 2010.05.17/outbox.cif.g08.bks.cpg/sg5_15_cif.got.tgz:29621.got - 2010.06.03 18:56:24.
