data_PCOD9123599
_publ_section_title
;
Structure prediction by ZEFSAII (Michael W. Deem and Ramdas Pophale) SiO2 
 PCOD9123599
Probable space group: C 2
;
_chemical_formula_sum "Si O2"
_cell_formula_units_Z 20
_cell_length_a 7.731502
_cell_length_b 23.078242
_cell_length_c 8.862254
_cell_angle_alpha 90.000000
_cell_angle_beta 144.753049
_cell_angle_gamma 90.000000
_cell_volume 912.563651
_symmetry_space_group_name_H-M "C 2"
_symmetry_group_IT_number 5
_symmetry_cell_setting 'monoclinic'
loop_
_space_group_symop_operation_xyz
x,y,z
-x,y,-z
1/2+x,1/2+y,z
1/2-x,1/2+y,-z
loop_
_atom_site_type_symbol
_atom_site_label
_atom_site_fract_x
_atom_site_fract_y
_atom_site_fract_z
Si Si1 0.666282 0.336390 0.280157
Si Si2 0.680866 0.013452 0.968267
Si Si3 0.247858 0.148180 0.951858
Si Si4 0.141994 0.719049 0.445883
Si Si5 0.339057 0.446075 0.545373
O O1 0.697889 0.273186 0.375833
O O2 0.555941 0.382305 0.324767
O O3 0.000000 0.360247 0.500000
O O4 0.500000 0.334749 0.000000
O O5 0.739547 0.081496 0.986466
O O6 0.491098 0.972235 0.721126
O O7 0.500000 0.011513 0.000000
O O8 0.005766 0.986826 0.222339
O O9 0.374063 0.183672 0.180788
O O10 0.500000 0.154092 0.000000
O O11 0.933901 0.177464 0.675157
O O12 0.000000 0.741428 0.500000
O O13 0.500000 0.454389 0.500000
#
# Coordination Sequence:
#
# PCOD9123599 Si02
#       5
#     4   4   4   4   4
#     4  12  25  42  63  90 123 164 211 260 313 371
#     4   9  19  36  63  92 121 160 205 248 304 373
#     4  11  22  41  67  94 125 166 211 256 306 373
#     4  12  25  42  63  92 127 166 209 261 318 372
#     4  10  20  39  63  90 122 160 204 253 306 369
#
# _framework density 21.916277999999998
#
# number of rings (size 3 to 8) (size 9 to 14) (size 15 to 20)
#    0.000    1.200    0.000    7.200    0.000    3.200 
#    0.000   16.000    0.000    0.000    0.000    0.000 
#    0.000    0.000    0.000    0.000    0.000    0.000 
#
# Total GULP energy -55749.999570 kJ/mol
# GULP energy per Si atom -5574.999957 kJ/mol
# Density = 2.186640 g / cm^3
# Si number density = 21.916278 Si / 1000 Ang^3
#
#
#
# Elastic Constant Matrix: (Units=GPa)
#
#
# Indices 1 2 3 4 5 6 
#
# 1 38.5689 -8.4496 16.1299 0.0000 -6.6475 0.0000
# 2 -8.4496 130.5080 51.8612 0.0000 -16.9447 0.0000
# 3 16.1299 51.8612 163.9339 0.0000 -11.9324 0.0000
# 4 0.0000 0.0000 0.0000 33.8927 0.0000 14.8277
# 5 -6.6475 -16.9447 -11.9324 0.0000 16.3527 0.0000
# 6 0.0000 0.0000 0.0000 14.8277 0.0000 -8.3500
#
#
#
# Elastic Compliance Matrix: (Units=1/GPa)
#
#
# Indices 1 2 3 4 5 6 
#
# 1 0.031422 0.005560 -0.003698 0.000000 0.015836 0.000000
# 2 0.005560 0.010702 -0.003127 0.000000 0.011068 0.000000
# 3 -0.003698 -0.003127 0.007507 0.000000 0.000734 0.000000
# 4 0.000000 0.000000 0.000000 0.016605 0.000000 0.029487
# 5 0.015836 0.011068 0.000734 0.000000 0.079593 0.000000
# 6 0.000000 0.000000 0.000000 0.029487 0.000000 -0.067399
#
#
# Mechanical properties :
#
#
# Convention : Reuss Voigt Hill
#
# Bulk Modulus (GPa) = 21.23147 50.23268 35.73208
# Shear Modulus (GPa) = 51.72833 26.61036 39.16935
#
# Velocity S-wave (km/s) = 4.86353 3.48829 4.23215
# Velocity P-wave (km/s) = 6.42239 6.26053 6.34198
#
# Compressibility (1/GPa) = 0.04709989
#
# Stress axis : x y z
#
# Youngs Moduli (GPa) = 31.82533 93.44077 133.21696
#
# Poissons Ratio (x) = -0.51952 0.49262
# Poissons Ratio (y) = -0.17695 0.41658
# Poissons Ratio (z) = 0.11769 0.29220
#
# Static dielectric constant tensor:
#      x y z
#    x 1.716720 0.000000 -0.118570 
#    y 0.000000 1.880690 0.000000 
#    z -0.118570 0.000000 1.797160 
# 
# From -- ./inp_files/16921.got.cif
#   From: 2010.05.17/outbox.cif.g08.bks.cpg/sg5_9_cif.got.tgz:16921.got - 2010.06.03 18:56:24.
