data_PCOD9123339
_publ_section_title
;
Structure prediction by ZEFSAII (Michael W. Deem and Ramdas Pophale) SiO2 
 PCOD9123339
Probable space group: C 2
;
_chemical_formula_sum "Si O2"
_cell_formula_units_Z 26
_cell_length_a 8.415251
_cell_length_b 20.415379
_cell_length_c 8.008030
_cell_angle_alpha 90.000000
_cell_angle_beta 52.594498
_cell_angle_gamma 90.000000
_cell_volume 1092.862571
_symmetry_space_group_name_H-M "C 2"
_symmetry_group_IT_number 5
_symmetry_cell_setting 'monoclinic'
loop_
_space_group_symop_operation_xyz
x,y,z
-x,y,-z
1/2+x,1/2+y,z
1/2-x,1/2+y,-z
loop_
_atom_site_type_symbol
_atom_site_label
_atom_site_fract_x
_atom_site_fract_y
_atom_site_fract_z
Si Si1 0.190690 0.560220 0.478553
Si Si2 0.500000 0.340723 0.500000
Si Si3 0.585029 0.829265 0.753597
Si Si4 0.344912 0.347054 0.955653
Si Si5 0.208602 0.615206 0.836577
Si Si6 0.080291 0.183218 0.761052
Si Si7 0.080464 0.998504 0.133308
O O1 0.175229 0.586632 0.674827
O O2 0.256798 0.626379 0.339678
O O3 0.381188 0.512564 0.365366
O O4 0.000000 0.532954 0.500000
O O5 0.282282 0.371429 0.589437
O O6 0.416000 0.312548 0.734681
O O7 0.652222 0.755250 0.668263
O O8 0.500000 0.836785 0.000000
O O9 0.368137 0.838178 0.814349
O O10 0.352980 0.424056 0.902900
O O11 0.500000 0.331624 0.000000
O O12 0.400733 0.659596 0.754230
O O13 0.252225 0.550858 0.922187
O O14 0.000000 0.651399 0.000000
O O15 0.000000 0.189337 0.000000
O O16 0.000000 0.012967 0.000000
#
# Coordination Sequence:
#
# PCOD9123339 Si02
#       7
#     4   2   4   4   4   4   4
#     4  11  22  38  59  95 125 163 216 256 319 394
#     4  10  22  42  66  90 126 172 222 266 332 378
#     4   9  21  42  64  93 126 169 220 268 322 391
#     4  10  23  43  63  96 129 170 222 273 322 391
#     4  11  22  37  59  93 123 166 208 256 326 385
#     4  10  20  38  62  86 127 160 205 268 318 377
#     4  10  21  40  61  88 126 159 207 265 321 376
#
# _framework density 23.790734
#
# number of rings (size 3 to 8) (size 9 to 14) (size 15 to 20)
#    0.000    1.846    0.000    5.538    3.231    3.077 
#   13.846    0.000    0.000    0.000    0.000    0.000 
#    0.000    0.000    0.000    0.000    0.000    0.000 
#
# Total GULP energy -72373.211058 kJ/mol
# GULP energy per Si atom -5567.170081 kJ/mol
# Density = 2.373659 g / cm^3
# Si number density = 23.790734 Si / 1000 Ang^3
#
#
#
# Elastic Constant Matrix: (Units=GPa)
#
#
# Indices 1 2 3 4 5 6 
#
# 1 121.6810 6.5865 24.9830 0.0000 -21.5894 0.0000
# 2 6.5865 75.7135 8.0692 0.0000 -0.8491 0.0000
# 3 24.9830 8.0692 81.5772 0.0000 -24.0121 0.0000
# 4 0.0000 0.0000 0.0000 18.7446 0.0000 -2.7847
# 5 -21.5894 -0.8491 -24.0121 0.0000 58.6741 0.0000
# 6 0.0000 0.0000 0.0000 -2.7847 0.0000 24.5403
#
#
#
# Elastic Compliance Matrix: (Units=1/GPa)
#
#
# Indices 1 2 3 4 5 6 
#
# 1 0.009105 -0.000552 -0.001990 0.000000 0.002528 0.000000
# 2 -0.000552 0.013390 -0.001317 0.000000 -0.000548 0.000000
# 3 -0.001990 -0.001317 0.014527 0.000000 0.005194 0.000000
# 4 0.000000 0.000000 0.000000 0.054263 0.000000 0.006158
# 5 0.002528 -0.000548 0.005194 0.000000 0.020091 0.000000
# 6 0.000000 0.000000 0.000000 0.006158 0.000000 0.041448
#
#
# Mechanical properties :
#
#
# Convention : Reuss Voigt Hill
#
# Bulk Modulus (GPa) = 34.12370 39.80547 36.96459
# Shear Modulus (GPa) = 29.35835 36.34733 32.85284
#
# Velocity S-wave (km/s) = 3.51668 3.91294 3.72009
# Velocity P-wave (km/s) = 5.55552 6.09776 5.83294
#
# Compressibility (1/GPa) = 0.02930515
#
# Stress axis : x y z
#
# Youngs Moduli (GPa) = 109.82814 74.68333 68.83864
#
# Poissons Ratio (x) = 0.04120 0.13697
# Poissons Ratio (y) = 0.06059 0.09065
# Poissons Ratio (z) = 0.21853 0.09835
#
# Static dielectric constant tensor:
#      x y z
#    x 2.165490 0.000000 -0.030940 
#    y 0.000000 1.902860 0.000000 
#    z -0.030940 0.000000 2.048660 
# 
# From -- ./inp_files/16976.got.cif
#   From: 2010.05.17/outbox.cif.g08.bks.cpg/sg5_9_cif.got.tgz:16976.got - 2010.06.03 18:56:24.
