data_PCOD9123026
_publ_section_title
;
Structure prediction by ZEFSAII (Michael W. Deem and Ramdas Pophale) SiO2 
 PCOD9123026
Probable space group: C 2
;
_chemical_formula_sum "Si O2"
_cell_formula_units_Z 24
_cell_length_a 9.517866
_cell_length_b 19.774953
_cell_length_c 12.822578
_cell_angle_alpha 90.000000
_cell_angle_beta 35.087797
_cell_angle_gamma 90.000000
_cell_volume 1387.300578
_symmetry_space_group_name_H-M "C 2"
_symmetry_group_IT_number 5
_symmetry_cell_setting 'monoclinic'
loop_
_space_group_symop_operation_xyz
x,y,z
-x,y,-z
1/2+x,1/2+y,z
1/2-x,1/2+y,-z
loop_
_atom_site_type_symbol
_atom_site_label
_atom_site_fract_x
_atom_site_fract_y
_atom_site_fract_z
Si Si1 0.500000 0.346750 0.000000
Si Si2 0.273434 0.325509 0.562240
Si Si3 0.478918 0.089795 0.637466
Si Si4 0.500000 0.666201 0.000000
Si Si5 0.668379 0.750128 0.092338
Si Si6 0.883104 0.197129 0.456127
Si Si7 0.528429 0.933692 0.358352
O O1 0.408984 0.294118 0.966425
O O2 0.273809 0.393014 0.175113
O O3 0.500000 0.327491 0.500000
O O4 0.274156 0.264624 0.476975
O O5 0.047461 0.305066 0.773036
O O6 0.200959 0.394221 0.550611
O O7 0.500000 0.092379 0.500000
O O8 0.218106 0.122251 0.820892
O O9 0.702731 0.133686 0.548685
O O10 0.474376 0.011624 0.674111
O O11 0.367454 0.709477 0.990817
O O12 0.595867 0.703194 0.237319
O O13 0.000000 0.199286 0.500000
O O14 0.500000 0.931306 0.500000
#
# Coordination Sequence:
#
# PCOD9123026 Si02
#       7
#     2   4   4   2   4   4   4
#     4  10  21  40  54  90 119 142 212 234 291 354
#     4   9  18  35  57  86 116 142 201 241 293 348
#     4  11  22  39  57  85 123 156 205 238 294 360
#     4  12  21  36  60  88 117 158 190 248 305 336
#     4   9  22  33  59  89 112 153 188 248 295 336
#     4  10  20  37  59  87 118 151 197 252 292 346
#     4  10  22  37  60  83 114 166 194 242 296 347
#
# _framework density 17.299783999999999
#
# number of rings (size 3 to 8) (size 9 to 14) (size 15 to 20)
#    1.000    1.000    1.667    2.500    2.333    2.000 
#    0.000    0.000    0.000    0.000    0.000    0.000 
#    0.000    0.000    0.000    0.000    0.000    0.000 
#
# Total GULP energy -66802.576698 kJ/mol
# GULP energy per Si atom -5566.881392 kJ/mol
# Density = 1.726041 g / cm^3
# Si number density = 17.299784 Si / 1000 Ang^3
#
#
#
# Elastic Constant Matrix: (Units=GPa)
#
#
# Indices 1 2 3 4 5 6 
#
# 1 147.9585 81.8703 28.6386 0.0040 -5.9782 -0.0003
# 2 81.8703 148.2483 40.1655 0.0045 -4.9925 -0.0012
# 3 28.6386 40.1655 53.1768 -0.0029 3.6597 0.0022
# 4 0.0040 0.0045 -0.0029 46.0068 0.0019 -4.7815
# 5 -5.9782 -4.9925 3.6597 0.0019 26.1726 -0.0022
# 6 -0.0003 -0.0012 0.0022 -4.7815 -0.0022 25.1926
#
#
#
# Elastic Compliance Matrix: (Units=1/GPa)
#
#
# Indices 1 2 3 4 5 6 
#
# 1 0.009888 -0.004950 -0.001693 -0.000001 0.001551 0.000000
# 2 -0.004950 0.011129 -0.005865 -0.000001 0.001812 0.000001
# 3 -0.001693 -0.005865 0.024486 0.000002 -0.004929 -0.000002
# 4 -0.000001 -0.000001 0.000002 0.022173 -0.000002 0.004208
# 5 0.001551 0.001812 -0.004929 -0.000002 0.039597 0.000004
# 6 0.000000 0.000001 -0.000002 0.004208 0.000004 0.040493
#
#
# Mechanical properties :
#
#
# Convention : Reuss Voigt Hill
#
# Bulk Modulus (GPa) = 48.81092 72.30359 60.55725
# Shear Modulus (GPa) = 27.83787 32.72171 30.27979
#
# Velocity S-wave (km/s) = 4.01577 4.35380 4.18820
# Velocity P-wave (km/s) = 7.05534 8.19508 7.64648
#
# Compressibility (1/GPa) = 0.02048722
#
# Stress axis : x y z
#
# Youngs Moduli (GPa) = 101.13447 89.85618 40.83897
#
# Poissons Ratio (x) = 0.44475 0.06916
# Poissons Ratio (y) = 0.50057 0.23952
# Poissons Ratio (z) = 0.17126 0.52701
#
# Static dielectric constant tensor:
#      x y z
#    x 1.592900 0.000000 -0.047600 
#    y 0.000000 1.591230 -0.000010 
#    z -0.047600 -0.000010 1.618130 
# 
# From -- ./inp_files/37138.got.cif
#   From: 2010.05.17/outbox.cif.g08.bks.cpg/sg5_19_cif.got.tgz:37138.got - 2010.06.03 18:56:24.
