data_PCOD9123089
_publ_section_title
;
Structure prediction by ZEFSAII (Michael W. Deem and Ramdas Pophale) SiO2 
 PCOD9123089
Probable space group: C 2
;
_chemical_formula_sum "Si O2"
_cell_formula_units_Z 20
_cell_length_a 7.374168
_cell_length_b 21.957965
_cell_length_c 8.144555
_cell_angle_alpha 90.000000
_cell_angle_beta 36.667455
_cell_angle_gamma 90.000000
_cell_volume 787.535587
_symmetry_space_group_name_H-M "C 2"
_symmetry_group_IT_number 5
_symmetry_cell_setting 'monoclinic'
loop_
_space_group_symop_operation_xyz
x,y,z
-x,y,-z
1/2+x,1/2+y,z
1/2-x,1/2+y,-z
loop_
_atom_site_type_symbol
_atom_site_label
_atom_site_fract_x
_atom_site_fract_y
_atom_site_fract_z
Si Si1 0.877274 0.561890 0.897321
Si Si2 0.125206 0.882712 0.073661
Si Si3 0.230605 0.304702 0.562911
Si Si4 0.602420 0.499702 0.605028
Si Si5 0.169442 0.682592 0.702876
O O1 0.038940 0.508010 0.675680
O O2 0.962327 0.629307 0.778683
O O3 0.000000 0.560780 0.000000
O O4 0.526580 0.546827 0.170702
O O5 0.854128 0.836637 0.310835
O O6 0.077015 0.936339 0.239376
O O7 0.433253 0.842489 0.839435
O O8 0.000000 0.912533 0.000000
O O9 0.500000 0.311052 0.500000
O O10 0.236466 0.235170 0.495757
O O11 0.500000 0.518926 0.500000
O O12 0.500000 0.655156 0.500000
O O13 0.000000 0.702132 0.000000
#
# Coordination Sequence:
#
# PCOD9123089 Si02
#       5
#     4   4   4   4   4
#     4   9  18  34  61  92 123 160 205 251 306 372
#     4  12  25  43  65  92 126 168 213 261 314 373
#     4  12  26  43  63  92 127 167 211 262 318 372
#     4  10  20  37  61  92 126 162 206 256 307 369
#     4  11  21  39  65  92 123 163 209 256 305 370
#
# _framework density 25.395678
#
# number of rings (size 3 to 8) (size 9 to 14) (size 15 to 20)
#    0.000    1.200    0.000    9.000    0.000    3.200 
#    0.000    3.000    0.000    0.000    0.000    0.000 
#    0.000    0.000    0.000    0.000    0.000    0.000 
#
# Total GULP energy -55726.686617 kJ/mol
# GULP energy per Si atom -5572.668662 kJ/mol
# Density = 2.533788 g / cm^3
# Si number density = 25.395678 Si / 1000 Ang^3
#
#
#
# Elastic Constant Matrix: (Units=GPa)
#
#
# Indices 1 2 3 4 5 6 
#
# 1 59.0751 18.4196 26.9697 0.0000 3.9263 0.0000
# 2 18.4196 167.2635 75.3837 0.0000 -12.5320 0.0000
# 3 26.9697 75.3837 186.7748 0.0000 -24.8420 0.0000
# 4 0.0000 0.0000 0.0000 44.3581 0.0000 -6.4194
# 5 3.9263 -12.5320 -24.8420 0.0000 26.1788 0.0000
# 6 0.0000 0.0000 0.0000 -6.4194 0.0000 14.4045
#
#
#
# Elastic Compliance Matrix: (Units=1/GPa)
#
#
# Indices 1 2 3 4 5 6 
#
# 1 0.019157 -0.001172 -0.003147 0.000000 -0.006421 0.000000
# 2 -0.001172 0.007394 -0.002656 0.000000 0.001195 0.000000
# 3 -0.003147 -0.002656 0.007753 0.000000 0.006557 0.000000
# 4 0.000000 0.000000 0.000000 0.024098 0.000000 0.010739
# 5 -0.006421 0.001195 0.006557 0.000000 0.045956 0.000000
# 6 0.000000 0.000000 0.000000 0.010739 0.000000 0.074209
#
#
# Mechanical properties :
#
#
# Convention : Reuss Voigt Hill
#
# Bulk Modulus (GPa) = 49.13379 72.73992 60.93685
# Shear Modulus (GPa) = 25.08762 36.47764 30.78263
#
# Velocity S-wave (km/s) = 3.14645 3.79406 3.48533
# Velocity P-wave (km/s) = 5.70872 6.92084 6.34380
#
# Compressibility (1/GPa) = 0.02035259
#
# Stress axis : x y z
#
# Youngs Moduli (GPa) = 52.20148 135.23861 128.98820
#
# Poissons Ratio (x) = 0.15855 0.40592
# Poissons Ratio (y) = 0.06120 0.34262
# Poissons Ratio (z) = 0.16428 0.35922
#
# Static dielectric constant tensor:
#      x y z
#    x 2.080020 0.000000 0.056430 
#    y 0.000000 2.100080 0.000000 
#    z 0.056430 0.000000 2.088830 
# 
# From -- ./inp_files/17276.got.cif
#   From: 2010.05.17/outbox.cif.g08.bks.cpg/sg5_9_cif.got.tgz:17276.got - 2010.06.03 18:56:24.
