data_PCOD9123234
_publ_section_title
;
Structure prediction by ZEFSAII (Michael W. Deem and Ramdas Pophale) SiO2 
 PCOD9123234
Probable space group: C 2
;
_chemical_formula_sum "Si O2"
_cell_formula_units_Z 24
_cell_length_a 10.639344
_cell_length_b 10.758534
_cell_length_c 11.865968
_cell_angle_alpha 90.000000
_cell_angle_beta 53.630118
_cell_angle_gamma 90.000000
_cell_volume 1093.648896
_symmetry_space_group_name_H-M "C 2"
_symmetry_group_IT_number 5
_symmetry_cell_setting 'monoclinic'
loop_
_space_group_symop_operation_xyz
x,y,z
-x,y,-z
1/2+x,1/2+y,z
1/2-x,1/2+y,-z
loop_
_atom_site_type_symbol
_atom_site_label
_atom_site_fract_x
_atom_site_fract_y
_atom_site_fract_z
Si Si1 0.899944 0.275700 0.459185
Si Si2 0.510088 0.506730 0.647523
Si Si3 0.787009 0.773695 0.017736
Si Si4 0.390708 0.532867 0.951762
Si Si5 0.869923 0.700187 0.228835
Si Si6 0.727323 0.935996 0.654529
O O1 0.000764 0.149725 0.387264
O O2 0.736360 0.247286 0.610423
O O3 0.875993 0.328481 0.345672
O O4 0.000000 0.351336 0.500000
O O5 0.495236 0.508725 0.786980
O O6 0.371136 0.423901 0.666741
O O7 0.676557 0.472036 0.509315
O O8 0.673801 0.672297 0.023060
O O9 0.803825 0.739149 0.141236
O O10 0.761697 0.921991 0.020762
O O11 0.953934 0.747927 0.869542
O O12 0.500000 0.515178 0.000000
O O13 0.867820 0.550968 0.244787
#
# Coordination Sequence:
#
# PCOD9123234 Si02
#       6
#     4   4   4   4   4   4
#     4  11  20  38  71  95 130 177 218 277 334 398
#     4  10  21  43  62  94 137 171 219 279 338 378
#     4  11  24  43  69  94 140 183 216 280 332 401
#     4  12  25  45  69  99 134 182 227 277 332 402
#     4  10  20  43  62  94 137 176 214 273 343 381
#     4  10  20  37  70  92 127 179 215 274 331 401
#
# _framework density 21.944887000000001
#
# number of rings (size 3 to 8) (size 9 to 14) (size 15 to 20)
#    0.000    1.333    6.667    1.000    0.000    4.000 
#    3.000    0.000    7.333    0.000    0.000    0.000 
#    0.000    0.000    0.000    0.000    0.000    0.000 
#
# Total GULP energy -66882.905101 kJ/mol
# GULP energy per Si atom -5573.575425 kJ/mol
# Density = 2.189494 g / cm^3
# Si number density = 21.944887 Si / 1000 Ang^3
#
#
#
# Elastic Constant Matrix: (Units=GPa)
#
#
# Indices 1 2 3 4 5 6 
#
# 1 47.1831 23.3845 21.8068 0.0000 17.2857 0.0000
# 2 23.3845 81.3887 1.8357 0.0000 16.4726 0.0000
# 3 21.8068 1.8357 99.5387 0.0000 26.7688 0.0000
# 4 0.0000 0.0000 0.0000 29.2682 0.0000 9.7961
# 5 17.2857 16.4726 26.7688 0.0000 37.4173 0.0000
# 6 0.0000 0.0000 0.0000 9.7961 0.0000 15.6550
#
#
#
# Elastic Compliance Matrix: (Units=1/GPa)
#
#
# Indices 1 2 3 4 5 6 
#
# 1 0.029281 -0.006805 -0.004281 0.000000 -0.007469 0.000000
# 2 -0.006805 0.015298 0.002692 0.000000 -0.005517 0.000000
# 3 -0.004281 0.002692 0.013276 0.000000 -0.008705 0.000000
# 4 0.000000 0.000000 0.000000 0.043218 0.000000 -0.027044
# 5 -0.007469 -0.005517 -0.008705 0.000000 0.038833 0.000000
# 6 0.000000 0.000000 0.000000 -0.027044 0.000000 0.080800
#
#
# Mechanical properties :
#
#
# Convention : Reuss Voigt Hill
#
# Bulk Modulus (GPa) = 24.34980 35.79606 30.07293
# Shear Modulus (GPa) = 19.90593 28.54032 24.22313
#
# Velocity S-wave (km/s) = 3.01506 3.61022 3.32598
# Velocity P-wave (km/s) = 4.82086 5.80736 5.33696
#
# Compressibility (1/GPa) = 0.04106810
#
# Stress axis : x y z
#
# Youngs Moduli (GPa) = 34.15154 65.36875 75.32606
#
# Poissons Ratio (x) = 0.44483 0.32246
# Poissons Ratio (y) = 0.23240 -0.20281
# Poissons Ratio (z) = 0.14620 -0.17600
#
# Static dielectric constant tensor:
#      x y z
#    x 1.870340 0.000000 -0.019030 
#    y 0.000000 1.928290 0.000000 
#    z -0.019030 0.000000 1.798560 
# 
# From -- ./inp_files/38713.got.cif
#   From: 2010.05.17/outbox.cif.g08.bks.cpg/sg5_20_cif.got.tgz:38713.got - 2010.06.03 18:56:24.
