data_PCOD9123265
_publ_section_title
;
Structure prediction by ZEFSAII (Michael W. Deem and Ramdas Pophale) SiO2 
 PCOD9123265
Probable space group: C 2
;
_chemical_formula_sum "Si O2"
_cell_formula_units_Z 20
_cell_length_a 11.948338
_cell_length_b 14.260492
_cell_length_c 11.311525
_cell_angle_alpha 90.000000
_cell_angle_beta 154.249340
_cell_angle_gamma 90.000000
_cell_volume 837.353039
_symmetry_space_group_name_H-M "C 2"
_symmetry_group_IT_number 5
_symmetry_cell_setting 'monoclinic'
loop_
_space_group_symop_operation_xyz
x,y,z
-x,y,-z
1/2+x,1/2+y,z
1/2-x,1/2+y,-z
loop_
_atom_site_type_symbol
_atom_site_label
_atom_site_fract_x
_atom_site_fract_y
_atom_site_fract_z
Si Si1 0.332037 0.970060 0.469039
Si Si2 0.651289 0.680487 0.873935
Si Si3 0.167908 0.870053 0.016565
Si Si4 0.508195 0.475728 0.645997
Si Si5 0.871661 0.678804 0.493493
O O1 0.123507 0.894429 0.228190
O O2 0.279590 0.073621 0.371530
O O3 0.622624 0.940225 0.732055
O O4 0.266916 0.975378 0.548125
O O5 0.608498 0.580936 0.770038
O O6 0.386116 0.714879 0.686620
O O7 0.740778 0.765370 0.876368
O O8 0.889765 0.668685 0.190349
O O9 0.159631 0.897451 0.867280
O O10 0.500000 0.458977 0.500000
O O11 0.000000 0.725019 0.500000
#
# Coordination Sequence:
#
# PCOD9123265 Si02
#       5
#     4   4   4   4   4
#     4   9  19  39  58  83 118 160 201 253 301 364
#     4  11  22  39  61  91 128 156 207 260 309 368
#     4  10  20  38  59  83 125 154 202 253 305 358
#     4   9  21  39  62  88 122 163 203 250 316 369
#     4  11  21  39  61  89 121 165 202 254 314 373
#
# _framework density 23.884786999999999
#
# number of rings (size 3 to 8) (size 9 to 14) (size 15 to 20)
#    1.200    0.800    2.000    1.800    0.000    1.600 
#    3.600    1.000    0.000    4.800    0.000    0.000 
#    0.000    0.000    0.000    0.000    0.000    0.000 
#
# Total GULP energy -55810.655780 kJ/mol
# GULP energy per Si atom -5581.065578 kJ/mol
# Density = 2.383042 g / cm^3
# Si number density = 23.884787 Si / 1000 Ang^3
#
#
#
# Elastic Constant Matrix: (Units=GPa)
#
#
# Indices 1 2 3 4 5 6 
#
# 1 114.1460 11.6387 36.5131 -0.0015 20.8776 -0.0003
# 2 11.6387 83.8990 -0.0220 0.0018 10.5067 0.0001
# 3 36.5131 -0.0220 110.5360 0.0051 19.0105 0.0013
# 4 -0.0015 0.0018 0.0051 24.2141 0.0013 9.9912
# 5 20.8776 10.5067 19.0105 0.0013 39.9591 0.0002
# 6 -0.0003 0.0001 0.0013 9.9912 0.0002 20.4967
#
#
#
# Elastic Compliance Matrix: (Units=1/GPa)
#
#
# Indices 1 2 3 4 5 6 
#
# 1 0.010462 -0.000965 -0.002788 0.000002 -0.003886 0.000000
# 2 -0.000965 0.012452 0.000869 -0.000001 -0.003183 0.000001
# 3 -0.002788 0.000869 0.010626 -0.000003 -0.003827 0.000001
# 4 0.000002 -0.000001 -0.000003 0.051696 -0.000001 -0.025200
# 5 -0.003886 -0.003183 -0.003827 -0.000001 0.029714 0.000000
# 6 0.000000 0.000001 0.000001 -0.025200 0.000000 0.061072
#
#
# Mechanical properties :
#
#
# Convention : Reuss Voigt Hill
#
# Bulk Modulus (GPa) = 36.00868 44.98228 40.49548
# Shear Modulus (GPa) = 26.17163 34.29740 30.23451
#
# Velocity S-wave (km/s) = 3.31379 3.79351 3.56174
# Velocity P-wave (km/s) = 5.45439 6.16940 5.82288
#
# Compressibility (1/GPa) = 0.02777108
#
# Stress axis : x y z
#
# Youngs Moduli (GPa) = 95.58782 80.30940 94.10818
#
# Poissons Ratio (x) = 0.07753 0.26234
# Poissons Ratio (y) = 0.09228 -0.08176
# Poissons Ratio (z) = 0.26646 -0.06977
#
# Static dielectric constant tensor:
#      x y z
#    x 2.065710 0.000000 -0.033170 
#    y 0.000000 1.922240 0.000000 
#    z -0.033170 0.000000 1.864780 
# 
# From -- ./inp_files/39978.got.cif
#   From: 2010.05.17/outbox.cif.g08.bks.cpg/sg5_20_cif.got.tgz:39978.got - 2010.06.03 18:56:24.
