data_PCOD9123740
_publ_section_title
;
Structure prediction by ZEFSAII (Michael W. Deem and Ramdas Pophale) SiO2 
 PCOD9123740
Probable space group: C 2
;
_chemical_formula_sum "Si O2"
_cell_formula_units_Z 26
_cell_length_a 18.967370
_cell_length_b 10.518060
_cell_length_c 8.496649
_cell_angle_alpha 90.000000
_cell_angle_beta 44.130869
_cell_angle_gamma 90.000000
_cell_volume 1180.284169
_symmetry_space_group_name_H-M "C 2"
_symmetry_group_IT_number 5
_symmetry_cell_setting 'monoclinic'
loop_
_space_group_symop_operation_xyz
x,y,z
-x,y,-z
1/2+x,1/2+y,z
1/2-x,1/2+y,-z
loop_
_atom_site_type_symbol
_atom_site_label
_atom_site_fract_x
_atom_site_fract_y
_atom_site_fract_z
Si Si1 0.055534 0.014050 0.166965
Si Si2 0.799021 0.833853 0.472169
Si Si3 0.903953 0.198422 0.530252
Si Si4 0.500000 0.310875 0.000000
Si Si5 0.710608 0.475735 0.180022
Si Si6 0.384205 0.980560 0.640219
Si Si7 0.726798 0.593690 0.680000
O O1 0.954815 0.098682 0.329609
O O2 0.108372 0.960836 0.239413
O O3 0.140755 0.098991 0.949374
O O4 0.036696 0.897047 0.084926
O O5 0.796355 0.883904 0.657744
O O6 0.718240 0.720790 0.592463
O O7 0.783138 0.962582 0.399536
O O8 0.897261 0.759769 0.242099
O O9 0.884247 0.346695 0.545266
O O10 0.000000 0.199122 0.500000
O O11 0.803737 0.124145 0.747809
O O12 0.810007 0.460420 0.911264
O O13 0.500000 0.010540 0.500000
O O14 0.330583 0.082986 0.614005
#
# Coordination Sequence:
#
# PCOD9123740 Si02
#       7
#     4   4   4   2   4   4   4
#     4   9  19  39  64  97 121 171 219 261 304 397
#     4  11  24  43  64  91 130 172 216 265 326 379
#     4   9  18  35  65  89 121 162 217 259 308 370
#     4  10  20  40  60  92 132 162 218 264 316 378
#     4  10  21  37  65  91 124 167 218 258 321 371
#     4  10  23  41  62  95 131 163 213 271 322 385
#     4  10  25  44  64  93 133 170 215 263 327 384
#
# _framework density 22.028593000000001
#
# number of rings (size 3 to 8) (size 9 to 14) (size 15 to 20)
#    0.000    2.154    1.538    0.000   10.769    0.000 
#    5.538    0.000    0.000    0.000    0.000    0.000 
#    0.000    0.000    0.000    0.000    0.000    0.000 
#
# Total GULP energy -72368.672394 kJ/mol
# GULP energy per Si atom -5566.820953 kJ/mol
# Density = 2.197846 g / cm^3
# Si number density = 22.028593 Si / 1000 Ang^3
#
#
#
# Elastic Constant Matrix: (Units=GPa)
#
#
# Indices 1 2 3 4 5 6 
#
# 1 66.3531 5.8214 31.9879 0.0000 -5.4927 0.0000
# 2 5.8214 64.1018 20.3790 0.0000 -2.9052 0.0000
# 3 31.9879 20.3790 123.9986 0.0000 -8.1298 0.0000
# 4 0.0000 0.0000 0.0000 31.0938 0.0000 -2.2382
# 5 -5.4927 -2.9052 -8.1298 0.0000 30.9468 0.0000
# 6 0.0000 0.0000 0.0000 -2.2382 0.0000 -47.5454
#
#
#
# Elastic Compliance Matrix: (Units=1/GPa)
#
#
# Indices 1 2 3 4 5 6 
#
# 1 0.017325 -0.000111 -0.004325 0.000000 0.001928 0.000000
# 2 -0.000111 0.016483 -0.002625 0.000000 0.000838 0.000000
# 3 -0.004325 -0.002625 0.009713 0.000000 0.001537 0.000000
# 4 0.000000 0.000000 0.000000 0.032052 0.000000 -0.001509
# 5 0.001928 0.000838 0.001537 0.000000 0.033138 0.000000
# 6 0.000000 0.000000 0.000000 -0.001509 0.000000 -0.020962
#
#
# Mechanical properties :
#
#
# Convention : Reuss Voigt Hill
#
# Bulk Modulus (GPa) = 34.01555 41.20336 37.60945
# Shear Modulus (GPa) = 44.77428 15.98338 30.37883
#
# Velocity S-wave (km/s) = 4.51328 2.69657 3.71760
# Velocity P-wave (km/s) = 6.52952 5.33296 5.96133
#
# Compressibility (1/GPa) = 0.02939832
#
# Stress axis : x y z
#
# Youngs Moduli (GPa) = 57.71955 60.66893 102.95988
#
# Poissons Ratio (x) = 0.00674 0.44527
# Poissons Ratio (y) = 0.00641 0.27031
# Poissons Ratio (z) = 0.24962 0.15928
#
# Static dielectric constant tensor:
#      x y z
#    x 3.348730 0.000000 0.390470 
#    y 0.000000 1.792600 0.000000 
#    z 0.390470 0.000000 2.006370 
# 
# From -- ./inp_files/29577.got.cif
#   From: 2010.05.17/outbox.cif.g08.bks.cpg/sg5_15_cif.got.tgz:29577.got - 2010.06.03 18:56:24.
