data_PCOD9123238
_publ_section_title
;
Structure prediction by ZEFSAII (Michael W. Deem and Ramdas Pophale) SiO2 
 PCOD9123238
Probable space group: C 2
;
_chemical_formula_sum "Si O2"
_cell_formula_units_Z 28
_cell_length_a 17.538595
_cell_length_b 6.729928
_cell_length_c 13.702019
_cell_angle_alpha 90.000000
_cell_angle_beta 115.945831
_cell_angle_gamma 90.000000
_cell_volume 1454.286557
_symmetry_space_group_name_H-M "C 2"
_symmetry_group_IT_number 5
_symmetry_cell_setting 'monoclinic'
loop_
_space_group_symop_operation_xyz
x,y,z
-x,y,-z
1/2+x,1/2+y,z
1/2-x,1/2+y,-z
loop_
_atom_site_type_symbol
_atom_site_label
_atom_site_fract_x
_atom_site_fract_y
_atom_site_fract_z
Si Si1 0.863677 0.469490 0.365556
Si Si2 0.197643 0.751650 0.827219
Si Si3 0.313175 0.498196 0.787068
Si Si4 0.500000 0.949486 0.000000
Si Si5 0.132675 0.773679 0.003502
Si Si6 0.575211 0.572403 0.685145
Si Si7 0.500000 0.260130 0.500000
Si Si8 0.501632 0.600548 0.151713
O O1 0.859891 0.580738 0.257311
O O2 0.763269 0.461362 0.331051
O O3 0.902964 0.254009 0.373271
O O4 0.919431 0.613284 0.463870
O O5 0.288204 0.702904 0.830026
O O6 0.187660 0.734460 0.937256
O O7 0.159924 0.958300 0.768369
O O8 0.406463 0.497523 0.796742
O O9 0.310569 0.342932 0.874474
O O10 0.486913 0.800488 0.902706
O O11 0.576699 0.091095 0.009488
O O12 0.066761 0.952191 0.937589
O O13 0.518551 0.406593 0.599972
O O14 0.529466 0.643160 0.757197
#
# Coordination Sequence:
#
# PCOD9123238 Si02
#       8
#     4   4   4   2   4   4   2   4
#     4   9  20  38  61  90 110 147 205 249 299 360
#     4   8  21  34  55  85 123 153 204 243 283 347
#     4  10  20  38  53  87 126 150 198 254 277 355
#     4  12  20  32  60  80 128 182 200 226 288 346
#     4  11  20  37  52  87 128 171 199 239 285 352
#     4  10  20  39  68  83 111 159 199 249 311 361
#     4  10  20  42  68  86 114 146 202 262 316 358
#     4  11  22  38  57  89 124 163 207 234 291 371
#
# _framework density 19.253426999999999
#
# number of rings (size 3 to 8) (size 9 to 14) (size 15 to 20)
#    0.857    1.143    2.857    1.286    0.000    4.571 
#    0.000    0.000    6.286    0.000    0.000    0.000 
#    0.000    0.000    0.000    0.000    0.000    0.000 
#
# Total GULP energy -77990.059588 kJ/mol
# GULP energy per Si atom -5570.718542 kJ/mol
# Density = 1.920960 g / cm^3
# Si number density = 19.253427 Si / 1000 Ang^3
#
#
#
# Elastic Constant Matrix: (Units=GPa)
#
#
# Indices 1 2 3 4 5 6 
#
# 1 50.2427 9.1719 3.7124 0.0000 8.5999 0.0000
# 2 9.1719 79.2348 15.0704 0.0000 4.4254 0.0000
# 3 3.7124 15.0704 32.1439 0.0000 17.1585 0.0000
# 4 0.0000 0.0000 0.0000 23.6161 0.0000 7.4267
# 5 8.5999 4.4254 17.1585 0.0000 25.6356 0.0000
# 6 0.0000 0.0000 0.0000 7.4267 0.0000 23.1071
#
#
#
# Elastic Compliance Matrix: (Units=1/GPa)
#
#
# Indices 1 2 3 4 5 6 
#
# 1 0.021716 -0.002703 0.003733 0.000000 -0.009317 0.000000
# 2 -0.002703 0.014347 -0.008676 0.000000 0.004237 0.000000
# 3 0.003733 -0.008676 0.053859 0.000000 -0.035803 0.000000
# 4 0.000000 0.000000 0.000000 0.047105 0.000000 -0.015140
# 5 -0.009317 0.004237 -0.035803 0.000000 0.065366 0.000000
# 6 0.000000 0.000000 0.000000 -0.015140 0.000000 0.048143
#
#
# Mechanical properties :
#
#
# Convention : Reuss Voigt Hill
#
# Bulk Modulus (GPa) = 13.39981 24.17010 18.78496
# Shear Modulus (GPa) = 17.19953 23.38287 20.29120
#
# Velocity S-wave (km/s) = 2.99209 3.48872 3.24991
# Velocity P-wave (km/s) = 4.34875 5.36741 4.88471
#
# Compressibility (1/GPa) = 0.07462790
#
# Stress axis : x y z
#
# Youngs Moduli (GPa) = 46.04945 69.70002 18.56705
#
# Poissons Ratio (x) = 0.18842 -0.06930
# Poissons Ratio (y) = 0.12449 0.16109
# Poissons Ratio (z) = -0.17189 0.60474
#
# Static dielectric constant tensor:
#      x y z
#    x 1.676210 0.000000 0.045920 
#    y 0.000000 1.699880 0.000000 
#    z 0.045920 0.000000 1.687750 
# 
# From -- ./inp_files/55516.got.cif
#   From: 2010.05.17/outbox.cif.g08.bks.cpg/sg5_28_cif.got.tgz:55516.got - 2010.06.03 18:56:24.
