data_PCOD9123946
_publ_section_title
;
Structure prediction by ZEFSAII (Michael W. Deem and Ramdas Pophale) SiO2 
 PCOD9123946
Probable space group: C 2
;
_chemical_formula_sum "Si O2"
_cell_formula_units_Z 28
_cell_length_a 13.607788
_cell_length_b 7.752135
_cell_length_c 17.923682
_cell_angle_alpha 90.000000
_cell_angle_beta 147.056124
_cell_angle_gamma 90.000000
_cell_volume 1028.227170
_symmetry_space_group_name_H-M "C 2"
_symmetry_group_IT_number 5
_symmetry_cell_setting 'monoclinic'
loop_
_space_group_symop_operation_xyz
x,y,z
-x,y,-z
1/2+x,1/2+y,z
1/2-x,1/2+y,-z
loop_
_atom_site_type_symbol
_atom_site_label
_atom_site_fract_x
_atom_site_fract_y
_atom_site_fract_z
Si Si1 0.669849 0.371490 0.668281
Si Si2 0.000000 0.969029 0.000000
Si Si3 0.948139 0.456245 0.657598
Si Si4 0.500000 0.769761 0.500000
Si Si5 0.279179 0.191100 0.078823
Si Si6 0.235646 0.485343 0.717484
Si Si7 0.957192 0.076414 0.625016
Si Si8 0.043496 0.536575 0.940063
O O1 0.500000 0.355912 0.500000
O O2 0.767885 0.184371 0.725894
O O3 0.587917 0.409462 0.699818
O O4 0.849480 0.491222 0.777793
O O5 0.126621 0.079001 0.025360
O O6 0.132503 0.884802 0.143590
O O7 0.965983 0.246586 0.683265
O O8 0.742434 0.505680 0.512799
O O9 0.046452 0.592551 0.773949
O O10 0.049498 0.486917 0.644304
O O11 0.514702 0.653102 0.581367
O O12 0.686558 0.876614 0.614688
O O13 0.339876 0.178091 0.030578
O O14 0.184824 0.376779 0.024537
O O15 0.000000 0.563324 0.000000
#
# Coordination Sequence:
#
# PCOD9123946 Si02
#       8
#     4   2   4   2   4   4   4   4
#     4  12  23  43  74 107 152 197 252 325 384 462
#     4  10  20  46  72 100 152 198 246 316 374 462
#     4  10  23  42  69 107 150 199 250 318 387 465
#     4  10  22  38  66 106 132 190 248 300 382 448
#     4  11  24  48  75 108 154 201 261 322 389 458
#     4  10  20  40  71 102 143 195 245 311 388 450
#     4  11  23  43  68 107 152 194 252 317 388 462
#     4  12  27  51  77 114 156 206 261 325 395 467
#
# _framework density 27.231335000000001
#
# number of rings (size 3 to 8) (size 9 to 14) (size 15 to 20)
#    0.000    1.143    3.571    2.571    0.000    2.286 
#    6.429    1.429    0.000    0.000    0.000    0.000 
#    0.000    0.000    0.000    0.000    0.000    0.000 
#
# Total GULP energy -78019.134282 kJ/mol
# GULP energy per Si atom -5572.795306 kJ/mol
# Density = 2.716936 g / cm^3
# Si number density = 27.231335 Si / 1000 Ang^3
#
#
#
# Elastic Constant Matrix: (Units=GPa)
#
#
# Indices 1 2 3 4 5 6 
#
# 1 148.7410 29.6166 50.6928 0.0000 24.2870 0.0000
# 2 29.6166 112.4964 35.5848 0.0000 -3.7802 0.0000
# 3 50.6928 35.5848 178.8932 0.0000 -2.0538 0.0000
# 4 0.0000 0.0000 0.0000 31.9548 0.0000 14.1627
# 5 24.2870 -3.7802 -2.0538 0.0000 36.3202 0.0000
# 6 0.0000 0.0000 0.0000 14.1627 0.0000 14.4747
#
#
#
# Elastic Compliance Matrix: (Units=1/GPa)
#
#
# Indices 1 2 3 4 5 6 
#
# 1 0.008865 -0.001842 -0.002217 0.000000 -0.006245 0.000000
# 2 -0.001842 0.009897 -0.001422 0.000000 0.002182 0.000000
# 3 -0.002217 -0.001422 0.006521 0.000000 0.001704 0.000000
# 4 0.000000 0.000000 0.000000 0.055257 0.000000 -0.054066
# 5 -0.006245 0.002182 0.001704 0.000000 0.032032 0.000000
# 6 0.000000 0.000000 0.000000 -0.054066 0.000000 0.121987
#
#
# Mechanical properties :
#
#
# Convention : Reuss Voigt Hill
#
# Bulk Modulus (GPa) = 69.83036 74.65767 72.24401
# Shear Modulus (GPa) = 19.97641 38.16570 29.07106
#
# Velocity S-wave (km/s) = 2.71141 3.74777 3.27090
# Velocity P-wave (km/s) = 5.95830 6.79730 6.39158
#
# Compressibility (1/GPa) = 0.01432042
#
# Stress axis : x y z
#
# Youngs Moduli (GPa) = 112.79751 101.03854 153.36004
#
# Poissons Ratio (x) = 0.18616 0.34006
# Poissons Ratio (y) = 0.20782 0.21801
# Poissons Ratio (z) = 0.25012 0.14363
#
# Static dielectric constant tensor:
#      x y z
#    x 2.200900 0.000000 -0.087010 
#    y 0.000000 2.488870 0.000000 
#    z -0.087010 0.000000 2.138380 
# 
# From -- ./inp_files/66009.got.cif
#   From: 2010.05.17/outbox.cif.g08.bks.cpg/sg5_34_cif.got.tgz:66009.got - 2010.06.03 18:56:24.
