data_PCOD9123338
_publ_section_title
;
Structure prediction by ZEFSAII (Michael W. Deem and Ramdas Pophale) SiO2 
 PCOD9123338
Probable space group: C 2
;
_chemical_formula_sum "Si O2"
_cell_formula_units_Z 28
_cell_length_a 31.126346
_cell_length_b 10.024331
_cell_length_c 9.658058
_cell_angle_alpha 90.000000
_cell_angle_beta 149.791278
_cell_angle_gamma 90.000000
_cell_volume 1516.254583
_symmetry_space_group_name_H-M "C 2"
_symmetry_group_IT_number 5
_symmetry_cell_setting 'monoclinic'
loop_
_space_group_symop_operation_xyz
x,y,z
-x,y,-z
1/2+x,1/2+y,z
1/2-x,1/2+y,-z
loop_
_atom_site_type_symbol
_atom_site_label
_atom_site_fract_x
_atom_site_fract_y
_atom_site_fract_z
Si Si1 0.252040 0.926660 0.781315
Si Si2 0.190004 0.824133 0.891296
Si Si3 0.543519 0.810962 0.380059
Si Si4 0.084853 0.570207 0.644718
Si Si5 0.596518 0.581011 0.743876
Si Si6 0.666386 0.695130 0.512243
Si Si7 0.846427 0.246605 0.844571
O O1 0.232512 0.835430 0.859297
O O2 0.273961 0.840032 0.708766
O O3 0.178287 0.036944 0.566906
O O4 0.337987 0.009884 0.050386
O O5 0.115200 0.714594 0.680165
O O6 0.153323 0.968423 0.830324
O O7 0.259985 0.772647 0.196502
O O8 0.581135 0.712194 0.604781
O O9 0.579789 0.750794 0.339130
O O10 0.573209 0.961310 0.491436
O O11 0.441526 0.809593 0.107723
O O12 0.000000 0.575782 0.500000
O O13 0.500000 0.529115 0.500000
O O14 0.639901 0.625501 0.008699
O O15 0.674207 0.715466 0.370782
#
# Coordination Sequence:
#
# PCOD9123338 Si02
#       7
#     4   4   4   4   4   4   4
#     4  11  22  40  60  90 121 156 200 253 293 359
#     4  11  23  37  63  90 120 156 201 251 302 352
#     4  11  19  41  63  86 114 164 206 239 284 368
#     4  11  20  38  63  91 116 151 205 249 288 349
#     4  10  20  38  62  86 116 160 206 239 290 363
#     4  11  24  37  61  90 122 154 201 252 307 351
#     4  11  23  37  63  88 122 160 197 251 303 358
#
# _framework density 18.466556000000001
#
# number of rings (size 3 to 8) (size 9 to 14) (size 15 to 20)
#    0.000    1.143    5.714    1.286    4.000    0.000 
#    0.000    0.000    0.000    0.000    0.000    0.000 
#    0.000    0.000    0.000    0.000    0.000    0.000 
#
# Total GULP energy -78138.095241 kJ/mol
# GULP energy per Si atom -5581.292517 kJ/mol
# Density = 1.842453 g / cm^3
# Si number density = 18.466556 Si / 1000 Ang^3
#
#
#
# Elastic Constant Matrix: (Units=GPa)
#
#
# Indices 1 2 3 4 5 6 
#
# 1 134.3639 39.7224 29.8453 0.0000 -14.7490 0.0000
# 2 39.7224 75.0458 25.5614 0.0000 -7.3537 0.0000
# 3 29.8453 25.5614 36.0271 0.0000 -14.4648 0.0000
# 4 0.0000 0.0000 0.0000 15.5652 0.0000 1.4960
# 5 -14.7490 -7.3537 -14.4648 0.0000 39.3167 0.0000
# 6 0.0000 0.0000 0.0000 1.4960 0.0000 29.0467
#
#
#
# Elastic Compliance Matrix: (Units=1/GPa)
#
#
# Indices 1 2 3 4 5 6 
#
# 1 0.009692 -0.003214 -0.005315 0.000000 0.001079 0.000000
# 2 -0.003214 0.018716 -0.011375 0.000000 -0.001890 0.000000
# 3 -0.005315 -0.011375 0.045262 0.000000 0.012530 0.000000
# 4 0.000000 0.000000 0.000000 0.064566 0.000000 -0.003325
# 5 0.001079 -0.001890 0.012530 0.000000 0.030096 0.000000
# 6 0.000000 0.000000 0.000000 -0.003325 0.000000 0.034599
#
#
# Mechanical properties :
#
#
# Convention : Reuss Voigt Hill
#
# Bulk Modulus (GPa) = 29.53301 48.41053 38.97177
# Shear Modulus (GPa) = 19.68312 26.80623 23.24468
#
# Velocity S-wave (km/s) = 3.26832 3.81413 3.55173
# Velocity P-wave (km/s) = 5.50182 6.75788 6.16194
#
# Compressibility (1/GPa) = 0.03386041
#
# Stress axis : x y z
#
# Youngs Moduli (GPa) = 103.18163 53.43133 22.09360
#
# Poissons Ratio (x) = 0.17171 0.11743
# Poissons Ratio (y) = 0.33159 0.25132
# Poissons Ratio (z) = 0.54844 0.60780
#
# Static dielectric constant tensor:
#      x y z
#    x 1.635420 0.000000 0.012320 
#    y 0.000000 1.634730 0.000000 
#    z 0.012320 0.000000 1.640860 
# 
# From -- ./inp_files/31735.got.cif
#   From: 2010.05.17/outbox.cif.g08.bks.cpg/sg5_16_cif.got.tgz:31735.got - 2010.06.03 18:56:24.
