data_PCOD9123362
_publ_section_title
;
Structure prediction by ZEFSAII (Michael W. Deem and Ramdas Pophale) SiO2 
 PCOD9123362
Probable space group: C 2
;
_chemical_formula_sum "Si O2"
_cell_formula_units_Z 20
_cell_length_a 5.167522
_cell_length_b 18.294355
_cell_length_c 10.373587
_cell_angle_alpha 90.000000
_cell_angle_beta 108.461761
_cell_angle_gamma 90.000000
_cell_volume 930.211807
_symmetry_space_group_name_H-M "C 2"
_symmetry_group_IT_number 5
_symmetry_cell_setting 'monoclinic'
loop_
_space_group_symop_operation_xyz
x,y,z
-x,y,-z
1/2+x,1/2+y,z
1/2-x,1/2+y,-z
loop_
_atom_site_type_symbol
_atom_site_label
_atom_site_fract_x
_atom_site_fract_y
_atom_site_fract_z
Si Si1 0.127316 0.288420 0.157022
Si Si2 0.484611 0.496961 0.354435
Si Si3 0.434513 0.635390 0.762919
Si Si4 0.126378 0.885954 0.156637
Si Si5 0.484046 0.064336 0.858435
O O1 0.145593 0.219270 0.254275
O O2 0.417578 0.323500 0.171875
O O3 0.917958 0.349372 0.176141
O O4 0.000000 0.262295 0.000000
O O5 0.500000 0.467479 0.500000
O O6 0.610290 0.579296 0.363068
O O7 0.615925 0.446983 0.265261
O O8 0.171422 0.510650 0.263138
O O9 0.757948 0.628482 0.839790
O O10 0.259593 0.597244 0.848045
O O11 0.000000 0.913260 0.000000
O O12 0.500000 0.027623 0.000000
#
# Coordination Sequence:
#
# PCOD9123362 Si02
#       5
#     4   4   4   4   4
#     4  10  20  38  62  96 124 159 204 270 313 371
#     4  10  26  43  63  94 131 172 209 262 313 379
#     4  10  22  38  66  92 129 157 214 257 325 365
#     4  10  23  38  63  92 127 163 212 255 317 373
#     4  10  21  35  65  97 120 158 208 263 309 369
#
# _framework density 21.500478999999999
#
# number of rings (size 3 to 8) (size 9 to 14) (size 15 to 20)
#    1.200    0.800    0.000    3.000    5.600    3.200 
#    0.000    2.000    0.000    0.000    0.000    0.000 
#    0.000    0.000    0.000    0.000    0.000    0.000 
#
# Total GULP energy -55786.014165 kJ/mol
# GULP energy per Si atom -5578.601416 kJ/mol
# Density = 2.145154 g / cm^3
# Si number density = 21.500479 Si / 1000 Ang^3
#
#
#
# Elastic Constant Matrix: (Units=GPa)
#
#
# Indices 1 2 3 4 5 6 
#
# 1 77.7879 2.7671 1.8792 0.0000 -20.6309 0.0000
# 2 2.7671 86.3037 30.1260 0.0000 -14.4062 0.0000
# 3 1.8792 30.1260 101.1621 0.0000 -18.3906 0.0000
# 4 0.0000 0.0000 0.0000 24.0975 0.0000 -14.4444
# 5 -20.6309 -14.4062 -18.3906 0.0000 21.4918 0.0000
# 6 0.0000 0.0000 0.0000 -14.4444 0.0000 34.2872
#
#
#
# Elastic Compliance Matrix: (Units=1/GPa)
#
#
# Indices 1 2 3 4 5 6 
#
# 1 0.018436 0.001965 0.002995 0.000000 0.021578 0.000000
# 2 0.001965 0.013920 -0.002537 0.000000 0.009046 0.000000
# 3 0.002995 -0.002537 0.012788 0.000000 0.012117 0.000000
# 4 0.000000 0.000000 0.000000 0.055517 0.000000 0.023388
# 5 0.021578 0.009046 0.012117 0.000000 0.083675 0.000000
# 6 0.000000 0.000000 0.000000 0.023388 0.000000 0.039018
#
#
# Mechanical properties :
#
#
# Convention : Reuss Voigt Hill
#
# Bulk Modulus (GPa) = 20.00415 37.19980 28.60197
# Shear Modulus (GPa) = 21.26113 31.34073 26.30093
#
# Velocity S-wave (km/s) = 3.14804 3.82209 3.50132
# Velocity P-wave (km/s) = 4.74740 6.06772 5.44771
#
# Compressibility (1/GPa) = 0.04998962
#
# Stress axis : x y z
#
# Youngs Moduli (GPa) = 54.24146 71.84086 78.19914
#
# Poissons Ratio (x) = -0.14119 -0.23420
# Poissons Ratio (y) = -0.10660 0.19841
# Poissons Ratio (z) = -0.16245 0.18228
#
# Static dielectric constant tensor:
#      x y z
#    x 1.783790 0.000000 0.013100 
#    y 0.000000 1.822870 0.000000 
#    z 0.013100 0.000000 1.755160 
# 
# From -- ./inp_files/12129.got.cif
#   From: 2010.05.17/outbox.cif.g08.bks.cpg/sg5_7_cif.got.tgz:12129.got - 2010.06.03 18:56:24.
