data_PCOD9123638
_publ_section_title
;
Structure prediction by ZEFSAII (Michael W. Deem and Ramdas Pophale) SiO2 
 PCOD9123638
Probable space group: C 2
;
_chemical_formula_sum "Si O2"
_cell_formula_units_Z 32
_cell_length_a 22.894885
_cell_length_b 7.473634
_cell_length_c 21.744138
_cell_angle_alpha 90.000000
_cell_angle_beta 157.831167
_cell_angle_gamma 90.000000
_cell_volume 1403.918773
_symmetry_space_group_name_H-M "C 2"
_symmetry_group_IT_number 5
_symmetry_cell_setting 'monoclinic'
loop_
_space_group_symop_operation_xyz
x,y,z
-x,y,-z
1/2+x,1/2+y,z
1/2-x,1/2+y,-z
loop_
_atom_site_type_symbol
_atom_site_label
_atom_site_fract_x
_atom_site_fract_y
_atom_site_fract_z
Si Si1 0.877188 0.386480 0.423914
Si Si2 0.109738 0.686483 0.391078
Si Si3 0.325674 0.686241 0.494278
Si Si4 0.690532 0.813941 0.322422
Si Si5 0.683137 0.687406 0.182300
Si Si6 0.816188 0.273753 0.130733
Si Si7 0.620793 0.127451 0.735566
Si Si8 0.100840 0.452269 0.903585
O O1 0.805468 0.272150 0.407956
O O2 0.745438 0.487618 0.257703
O O3 0.000000 0.284427 0.500000
O O4 0.988331 0.535862 0.563867
O O5 0.211255 0.768771 0.434278
O O6 0.245244 0.650355 0.573672
O O7 0.970534 0.740816 0.302146
O O8 0.016871 0.537103 0.261908
O O9 0.279944 0.480095 0.440629
O O10 0.506131 0.710017 0.686877
O O11 0.725623 0.798039 0.284937
O O12 0.509568 0.845659 0.158009
O O13 0.768830 0.735543 0.202497
O O14 0.500000 0.691080 0.000000
O O15 0.796586 0.455462 0.151599
O O16 0.797198 0.325354 0.040399
O O17 0.697301 0.113443 0.027389
#
# Coordination Sequence:
#
# PCOD9123638 Si02
#       8
#     4   4   4   4   4   4   4   4
#     4   9  19  41  65  88 125 169 224 265 317 400
#     4  10  20  39  65  92 130 168 216 272 323 404
#     4  10  22  40  65  94 135 175 213 269 335 397
#     4  11  23  40  61  96 130 174 223 271 329 400
#     4  11  24  42  66  90 123 172 229 282 331 395
#     4  10  21  41  63  99 141 172 214 274 336 404
#     4   9  20  42  66  92 122 173 227 268 327 396
#     4  10  23  39  63 102 139 172 215 272 342 398
#
# _framework density 22.793340000000001
#
# number of rings (size 3 to 8) (size 9 to 14) (size 15 to 20)
#    0.000    2.000    2.500    0.000    3.500    4.000 
#    2.250    3.125    0.000    0.000    0.000    0.000 
#    0.000    0.000    0.000    0.000    0.000    0.000 
#
# Total GULP energy -89159.690647 kJ/mol
# GULP energy per Si atom -5572.480665 kJ/mol
# Density = 2.274146 g / cm^3
# Si number density = 22.793340 Si / 1000 Ang^3
#
#
#
# Elastic Constant Matrix: (Units=GPa)
#
#
# Indices 1 2 3 4 5 6 
#
# 1 200.4999 33.6160 37.7494 0.0001 35.8403 0.0000
# 2 33.6160 37.6910 23.1224 0.0008 -2.0767 0.0001
# 3 37.7494 23.1224 80.6817 0.0018 -3.7703 0.0004
# 4 0.0001 0.0008 0.0018 34.5422 0.0005 -1.1148
# 5 35.8403 -2.0767 -3.7703 0.0005 26.1615 0.0000
# 6 0.0000 0.0001 0.0004 -1.1148 0.0000 36.5921
#
#
#
# Elastic Compliance Matrix: (Units=1/GPa)
#
#
# Indices 1 2 3 4 5 6 
#
# 1 0.009134 -0.007136 -0.002859 0.000000 -0.013492 0.000000
# 2 -0.007136 0.037806 -0.006946 -0.000001 0.011776 0.000000
# 3 -0.002859 -0.006946 0.015988 -0.000001 0.005669 0.000000
# 4 0.000000 -0.000001 -0.000001 0.028979 -0.000001 0.000883
# 5 -0.013492 0.011776 0.005669 -0.000001 0.058459 0.000000
# 6 0.000000 0.000000 0.000000 0.000883 0.000000 0.027355
#
#
# Mechanical properties :
#
#
# Convention : Reuss Voigt Hill
#
# Bulk Modulus (GPa) = 34.42802 56.42757 45.42779
# Shear Modulus (GPa) = 22.59557 34.41816 28.50686
#
# Velocity S-wave (km/s) = 3.15194 3.89010 3.54031
# Velocity P-wave (km/s) = 5.32762 6.70724 6.05684
#
# Compressibility (1/GPa) = 0.02904611
#
# Stress axis : x y z
#
# Youngs Moduli (GPa) = 109.48259 26.45114 62.54870
#
# Poissons Ratio (x) = 0.18875 0.17883
# Poissons Ratio (y) = 0.78124 0.43444
# Poissons Ratio (z) = 0.31301 0.18372
#
# Static dielectric constant tensor:
#      x y z
#    x 1.909760 0.000000 -0.000090 
#    y 0.000000 1.929570 0.000000 
#    z -0.000090 0.000000 1.866880 
# 
# From -- ./inp_files/69677.got.cif
#   From: 2010.05.17/outbox.cif.g08.bks.cpg/sg5_35_cif.got.tgz:69677.got - 2010.06.03 18:56:24.
