data_PCOD9123847
_publ_section_title
;
Structure prediction by ZEFSAII (Michael W. Deem and Ramdas Pophale) SiO2 
 PCOD9123847
Probable space group: C 2
;
_chemical_formula_sum "Si O2"
_cell_formula_units_Z 22
_cell_length_a 12.896586
_cell_length_b 8.687658
_cell_length_c 7.580735
_cell_angle_alpha 90.000000
_cell_angle_beta 103.861518
_cell_angle_gamma 90.000000
_cell_volume 824.618882
_symmetry_space_group_name_H-M "C 2"
_symmetry_group_IT_number 5
_symmetry_cell_setting 'monoclinic'
loop_
_space_group_symop_operation_xyz
x,y,z
-x,y,-z
1/2+x,1/2+y,z
1/2-x,1/2+y,-z
loop_
_atom_site_type_symbol
_atom_site_label
_atom_site_fract_x
_atom_site_fract_y
_atom_site_fract_z
Si Si1 0.363868 0.815250 0.122723
Si Si2 0.671981 0.069238 0.310975
Si Si3 0.000000 0.576325 0.000000
Si Si4 0.338318 0.405145 0.140618
Si Si5 0.659128 0.748228 0.483900
Si Si6 0.500000 0.476988 0.500000
Si Si7 0.500000 0.565175 0.000000
O O1 0.416534 0.971719 0.073695
O O2 0.347010 0.821684 0.323529
O O3 0.454032 0.688379 0.121297
O O4 0.256019 0.791809 0.961973
O O5 0.768928 0.036586 0.213192
O O6 0.722729 0.174834 0.483232
O O7 0.574174 0.151006 0.176443
O O8 0.639814 0.895752 0.354165
O O9 0.432754 0.383369 0.324688
O O10 0.398001 0.454434 0.984168
O O11 0.583551 0.597872 0.443686
#
# Coordination Sequence:
#
# PCOD9123847 Si02
#       7
#     4   4   2   4   4   2   2
#     4  10  21  41  68 102 132 185 246 290 352 435
#     4  10  22  42  66 104 143 183 243 299 354 442
#     4   9  20  40  69  96 130 187 231 296 362 421
#     4  10  23  38  69 103 136 179 250 291 353 434
#     4  11  22  42  67 101 142 188 240 298 360 435
#     4  10  20  40  66 100 136 184 242 286 372 428
#     4  11  20  44  75  98 136 199 231 302 366 433
#
# _framework density 26.678989999999999
#
# number of rings (size 3 to 8) (size 9 to 14) (size 15 to 20)
#    0.000    1.818    3.636    1.091    5.091    2.909 
#    0.000    4.545    0.000    8.727    0.000    0.000 
#    0.000    0.000    0.000    0.000    0.000    0.000 
#
# Total GULP energy -61297.418393 kJ/mol
# GULP energy per Si atom -5572.492581 kJ/mol
# Density = 2.661827 g / cm^3
# Si number density = 26.678990 Si / 1000 Ang^3
#
#
#
# Elastic Constant Matrix: (Units=GPa)
#
#
# Indices 1 2 3 4 5 6 
#
# 1 111.9526 30.4562 74.6453 0.0000 12.9969 0.0000
# 2 30.4562 69.0330 35.3720 0.0000 -7.0361 0.0000
# 3 74.6453 35.3720 141.5688 0.0000 39.0554 0.0000
# 4 0.0000 0.0000 0.0000 -0.8326 0.0000 4.3064
# 5 12.9969 -7.0361 39.0554 0.0000 55.1497 0.0000
# 6 0.0000 0.0000 0.0000 4.3064 0.0000 45.1983
#
#
#
# Elastic Compliance Matrix: (Units=1/GPa)
#
#
# Indices 1 2 3 4 5 6 
#
# 1 0.014324 -0.002376 -0.007387 0.000000 0.001553 0.000000
# 2 -0.002376 0.018968 -0.005355 0.000000 0.006772 0.000000
# 3 -0.007387 -0.005355 0.014920 0.000000 -0.009508 0.000000
# 4 0.000000 0.000000 0.000000 -0.804587 0.000000 0.076659
# 5 0.001553 0.006772 -0.009508 0.000000 0.025364 0.000000
# 6 0.000000 0.000000 0.000000 0.076659 0.000000 0.014821
#
#
# Mechanical properties :
#
#
# Convention : Reuss Voigt Hill
#
# Bulk Modulus (GPa) = 55.63078 67.05573 61.34326
# Shear Modulus (GPa) = -7.35335 32.04182 12.34423
#
# Velocity S-wave (km/s) = -1.66199 3.46932 2.15337
# Velocity P-wave (km/s) = 4.14900 6.42161 5.40608
#
# Compressibility (1/GPa) = 0.01797566
#
# Stress axis : x y z
#
# Youngs Moduli (GPa) = 69.81252 52.72037 67.02519
#
# Poissons Ratio (x) = 0.12527 0.49514
# Poissons Ratio (y) = 0.16588 0.35890
# Poissons Ratio (z) = 0.51573 0.28230
#
# Static dielectric constant tensor:
#      x y z
#    x 2.099360 0.000000 -0.000420 
#    y 0.000000 2.172780 0.000000 
#    z -0.000420 0.000000 2.251420 
# 
# From -- ./inp_files/19101.got.cif
#   From: 2010.05.17/outbox.cif.g08.bks.cpg/sg5_10_cif.got.tgz:19101.got - 2010.06.03 18:56:24.
