data_PCOD9123829
_publ_section_title
;
Structure prediction by ZEFSAII (Michael W. Deem and Ramdas Pophale) SiO2 
 PCOD9123829
Probable space group: C 2
;
_chemical_formula_sum "Si O2"
_cell_formula_units_Z 28
_cell_length_a 7.974829
_cell_length_b 14.457227
_cell_length_c 14.805489
_cell_angle_alpha 90.000000
_cell_angle_beta 136.042452
_cell_angle_gamma 90.000000
_cell_volume 1184.859754
_symmetry_space_group_name_H-M "C 2"
_symmetry_group_IT_number 5
_symmetry_cell_setting 'monoclinic'
loop_
_space_group_symop_operation_xyz
x,y,z
-x,y,-z
1/2+x,1/2+y,z
1/2-x,1/2+y,-z
loop_
_atom_site_type_symbol
_atom_site_label
_atom_site_fract_x
_atom_site_fract_y
_atom_site_fract_z
Si Si1 0.550511 0.780800 0.421067
Si Si2 0.790315 0.983850 0.110471
Si Si3 0.137518 0.176648 0.956413
Si Si4 0.808140 0.769169 0.280171
Si Si5 0.942540 0.939262 0.597161
Si Si6 0.981585 0.807875 0.837730
Si Si7 0.843004 0.612198 0.517975
O O1 0.500000 0.735534 0.500000
O O2 0.683059 0.698404 0.419122
O O3 0.715863 0.868019 0.511338
O O4 0.303612 0.808128 0.278986
O O5 0.929549 0.978967 0.261801
O O6 0.908152 0.905578 0.092148
O O7 0.843888 0.081738 0.087881
O O8 0.500000 0.968320 0.000000
O O9 0.970258 0.248026 0.837578
O O10 0.401018 0.221053 0.068287
O O11 0.000000 0.165938 0.000000
O O12 0.860932 0.861537 0.360364
O O13 0.910319 0.798494 0.221816
O O14 0.957630 0.673755 0.352490
O O15 0.823953 0.031286 0.506979
O O16 0.000000 0.565501 0.500000
#
# Coordination Sequence:
#
# PCOD9123829 Si02
#       7
#     4   4   4   4   4   4   4
#     4  11  20  40  63  87 116 161 207 239 295 365
#     4  11  22  38  66  91 115 161 209 246 296 365
#     4  10  22  40  62  87 125 159 198 253 303 352
#     4   9  19  38  61  85 115 166 204 238 298 364
#     4  10  21  37  63  88 118 158 211 243 295 361
#     4  10  20  40  65  85 117 162 208 242 283 376
#     4  11  22  33  60  91 126 150 193 263 309 343
#
# _framework density 23.631488999999998
#
# number of rings (size 3 to 8) (size 9 to 14) (size 15 to 20)
#    0.000    1.714    4.286    3.429    4.000    0.000 
#    0.000    3.571    9.429    0.000    0.000    0.000 
#    0.000    0.000    0.000    0.000    0.000    0.000 
#
# Total GULP energy -78043.583821 kJ/mol
# GULP energy per Si atom -5574.541701 kJ/mol
# Density = 2.357770 g / cm^3
# Si number density = 23.631489 Si / 1000 Ang^3
#
#
#
# Elastic Constant Matrix: (Units=GPa)
#
#
# Indices 1 2 3 4 5 6 
#
# 1 55.6843 19.2082 35.8636 0.0000 11.0085 0.0000
# 2 19.2082 162.4061 57.1647 0.0000 12.8406 0.0000
# 3 35.8636 57.1647 130.4135 0.0001 34.6797 0.0000
# 4 0.0000 0.0000 0.0001 41.9384 0.0000 -6.2370
# 5 11.0085 12.8406 34.6797 0.0000 41.2119 0.0000
# 6 0.0000 0.0000 0.0000 -6.2370 0.0000 11.7273
#
#
#
# Elastic Compliance Matrix: (Units=1/GPa)
#
#
# Indices 1 2 3 4 5 6 
#
# 1 0.021901 -0.000574 -0.005492 0.000000 -0.001050 0.000000
# 2 -0.000574 0.007305 -0.003195 0.000000 0.000565 0.000000
# 3 -0.005492 -0.003195 0.012784 0.000000 -0.008296 0.000000
# 4 0.000000 0.000000 0.000000 0.025892 0.000000 0.013771
# 5 -0.001050 0.000565 -0.008296 0.000000 0.031350 0.000000
# 6 0.000000 0.000000 0.000000 0.013771 0.000000 0.092595
#
#
# Mechanical properties :
#
#
# Convention : Reuss Voigt Hill
#
# Bulk Modulus (GPa) = 42.60878 63.66410 53.13644
# Shear Modulus (GPa) = 22.91770 34.72669 28.82220
#
# Velocity S-wave (km/s) = 3.11753 3.83758 3.49614
# Velocity P-wave (km/s) = 5.57031 6.82897 6.23150
#
# Compressibility (1/GPa) = 0.02346934
#
# Stress axis : x y z
#
# Youngs Moduli (GPa) = 45.65985 136.89192 78.21993
#
# Poissons Ratio (x) = 0.07861 0.42957
# Poissons Ratio (y) = 0.02622 0.24987
# Poissons Ratio (z) = 0.25076 0.43730
#
# Static dielectric constant tensor:
#      x y z
#    x 1.964530 0.000000 -0.070400 
#    y 0.000000 1.887480 0.000000 
#    z -0.070400 0.000000 1.939860 
# 
# From -- ./inp_files/59737.got.cif
#   From: 2010.05.17/outbox.cif.g08.bks.cpg/sg5_30_cif.got.tgz:59737.got - 2010.06.03 18:56:24.
