data_PCOD9123722
_publ_section_title
;
Structure prediction by ZEFSAII (Michael W. Deem and Ramdas Pophale) SiO2 
 PCOD9123722
Probable space group: C 2
;
_chemical_formula_sum "Si O2"
_cell_formula_units_Z 26
_cell_length_a 13.483945
_cell_length_b 10.753576
_cell_length_c 12.917315
_cell_angle_alpha 90.000000
_cell_angle_beta 36.014407
_cell_angle_gamma 90.000000
_cell_volume 1101.313803
_symmetry_space_group_name_H-M "C 2"
_symmetry_group_IT_number 5
_symmetry_cell_setting 'monoclinic'
loop_
_space_group_symop_operation_xyz
x,y,z
-x,y,-z
1/2+x,1/2+y,z
1/2-x,1/2+y,-z
loop_
_atom_site_type_symbol
_atom_site_label
_atom_site_fract_x
_atom_site_fract_y
_atom_site_fract_z
Si Si1 0.507444 0.960200 0.182619
Si Si2 0.586870 0.482099 0.733100
Si Si3 0.658754 0.735358 0.789825
Si Si4 0.331231 0.432231 0.764935
Si Si5 0.251321 0.642403 0.674676
Si Si6 0.500000 0.323840 0.000000
Si Si7 0.942124 0.358928 0.436841
O O1 0.387090 0.849776 0.245443
O O2 0.563670 0.913655 0.247632
O O3 0.401220 0.087402 0.266254
O O4 0.660114 0.960756 0.973756
O O5 0.651614 0.613815 0.724139
O O6 0.477717 0.464561 0.721820
O O7 0.760082 0.412478 0.565298
O O8 0.487268 0.411719 0.910129
O O9 0.809986 0.792227 0.734324
O O10 0.500000 0.717869 0.000000
O O11 0.323751 0.528348 0.677477
O O12 0.396137 0.713930 0.489111
O O13 0.159961 0.736735 0.833827
O O14 0.000000 0.402988 0.500000
#
# Coordination Sequence:
#
# PCOD9123722 Si02
#       7
#     4   4   4   4   4   2   4
#     4  10  22  43  69  97 134 183 228 290 361 416
#     4  11  24  41  67 100 140 173 233 284 362 418
#     4   9  20  41  66 101 135 167 228 297 342 417
#     4  10  22  42  77  99 126 186 237 289 351 419
#     4  10  21  44  69  95 134 175 237 287 346 433
#     4  10  20  40  58  98 130 172 228 286 328 424
#     4  11  28  43  62  97 143 181 224 288 363 424
#
# _framework density 23.608166000000001
#
# number of rings (size 3 to 8) (size 9 to 14) (size 15 to 20)
#    0.000    1.846    2.308    0.923    8.615    1.231 
#    5.538    2.308    0.000    0.000    0.000    0.000 
#    0.000    0.000    0.000    0.000    0.000    0.000 
#
# Total GULP energy -72578.773449 kJ/mol
# GULP energy per Si atom -5582.982573 kJ/mol
# Density = 2.355443 g / cm^3
# Si number density = 23.608166 Si / 1000 Ang^3
#
#
#
# Elastic Constant Matrix: (Units=GPa)
#
#
# Indices 1 2 3 4 5 6 
#
# 1 141.8675 56.6287 21.7605 0.0000 8.6028 0.0000
# 2 56.6287 120.0840 18.0776 0.0000 0.8485 0.0000
# 3 21.7605 18.0776 79.0590 0.0000 13.8872 0.0000
# 4 0.0000 0.0000 0.0000 32.1362 0.0000 6.2873
# 5 8.6028 0.8485 13.8872 0.0000 32.9842 0.0000
# 6 0.0000 0.0000 0.0000 6.2873 0.0000 22.9307
#
#
#
# Elastic Compliance Matrix: (Units=1/GPa)
#
#
# Indices 1 2 3 4 5 6 
#
# 1 0.008948 -0.004020 -0.001244 0.000000 -0.001707 0.000000
# 2 -0.004020 0.010444 -0.001532 0.000000 0.001425 0.000000
# 3 -0.001244 -0.001532 0.014338 0.000000 -0.005673 0.000000
# 4 0.000000 0.000000 0.000000 0.032881 0.000000 -0.009016
# 5 -0.001707 0.001425 -0.005673 0.000000 0.033114 0.000000
# 6 0.000000 0.000000 0.000000 -0.009016 0.000000 0.046082
#
#
# Mechanical properties :
#
#
# Convention : Reuss Voigt Hill
#
# Bulk Modulus (GPa) = 49.65779 59.32713 54.49246
# Shear Modulus (GPa) = 30.10028 33.91315 32.00671
#
# Velocity S-wave (km/s) = 3.57458 3.79423 3.68604
# Velocity P-wave (km/s) = 6.17387 6.66179 6.42246
#
# Compressibility (1/GPa) = 0.02013783
#
# Stress axis : x y z
#
# Youngs Moduli (GPa) = 111.75850 95.74959 69.74551
#
# Poissons Ratio (x) = 0.38494 0.08675
# Poissons Ratio (y) = 0.44930 0.10684
# Poissons Ratio (z) = 0.13900 0.14667
#
# Static dielectric constant tensor:
#      x y z
#    x 1.971460 0.000000 0.050620 
#    y 0.000000 1.956870 0.000000 
#    z 0.050620 0.000000 1.954800 
# 
# From -- ./inp_files/39112.got.cif
#   From: 2010.05.17/outbox.cif.g08.bks.cpg/sg5_20_cif.got.tgz:39112.got - 2010.06.03 18:56:24.
