data_PCOD9123783
_publ_section_title
;
Structure prediction by ZEFSAII (Michael W. Deem and Ramdas Pophale) SiO2 
 PCOD9123783
Probable space group: C 2
;
_chemical_formula_sum "Si O2"
_cell_formula_units_Z 18
_cell_length_a 10.620715
_cell_length_b 8.579538
_cell_length_c 8.002234
_cell_angle_alpha 90.000000
_cell_angle_beta 74.775969
_cell_angle_gamma 90.000000
_cell_volume 703.581011
_symmetry_space_group_name_H-M "C 2"
_symmetry_group_IT_number 5
_symmetry_cell_setting 'monoclinic'
loop_
_space_group_symop_operation_xyz
x,y,z
-x,y,-z
1/2+x,1/2+y,z
1/2-x,1/2+y,-z
loop_
_atom_site_type_symbol
_atom_site_label
_atom_site_fract_x
_atom_site_fract_y
_atom_site_fract_z
Si Si1 0.513251 0.954070 0.249705
Si Si2 0.000000 0.176279 0.000000
Si Si3 0.711407 0.200808 0.059545
Si Si4 0.720107 0.774409 0.338823
Si Si5 0.213154 0.938667 0.366797
O O1 0.503127 0.790687 0.156432
O O2 0.611719 0.910256 0.362800
O O3 0.363707 0.997189 0.316816
O O4 0.593788 0.081716 0.119939
O O5 0.851468 0.113413 0.048708
O O6 0.695107 0.336558 0.205222
O O7 0.717486 0.261964 0.867563
O O8 0.808322 0.830335 0.463960
O O9 0.648948 0.608457 0.396250
#
# Coordination Sequence:
#
# PCOD9123783 Si02
#       5
#     4   2   4   4   4
#     4  10  20  40  63  88 128 166 203 260 317 371
#     4   8  18  34  60  90 120 158 202 252 310 368
#     4  10  20  40  66  92 125 166 211 261 317 375
#     4  11  22  39  64  91 123 166 211 256 314 379
#     4  11  24  41  63  92 127 167 211 260 317 378
#
# _framework density 25.583407000000001
#
# number of rings (size 3 to 8) (size 9 to 14) (size 15 to 20)
#    0.000    1.778    0.000    6.000    0.000    0.000 
#    0.000   15.556    0.000    1.333    0.000    0.000 
#    0.000    0.000    0.000    0.000    0.000    0.000 
#
# Total GULP energy -50240.888259 kJ/mol
# GULP energy per Si atom -5582.320918 kJ/mol
# Density = 2.552518 g / cm^3
# Si number density = 25.583407 Si / 1000 Ang^3
#
#
#
# Elastic Constant Matrix: (Units=GPa)
#
#
# Indices 1 2 3 4 5 6 
#
# 1 94.7868 28.8627 26.9669 0.0000 -17.5336 0.0000
# 2 28.8627 118.8641 62.3553 0.0000 7.1251 0.0000
# 3 26.9669 62.3553 168.5867 0.0000 34.0710 0.0000
# 4 0.0000 0.0000 0.0000 43.4020 0.0000 -2.5105
# 5 -17.5336 7.1251 34.0710 0.0000 46.5508 0.0000
# 6 0.0000 0.0000 0.0000 -2.5105 0.0000 10.7711
#
#
#
# Elastic Compliance Matrix: (Units=1/GPa)
#
#
# Indices 1 2 3 4 5 6 
#
# 1 0.013413 -0.002218 -0.002834 0.000000 0.007466 0.000000
# 2 -0.002218 0.010888 -0.003717 0.000000 0.000218 0.000000
# 3 -0.002834 -0.003717 0.009225 0.000000 -0.007250 0.000000
# 4 0.000000 0.000000 0.000000 0.023355 0.000000 0.005444
# 5 0.007466 0.000218 -0.007250 0.000000 0.029567 0.000000
# 6 0.000000 0.000000 0.000000 0.005444 0.000000 0.094110
#
#
# Mechanical properties :
#
#
# Convention : Reuss Voigt Hill
#
# Bulk Modulus (GPa) = 62.54270 68.73417 65.63843
# Shear Modulus (GPa) = 24.57927 37.74830 31.16378
#
# Velocity S-wave (km/s) = 3.10296 3.84539 3.49395
# Velocity P-wave (km/s) = 6.11044 6.82943 6.47991
#
# Compressibility (1/GPa) = 0.01598908
#
# Stress axis : x y z
#
# Youngs Moduli (GPa) = 74.55728 91.84371 108.40197
#
# Poissons Ratio (x) = 0.20368 0.30721
# Poissons Ratio (y) = 0.16534 0.40288
# Poissons Ratio (z) = 0.21129 0.34134
#
# Static dielectric constant tensor:
#      x y z
#    x 2.169820 0.000000 -0.000890 
#    y 0.000000 2.018160 0.000000 
#    z -0.000890 0.000000 2.118420 
# 
# From -- ./inp_files/18024.got.cif
#   From: 2010.05.17/outbox.cif.g08.bks.cpg/sg5_10_cif.got.tgz:18024.got - 2010.06.03 18:56:24.
