data_PCOD9123126
_publ_section_title
;
Structure prediction by ZEFSAII (Michael W. Deem and Ramdas Pophale) SiO2 
 PCOD9123126
Probable space group: C 2
;
_chemical_formula_sum "Si O2"
_cell_formula_units_Z 32
_cell_length_a 4.972736
_cell_length_b 23.038267
_cell_length_c 13.149135
_cell_angle_alpha 90.000000
_cell_angle_beta 75.210527
_cell_angle_gamma 90.000000
_cell_volume 1456.500430
_symmetry_space_group_name_H-M "C 2"
_symmetry_group_IT_number 5
_symmetry_cell_setting 'monoclinic'
loop_
_space_group_symop_operation_xyz
x,y,z
-x,y,-z
1/2+x,1/2+y,z
1/2-x,1/2+y,-z
loop_
_atom_site_type_symbol
_atom_site_label
_atom_site_fract_x
_atom_site_fract_y
_atom_site_fract_z
Si Si1 0.546873 0.171470 0.110510
Si Si2 0.445702 0.693175 0.246733
Si Si3 0.337867 0.302066 0.622720
Si Si4 0.810018 0.416406 0.929231
Si Si5 0.690919 0.463963 0.568980
Si Si6 0.050699 0.539776 0.834943
Si Si7 0.645060 0.562757 0.706504
Si Si8 0.280535 0.865630 0.711703
O O1 0.812248 0.194165 0.146336
O O2 0.561625 0.100587 0.108245
O O3 0.276812 0.190351 0.201467
O O4 0.500000 0.191286 0.000000
O O5 0.321099 0.744201 0.325996
O O6 0.356176 0.631436 0.301874
O O7 0.500000 0.296734 0.500000
O O8 0.558712 0.320010 0.688693
O O9 0.086403 0.348563 0.642336
O O10 0.799693 0.376460 0.829924
O O11 0.943474 0.479493 0.890510
O O12 0.500000 0.424976 0.000000
O O13 0.000000 0.390154 0.000000
O O14 0.500000 0.438719 0.500000
O O15 0.602402 0.528332 0.607557
O O16 0.678725 0.425407 0.670849
O O17 0.000000 0.464539 0.500000
O O18 0.383518 0.544931 0.802926
O O19 0.929224 0.542403 0.732187
#
# Coordination Sequence:
#
# PCOD9123126 Si02
#       8
#     4   4   4   4   4   4   4   4
#     4  10  20  38  64 100 135 172 217 261 328 401
#     4  10  23  42  66  95 131 169 224 278 327 387
#     4  12  26  48  73  95 123 180 236 282 336 394
#     4  12  25  41  66  99 137 185 223 266 338 403
#     4  12  24  39  66  97 131 172 212 269 349 403
#     4  10  20  37  62  94 137 178 212 257 317 399
#     4  10  21  39  62  96 137 169 204 275 334 391
#     4  12  26  46  67  97 137 168 231 287 324 396
#
# _framework density 21.970471
#
# number of rings (size 3 to 8) (size 9 to 14) (size 15 to 20)
#    0.000    1.000    1.250    6.000    1.750    2.500 
#    0.000    7.500    0.000    0.000    0.000    0.000 
#    0.000    0.000    0.000    0.000    0.000    0.000 
#
# Total GULP energy -89488.979347 kJ/mol
# GULP energy per Si atom -5593.061209 kJ/mol
# Density = 2.192047 g / cm^3
# Si number density = 21.970471 Si / 1000 Ang^3
#
#
#
# Elastic Constant Matrix: (Units=GPa)
#
#
# Indices 1 2 3 4 5 6 
#
# 1 106.3914 19.2712 17.3368 0.0000 5.3554 0.0000
# 2 19.2712 83.3888 46.6138 0.0000 -0.1511 0.0000
# 3 17.3368 46.6138 83.9507 0.0000 15.1149 0.0000
# 4 0.0000 0.0000 0.0000 5.5608 0.0000 4.1796
# 5 5.3554 -0.1511 15.1149 0.0000 33.1262 0.0000
# 6 0.0000 0.0000 0.0000 4.1796 0.0000 19.3194
#
#
#
# Elastic Compliance Matrix: (Units=1/GPa)
#
#
# Indices 1 2 3 4 5 6 
#
# 1 0.009927 -0.001851 -0.000798 0.000000 -0.001249 0.000000
# 2 -0.001851 0.018492 -0.010846 0.000000 0.005332 0.000000
# 3 -0.000798 -0.010846 0.019703 0.000000 -0.008911 0.000000
# 4 0.000000 0.000000 0.000000 0.214749 0.000000 -0.046460
# 5 -0.001249 0.005332 -0.008911 0.000000 0.034480 0.000000
# 6 0.000000 0.000000 0.000000 -0.046460 0.000000 0.061813
#
#
# Mechanical properties :
#
#
# Convention : Reuss Voigt Hill
#
# Bulk Modulus (GPa) = 47.31595 48.90829 48.11212
# Shear Modulus (GPa) = 12.71631 24.30188 18.50910
#
# Velocity S-wave (km/s) = 2.40842 3.32944 2.90565
# Velocity P-wave (km/s) = 5.41451 6.09011 5.76222
#
# Compressibility (1/GPa) = 0.02113452
#
# Stress axis : x y z
#
# Youngs Moduli (GPa) = 100.73198 54.07752 50.75424
#
# Poissons Ratio (x) = 0.10008 0.04048
# Poissons Ratio (y) = 0.18642 0.55046
# Poissons Ratio (z) = 0.08034 0.58650
#
# Static dielectric constant tensor:
#      x y z
#    x 1.793170 0.000000 0.035080 
#    y 0.000000 1.813180 0.000000 
#    z 0.035080 0.000000 1.806420 
# 
# From -- ./inp_files/34303.got.cif
#   From: 2010.05.17/outbox.cif.g08.bks.cpg/sg5_18_cif.got.tgz:34303.got - 2010.06.03 18:56:24.
