data_PCOD9123567
_publ_section_title
;
Structure prediction by ZEFSAII (Michael W. Deem and Ramdas Pophale) SiO2 
 PCOD9123567
Probable space group: C 2
;
_chemical_formula_sum "Si O2"
_cell_formula_units_Z 26
_cell_length_a 13.097487
_cell_length_b 8.665249
_cell_length_c 12.223350
_cell_angle_alpha 90.000000
_cell_angle_beta 99.560694
_cell_angle_gamma 90.000000
_cell_volume 1367.995682
_symmetry_space_group_name_H-M "C 2"
_symmetry_group_IT_number 5
_symmetry_cell_setting 'monoclinic'
loop_
_space_group_symop_operation_xyz
x,y,z
-x,y,-z
1/2+x,1/2+y,z
1/2-x,1/2+y,-z
loop_
_atom_site_type_symbol
_atom_site_label
_atom_site_fract_x
_atom_site_fract_y
_atom_site_fract_z
Si Si1 0.651686 0.316340 0.902261
Si Si2 0.046099 0.320298 0.147982
Si Si3 0.362826 0.801820 0.595603
Si Si4 0.144864 0.171536 0.968654
Si Si5 0.500000 0.550158 0.500000
Si Si6 0.000000 0.548924 0.500000
Si Si7 0.000000 0.601795 0.000000
Si Si8 0.633967 0.297198 0.641332
O O1 0.643836 0.497297 0.927532
O O2 0.664754 0.298296 0.774255
O O3 0.743847 0.244479 0.990933
O O4 0.555778 0.213946 0.924993
O O5 0.092262 0.319340 0.274659
O O6 0.924140 0.280601 0.122364
O O7 0.065316 0.479985 0.085732
O O8 0.093977 0.186769 0.080225
O O9 0.416527 0.654171 0.549206
O O10 0.238895 0.793439 0.587057
O O11 0.410040 0.944479 0.536508
O O12 0.565371 0.445102 0.595424
O O13 0.058526 0.655175 0.598698
#
# Coordination Sequence:
#
# PCOD9123567 Si02
#       8
#     4   4   4   4   2   2   2   4
#     4  12  22  38  60  87 122 161 200 243 306 355
#     4  10  20  39  61  86 124 154 196 246 301 355
#     4  11  21  42  66  89 122 162 196 257 306 360
#     4  10  21  36  57  87 119 158 195 243 289 370
#     4  10  24  40  64  92 120 154 210 254 304 358
#     4  10  24  40  64  92 120 154 210 254 304 358
#     4  10  22  36  58  88 124 158 198 246 290 370
#     4  11  23  42  64  89 121 162 202 255 304 362
#
# _framework density 19.005908000000002
#
# number of rings (size 3 to 8) (size 9 to 14) (size 15 to 20)
#    0.000    1.538    1.538    5.538    0.000    0.000 
#    0.000    0.000    3.385    0.000    0.000    0.000 
#    0.000    0.000    0.000    0.000    0.000    0.000 
#
# Total GULP energy -72511.970021 kJ/mol
# GULP energy per Si atom -5577.843848 kJ/mol
# Density = 1.896265 g / cm^3
# Si number density = 19.005908 Si / 1000 Ang^3
#
#
#
# Elastic Constant Matrix: (Units=GPa)
#
#
# Indices 1 2 3 4 5 6 
#
# 1 82.8634 36.8188 3.8157 0.0000 -11.3072 0.0000
# 2 36.8188 108.0361 20.7678 0.0000 -6.4434 0.0000
# 3 3.8157 20.7678 46.3998 0.0000 -2.4151 0.0000
# 4 0.0000 0.0000 0.0000 -6.6812 0.0000 10.1871
# 5 -11.3072 -6.4434 -2.4151 0.0000 33.7154 0.0000
# 6 0.0000 0.0000 0.0000 10.1871 0.0000 15.5045
#
#
#
# Elastic Compliance Matrix: (Units=1/GPa)
#
#
# Indices 1 2 3 4 5 6 
#
# 1 0.014810 -0.005044 0.001253 0.000000 0.004093 0.000000
# 2 -0.005044 0.011934 -0.004914 0.000000 0.000237 0.000000
# 3 0.001253 -0.004914 0.023710 0.000000 0.001179 0.000000
# 4 0.000000 0.000000 0.000000 -0.074769 0.000000 0.049126
# 5 0.004093 0.000237 0.001179 0.000000 0.031162 0.000000
# 6 0.000000 0.000000 0.000000 0.049126 0.000000 0.032219
#
#
# Mechanical properties :
#
#
# Convention : Reuss Voigt Hill
#
# Bulk Modulus (GPa) = 30.26396 40.01154 35.13775
# Shear Modulus (GPa) = 74.08296 20.23422 47.15859
#
# Velocity S-wave (km/s) = 6.25008 3.26640 4.98663
# Velocity P-wave (km/s) = 8.24880 5.94338 7.18910
#
# Compressibility (1/GPa) = 0.03304260
#
# Stress axis : x y z
#
# Youngs Moduli (GPa) = 67.52174 83.79429 42.17674
#
# Poissons Ratio (x) = 0.42266 -0.05284
# Poissons Ratio (y) = 0.34058 0.20727
# Poissons Ratio (z) = -0.08459 0.41179
#
# Static dielectric constant tensor:
#      x y z
#    x 1.750600 0.000000 -0.028220 
#    y 0.000000 1.652030 0.000000 
#    z -0.028220 0.000000 1.676320 
# 
# From -- ./inp_files/38401.got.cif
#   From: 2010.05.17/outbox.cif.g08.bks.cpg/sg5_20_cif.got.tgz:38401.got - 2010.06.03 18:56:24.
