data_PCOD9123363
_publ_section_title
;
Structure prediction by ZEFSAII (Michael W. Deem and Ramdas Pophale) SiO2 
 PCOD9123363
Probable space group: C 2
;
_chemical_formula_sum "Si O2"
_cell_formula_units_Z 30
_cell_length_a 11.568888
_cell_length_b 7.638104
_cell_length_c 13.581976
_cell_angle_alpha 90.000000
_cell_angle_beta 74.288947
_cell_angle_gamma 90.000000
_cell_volume 1155.324100
_symmetry_space_group_name_H-M "C 2"
_symmetry_group_IT_number 5
_symmetry_cell_setting 'monoclinic'
loop_
_space_group_symop_operation_xyz
x,y,z
-x,y,-z
1/2+x,1/2+y,z
1/2-x,1/2+y,-z
loop_
_atom_site_type_symbol
_atom_site_label
_atom_site_fract_x
_atom_site_fract_y
_atom_site_fract_z
Si Si1 0.622795 0.736690 0.010857
Si Si2 0.361373 0.366922 0.059692
Si Si3 0.291853 0.802363 0.722497
Si Si4 0.052796 0.033351 0.226087
Si Si5 0.747580 0.444980 0.513592
Si Si6 0.176744 0.239982 0.654043
Si Si7 0.603859 0.171365 0.278718
Si Si8 0.000000 0.807728 0.500000
O O1 0.751179 0.823968 0.008101
O O2 0.587867 0.631312 0.118037
O O3 0.500000 0.833417 0.000000
O O4 0.641984 0.577273 0.931540
O O5 0.317775 0.294599 0.175007
O O6 0.500000 0.317925 0.000000
O O7 0.355613 0.616148 0.716078
O O8 0.267221 0.851605 0.615467
O O9 0.375378 0.965124 0.745661
O O10 0.929195 0.114815 0.291536
O O11 0.054815 0.823908 0.219180
O O12 0.843142 0.414652 0.403088
O O13 0.751602 0.645462 0.549105
O O14 0.613668 0.426329 0.501615
O O15 0.263856 0.246907 0.725578
O O16 0.530022 0.197408 0.396102
#
# Coordination Sequence:
#
# PCOD9123363 Si02
#       8
#     4   4   4   4   4   4   4   2
#     4  10  25  44  74 105 142 183 237 300 370 431
#     4  10  24  46  73 103 141 187 236 296 374 428
#     4  10  25  44  65 104 132 181 243 286 354 432
#     4  11  24  45  70  99 136 186 232 292 362 426
#     4  10  22  38  63  93 138 176 234 285 339 426
#     4  10  23  39  65  99 133 182 232 282 357 416
#     4  10  23  41  66  96 139 175 231 285 349 416
#     4  10  20  38  62  96 128 194 224 274 362 406
#
# _framework density 25.966740000000001
#
# number of rings (size 3 to 8) (size 9 to 14) (size 15 to 20)
#    0.000    1.867    1.333    0.000   13.067    4.267 
#    0.000    2.667    0.000    0.000    0.000    0.000 
#    0.000    0.000    0.000    0.000    0.000    0.000 
#
# Total GULP energy -83712.204875 kJ/mol
# GULP energy per Si atom -5580.813658 kJ/mol
# Density = 2.590764 g / cm^3
# Si number density = 25.966740 Si / 1000 Ang^3
#
#
#
# Elastic Constant Matrix: (Units=GPa)
#
#
# Indices 1 2 3 4 5 6 
#
# 1 175.0215 48.8509 34.8688 0.0000 5.1014 0.0000
# 2 48.8509 73.0491 -3.7737 0.0000 -4.8849 0.0000
# 3 34.8688 -3.7737 96.2475 0.0000 -13.9286 0.0000
# 4 0.0000 0.0000 0.0000 20.7579 0.0000 1.9619
# 5 5.1014 -4.8849 -13.9286 0.0000 30.6182 0.0000
# 6 0.0000 0.0000 0.0000 1.9619 0.0000 40.1884
#
#
#
# Elastic Compliance Matrix: (Units=1/GPa)
#
#
# Indices 1 2 3 4 5 6 
#
# 1 0.008267 -0.005998 -0.003820 0.000000 -0.004072 0.000000
# 2 -0.005998 0.018266 0.003699 0.000000 0.005596 0.000000
# 3 -0.003820 0.003699 0.012949 0.000000 0.007117 0.000000
# 4 0.000000 0.000000 0.000000 0.048398 0.000000 -0.002363
# 5 -0.004072 0.005596 0.007117 0.000000 0.037469 0.000000
# 6 0.000000 0.000000 0.000000 -0.002363 0.000000 0.024998
#
#
# Mechanical properties :
#
#
# Convention : Reuss Voigt Hill
#
# Bulk Modulus (GPa) = 36.70459 56.02335 46.36397
# Shear Modulus (GPa) = 29.12622 35.93773 32.53198
#
# Velocity S-wave (km/s) = 3.35277 3.72424 3.54338
# Velocity P-wave (km/s) = 5.39945 6.33365 5.88512
#
# Compressibility (1/GPa) = 0.02724455
#
# Stress axis : x y z
#
# Youngs Moduli (GPa) = 120.95565 54.74610 77.22800
#
# Poissons Ratio (x) = 0.32839 0.29498
# Poissons Ratio (y) = 0.72554 -0.28568
# Poissons Ratio (z) = 0.46201 -0.20252
#
# Static dielectric constant tensor:
#      x y z
#    x 2.211210 0.000000 0.065880 
#    y 0.000000 2.115550 0.000000 
#    z 0.065880 0.000000 2.154540 
# 
# From -- ./inp_files/52251.got.cif
#   From: 2010.05.17/outbox.cif.g08.bks.cpg/sg5_27_cif.got.tgz:52251.got - 2010.06.03 18:56:24.
