data_PCOD9123684
_publ_section_title
;
Structure prediction by ZEFSAII (Michael W. Deem and Ramdas Pophale) SiO2 
 PCOD9123684
Probable space group: C 2
;
_chemical_formula_sum "Si O2"
_cell_formula_units_Z 20
_cell_length_a 8.006047
_cell_length_b 14.340039
_cell_length_c 7.627027
_cell_angle_alpha 90.000000
_cell_angle_beta 64.873625
_cell_angle_gamma 90.000000
_cell_volume 792.777831
_symmetry_space_group_name_H-M "C 2"
_symmetry_group_IT_number 5
_symmetry_cell_setting 'monoclinic'
loop_
_space_group_symop_operation_xyz
x,y,z
-x,y,-z
1/2+x,1/2+y,z
1/2-x,1/2+y,-z
loop_
_atom_site_type_symbol
_atom_site_label
_atom_site_fract_x
_atom_site_fract_y
_atom_site_fract_z
Si Si1 0.541923 0.739950 0.171369
Si Si2 0.214444 0.748390 0.595086
Si Si3 0.061774 0.545727 0.707070
Si Si4 0.701164 0.536669 0.047210
Si Si5 0.386400 0.454388 0.386837
O O1 0.356939 0.728248 0.371191
O O2 0.681417 0.771242 0.265516
O O3 0.637114 0.643728 0.069939
O O4 0.500000 0.789287 0.000000
O O5 0.087490 0.657056 0.669616
O O6 0.113828 0.843860 0.600500
O O7 0.173290 0.524207 0.835556
O O8 0.180939 0.491845 0.509654
O O9 0.850684 0.517837 0.831070
O O10 0.512408 0.482593 0.168295
O O11 0.500000 0.497678 0.500000
#
# Coordination Sequence:
#
# PCOD9123684 Si02
#       5
#     4   4   4   4   4
#     4  10  21  42  70  97 135 185 235 282 347 411
#     4  10  21  41  71 101 143 182 227 295 344 405
#     4   9  18  38  68 100 139 180 223 281 350 411
#     4   9  18  38  68  99 135 179 228 281 344 413
#     4  10  20  39  68 102 141 181 227 288 342 412
#
# _framework density 25.227748999999999
#
# number of rings (size 3 to 8) (size 9 to 14) (size 15 to 20)
#    0.000    2.400    2.000    0.000    0.000    1.600 
#   10.800    4.000   13.200    0.000    0.000    0.000 
#    0.000    0.000    0.000    0.000    0.000    0.000 
#
# Total GULP energy -55839.208489 kJ/mol
# GULP energy per Si atom -5583.920849 kJ/mol
# Density = 2.517033 g / cm^3
# Si number density = 25.227749 Si / 1000 Ang^3
#
#
#
# Elastic Constant Matrix: (Units=GPa)
#
#
# Indices 1 2 3 4 5 6 
#
# 1 127.7528 6.2616 101.3928 0.0000 -1.1544 0.0000
# 2 6.2616 90.6861 47.5216 0.0000 -26.8194 0.0000
# 3 101.3928 47.5216 229.8886 0.0000 -1.0567 0.0000
# 4 0.0000 0.0000 0.0000 13.6993 0.0000 0.8206
# 5 -1.1544 -26.8194 -1.0567 0.0000 72.3457 0.0000
# 6 0.0000 0.0000 0.0000 0.8206 0.0000 14.7782
#
#
#
# Elastic Compliance Matrix: (Units=1/GPa)
#
#
# Indices 1 2 3 4 5 6 
#
# 1 0.012518 0.002633 -0.006061 0.000000 0.001087 0.000000
# 2 0.002633 0.014622 -0.004159 0.000000 0.005402 0.000000
# 3 -0.006061 -0.004159 0.007876 0.000000 -0.001524 0.000000
# 4 0.000000 0.000000 0.000000 0.073240 0.000000 -0.004067
# 5 0.001087 0.005402 -0.001524 0.000000 0.015820 0.000000
# 6 0.000000 0.000000 0.000000 -0.004067 0.000000 0.067893
#
#
# Mechanical properties :
#
#
# Convention : Reuss Voigt Hill
#
# Bulk Modulus (GPa) = 50.39516 84.29771 67.34643
# Shear Modulus (GPa) = 23.39101 39.70808 31.54954
#
# Velocity S-wave (km/s) = 3.04829 3.97165 3.54020
# Velocity P-wave (km/s) = 5.69288 7.38371 6.59273
#
# Compressibility (1/GPa) = 0.01984318
#
# Stress axis : x y z
#
# Youngs Moduli (GPa) = 79.88197 68.38876 126.97231
#
# Poissons Ratio (x) = -0.18007 0.76953
# Poissons Ratio (y) = -0.21034 0.52810
# Poissons Ratio (z) = 0.48413 0.28444
#
# Static dielectric constant tensor:
#      x y z
#    x 2.173760 0.000000 0.171370 
#    y 0.000000 1.926830 0.000000 
#    z 0.171370 0.000000 2.049490 
# 
# From -- ./inp_files/15992.got.cif
#   From: 2010.05.17/outbox.cif.g08.bks.cpg/sg5_8_cif.got.tgz:15992.got - 2010.06.03 18:56:24.
