data_PCOD9123651
_publ_section_title
;
Structure prediction by ZEFSAII (Michael W. Deem and Ramdas Pophale) SiO2 
 PCOD9123651
Probable space group: C 2
;
_chemical_formula_sum "Si O2"
_cell_formula_units_Z 16
_cell_length_a 8.695846
_cell_length_b 11.733127
_cell_length_c 7.701066
_cell_angle_alpha 90.000000
_cell_angle_beta 127.309131
_cell_angle_gamma 90.000000
_cell_volume 624.955981
_symmetry_space_group_name_H-M "C 2"
_symmetry_group_IT_number 5
_symmetry_cell_setting 'monoclinic'
loop_
_space_group_symop_operation_xyz
x,y,z
-x,y,-z
1/2+x,1/2+y,z
1/2-x,1/2+y,-z
loop_
_atom_site_type_symbol
_atom_site_label
_atom_site_fract_x
_atom_site_fract_y
_atom_site_fract_z
Si Si1 0.088579 0.299420 0.244323
Si Si2 0.401894 0.296410 0.713889
Si Si3 0.246377 0.166574 0.926909
Si Si4 0.344933 0.982988 0.274168
O O1 0.305707 0.296067 0.459149
O O2 0.983256 0.381970 0.305691
O O3 0.982564 0.179933 0.207337
O O4 0.000000 0.334590 0.000000
O O5 0.627452 0.266457 0.888434
O O6 0.331895 0.416595 0.752367
O O7 0.308211 0.193809 0.771002
O O8 0.295454 0.055325 0.069952
O O9 0.500000 0.051547 0.500000
#
# Coordination Sequence:
#
# PCOD9123651 Si02
#       4
#     4   4   4   4
#     4  10  22  39  59  90 125 153 202 256 298 362
#     4   9  21  41  61  86 124 160 196 253 303 357
#     4  10  20  39  66  83 118 165 200 244 311 352
#     4   9  20  39  62  87 123 157 202 251 301 361
#
# _framework density 25.601804000000001
#
# number of rings (size 3 to 8) (size 9 to 14) (size 15 to 20)
#    0.000    2.500    0.000    2.250    7.000    0.000 
#    9.000    0.000   16.500    0.000    0.000    0.000 
#    0.000    0.000    0.000    0.000    0.000    0.000 
#
# Total GULP energy -44558.207070 kJ/mol
# GULP energy per Si atom -5569.775884 kJ/mol
# Density = 2.554353 g / cm^3
# Si number density = 25.601804 Si / 1000 Ang^3
#
#
#
# Elastic Constant Matrix: (Units=GPa)
#
#
# Indices 1 2 3 4 5 6 
#
# 1 66.6681 19.2583 34.6390 0.0000 12.5463 0.0000
# 2 19.2583 96.1714 10.4574 0.0000 4.4809 0.0000
# 3 34.6390 10.4574 193.8110 0.0000 -2.0035 0.0000
# 4 0.0000 0.0000 0.0000 27.7837 0.0000 0.0103
# 5 12.5463 4.4809 -2.0035 0.0000 51.3013 0.0000
# 6 0.0000 0.0000 0.0000 0.0103 0.0000 20.9013
#
#
#
# Elastic Compliance Matrix: (Units=1/GPa)
#
#
# Indices 1 2 3 4 5 6 
#
# 1 0.018362 -0.003131 -0.003158 0.000000 -0.004340 0.000000
# 2 -0.003131 0.011039 -0.000038 0.000000 -0.000200 0.000000
# 3 -0.003158 -0.000038 0.005736 0.000000 0.001000 0.000000
# 4 0.000000 0.000000 0.000000 0.035992 0.000000 -0.000018
# 5 -0.004340 -0.000200 0.001000 0.000000 0.020611 0.000000
# 6 0.000000 0.000000 0.000000 -0.000018 0.000000 0.047844
#
#
# Mechanical properties :
#
#
# Convention : Reuss Voigt Hill
#
# Bulk Modulus (GPa) = 44.47865 53.92889 49.20377
# Shear Modulus (GPa) = 31.30245 39.48363 35.39304
#
# Velocity S-wave (km/s) = 3.50046 3.93137 3.72216
# Velocity P-wave (km/s) = 5.80935 6.45893 6.14273
#
# Compressibility (1/GPa) = 0.02248270
#
# Stress axis : x y z
#
# Youngs Moduli (GPa) = 54.46128 90.59119 174.32541
#
# Poissons Ratio (x) = 0.28367 0.55045
# Poissons Ratio (y) = 0.17054 0.00663
# Poissons Ratio (z) = 0.17197 0.00344
#
# Static dielectric constant tensor:
#      x y z
#    x 2.064630 0.000000 -0.007640 
#    y 0.000000 2.024020 0.000000 
#    z -0.007640 0.000000 2.158140 
# 
# From -- ./inp_files/14149.got.cif
#   From: 2010.05.17/outbox.cif.g08.bks.cpg/sg5_8_cif.got.tgz:14149.got - 2010.06.03 18:56:24.
