data_PCOD9123711
_publ_section_title
;
Structure prediction by ZEFSAII (Michael W. Deem and Ramdas Pophale) SiO2 
 PCOD9123711
Probable space group: C 2
;
_chemical_formula_sum "Si O2"
_cell_formula_units_Z 30
_cell_length_a 15.842237
_cell_length_b 5.889613
_cell_length_c 14.492266
_cell_angle_alpha 90.000000
_cell_angle_beta 103.081017
_cell_angle_gamma 90.000000
_cell_volume 1317.107616
_symmetry_space_group_name_H-M "C 2"
_symmetry_group_IT_number 5
_symmetry_cell_setting 'monoclinic'
loop_
_space_group_symop_operation_xyz
x,y,z
-x,y,-z
1/2+x,1/2+y,z
1/2-x,1/2+y,-z
loop_
_atom_site_type_symbol
_atom_site_label
_atom_site_fract_x
_atom_site_fract_y
_atom_site_fract_z
Si Si1 0.424417 0.344080 0.200319
Si Si2 0.573416 0.564077 0.140582
Si Si3 0.649068 0.094627 0.666357
Si Si4 0.212136 0.212463 0.814723
Si Si5 0.155569 0.754516 0.009612
Si Si6 0.699788 0.949445 0.486584
Si Si7 0.311736 0.891158 0.713843
Si Si8 0.500000 0.914276 0.000000
O O1 0.516371 0.372099 0.174879
O O2 0.429308 0.191725 0.292652
O O3 0.378326 0.580111 0.214869
O O4 0.357304 0.265361 0.103278
O O5 0.620410 0.468120 0.061153
O O6 0.635858 0.689541 0.226356
O O7 0.506149 0.753918 0.089878
O O8 0.714493 0.304336 0.667859
O O9 0.697308 0.935529 0.752114
O O10 0.643195 0.977283 0.565788
O O11 0.247294 0.227505 0.928059
O O12 0.291892 0.086234 0.782482
O O13 0.087089 0.559359 0.019147
O O14 0.742895 0.690408 0.503616
O O15 0.651161 0.955145 0.376360
#
# Coordination Sequence:
#
# PCOD9123711 Si02
#       8
#     4   4   4   4   4   4   4   2
#     4  11  26  37  58  98 134 175 210 275 339 402
#     4  12  23  41  62  94 130 175 230 263 328 409
#     4  10  22  40  62  97 132 165 217 278 345 398
#     4  11  23  38  60  93 128 163 215 270 331 388
#     4  12  24  39  60  92 128 176 222 261 319 406
#     4  10  20  39  71 104 131 168 229 291 348 401
#     4  10  21  39  66 100 120 169 226 283 321 406
#     4  12  22  38  62  84 130 174 226 266 318 388
#
# _framework density 22.777182
#
# number of rings (size 3 to 8) (size 9 to 14) (size 15 to 20)
#    0.000    1.067    6.667    0.000    3.733    0.000 
#    0.000    0.000    0.000    0.800   10.400    0.000 
#    0.000    0.000    0.000    0.000    0.000    0.000 
#
# Total GULP energy -83633.519370 kJ/mol
# GULP energy per Si atom -5575.567958 kJ/mol
# Density = 2.272534 g / cm^3
# Si number density = 22.777182 Si / 1000 Ang^3
#
#
#
# Elastic Constant Matrix: (Units=GPa)
#
#
# Indices 1 2 3 4 5 6 
#
# 1 37.4319 13.9015 15.8600 0.0000 -12.5103 0.0000
# 2 13.9015 64.8436 17.1704 0.0000 -13.3300 0.0000
# 3 15.8600 17.1704 99.9275 0.0000 -38.0334 0.0000
# 4 0.0000 0.0000 0.0000 36.9555 0.0000 -4.4700
# 5 -12.5103 -13.3300 -38.0334 0.0000 28.9274 0.0000
# 6 0.0000 0.0000 0.0000 -4.4700 0.0000 26.1703
#
#
#
# Elastic Compliance Matrix: (Units=1/GPa)
#
#
# Indices 1 2 3 4 5 6 
#
# 1 0.032375 -0.004485 0.000350 0.000000 0.012394 0.000000
# 2 -0.004485 0.017658 0.000073 0.000000 0.006293 0.000000
# 3 0.000350 0.000073 0.020036 0.000000 0.026528 0.000000
# 4 0.000000 0.000000 0.000000 0.027630 0.000000 0.004719
# 5 0.012394 0.006293 0.026528 0.000000 0.077708 0.000000
# 6 0.000000 0.000000 0.000000 0.004719 0.000000 0.039017
#
#
# Mechanical properties :
#
#
# Convention : Reuss Voigt Hill
#
# Bulk Modulus (GPa) = 16.14384 32.89633 24.52008
# Shear Modulus (GPa) = 20.55937 28.76204 24.66070
#
# Velocity S-wave (km/s) = 3.00764 3.55738 3.29400
# Velocity P-wave (km/s) = 4.37771 5.59887 5.02552
#
# Compressibility (1/GPa) = 0.06194311
#
# Stress axis : x y z
#
# Youngs Moduli (GPa) = 30.88785 56.63268 49.90999
#
# Poissons Ratio (x) = 0.25403 -0.01745
# Poissons Ratio (y) = 0.13855 -0.00364
# Poissons Ratio (z) = -0.01080 -0.00413
#
# Static dielectric constant tensor:
#      x y z
#    x 1.887530 0.000000 -0.032020 
#    y 0.000000 1.950810 0.000000 
#    z -0.032020 0.000000 1.863510 
# 
# From -- ./inp_files/55307.got.cif
#   From: 2010.05.17/outbox.cif.g08.bks.cpg/sg5_28_cif.got.tgz:55307.got - 2010.06.03 18:56:24.
