data_PCOD9123988
_publ_section_title
;
Structure prediction by ZEFSAII (Michael W. Deem and Ramdas Pophale) SiO2 
 PCOD9123988
Probable space group: C 2
;
_chemical_formula_sum "Si O2"
_cell_formula_units_Z 32
_cell_length_a 17.884593
_cell_length_b 5.765526
_cell_length_c 29.141254
_cell_angle_alpha 90.000000
_cell_angle_beta 29.218459
_cell_angle_gamma 90.000000
_cell_volume 1466.801676
_symmetry_space_group_name_H-M "C 2"
_symmetry_group_IT_number 5
_symmetry_cell_setting 'monoclinic'
loop_
_space_group_symop_operation_xyz
x,y,z
-x,y,-z
1/2+x,1/2+y,z
1/2-x,1/2+y,-z
loop_
_atom_site_type_symbol
_atom_site_label
_atom_site_fract_x
_atom_site_fract_y
_atom_site_fract_z
Si Si1 0.816814 0.093170 0.243386
Si Si2 0.692768 0.822617 0.838348
Si Si3 0.408683 0.711923 0.679607
Si Si4 0.162071 0.575529 0.039837
Si Si5 0.421909 0.213261 0.243691
Si Si6 0.639316 0.175779 0.946711
Si Si7 0.587370 0.956859 0.234628
Si Si8 0.897401 0.980105 0.598548
O O1 0.898799 0.217324 0.156142
O O2 0.692451 0.257864 0.333817
O O3 0.717357 0.889765 0.272919
O O4 0.923487 0.979217 0.225120
O O5 0.785083 0.612571 0.810043
O O6 0.812392 0.998775 0.751064
O O7 0.637216 0.966073 0.911491
O O8 0.488368 0.607327 0.591514
O O9 0.490471 0.825672 0.680165
O O10 0.021132 0.584048 0.151295
O O11 0.247915 0.324358 0.998417
O O12 0.111764 0.608742 0.013883
O O13 0.489594 0.126592 0.255301
O O14 0.244191 0.143733 0.339950
O O15 0.808760 0.284253 0.851511
O O16 0.500000 0.330578 0.000000
O O17 0.000000 0.927462 0.500000
#
# Coordination Sequence:
#
# PCOD9123988 Si02
#       8
#     4   4   4   4   4   4   4   4
#     4   9  20  36  63  93 126 171 225 282 351 410
#     4   9  19  37  60  85 127 173 229 285 338 414
#     4   8  18  37  64  90 126 163 213 276 345 417
#     4  12  28  47  66 103 153 194 247 301 363 432
#     4  11  24  40  69  98 138 185 228 292 356 427
#     4  11  25  37  61  95 133 186 241 294 347 421
#     4  10  20  41  61  93 129 179 224 280 349 421
#     4  10  22  41  69 102 129 170 231 295 359 426
#
# _framework density 21.816174
#
# number of rings (size 3 to 8) (size 9 to 14) (size 15 to 20)
#    0.000    2.000    1.250    0.750   12.250    4.500 
#    0.000    0.000    8.250    0.000    0.000    0.000 
#    0.000    0.000    0.000    0.000    0.000    0.000 
#
# Total GULP energy -89113.801745 kJ/mol
# GULP energy per Si atom -5569.612609 kJ/mol
# Density = 2.176652 g / cm^3
# Si number density = 21.816174 Si / 1000 Ang^3
#
#
#
# Elastic Constant Matrix: (Units=GPa)
#
#
# Indices 1 2 3 4 5 6 
#
# 1 163.1512 40.0766 34.8335 0.0860 24.6205 0.0762
# 2 40.0766 70.1956 11.5266 -0.3230 5.8861 -0.2124
# 3 34.8335 11.5266 66.9541 -0.0060 23.7581 0.0234
# 4 0.0860 -0.3230 -0.0060 10.8223 0.0093 -6.1532
# 5 24.6205 5.8861 23.7581 0.0093 30.3081 0.0039
# 6 0.0762 -0.2124 0.0234 -6.1532 0.0039 40.7964
#
#
#
# Elastic Compliance Matrix: (Units=1/GPa)
#
#
# Indices 1 2 3 4 5 6 
#
# 1 0.008191 -0.003982 -0.002063 -0.000220 -0.004263 -0.000068
# 2 -0.003982 0.016630 -0.001099 0.000635 0.000866 0.000190
# 3 -0.002063 -0.001099 0.021511 0.000001 -0.014973 -0.000013
# 4 -0.000220 0.000635 0.000001 0.101094 0.000021 0.015251
# 5 -0.004263 0.000866 -0.014973 0.000021 0.048027 0.000020
# 6 -0.000068 0.000190 -0.000013 0.015251 0.000020 0.026813
#
#
# Mechanical properties :
#
#
# Convention : Reuss Voigt Hill
#
# Bulk Modulus (GPa) = 31.20550 52.57491 41.89021
# Shear Modulus (GPa) = 20.22356 30.64297 25.43327
#
# Velocity S-wave (km/s) = 3.04797 3.75186 3.41808
# Velocity P-wave (km/s) = 5.16930 6.55134 5.90092
#
# Compressibility (1/GPa) = 0.03204563
#
# Stress axis : x y z
#
# Youngs Moduli (GPa) = 122.07964 60.13072 46.48732
#
# Poissons Ratio (x) = 0.23942 0.09592
# Poissons Ratio (y) = 0.48607 0.05108
# Poissons Ratio (z) = 0.25189 0.06607
#
# Static dielectric constant tensor:
#      x y z
#    x 1.862640 -0.000130 -0.048010 
#    y -0.000130 1.921220 0.000550 
#    z -0.048010 0.000550 2.054050 
# 
# From -- ./inp_files/63755.got.cif
#   From: 2010.05.17/outbox.cif.g08.bks.cpg/sg5_32_cif.got.tgz:63755.got - 2010.06.03 18:56:24.
