data_PCOD9123615
_publ_section_title
;
Structure prediction by ZEFSAII (Michael W. Deem and Ramdas Pophale) SiO2 
 PCOD9123615
Probable space group: C 2
;
_chemical_formula_sum "Si O2"
_cell_formula_units_Z 28
_cell_length_a 19.906994
_cell_length_b 12.207577
_cell_length_c 5.503164
_cell_angle_alpha 90.000000
_cell_angle_beta 106.162528
_cell_angle_gamma 90.000000
_cell_volume 1284.499989
_symmetry_space_group_name_H-M "C 2"
_symmetry_group_IT_number 5
_symmetry_cell_setting 'monoclinic'
loop_
_space_group_symop_operation_xyz
x,y,z
-x,y,-z
1/2+x,1/2+y,z
1/2-x,1/2+y,-z
loop_
_atom_site_type_symbol
_atom_site_label
_atom_site_fract_x
_atom_site_fract_y
_atom_site_fract_z
Si Si1 0.653600 0.543250 0.109052
Si Si2 0.874377 0.735899 0.429241
Si Si3 0.919883 0.978208 0.474989
Si Si4 0.706119 0.907542 0.635681
Si Si5 0.841409 0.551648 0.796627
Si Si6 0.567917 0.024632 0.716782
Si Si7 0.255863 0.710426 0.013095
O O1 0.607933 0.536892 0.308590
O O2 0.721585 0.468460 0.228989
O O3 0.619351 0.505133 0.819139
O O4 0.682254 0.665000 0.089601
O O5 0.910731 0.849014 0.527606
O O6 0.853746 0.652986 0.624714
O O7 0.922390 0.655173 0.318288
O O8 0.804108 0.764949 0.210932
O O9 0.000000 0.003694 0.500000
O O10 0.716285 0.786257 0.743908
O O11 0.692451 0.942265 0.345553
O O12 0.636328 0.960348 0.685303
O O13 0.785013 0.605349 0.919445
O O14 0.916663 0.518503 0.981702
O O15 0.500000 0.988953 0.500000
#
# Coordination Sequence:
#
# PCOD9123615 Si02
#       7
#     4   4   4   4   4   4   4
#     4  12  24  45  70 101 148 187 245 301 354 439
#     4  10  21  38  68  99 142 184 235 300 364 432
#     4  12  27  46  69 105 147 194 240 298 373 436
#     4  11  22  39  68 103 140 191 242 297 360 430
#     4  10  20  39  64 102 144 189 240 292 375 424
#     4  10  22  40  61 101 148 182 236 302 367 433
#     4  11  22  40  66 107 136 187 247 303 355 422
#
# _framework density 21.798366999999999
#
# number of rings (size 3 to 8) (size 9 to 14) (size 15 to 20)
#    0.000    1.143    5.714    2.571    2.000    3.429 
#    2.571    0.714    0.000    0.000    0.000    0.000 
#    0.000    0.000    0.000    0.000    0.000    0.000 
#
# Total GULP energy -78092.475722 kJ/mol
# GULP energy per Si atom -5578.033980 kJ/mol
# Density = 2.174875 g / cm^3
# Si number density = 21.798367 Si / 1000 Ang^3
#
#
#
# Elastic Constant Matrix: (Units=GPa)
#
#
# Indices 1 2 3 4 5 6 
#
# 1 115.7293 44.5476 68.8676 0.0000 13.9554 0.0000
# 2 44.5476 57.7771 33.5950 0.0000 5.8893 0.0000
# 3 68.8676 33.5950 138.0591 0.0000 14.8658 0.0000
# 4 0.0000 0.0000 0.0000 27.4825 0.0000 3.7854
# 5 13.9554 5.8893 14.8658 0.0000 41.3102 0.0000
# 6 0.0000 0.0000 0.0000 3.7854 0.0000 16.8847
#
#
#
# Elastic Compliance Matrix: (Units=1/GPa)
#
#
# Indices 1 2 3 4 5 6 
#
# 1 0.015359 -0.008512 -0.005371 0.000000 -0.002043 0.000000
# 2 -0.008512 0.024930 -0.001818 0.000000 -0.000025 0.000000
# 3 -0.005371 -0.001818 0.010550 0.000000 -0.001723 0.000000
# 4 0.000000 0.000000 0.000000 0.037546 0.000000 -0.008418
# 5 -0.002043 -0.000025 -0.001723 0.000000 0.025521 0.000000
# 6 0.000000 0.000000 0.000000 -0.008418 0.000000 0.061112
#
#
# Mechanical properties :
#
#
# Convention : Reuss Voigt Hill
#
# Bulk Modulus (GPa) = 51.44171 67.28733 59.36452
# Shear Modulus (GPa) = 23.48532 28.10582 25.79557
#
# Velocity S-wave (km/s) = 3.28592 3.59465 3.44375
# Velocity P-wave (km/s) = 6.16818 6.94001 6.56545
#
# Compressibility (1/GPa) = 0.01943948
#
# Stress axis : x y z
#
# Youngs Moduli (GPa) = 65.10680 40.11218 94.78504
#
# Poissons Ratio (x) = 0.34141 0.50905
# Poissons Ratio (y) = 0.55416 0.17232
# Poissons Ratio (z) = 0.34966 0.07292
#
# Static dielectric constant tensor:
#      x y z
#    x 1.836380 0.000000 -0.064680 
#    y 0.000000 1.771480 0.000000 
#    z -0.064680 0.000000 1.981810 
# 
# From -- ./inp_files/9602.got.cif
#   From: 2010.05.17/outbox.cif.g08.bks.cpg/sg5_5_cif.got.tgz:9602.got - 2010.06.03 18:56:24.
