data_PCOD9123558
_publ_section_title
;
Structure prediction by ZEFSAII (Michael W. Deem and Ramdas Pophale) SiO2 
 PCOD9123558
Probable space group: C 2
;
_chemical_formula_sum "Si O2"
_cell_formula_units_Z 30
_cell_length_a 25.134004
_cell_length_b 7.991236
_cell_length_c 15.901207
_cell_angle_alpha 90.000000
_cell_angle_beta 20.970507
_cell_angle_gamma 90.000000
_cell_volume 1143.015357
_symmetry_space_group_name_H-M "C 2"
_symmetry_group_IT_number 5
_symmetry_cell_setting 'monoclinic'
loop_
_space_group_symop_operation_xyz
x,y,z
-x,y,-z
1/2+x,1/2+y,z
1/2-x,1/2+y,-z
loop_
_atom_site_type_symbol
_atom_site_label
_atom_site_fract_x
_atom_site_fract_y
_atom_site_fract_z
Si Si1 0.164404 0.944640 0.534746
Si Si2 0.289981 0.726910 0.841615
Si Si3 0.849436 0.787166 0.268976
Si Si4 0.077680 0.485483 0.230046
Si Si5 0.165034 0.121774 0.794018
Si Si6 0.210470 0.279947 0.898088
Si Si7 0.000000 0.621931 0.500000
Si Si8 0.421780 0.565349 0.507356
O O1 0.107978 0.871028 0.705250
O O2 0.252238 0.783349 0.367481
O O3 0.259795 0.114198 0.411374
O O4 0.058017 0.012209 0.618264
O O5 0.321646 0.894977 0.845388
O O6 0.334106 0.724800 0.678141
O O7 0.414340 0.596961 0.696886
O O8 0.135328 0.646019 0.093764
O O9 0.773586 0.940851 0.328261
O O10 0.000000 0.739352 0.000000
O O11 0.953391 0.546909 0.478124
O O12 0.083166 0.348992 0.147784
O O13 0.152620 0.157122 0.911947
O O14 0.000000 0.124606 0.000000
O O15 0.302575 0.427871 0.715428
O O16 0.349182 0.215253 0.748340
#
# Coordination Sequence:
#
# PCOD9123558 Si02
#       8
#     4   4   4   4   4   4   2   4
#     4  11  22  46  68  98 135 175 225 284 336 401
#     4  10  20  39  59  92 130 168 214 267 324 395
#     4  11  24  43  70  99 131 174 227 276 338 403
#     4  11  22  38  62  94 133 172 216 269 327 389
#     4  10  23  45  70 100 137 181 227 282 342 404
#     4  10  22  43  64  98 135 175 216 279 333 389
#     4  12  22  40  68  98 132 170 232 262 328 412
#     4   9  21  39  66  87 130 173 213 268 338 387
#
# _framework density 26.246366999999999
#
# number of rings (size 3 to 8) (size 9 to 14) (size 15 to 20)
#    0.000    1.600    2.667    2.800    0.000    4.267 
#    4.800    2.667    0.000    0.000    0.000    0.000 
#    0.000    0.000    0.000    0.000    0.000    0.000 
#
# Total GULP energy -83603.676432 kJ/mol
# GULP energy per Si atom -5573.578429 kJ/mol
# Density = 2.618663 g / cm^3
# Si number density = 26.246367 Si / 1000 Ang^3
#
#
#
# Elastic Constant Matrix: (Units=GPa)
#
#
# Indices 1 2 3 4 5 6 
#
# 1 87.2607 -17.8683 28.4211 0.0000 26.7338 0.0000
# 2 -17.8683 73.2598 5.1046 0.0000 -7.6350 0.0000
# 3 28.4211 5.1046 76.7814 0.0000 18.5713 0.0000
# 4 0.0000 0.0000 0.0000 43.8795 0.0000 0.2100
# 5 26.7338 -7.6350 18.5713 0.0000 44.7076 0.0000
# 6 0.0000 0.0000 0.0000 0.2100 0.0000 25.7996
#
#
#
# Elastic Compliance Matrix: (Units=1/GPa)
#
#
# Indices 1 2 3 4 5 6 
#
# 1 0.015723 0.003407 -0.004350 0.000000 -0.007013 0.000000
# 2 0.003407 0.014830 -0.002631 0.000000 0.001588 0.000000
# 3 -0.004350 -0.002631 0.015885 0.000000 -0.004446 0.000000
# 4 0.000000 0.000000 0.000000 0.022791 0.000000 -0.000186
# 5 -0.007013 0.001588 -0.004446 0.000000 0.028679 0.000000
# 6 0.000000 0.000000 0.000000 -0.000186 0.000000 0.038762
#
#
# Mechanical properties :
#
#
# Convention : Reuss Voigt Hill
#
# Bulk Modulus (GPa) = 25.45250 29.84630 27.64940
# Shear Modulus (GPa) = 31.86454 37.65365 34.75909
#
# Velocity S-wave (km/s) = 3.48811 3.79175 3.64310
# Velocity P-wave (km/s) = 5.09324 5.52866 5.31541
#
# Compressibility (1/GPa) = 0.03928887
#
# Stress axis : x y z
#
# Youngs Moduli (GPa) = 63.60111 67.43124 62.95386
#
# Poissons Ratio (x) = -0.22975 0.27386
# Poissons Ratio (y) = -0.21670 0.16565
# Poissons Ratio (z) = 0.27668 0.17743
#
# Static dielectric constant tensor:
#      x y z
#    x 2.203580 0.000000 0.015650 
#    y 0.000000 2.218100 0.000000 
#    z 0.015650 0.000000 2.109460 
# 
# From -- ./inp_files/57604.got.cif
#   From: 2010.05.17/outbox.cif.g08.bks.cpg/sg5_29_cif.got.tgz:57604.got - 2010.06.03 18:56:24.
