data_PCOD9123253
_publ_section_title
;
Structure prediction by ZEFSAII (Michael W. Deem and Ramdas Pophale) SiO2 
 PCOD9123253
Probable space group: C 2
;
_chemical_formula_sum "Si O2"
_cell_formula_units_Z 30
_cell_length_a 17.546525
_cell_length_b 9.240001
_cell_length_c 19.185730
_cell_angle_alpha 90.000000
_cell_angle_beta 150.721248
_cell_angle_gamma 90.000000
_cell_volume 1521.257504
_symmetry_space_group_name_H-M "C 2"
_symmetry_group_IT_number 5
_symmetry_cell_setting 'monoclinic'
loop_
_space_group_symop_operation_xyz
x,y,z
-x,y,-z
1/2+x,1/2+y,z
1/2-x,1/2+y,-z
loop_
_atom_site_type_symbol
_atom_site_label
_atom_site_fract_x
_atom_site_fract_y
_atom_site_fract_z
Si Si1 0.588409 0.507450 0.505107
Si Si2 0.694398 0.453197 0.381008
Si Si3 0.222522 0.132597 0.806435
Si Si4 0.500000 0.908719 0.000000
Si Si5 0.335648 0.524493 0.095613
Si Si6 0.683986 0.800262 0.649053
Si Si7 0.416697 0.778511 0.080770
Si Si8 0.209637 0.278785 0.416325
O O1 0.500000 0.437169 0.500000
O O2 0.450889 0.577972 0.350588
O O3 0.689767 0.639801 0.617481
O O4 0.680058 0.390229 0.535684
O O5 0.509134 0.461233 0.247186
O O6 0.722626 0.411286 0.323526
O O7 0.783402 0.335500 0.499247
O O8 0.758851 0.611812 0.451002
O O9 0.220391 0.135591 0.887992
O O10 0.241712 0.274236 0.773859
O O11 0.349495 0.014157 0.883260
O O12 0.488084 0.815981 0.061852
O O13 0.345900 0.617893 0.033327
O O14 0.213825 0.395783 0.004819
O O15 0.500000 0.837972 0.500000
O O16 0.548319 0.786350 0.245623
#
# Coordination Sequence:
#
# PCOD9123253 Si02
#       8
#     4   4   4   2   4   4   4   4
#     4   9  17  33  58  82 116 154 197 240 291 351
#     4  11  23  37  62  91 124 156 201 248 303 352
#     4   9  18  36  60  83 113 162 200 232 292 358
#     4  10  20  38  58  86 118 160 202 242 292 362
#     4  10  22  41  62  87 118 161 199 250 293 360
#     4   9  20  35  61  86 119 154 194 248 296 357
#     4  10  23  39  61  85 120 154 204 246 299 351
#     4  11  22  37  59  90 123 159 199 250 297 359
#
# _framework density 19.720527000000001
#
# number of rings (size 3 to 8) (size 9 to 14) (size 15 to 20)
#    0.000    2.400    1.333    2.400    5.600    4.800 
#    0.000    2.667    0.000    0.000    0.000    0.000 
#    0.000    0.000    0.000    0.000    0.000    0.000 
#
# Total GULP energy -83615.345975 kJ/mol
# GULP energy per Si atom -5574.356398 kJ/mol
# Density = 1.967564 g / cm^3
# Si number density = 19.720527 Si / 1000 Ang^3
#
#
#
# Elastic Constant Matrix: (Units=GPa)
#
#
# Indices 1 2 3 4 5 6 
#
# 1 96.1858 29.0641 17.9877 0.0000 2.8615 0.0000
# 2 29.0641 62.8482 20.9668 0.0001 5.9119 0.0000
# 3 17.9877 20.9668 33.5301 0.0001 -6.1516 0.0000
# 4 0.0000 0.0001 0.0001 15.7325 0.0001 -4.9335
# 5 2.8615 5.9119 -6.1516 0.0001 19.7084 0.0000
# 6 0.0000 0.0000 0.0000 -4.9335 0.0000 47.2569
#
#
#
# Elastic Compliance Matrix: (Units=1/GPa)
#
#
# Indices 1 2 3 4 5 6 
#
# 1 0.012543 -0.004099 -0.004534 0.000000 -0.002007 0.000000
# 2 -0.004099 0.023755 -0.014695 0.000000 -0.011117 0.000000
# 3 -0.004534 -0.014695 0.044948 0.000000 0.019096 0.000000
# 4 0.000000 0.000000 0.000000 0.065714 0.000000 0.006860
# 5 -0.002007 -0.011117 0.019096 0.000000 0.060326 0.000000
# 6 0.000000 0.000000 0.000000 0.006860 0.000000 0.021877
#
#
# Mechanical properties :
#
#
# Convention : Reuss Voigt Hill
#
# Bulk Modulus (GPa) = 28.90938 36.51126 32.71032
# Shear Modulus (GPa) = 17.40040 24.84259 21.12150
#
# Velocity S-wave (km/s) = 2.97366 3.55312 3.27623
# Velocity P-wave (km/s) = 5.14602 5.94873 5.56188
#
# Compressibility (1/GPa) = 0.03459084
#
# Stress axis : x y z
#
# Youngs Moduli (GPa) = 79.72771 42.09606 22.24771
#
# Poissons Ratio (x) = 0.17256 0.10086
# Poissons Ratio (y) = 0.32682 0.32693
# Poissons Ratio (z) = 0.36145 0.61860
#
# Static dielectric constant tensor:
#      x y z
#    x 1.755200 0.000000 -0.036410 
#    y 0.000000 1.685890 0.000000 
#    z -0.036410 0.000000 1.702940 
# 
# From -- ./inp_files/66610.got.cif
#   From: 2010.05.17/outbox.cif.g08.bks.cpg/sg5_34_cif.got.tgz:66610.got - 2010.06.03 18:56:24.
