data_PCOD9123963
_publ_section_title
;
Structure prediction by ZEFSAII (Michael W. Deem and Ramdas Pophale) SiO2 
 PCOD9123963
Probable space group: C 2
;
_chemical_formula_sum "Si O2"
_cell_formula_units_Z 26
_cell_length_a 11.556918
_cell_length_b 19.499776
_cell_length_c 8.458826
_cell_angle_alpha 90.000000
_cell_angle_beta 140.192072
_cell_angle_gamma 90.000000
_cell_volume 1220.417060
_symmetry_space_group_name_H-M "C 2"
_symmetry_group_IT_number 5
_symmetry_cell_setting 'monoclinic'
loop_
_space_group_symop_operation_xyz
x,y,z
-x,y,-z
1/2+x,1/2+y,z
1/2-x,1/2+y,-z
loop_
_atom_site_type_symbol
_atom_site_label
_atom_site_fract_x
_atom_site_fract_y
_atom_site_fract_z
Si Si1 0.352164 0.888110 0.566626
Si Si2 0.970666 0.975189 0.783219
Si Si3 0.255606 0.857487 0.100857
Si Si4 0.500000 0.687775 0.000000
Si Si5 0.167007 0.771945 0.578219
Si Si6 0.591735 0.206156 0.925964
Si Si7 0.426920 0.615192 0.248057
O O1 0.304206 0.870124 0.335068
O O2 0.568056 0.882911 0.809310
O O3 0.265747 0.829441 0.582070
O O4 0.238913 0.957869 0.473847
O O5 0.048089 0.034628 0.754847
O O6 0.085328 0.905333 0.883398
O O7 0.000000 0.994199 0.000000
O O8 0.204861 0.777681 0.036694
O O9 0.677286 0.733921 0.163032
O O10 0.519805 0.647823 0.187775
O O11 0.000000 0.802562 0.500000
O O12 0.068294 0.715580 0.366609
O O13 0.500000 0.201428 0.000000
O O14 0.722632 0.142836 0.031255
O O15 0.500000 0.634879 0.500000
#
# Coordination Sequence:
#
# PCOD9123963 Si02
#       7
#     4   4   4   2   4   4   4
#     4  10  21  38  71 103 135 182 231 292 361 413
#     4  10  21  46  68  98 143 188 234 295 356 419
#     4  10  20  40  73 106 134 178 241 294 354 422
#     4  12  26  48  68 104 146 186 238 294 358 428
#     4  12  24  41  67 102 141 181 226 298 359 412
#     4  12  22  44  72 107 141 181 243 299 357 429
#     4  12  27  46  72 102 147 196 238 291 358 426
#
# _framework density 21.304190999999999
#
# number of rings (size 3 to 8) (size 9 to 14) (size 15 to 20)
#    0.000    0.923    5.385    2.308    2.154    0.615 
#    5.538    1.538    0.000    0.000    0.000    0.000 
#    0.000    0.000    0.000    0.000    0.000    0.000 
#
# Total GULP energy -72619.587932 kJ/mol
# GULP energy per Si atom -5586.122149 kJ/mol
# Density = 2.125570 g / cm^3
# Si number density = 21.304191 Si / 1000 Ang^3
#
#
#
# Elastic Constant Matrix: (Units=GPa)
#
#
# Indices 1 2 3 4 5 6 
#
# 1 136.9356 37.1303 23.6948 0.0000 5.3187 0.0000
# 2 37.1303 74.1030 7.4092 0.0000 2.0966 0.0000
# 3 23.6948 7.4092 53.9706 0.0000 -0.1306 0.0000
# 4 0.0000 0.0000 0.0000 97.9960 0.0000 -2.7198
# 5 5.3187 2.0966 -0.1306 0.0000 35.4424 0.0000
# 6 0.0000 0.0000 0.0000 -2.7198 0.0000 41.8008
#
#
#
# Elastic Compliance Matrix: (Units=1/GPa)
#
#
# Indices 1 2 3 4 5 6 
#
# 1 0.009068 -0.004170 -0.003411 0.000000 -0.001127 0.000000
# 2 -0.004170 0.015624 -0.000315 0.000000 -0.000300 0.000000
# 3 -0.003411 -0.000315 0.020071 0.000000 0.000604 0.000000
# 4 0.000000 0.000000 0.000000 0.010223 0.000000 0.000665
# 5 -0.001127 -0.000300 0.000604 0.000000 0.028404 0.000000
# 6 0.000000 0.000000 0.000000 0.000665 0.000000 0.023966
#
#
# Mechanical properties :
#
#
# Convention : Reuss Voigt Hill
#
# Bulk Modulus (GPa) = 34.51831 44.60865 39.56348
# Shear Modulus (GPa) = 37.64916 48.16617 42.90766
#
# Velocity S-wave (km/s) = 4.20839 4.76003 4.49268
# Velocity P-wave (km/s) = 6.31283 7.15506 6.74710
#
# Compressibility (1/GPa) = 0.02897013
#
# Stress axis : x y z
#
# Youngs Moduli (GPa) = 110.28357 64.00269 49.82346
#
# Poissons Ratio (x) = 0.26692 0.16995
# Poissons Ratio (y) = 0.45993 0.01568
# Poissons Ratio (z) = 0.37619 0.02014
#
# Static dielectric constant tensor:
#      x y z
#    x 1.758390 0.000000 -0.089260 
#    y 0.000000 1.751370 0.000000 
#    z -0.089260 0.000000 1.736860 
# 
# From -- ./inp_files/21884.got.cif
#   From: 2010.05.17/outbox.cif.g08.bks.cpg/sg5_11_cif.got.tgz:21884.got - 2010.06.03 18:56:24.
