data_PCOD9123135
_publ_section_title
;
Structure prediction by ZEFSAII (Michael W. Deem and Ramdas Pophale) SiO2 
 PCOD9123135
Probable space group: C 2
;
_chemical_formula_sum "Si O2"
_cell_formula_units_Z 32
_cell_length_a 15.480243
_cell_length_b 11.668583
_cell_length_c 9.769748
_cell_angle_alpha 90.000000
_cell_angle_beta 90.890405
_cell_angle_gamma 90.000000
_cell_volume 1764.520915
_symmetry_space_group_name_H-M "C 2"
_symmetry_group_IT_number 5
_symmetry_cell_setting 'monoclinic'
loop_
_space_group_symop_operation_xyz
x,y,z
-x,y,-z
1/2+x,1/2+y,z
1/2-x,1/2+y,-z
loop_
_atom_site_type_symbol
_atom_site_label
_atom_site_fract_x
_atom_site_fract_y
_atom_site_fract_z
Si Si1 0.675774 0.875000 0.841728
Si Si2 0.575113 0.588753 0.390509
Si Si3 0.140344 0.412452 0.157290
Si Si4 0.230883 0.262832 0.388925
Si Si5 0.081272 0.611279 0.335254
Si Si6 0.381472 0.079284 0.358774
Si Si7 0.488825 0.730566 0.153250
Si Si8 0.673888 0.351241 0.348071
O O1 0.608681 0.770213 0.821791
O O2 0.770424 0.847473 0.788876
O O3 0.645409 0.976843 0.740917
O O4 0.671116 0.908794 0.001228
O O5 0.500000 0.576702 0.500000
O O6 0.649587 0.682058 0.427534
O O7 0.527075 0.639447 0.257434
O O8 0.622133 0.468870 0.363122
O O9 0.202523 0.342581 0.261764
O O10 0.124158 0.538727 0.215318
O O11 0.048887 0.344490 0.162492
O O12 0.309690 0.178855 0.348732
O O13 0.262482 0.335093 0.520227
O O14 0.108701 0.550014 0.479218
O O15 0.113480 0.740470 0.347435
O O16 0.978242 0.614135 0.320156
O O17 0.500000 0.686717 0.000000
#
# Coordination Sequence:
#
# PCOD9123135 Si02
#       8
#     4   4   4   4   4   4   4   4
#     4  11  20  39  62  88 116 157 195 249 280 352
#     4  11  23  39  61  89 118 153 195 244 293 351
#     4  10  21  37  63  89 118 149 204 240 293 343
#     4  10  22  40  61  89 116 156 196 247 288 353
#     4  10  22  38  59  92 116 157 189 246 290 359
#     4  10  20  37  63  85 120 151 194 238 298 336
#     4   9  20  40  63  85 115 156 199 241 289 346
#     4  11  24  39  60  88 124 151 198 238 303 347
#
# _framework density 18.135235000000002
#
# number of rings (size 3 to 8) (size 9 to 14) (size 15 to 20)
#    0.000    1.750    2.500    1.500    5.250    2.000 
#    2.250    0.000    2.750    0.000    0.000    0.000 
#    0.000    0.000    0.000    0.000    0.000    0.000 
#
# Total GULP energy -89309.741676 kJ/mol
# GULP energy per Si atom -5581.858855 kJ/mol
# Density = 1.809396 g / cm^3
# Si number density = 18.135235 Si / 1000 Ang^3
#
#
#
# Elastic Constant Matrix: (Units=GPa)
#
#
# Indices 1 2 3 4 5 6 
#
# 1 83.0984 37.6989 34.0051 0.0000 -8.6169 0.0000
# 2 37.6989 86.8196 52.3986 0.0000 -6.7892 0.0000
# 3 34.0051 52.3986 87.8748 0.0000 -8.4703 0.0000
# 4 0.0000 0.0000 0.0000 7.5861 0.0000 0.0684
# 5 -8.6169 -6.7892 -8.4703 0.0000 20.7337 0.0000
# 6 0.0000 0.0000 0.0000 0.0684 0.0000 21.8038
#
#
#
# Elastic Compliance Matrix: (Units=1/GPa)
#
#
# Indices 1 2 3 4 5 6 
#
# 1 0.015793 -0.004832 -0.002863 0.000000 0.003812 0.000000
# 2 -0.004832 0.019521 -0.009731 0.000000 0.000409 0.000000
# 3 -0.002863 -0.009731 0.018601 0.000000 0.003223 0.000000
# 4 0.000000 0.000000 0.000000 0.131823 0.000000 -0.000413
# 5 0.003812 0.000409 0.003223 0.000000 0.051265 0.000000
# 6 0.000000 0.000000 0.000000 -0.000413 0.000000 0.045865
#
#
# Mechanical properties :
#
#
# Convention : Reuss Voigt Hill
#
# Bulk Modulus (GPa) = 52.45633 56.22201 54.33917
# Shear Modulus (GPa) = 15.42859 18.93740 17.18300
#
# Velocity S-wave (km/s) = 2.91993 3.23496 3.08148
# Velocity P-wave (km/s) = 6.35263 6.70986 6.53368
#
# Compressibility (1/GPa) = 0.01906347
#
# Stress axis : x y z
#
# Youngs Moduli (GPa) = 63.32058 51.22658 53.76091
#
# Poissons Ratio (x) = 0.24750 0.15391
# Poissons Ratio (y) = 0.30594 0.52315
# Poissons Ratio (z) = 0.18128 0.49849
#
# Static dielectric constant tensor:
#      x y z
#    x 1.629290 0.000000 0.000810 
#    y 0.000000 1.607410 0.000000 
#    z 0.000810 0.000000 1.622340 
# 
# From -- ./inp_files/23881.got.cif
#   From: 2010.05.17/outbox.cif.g08.bks.cpg/sg5_12_cif.got.tgz:23881.got - 2010.06.03 18:56:24.
