data_PCOD9123393
_publ_section_title
;
Structure prediction by ZEFSAII (Michael W. Deem and Ramdas Pophale) SiO2 
 PCOD9123393
Probable space group: C 2
;
_chemical_formula_sum "Si O2"
_cell_formula_units_Z 24
_cell_length_a 21.595302
_cell_length_b 8.754085
_cell_length_c 5.372812
_cell_angle_alpha 90.000000
_cell_angle_beta 111.172439
_cell_angle_gamma 90.000000
_cell_volume 947.151452
_symmetry_space_group_name_H-M "C 2"
_symmetry_group_IT_number 5
_symmetry_cell_setting 'monoclinic'
loop_
_space_group_symop_operation_xyz
x,y,z
-x,y,-z
1/2+x,1/2+y,z
1/2-x,1/2+y,-z
loop_
_atom_site_type_symbol
_atom_site_label
_atom_site_fract_x
_atom_site_fract_y
_atom_site_fract_z
Si Si1 0.266551 0.339680 0.286760
Si Si2 0.927287 0.347823 0.281904
Si Si3 0.500000 0.307726 0.500000
Si Si4 0.947633 0.050173 0.091073
Si Si5 0.299380 0.520471 0.816734
Si Si6 0.500000 0.024321 0.000000
Si Si7 0.108722 0.626451 0.520939
O O1 0.261434 0.451710 0.518125
O O2 0.211312 0.205423 0.179020
O O3 0.329286 0.230106 0.438215
O O4 0.278262 0.434802 0.045692
O O5 0.920656 0.167757 0.263193
O O6 0.940698 0.422038 0.034359
O O7 0.877810 0.455260 0.363856
O O8 0.000000 0.378945 0.500000
O O9 0.498869 0.427695 0.272365
O O10 0.566544 0.215708 0.667303
O O11 0.878023 0.993448 0.882852
O O12 0.000000 0.143343 0.000000
O O13 0.547764 0.124809 0.240927
#
# Coordination Sequence:
#
# PCOD9123393 Si02
#       7
#     4   4   2   4   4   2   4
#     4  12  29  55  78 116 154 213 272 322 391 483
#     4  10  21  39  60 103 143 192 238 303 386 459
#     4  12  22  40  64 106 148 182 242 310 378 448
#     4  12  26  42  73 110 154 191 252 328 398 454
#     4  12  30  54  82 114 157 213 268 323 404 464
#     4  10  20  38  64 102 142 192 234 300 376 456
#     4  11  24  40  72 100 151 195 251 309 383 463
#
# _framework density 25.339137999999998
#
# number of rings (size 3 to 8) (size 9 to 14) (size 15 to 20)
#    0.000    0.667    5.833    2.000    8.167    1.333 
#    0.000    0.000    0.000    0.000    0.000    0.000 
#    0.000    0.000    0.000    0.000    0.000    0.000 
#
# Total GULP energy -66832.373014 kJ/mol
# GULP energy per Si atom -5569.364418 kJ/mol
# Density = 2.528146 g / cm^3
# Si number density = 25.339138 Si / 1000 Ang^3
#
#
#
# Elastic Constant Matrix: (Units=GPa)
#
#
# Indices 1 2 3 4 5 6 
#
# 1 92.4950 9.5425 25.7865 0.0000 7.8512 0.0000
# 2 9.5425 117.2627 27.2259 0.0000 -7.5236 0.0000
# 3 25.7865 27.2259 85.7838 0.0000 -13.4317 0.0000
# 4 0.0000 0.0000 0.0000 24.7836 0.0000 -2.2505
# 5 7.8512 -7.5236 -13.4317 0.0000 27.7883 0.0000
# 6 0.0000 0.0000 0.0000 -2.2505 0.0000 38.4277
#
#
#
# Elastic Compliance Matrix: (Units=1/GPa)
#
#
# Indices 1 2 3 4 5 6 
#
# 1 0.012632 -0.000335 -0.004613 0.000000 -0.005889 0.000000
# 2 -0.000335 0.009250 -0.002627 0.000000 0.001329 0.000000
# 3 -0.004613 -0.002627 0.015114 0.000000 0.007898 0.000000
# 4 0.000000 0.000000 0.000000 0.040565 0.000000 0.002376
# 5 -0.005889 0.001329 0.007898 0.000000 0.041828 0.000000
# 6 0.000000 0.000000 0.000000 0.002376 0.000000 0.026162
#
#
# Mechanical properties :
#
#
# Convention : Reuss Voigt Hill
#
# Bulk Modulus (GPa) = 45.77346 46.73904 46.25625
# Shear Modulus (GPa) = 29.76492 33.73237 31.74865
#
# Velocity S-wave (km/s) = 3.43105 3.65257 3.54354
# Velocity P-wave (km/s) = 5.81375 6.02277 5.91918
#
# Compressibility (1/GPa) = 0.02184672
#
# Stress axis : x y z
#
# Youngs Moduli (GPa) = 79.16473 108.10403 66.16279
#
# Poissons Ratio (x) = 0.03619 0.30521
# Poissons Ratio (y) = 0.02650 0.17382
# Poissons Ratio (z) = 0.36519 0.28400
#
# Static dielectric constant tensor:
#      x y z
#    x 2.140600 0.000000 -0.204960 
#    y 0.000000 2.110130 0.000000 
#    z -0.204960 0.000000 2.289830 
# 
# From -- ./inp_files/10738.got.cif
#   From: 2010.05.17/outbox.cif.g08.bks.cpg/sg5_6_cif.got.tgz:10738.got - 2010.06.03 18:56:24.
