data_PCOD9123254
_publ_section_title
;
Structure prediction by ZEFSAII (Michael W. Deem and Ramdas Pophale) SiO2 
 PCOD9123254
Probable space group: C 2
;
_chemical_formula_sum "Si O2"
_cell_formula_units_Z 26
_cell_length_a 11.187113
_cell_length_b 7.340584
_cell_length_c 14.625582
_cell_angle_alpha 90.000000
_cell_angle_beta 60.104502
_cell_angle_gamma 90.000000
_cell_volume 1041.235076
_symmetry_space_group_name_H-M "C 2"
_symmetry_group_IT_number 5
_symmetry_cell_setting 'monoclinic'
loop_
_space_group_symop_operation_xyz
x,y,z
-x,y,-z
1/2+x,1/2+y,z
1/2-x,1/2+y,-z
loop_
_atom_site_type_symbol
_atom_site_label
_atom_site_fract_x
_atom_site_fract_y
_atom_site_fract_z
Si Si1 0.569746 0.016220 0.603693
Si Si2 0.000000 0.075480 0.500000
Si Si3 0.340011 0.000910 0.066519
Si Si4 0.157367 0.066809 0.957216
Si Si5 0.732444 0.936738 0.708851
Si Si6 0.353452 0.424641 0.405105
Si Si7 0.735489 0.004809 0.272117
O O1 0.579378 0.235925 0.587496
O O2 0.417644 0.950982 0.638176
O O3 0.598445 0.973526 0.698687
O O4 0.695085 0.938638 0.496869
O O5 0.143892 0.003082 0.402283
O O6 0.068831 0.093439 0.577423
O O7 0.347987 0.782022 0.058698
O O8 0.278016 0.038022 0.190605
O O9 0.500000 0.067368 0.000000
O O10 0.236238 0.049330 0.023577
O O11 0.242689 0.972997 0.842971
O O12 0.000000 0.002117 0.000000
O O13 0.751430 0.722204 0.717158
O O14 0.348114 0.422463 0.297629
#
# Coordination Sequence:
#
# PCOD9123254 Si02
#       7
#     4   2   4   4   4   4   4
#     4  11  23  41  60  93 122 167 208 256 311 377
#     4  10  20  38  58  88 116 162 196 246 306 370
#     4  10  22  43  65  95 130 169 210 273 314 379
#     4  10  24  40  65  97 127 165 218 261 322 373
#     4  10  22  41  66  87 130 166 205 257 316 368
#     4  11  23  39  64  86 127 163 208 253 313 371
#     4  11  23  42  64  89 128 166 204 267 310 371
#
# _framework density 24.970347
#
# number of rings (size 3 to 8) (size 9 to 14) (size 15 to 20)
#    0.000    1.538    1.538    3.231    2.154    1.846 
#   16.615    0.000    0.000    0.000    0.000    0.000 
#    0.000    0.000    0.000    0.000    0.000    0.000 
#
# Total GULP energy -72536.190827 kJ/mol
# GULP energy per Si atom -5579.706987 kJ/mol
# Density = 2.491351 g / cm^3
# Si number density = 24.970347 Si / 1000 Ang^3
#
#
#
# Elastic Constant Matrix: (Units=GPa)
#
#
# Indices 1 2 3 4 5 6 
#
# 1 183.8481 -2.2015 61.6756 0.0000 28.1230 0.0000
# 2 -2.2015 61.3871 -11.6074 0.0000 -4.9434 0.0000
# 3 61.6756 -11.6074 113.2059 0.0000 30.7382 0.0000
# 4 0.0000 0.0000 0.0000 9.4998 0.0000 7.2218
# 5 28.1230 -4.9434 30.7382 0.0000 54.9877 0.0000
# 6 0.0000 0.0000 0.0000 7.2218 0.0000 23.0913
#
#
#
# Elastic Compliance Matrix: (Units=1/GPa)
#
#
# Indices 1 2 3 4 5 6 
#
# 1 0.006797 -0.000515 -0.003300 0.000000 -0.001678 0.000000
# 2 -0.000515 0.016670 0.001782 0.000000 0.000766 0.000000
# 3 -0.003300 0.001782 0.012158 0.000000 -0.004948 0.000000
# 4 0.000000 0.000000 0.000000 0.138098 0.000000 -0.043190
# 5 -0.001678 0.000766 -0.004948 0.000000 0.021879 0.000000
# 6 0.000000 0.000000 0.000000 -0.043190 0.000000 0.056814
#
#
# Mechanical properties :
#
#
# Convention : Reuss Voigt Hill
#
# Bulk Modulus (GPa) = 31.68816 50.46383 41.07600
# Shear Modulus (GPa) = 18.72643 38.22072 28.47358
#
# Velocity S-wave (km/s) = 2.74149 3.91659 3.38049
# Velocity P-wave (km/s) = 4.76853 6.38015 5.63228
#
# Compressibility (1/GPa) = 0.03155752
#
# Stress axis : x y z
#
# Youngs Moduli (GPa) = 147.12597 59.98715 82.25195
#
# Poissons Ratio (x) = 0.03092 0.27146
# Poissons Ratio (y) = 0.07583 -0.14658
# Poissons Ratio (z) = 0.48556 -0.10690
#
# Static dielectric constant tensor:
#      x y z
#    x 1.982360 0.000000 0.045870 
#    y 0.000000 2.081430 0.000000 
#    z 0.045870 0.000000 1.993860 
# 
# From -- ./inp_files/52194.got.cif
#   From: 2010.05.17/outbox.cif.g08.bks.cpg/sg5_27_cif.got.tgz:52194.got - 2010.06.03 18:56:24.
