data_PCOD9123216
_publ_section_title
;
Structure prediction by ZEFSAII (Michael W. Deem and Ramdas Pophale) SiO2 
 PCOD9123216
Probable space group: C 2
;
_chemical_formula_sum "Si O2"
_cell_formula_units_Z 26
_cell_length_a 11.027823
_cell_length_b 19.491822
_cell_length_c 8.204401
_cell_angle_alpha 90.000000
_cell_angle_beta 137.036535
_cell_angle_gamma 90.000000
_cell_volume 1201.919196
_symmetry_space_group_name_H-M "C 2"
_symmetry_group_IT_number 5
_symmetry_cell_setting 'monoclinic'
loop_
_space_group_symop_operation_xyz
x,y,z
-x,y,-z
1/2+x,1/2+y,z
1/2-x,1/2+y,-z
loop_
_atom_site_type_symbol
_atom_site_label
_atom_site_fract_x
_atom_site_fract_y
_atom_site_fract_z
Si Si1 0.226963 0.701170 0.073359
Si Si2 0.872911 0.955215 0.727969
Si Si3 0.977509 0.093713 0.673810
Si Si4 0.759246 0.835270 0.378947
Si Si5 0.830574 0.693087 0.604534
Si Si6 0.851145 0.346140 0.075791
Si Si7 0.500000 0.944221 0.500000
O O1 0.367442 0.648128 0.137746
O O2 0.241248 0.710357 0.283319
O O3 0.258556 0.777208 0.042499
O O4 0.033953 0.673988 0.834839
O O5 0.846524 0.890378 0.584110
O O6 0.669779 0.978242 0.576731
O O7 0.975619 0.018878 0.748471
O O8 0.000000 0.932722 0.000000
O O9 0.798832 0.130711 0.563679
O O10 0.000000 0.085454 0.500000
O O11 0.828363 0.758406 0.482161
O O12 0.551908 0.828547 0.220775
O O13 0.757728 0.865109 0.194130
O O14 0.890227 0.399287 0.258644
#
# Coordination Sequence:
#
# PCOD9123216 Si02
#       7
#     4   4   4   4   4   4   2
#     4  10  20  37  67  96 129 172 214 270 334 389
#     4  11  26  44  66  94 136 182 223 272 333 401
#     4  10  23  44  65  94 136 179 220 273 332 395
#     4  10  22  39  65 103 129 168 227 278 325 392
#     4  10  21  38  66  98 130 168 222 271 329 394
#     4  10  20  39  67  97 133 169 214 282 331 385
#     4  10  24  44  66  96 130 180 214 274 340 390
#
# _framework density 21.632069999999999
#
# number of rings (size 3 to 8) (size 9 to 14) (size 15 to 20)
#    0.000    1.846    1.538    1.846    5.385    4.308 
#    0.000   10.769    0.000    0.000    0.000    0.000 
#    0.000    0.000    0.000    0.000    0.000    0.000 
#
# Total GULP energy -72524.473938 kJ/mol
# GULP energy per Si atom -5578.805688 kJ/mol
# Density = 2.158283 g / cm^3
# Si number density = 21.632070 Si / 1000 Ang^3
#
#
#
# Elastic Constant Matrix: (Units=GPa)
#
#
# Indices 1 2 3 4 5 6 
#
# 1 57.1961 11.0261 19.3583 0.0000 10.1691 0.0000
# 2 11.0261 50.5012 37.1585 0.0000 -9.2804 0.0000
# 3 19.3583 37.1585 116.4615 0.0000 -15.1300 0.0000
# 4 0.0000 0.0000 0.0000 -7.6283 0.0000 -51.9884
# 5 10.1691 -9.2804 -15.1300 0.0000 25.7580 0.0000
# 6 0.0000 0.0000 0.0000 -51.9884 0.0000 -83.8934
#
#
#
# Elastic Compliance Matrix: (Units=1/GPa)
#
#
# Indices 1 2 3 4 5 6 
#
# 1 0.021817 -0.004168 -0.003909 0.000000 -0.012411 0.000000
# 2 -0.004168 0.027243 -0.007048 0.000000 0.007321 0.000000
# 3 -0.003909 -0.007048 0.012294 0.000000 0.006225 0.000000
# 4 0.000000 0.000000 0.000000 0.040669 0.000000 -0.025203
# 5 -0.012411 0.007321 0.006225 0.000000 0.050017 0.000000
# 6 0.000000 0.000000 0.000000 -0.025203 0.000000 0.003698
#
#
# Mechanical properties :
#
#
# Convention : Reuss Voigt Hill
#
# Bulk Modulus (GPa) = 32.15095 39.91607 36.03351
# Shear Modulus (GPa) = 25.46402 -2.71170 11.37616
#
# Velocity S-wave (km/s) = 3.43467 -1.12084 2.29572
# Velocity P-wave (km/s) = 5.53391 4.10089 4.87039
#
# Compressibility (1/GPa) = 0.03110328
#
# Stress axis : x y z
#
# Youngs Moduli (GPa) = 45.83637 36.70678 81.34139
#
# Poissons Ratio (x) = 0.15299 0.31796
# Poissons Ratio (y) = 0.19104 0.57332
# Poissons Ratio (z) = 0.17917 0.25872
#
# Static dielectric constant tensor:
#      x y z
#    x 1.901000 0.000000 -0.063510 
#    y 0.000000 1.722550 0.000000 
#    z -0.063510 0.000000 1.853280 
# 
# From -- ./inp_files/22024.got.cif
#   From: 2010.05.17/outbox.cif.g08.bks.cpg/sg5_12_cif.got.tgz:22024.got - 2010.06.03 18:56:24.
