data_PCOD9123947
_publ_section_title
;
Structure prediction by ZEFSAII (Michael W. Deem and Ramdas Pophale) SiO2 
 PCOD9123947
Probable space group: C 2
;
_chemical_formula_sum "Si O2"
_cell_formula_units_Z 24
_cell_length_a 13.175474
_cell_length_b 7.616428
_cell_length_c 14.353004
_cell_angle_alpha 90.000000
_cell_angle_beta 40.843854
_cell_angle_gamma 90.000000
_cell_volume 941.972057
_symmetry_space_group_name_H-M "C 2"
_symmetry_group_IT_number 5
_symmetry_cell_setting 'monoclinic'
loop_
_space_group_symop_operation_xyz
x,y,z
-x,y,-z
1/2+x,1/2+y,z
1/2-x,1/2+y,-z
loop_
_atom_site_type_symbol
_atom_site_label
_atom_site_fract_x
_atom_site_fract_y
_atom_site_fract_z
Si Si1 0.562104 0.445150 0.085526
Si Si2 0.412755 0.811076 0.181626
Si Si3 0.232793 0.809704 0.660382
Si Si4 0.846995 0.492477 0.764541
Si Si5 0.760405 0.389524 0.109773
Si Si6 0.791169 0.469213 0.431068
O O1 0.455232 0.609044 0.127620
O O2 0.441237 0.288107 0.178973
O O3 0.634454 0.489709 0.136710
O O4 0.706640 0.400350 0.919584
O O5 0.327588 0.932257 0.164062
O O6 0.304084 0.813870 0.346603
O O7 0.588359 0.881673 0.061375
O O8 0.332936 0.905058 0.670918
O O9 0.281904 0.628612 0.577125
O O10 0.210593 0.928612 0.583487
O O11 0.804439 0.695632 0.818537
O O12 0.026574 0.486604 0.668990
#
# Coordination Sequence:
#
# PCOD9123947 Si02
#       6
#     4   4   4   4   4   4
#     4  11  21  43  73 105 136 181 232 288 356 414
#     4  10  22  41  67 104 141 174 232 293 340 418
#     4  12  26  44  70 103 140 190 234 291 357 416
#     4  11  23  45  73 102 138 182 234 292 349 417
#     4  10  20  40  71 104 134 181 227 284 353 411
#     4  12  26  47  68 100 143 186 233 292 355 420
#
# _framework density 25.478459999999998
#
# number of rings (size 3 to 8) (size 9 to 14) (size 15 to 20)
#    0.000    1.000    5.000    2.000    0.000    1.333 
#    6.000    2.500    0.000    0.000    0.000    0.000 
#    0.000    0.000    0.000    0.000    0.000    0.000 
#
# Total GULP energy -66884.269950 kJ/mol
# GULP energy per Si atom -5573.689162 kJ/mol
# Density = 2.542047 g / cm^3
# Si number density = 25.478460 Si / 1000 Ang^3
#
#
#
# Elastic Constant Matrix: (Units=GPa)
#
#
# Indices 1 2 3 4 5 6 
#
# 1 124.5431 22.5179 23.5833 0.0000 27.9954 0.0000
# 2 22.5179 67.7071 16.3568 0.0000 18.8672 0.0000
# 3 23.5833 16.3568 98.2918 0.0000 19.0010 0.0000
# 4 0.0000 0.0000 0.0000 30.5472 0.0000 7.9788
# 5 27.9954 18.8672 19.0010 0.0000 43.9552 0.0000
# 6 0.0000 0.0000 0.0000 7.9788 0.0000 29.8461
#
#
#
# Elastic Compliance Matrix: (Units=1/GPa)
#
#
# Indices 1 2 3 4 5 6 
#
# 1 0.009640 -0.001549 -0.001088 0.000000 -0.005005 0.000000
# 2 -0.001549 0.017238 -0.001372 0.000000 -0.005820 0.000000
# 3 -0.001088 -0.001372 0.011365 0.000000 -0.003631 0.000000
# 4 0.000000 0.000000 0.000000 0.035194 0.000000 -0.009408
# 5 -0.005005 -0.005820 -0.003631 0.000000 0.030006 0.000000
# 6 0.000000 0.000000 0.000000 -0.009408 0.000000 0.036020
#
#
# Mechanical properties :
#
#
# Convention : Reuss Voigt Hill
#
# Bulk Modulus (GPa) = 33.08379 46.16200 39.62289
# Shear Modulus (GPa) = 31.73490 36.07530 33.90510
#
# Velocity S-wave (km/s) = 3.53307 3.76695 3.65188
# Velocity P-wave (km/s) = 5.44579 6.08911 5.77641
#
# Compressibility (1/GPa) = 0.03022629
#
# Stress axis : x y z
#
# Youngs Moduli (GPa) = 103.73006 58.01240 87.98911
#
# Poissons Ratio (x) = 0.08984 0.09571
# Poissons Ratio (y) = 0.16065 0.12072
# Poissons Ratio (z) = 0.11283 0.07959
#
# Static dielectric constant tensor:
#      x y z
#    x 2.071060 0.000000 0.048940 
#    y 0.000000 2.087350 0.000000 
#    z 0.048940 0.000000 2.010510 
# 
# From -- ./inp_files/54081.got.cif
#   From: 2010.05.17/outbox.cif.g08.bks.cpg/sg5_28_cif.got.tgz:54081.got - 2010.06.03 18:56:24.
