data_PCOD9123556
_publ_section_title
;
Structure prediction by ZEFSAII (Michael W. Deem and Ramdas Pophale) SiO2 
 PCOD9123556
Probable space group: C 2
;
_chemical_formula_sum "Si O2"
_cell_formula_units_Z 24
_cell_length_a 11.295228
_cell_length_b 7.334494
_cell_length_c 23.177389
_cell_angle_alpha 90.000000
_cell_angle_beta 33.386688
_cell_angle_gamma 90.000000
_cell_volume 1056.619768
_symmetry_space_group_name_H-M "C 2"
_symmetry_group_IT_number 5
_symmetry_cell_setting 'monoclinic'
loop_
_space_group_symop_operation_xyz
x,y,z
-x,y,-z
1/2+x,1/2+y,z
1/2-x,1/2+y,-z
loop_
_atom_site_type_symbol
_atom_site_label
_atom_site_fract_x
_atom_site_fract_y
_atom_site_fract_z
Si Si1 0.655346 0.340590 0.883785
Si Si2 0.294376 0.186660 0.561842
Si Si3 0.130452 0.979755 0.235881
Si Si4 0.869898 0.516040 0.302985
Si Si5 0.017234 0.679394 0.357874
Si Si6 0.648006 0.363595 0.758454
O O1 0.698053 0.127013 0.854103
O O2 0.568836 0.396540 0.855948
O O3 0.885637 0.438415 0.802667
O O4 0.500000 0.373620 0.000000
O O5 0.500000 0.072663 0.500000
O O6 0.269873 0.341598 0.621346
O O7 0.357508 0.249389 0.472318
O O8 0.071076 0.084104 0.653184
O O9 0.183437 0.821343 0.260150
O O10 0.030123 0.908575 0.216630
O O11 0.800689 0.653528 0.280437
O O12 0.872900 0.627716 0.361586
O O13 0.148177 0.500603 0.325426
#
# Coordination Sequence:
#
# PCOD9123556 Si02
#       6
#     4   4   4   4   4   4
#     4  10  23  41  64  90 118 161 211 262 324 375
#     4  11  20  35  58  92 124 173 210 246 312 368
#     4  10  22  39  60  88 127 160 208 261 307 371
#     4   9  22  40  59  89 127 165 210 260 307 374
#     4  10  20  39  59  89 129 166 206 258 308 375
#     4  10  21  41  61  88 126 161 206 262 311 374
#
# _framework density 22.713940999999998
#
# number of rings (size 3 to 8) (size 9 to 14) (size 15 to 20)
#    0.000    2.000    1.667    1.000    2.333    1.333 
#    9.000    7.500    0.000    0.000    0.000    0.000 
#    0.000    0.000    0.000    0.000    0.000    0.000 
#
# Total GULP energy -66908.200382 kJ/mol
# GULP energy per Si atom -5575.683365 kJ/mol
# Density = 2.266224 g / cm^3
# Si number density = 22.713941 Si / 1000 Ang^3
#
#
#
# Elastic Constant Matrix: (Units=GPa)
#
#
# Indices 1 2 3 4 5 6 
#
# 1 86.8336 34.5545 63.8255 0.0000 31.5595 -0.0005
# 2 34.5545 93.6246 26.3239 0.0000 12.2267 -0.0006
# 3 63.8255 26.3239 140.4596 -0.0001 44.9255 0.0000
# 4 0.0000 0.0000 -0.0001 15.2429 0.0000 10.5796
# 5 31.5595 12.2267 44.9255 0.0000 38.3557 0.0000
# 6 -0.0005 -0.0006 0.0000 10.5796 0.0000 47.4584
#
#
#
# Elastic Compliance Matrix: (Units=1/GPa)
#
#
# Indices 1 2 3 4 5 6 
#
# 1 0.020951 -0.004953 -0.005730 0.000000 -0.008949 0.000000
# 2 -0.004953 0.012523 -0.000197 0.000000 0.000314 0.000000
# 3 -0.005730 -0.000197 0.013163 0.000000 -0.010641 0.000000
# 4 0.000000 0.000000 0.000000 0.077613 0.000000 -0.017302
# 5 -0.008949 0.000314 -0.010641 0.000000 0.045798 0.000000
# 6 0.000000 0.000000 0.000000 -0.017302 0.000000 0.024928
#
#
# Mechanical properties :
#
#
# Convention : Reuss Voigt Hill
#
# Bulk Modulus (GPa) = 40.19446 63.36953 51.78199
# Shear Modulus (GPa) = 22.21929 33.29233 27.75581
#
# Velocity S-wave (km/s) = 3.13105 3.83263 3.49946
# Velocity P-wave (km/s) = 5.55028 6.89528 6.25902
#
# Compressibility (1/GPa) = 0.02487905
#
# Stress axis : x y z
#
# Youngs Moduli (GPa) = 47.72973 79.85119 75.96766
#
# Poissons Ratio (x) = 0.39550 0.43529
# Poissons Ratio (y) = 0.23640 0.01494
# Poissons Ratio (z) = 0.27349 0.01571
#
# Static dielectric constant tensor:
#      x y z
#    x 1.936320 0.000000 0.003400 
#    y 0.000000 2.026770 0.000000 
#    z 0.003400 0.000000 1.790790 
# 
# From -- ./inp_files/68247.got.cif
#   From: 2010.05.17/outbox.cif.g08.bks.cpg/sg5_35_cif.got.tgz:68247.got - 2010.06.03 18:56:24.
