data_PCOD9123842
_publ_section_title
;
Structure prediction by ZEFSAII (Michael W. Deem and Ramdas Pophale) SiO2 
 PCOD9123842
Probable space group: C 2
;
_chemical_formula_sum "Si O2"
_cell_formula_units_Z 24
_cell_length_a 17.168104
_cell_length_b 7.233538
_cell_length_c 9.012902
_cell_angle_alpha 90.000000
_cell_angle_beta 98.886872
_cell_angle_gamma 90.000000
_cell_volume 1105.840840
_symmetry_space_group_name_H-M "C 2"
_symmetry_group_IT_number 5
_symmetry_cell_setting 'monoclinic'
loop_
_space_group_symop_operation_xyz
x,y,z
-x,y,-z
1/2+x,1/2+y,z
1/2-x,1/2+y,-z
loop_
_atom_site_type_symbol
_atom_site_label
_atom_site_fract_x
_atom_site_fract_y
_atom_site_fract_z
Si Si1 0.128192 0.715620 0.923969
Si Si2 0.576610 0.127634 0.603742
Si Si3 0.203875 0.311195 0.635933
Si Si4 0.922272 0.027572 0.894554
Si Si5 0.212745 0.084568 0.934815
Si Si6 0.866626 0.970009 0.565978
O O1 0.070094 0.649132 0.779416
O O2 0.179509 0.887120 0.870433
O O3 0.195974 0.576446 0.994104
O O4 0.087939 0.815483 0.051263
O O5 0.500000 0.048525 0.500000
O O6 0.592824 0.325509 0.532590
O O7 0.650504 0.992450 0.604544
O O8 0.204220 0.232679 0.802804
O O9 0.292242 0.363349 0.616191
O O10 0.167190 0.149140 0.525580
O O11 0.922708 0.030513 0.718548
O O12 0.843986 0.122131 0.940579
O O13 0.000000 0.100612 0.000000
#
# Coordination Sequence:
#
# PCOD9123842 Si02
#       6
#     4   4   4   4   4   4
#     4  10  20  40  65  93 130 170 219 258 320 390
#     4  12  26  42  66 100 137 173 214 271 334 384
#     4  12  24  43  69  97 128 174 225 268 324 392
#     4  10  22  38  64  94 126 170 211 265 328 373
#     4  10  21  40  68  93 125 173 219 264 317 391
#     4  12  23  43  69  97 133 169 220 276 317 392
#
# _framework density 21.702940999999999
#
# number of rings (size 3 to 8) (size 9 to 14) (size 15 to 20)
#    1.000    0.000    5.000    3.000    0.000    2.000 
#    0.000    0.000    0.000    3.000    0.000    0.000 
#    0.000    0.000    0.000    0.000    0.000    0.000 
#
# Total GULP energy -67010.636697 kJ/mol
# GULP energy per Si atom -5584.219725 kJ/mol
# Density = 2.165354 g / cm^3
# Si number density = 21.702941 Si / 1000 Ang^3
#
#
#
# Elastic Constant Matrix: (Units=GPa)
#
#
# Indices 1 2 3 4 5 6 
#
# 1 45.6995 -9.6858 6.6760 0.0000 19.3485 0.0000
# 2 -9.6858 55.8430 18.8898 0.0000 3.2103 0.0000
# 3 6.6760 18.8898 123.1147 0.0000 32.2796 0.0000
# 4 0.0000 0.0000 0.0000 32.1200 0.0000 -0.7735
# 5 19.3485 3.2103 32.2796 0.0000 36.0904 0.0000
# 6 0.0000 0.0000 0.0000 -0.7735 0.0000 19.7477
#
#
#
# Elastic Compliance Matrix: (Units=1/GPa)
#
#
# Indices 1 2 3 4 5 6 
#
# 1 0.030880 0.005611 0.002529 0.000000 -0.019316 0.000000
# 2 0.005611 0.019946 -0.002757 0.000000 -0.002316 0.000000
# 3 0.002529 -0.002757 0.011365 0.000000 -0.011275 0.000000
# 4 0.000000 0.000000 0.000000 0.031163 0.000000 0.001221
# 5 -0.019316 -0.002316 -0.011275 0.000000 0.048355 0.000000
# 6 0.000000 0.000000 0.000000 0.001221 0.000000 0.050687
#
#
# Mechanical properties :
#
#
# Convention : Reuss Voigt Hill
#
# Bulk Modulus (GPa) = 13.70674 28.49080 21.09877
# Shear Modulus (GPa) = 24.27788 31.51010 27.89399
#
# Velocity S-wave (km/s) = 3.34824 3.81449 3.58895
# Velocity P-wave (km/s) = 4.61270 5.70584 5.18814
#
# Compressibility (1/GPa) = 0.07295681
#
# Stress axis : x y z
#
# Youngs Moduli (GPa) = 32.38327 50.13423 87.99142
#
# Poissons Ratio (x) = -0.28130 -0.22255
# Poissons Ratio (y) = -0.18170 0.24263
# Poissons Ratio (z) = -0.08190 0.13824
#
# Static dielectric constant tensor:
#      x y z
#    x 1.782510 0.000000 0.013970 
#    y 0.000000 1.780790 0.000000 
#    z 0.013970 0.000000 1.777670 
# 
# From -- ./inp_files/26508.got.cif
#   From: 2010.05.17/outbox.cif.g08.bks.cpg/sg5_14_cif.got.tgz:26508.got - 2010.06.03 18:56:24.
