data_PCOD9123883
_publ_section_title
;
Structure prediction by ZEFSAII (Michael W. Deem and Ramdas Pophale) SiO2 
 PCOD9123883
Probable space group: C 2
;
_chemical_formula_sum "Si O2"
_cell_formula_units_Z 20
_cell_length_a 19.219445
_cell_length_b 8.646421
_cell_length_c 7.495706
_cell_angle_alpha 90.000000
_cell_angle_beta 39.089826
_cell_angle_gamma 90.000000
_cell_volume 785.418318
_symmetry_space_group_name_H-M "C 2"
_symmetry_group_IT_number 5
_symmetry_cell_setting 'monoclinic'
loop_
_space_group_symop_operation_xyz
x,y,z
-x,y,-z
1/2+x,1/2+y,z
1/2-x,1/2+y,-z
loop_
_atom_site_type_symbol
_atom_site_label
_atom_site_fract_x
_atom_site_fract_y
_atom_site_fract_z
Si Si1 0.800010 0.967510 0.902259
Si Si2 0.500000 0.223667 0.500000
Si Si3 0.159214 0.926232 0.807458
Si Si4 0.000000 0.362933 0.000000
Si Si5 0.131233 0.577731 0.954101
Si Si6 0.570192 0.581237 0.642614
O O1 0.883110 0.819264 0.717862
O O2 0.878998 0.094248 0.653206
O O3 0.770421 0.991174 0.166667
O O4 0.698392 0.983610 0.971159
O O5 0.519733 0.125989 0.282359
O O6 0.154035 0.005681 0.623662
O O7 0.174665 0.741656 0.788092
O O8 0.035479 0.969311 0.128810
O O9 0.032666 0.247340 0.779026
O O10 0.898305 0.466205 0.146943
#
# Coordination Sequence:
#
# PCOD9123883 Si02
#       6
#     4   2   4   2   4   4
#     4  11  21  42  71  97 127 186 223 265 352 399
#     4  10  24  48  66 100 144 174 216 302 326 394
#     4   9  20  40  67  89 135 181 216 276 340 394
#     4  10  24  42  58 108 136 166 234 282 332 406
#     4  11  23  43  68  99 130 179 232 271 344 404
#     4  10  20  40  67  92 139 181 208 283 342 384
#
# _framework density 25.464137999999998
#
# number of rings (size 3 to 8) (size 9 to 14) (size 15 to 20)
#    0.000    2.000    4.000    1.200    0.000    8.000 
#   18.000    0.000    0.000    0.000    0.000    0.000 
#    0.000    0.000    0.000    0.000    0.000    0.000 
#
# Total GULP energy -55809.886670 kJ/mol
# GULP energy per Si atom -5580.988667 kJ/mol
# Density = 2.540618 g / cm^3
# Si number density = 25.464138 Si / 1000 Ang^3
#
#
#
# Elastic Constant Matrix: (Units=GPa)
#
#
# Indices 1 2 3 4 5 6 
#
# 1 140.0838 51.9886 -0.1288 0.0000 -14.6189 0.0000
# 2 51.9886 110.3283 14.7894 0.0000 -0.2992 0.0000
# 3 -0.1288 14.7894 42.7550 0.0000 8.4039 0.0000
# 4 0.0000 0.0000 0.0000 14.9383 0.0000 -1.8426
# 5 -14.6189 -0.2992 8.4039 0.0000 44.0323 0.0000
# 6 0.0000 0.0000 0.0000 -1.8426 0.0000 33.9682
#
#
#
# Elastic Compliance Matrix: (Units=1/GPa)
#
#
# Indices 1 2 3 4 5 6 
#
# 1 0.009062 -0.004397 0.001000 0.000000 0.002788 0.000000
# 2 -0.004397 0.011660 -0.003922 0.000000 -0.000632 0.000000
# 3 0.001000 -0.003922 0.025651 0.000000 -0.004590 0.000000
# 4 0.000000 0.000000 0.000000 0.067393 0.000000 0.003656
# 5 0.002788 -0.000632 -0.004590 0.000000 0.024508 0.000000
# 6 0.000000 0.000000 0.000000 0.003656 0.000000 0.029638
#
#
# Mechanical properties :
#
#
# Convention : Reuss Voigt Hill
#
# Bulk Modulus (GPa) = 31.51061 47.38506 39.44784
# Shear Modulus (GPa) = 25.88962 33.68897 29.78930
#
# Velocity S-wave (km/s) = 3.19205 3.64125 3.42402
# Velocity P-wave (km/s) = 5.09774 6.02720 5.58185
#
# Compressibility (1/GPa) = 0.03173534
#
# Stress axis : x y z
#
# Youngs Moduli (GPa) = 110.34849 85.76506 38.98472
#
# Poissons Ratio (x) = 0.37709 -0.03899
# Poissons Ratio (y) = 0.48518 0.15291
# Poissons Ratio (z) = -0.11037 0.33639
#
# Static dielectric constant tensor:
#      x y z
#    x 2.100220 0.000000 -0.051120 
#    y 0.000000 1.983310 0.000000 
#    z -0.051120 0.000000 2.129110 
# 
# From -- ./inp_files/26395.got.cif
#   From: 2010.05.17/outbox.cif.g08.bks.cpg/sg5_14_cif.got.tgz:26395.got - 2010.06.03 18:56:24.
