data_PCOD9123446
_publ_section_title
;
Structure prediction by ZEFSAII (Michael W. Deem and Ramdas Pophale) SiO2 
 PCOD9123446
Probable space group: C 2
;
_chemical_formula_sum "Si O2"
_cell_formula_units_Z 22
_cell_length_a 7.078785
_cell_length_b 24.449660
_cell_length_c 5.214434
_cell_angle_alpha 90.000000
_cell_angle_beta 101.516871
_cell_angle_gamma 90.000000
_cell_volume 884.311740
_symmetry_space_group_name_H-M "C 2"
_symmetry_group_IT_number 5
_symmetry_cell_setting 'monoclinic'
loop_
_space_group_symop_operation_xyz
x,y,z
-x,y,-z
1/2+x,1/2+y,z
1/2-x,1/2+y,-z
loop_
_atom_site_type_symbol
_atom_site_label
_atom_site_fract_x
_atom_site_fract_y
_atom_site_fract_z
Si Si1 0.620096 0.607150 0.289568
Si Si2 0.715179 0.995926 0.446042
Si Si3 0.180445 0.890933 0.236823
Si Si4 0.500000 0.939800 0.000000
Si Si5 0.235495 0.208988 0.069983
Si Si6 0.234489 0.271964 0.562273
O O1 0.500000 0.633641 0.500000
O O2 0.700046 0.553263 0.448220
O O3 0.774189 0.649385 0.206652
O O4 0.500000 0.591089 0.000000
O O5 0.500000 0.994702 0.500000
O O6 0.826968 0.944562 0.590232
O O7 0.670170 0.980168 0.141731
O O8 0.190308 0.832605 0.372054
O O9 0.388459 0.899334 0.158153
O O10 0.000000 0.891117 0.000000
O O11 0.295598 0.251974 0.299829
O O12 0.295127 0.229614 0.805831
O O13 0.000000 0.207863 0.000000
O O14 0.000000 0.273504 0.500000
#
# Coordination Sequence:
#
# PCOD9123446 Si02
#       6
#     4   4   4   2   4   4
#     4  11  23  40  67 101 131 172 231 278 330 405
#     4  10  24  42  63  92 134 176 225 272 347 398
#     4  11  25  42  65 100 133 175 230 278 343 405
#     4  10  24  44  64  94 130 186 216 280 342 414
#     4   9  19  37  63  94 129 171 223 270 331 395
#     4  10  20  38  65  93 130 176 220 274 330 401
#
# _framework density 24.878104
#
# number of rings (size 3 to 8) (size 9 to 14) (size 15 to 20)
#    0.000    1.818    0.000    4.909   14.000    0.000 
#    0.000    1.818    0.000    0.000    0.000    0.000 
#    0.000    0.000    0.000    0.000    0.000    0.000 
#
# Total GULP energy -61490.161865 kJ/mol
# GULP energy per Si atom -5590.014715 kJ/mol
# Density = 2.482148 g / cm^3
# Si number density = 24.878104 Si / 1000 Ang^3
#
#
#
# Elastic Constant Matrix: (Units=GPa)
#
#
# Indices 1 2 3 4 5 6 
#
# 1 89.7269 21.1156 21.9578 0.0000 -11.8877 0.0000
# 2 21.1156 199.4355 69.6220 0.0000 20.3236 0.0000
# 3 21.9578 69.6220 147.3354 0.0000 14.5553 0.0000
# 4 0.0000 0.0000 0.0000 29.6254 0.0000 8.8966
# 5 -11.8877 20.3236 14.5553 0.0000 41.5183 0.0000
# 6 0.0000 0.0000 0.0000 8.8966 0.0000 14.9584
#
#
#
# Elastic Compliance Matrix: (Units=1/GPa)
#
#
# Indices 1 2 3 4 5 6 
#
# 1 0.012492 -0.001192 -0.001771 0.000000 0.004781 0.000000
# 2 -0.001192 0.006286 -0.002543 0.000000 -0.002527 0.000000
# 3 -0.001771 -0.002543 0.008473 0.000000 -0.002233 0.000000
# 4 0.000000 0.000000 0.000000 0.041095 0.000000 -0.024441
# 5 0.004781 -0.002527 -0.002233 0.000000 0.027474 0.000000
# 6 0.000000 0.000000 0.000000 -0.024441 0.000000 0.081389
#
#
# Mechanical properties :
#
#
# Convention : Reuss Voigt Hill
#
# Bulk Modulus (GPa) = 61.57643 73.54318 67.55980
# Shear Modulus (GPa) = 25.82205 38.80724 32.31464
#
# Velocity S-wave (km/s) = 3.22521 3.95384 3.60796
# Velocity P-wave (km/s) = 6.21886 7.10418 6.67621
#
# Compressibility (1/GPa) = 0.01623998
#
# Stress axis : x y z
#
# Youngs Moduli (GPa) = 80.05024 159.09572 118.01621
#
# Poissons Ratio (x) = 0.18958 0.20900
# Poissons Ratio (y) = 0.09539 0.30011
# Poissons Ratio (z) = 0.14177 0.40458
#
# Static dielectric constant tensor:
#      x y z
#    x 2.028190 0.000000 0.011520 
#    y 0.000000 1.944770 0.000000 
#    z 0.011520 0.000000 2.164300 
# 
# From -- ./inp_files/3448.got.cif
#   From: 2010.05.17/outbox.cif.g08.bks.cpg/sg5_2_cif.got.tgz:3448.got - 2010.06.03 18:56:24.
