data_PCOD9123830
_publ_section_title
;
Structure prediction by ZEFSAII (Michael W. Deem and Ramdas Pophale) SiO2 
 PCOD9123830
Probable space group: C 2
;
_chemical_formula_sum "Si O2"
_cell_formula_units_Z 30
_cell_length_a 18.860700
_cell_length_b 12.301087
_cell_length_c 10.631972
_cell_angle_alpha 90.000000
_cell_angle_beta 147.746043
_cell_angle_gamma 90.000000
_cell_volume 1316.407324
_symmetry_space_group_name_H-M "C 2"
_symmetry_group_IT_number 5
_symmetry_cell_setting 'monoclinic'
loop_
_space_group_symop_operation_xyz
x,y,z
-x,y,-z
1/2+x,1/2+y,z
1/2-x,1/2+y,-z
loop_
_atom_site_type_symbol
_atom_site_label
_atom_site_fract_x
_atom_site_fract_y
_atom_site_fract_z
Si Si1 0.698465 0.645310 0.999086
Si Si2 0.208248 0.900050 0.114791
Si Si3 0.442098 0.239181 0.272403
Si Si4 0.117380 0.417432 0.271984
Si Si5 0.917644 0.253114 0.551405
Si Si6 0.317464 0.590813 0.587276
Si Si7 0.000000 0.937932 0.000000
Si Si8 0.270651 0.254271 0.356366
O O1 0.714982 0.528529 0.093761
O O2 0.822473 0.652407 0.088867
O O3 0.731635 0.736238 0.154406
O O4 0.555580 0.686890 0.733833
O O5 0.343425 0.829858 0.337772
O O6 0.123349 0.880221 0.116362
O O7 0.126537 0.848485 0.878027
O O8 0.500000 0.243951 0.500000
O O9 0.575852 0.224186 0.393564
O O10 0.070777 0.338900 0.314552
O O11 0.182041 0.528360 0.413920
O O12 0.238056 0.368897 0.368542
O O13 0.000000 0.434759 0.000000
O O14 0.824508 0.156532 0.468165
O O15 0.327507 0.678128 0.713078
O O16 0.439030 0.510794 0.796808
#
# Coordination Sequence:
#
# PCOD9123830 Si02
#       8
#     4   4   4   4   4   4   2   4
#     4  11  22  47  68  95 139 188 234 296 349 422
#     4  12  25  45  72 108 140 187 245 300 370 432
#     4  10  26  48  67  95 136 194 236 293 360 434
#     4  11  21  36  61  96 139 174 220 291 349 424
#     4  11  23  40  68 105 136 185 241 285 361 444
#     4  11  21  36  62 105 137 179 228 291 368 426
#     4  12  20  40  72 102 150 186 216 310 382 406
#     4  10  20  40  65  87 135 180 230 275 355 434
#
# _framework density 22.789299
#
# number of rings (size 3 to 8) (size 9 to 14) (size 15 to 20)
#    0.000    1.067    5.333    0.800    3.733    1.600 
#   12.000    0.000    0.000    0.000    0.000    0.000 
#    0.000    0.000    0.000    0.000    0.000    0.000 
#
# Total GULP energy -83588.799581 kJ/mol
# GULP energy per Si atom -5572.586639 kJ/mol
# Density = 2.273743 g / cm^3
# Si number density = 22.789299 Si / 1000 Ang^3
#
#
#
# Elastic Constant Matrix: (Units=GPa)
#
#
# Indices 1 2 3 4 5 6 
#
# 1 40.9139 7.6157 19.7052 0.0000 28.5180 0.0000
# 2 7.6157 66.3153 42.9131 0.0000 5.2916 0.0000
# 3 19.7052 42.9131 112.6177 0.0000 28.2469 0.0000
# 4 0.0000 0.0000 0.0000 27.3761 0.0000 -5.2720
# 5 28.5180 5.2916 28.2469 0.0000 29.4421 0.0000
# 6 0.0000 0.0000 0.0000 -5.2720 0.0000 28.7871
#
#
#
# Elastic Compliance Matrix: (Units=1/GPa)
#
#
# Indices 1 2 3 4 5 6 
#
# 1 0.084066 -0.010161 0.012021 0.000000 -0.091134 0.000000
# 2 -0.010161 0.021794 -0.010552 0.000000 0.016049 0.000000
# 3 0.012021 -0.010552 0.017438 0.000000 -0.026477 0.000000
# 4 0.000000 0.000000 0.000000 0.037864 0.000000 0.006934
# 5 -0.091134 0.016049 -0.026477 0.000000 0.144756 0.000000
# 6 0.000000 0.000000 0.000000 0.006934 0.000000 0.036008
#
#
# Mechanical properties :
#
#
# Convention : Reuss Voigt Hill
#
# Bulk Modulus (GPa) = 9.44166 40.03500 24.73833
# Shear Modulus (GPa) = 12.67056 27.09525 19.88290
#
# Velocity S-wave (km/s) = 2.36050 3.45185 2.95696
# Velocity P-wave (km/s) = 3.40313 5.78728 4.74731
#
# Compressibility (1/GPa) = 0.10591352
#
# Stress axis : x y z
#
# Youngs Moduli (GPa) = 11.89544 45.88382 57.34502
#
# Poissons Ratio (x) = 0.46623 -0.68934
# Poissons Ratio (y) = 0.12087 0.60512
# Poissons Ratio (z) = -0.14299 0.48418
#
# Static dielectric constant tensor:
#      x y z
#    x 1.904680 0.000000 0.021790 
#    y 0.000000 1.891590 0.000000 
#    z 0.021790 0.000000 1.870410 
# 
# From -- ./inp_files/46505.got.cif
#   From: 2010.05.17/outbox.cif.g08.bks.cpg/sg5_24_cif.got.tgz:46505.got - 2010.06.03 18:56:24.
