data_PCOD9123541
_publ_section_title
;
Structure prediction by ZEFSAII (Michael W. Deem and Ramdas Pophale) SiO2 
 PCOD9123541
Probable space group: C 2
;
_chemical_formula_sum "Si O2"
_cell_formula_units_Z 20
_cell_length_a 8.713646
_cell_length_b 18.537066
_cell_length_c 5.611719
_cell_angle_alpha 90.000000
_cell_angle_beta 78.199688
_cell_angle_gamma 90.000000
_cell_volume 887.278975
_symmetry_space_group_name_H-M "C 2"
_symmetry_group_IT_number 5
_symmetry_cell_setting 'monoclinic'
loop_
_space_group_symop_operation_xyz
x,y,z
-x,y,-z
1/2+x,1/2+y,z
1/2-x,1/2+y,-z
loop_
_atom_site_type_symbol
_atom_site_label
_atom_site_fract_x
_atom_site_fract_y
_atom_site_fract_z
Si Si1 0.000000 0.961390 0.500000
Si Si2 0.500000 0.272443 0.000000
Si Si3 0.774398 0.850784 0.423015
Si Si4 0.322590 0.209284 0.658449
Si Si5 0.863394 0.075296 0.192981
Si Si6 0.912243 0.469528 0.776622
O O1 0.153172 0.911505 0.425861
O O2 0.039120 0.014400 0.700631
O O3 0.419975 0.323787 0.217717
O O4 0.636258 0.224565 0.077445
O O5 0.734221 0.779199 0.581151
O O6 0.656082 0.892208 0.288609
O O7 0.500000 0.202827 0.500000
O O8 0.224882 0.138163 0.638121
O O9 0.722822 0.028341 0.126906
O O10 0.000000 0.113130 0.000000
O O11 0.000000 0.494052 0.500000
O O12 0.000000 0.461361 0.000000
#
# Coordination Sequence:
#
# PCOD9123541 Si02
#       6
#     2   2   4   4   4   4
#     4  10  22  42  68 100 136 182 246 292 364 430
#     4  10  20  38  72  98 138 188 246 288 376 444
#     4  10  22  41  73  98 141 190 245 298 367 444
#     4  10  22  44  68 103 140 193 243 302 370 447
#     4  11  27  43  74 101 149 191 250 306 375 438
#     4  11  28  47  74 110 150 195 246 309 373 442
#
# _framework density 22.540825000000002
#
# number of rings (size 3 to 8) (size 9 to 14) (size 15 to 20)
#    0.000    1.600    3.000    0.600   15.400    3.200 
#    5.400    0.000    0.000    0.000    0.000    0.000 
#    0.000    0.000    0.000    0.000    0.000    0.000 
#
# Total GULP energy -55741.235479 kJ/mol
# GULP energy per Si atom -5574.123548 kJ/mol
# Density = 2.248952 g / cm^3
# Si number density = 22.540825 Si / 1000 Ang^3
#
#
#
# Elastic Constant Matrix: (Units=GPa)
#
#
# Indices 1 2 3 4 5 6 
#
# 1 89.4595 40.1553 51.2075 0.0000 16.2805 0.0000
# 2 40.1553 126.0950 29.0167 0.0000 7.9478 0.0000
# 3 51.2075 29.0167 61.1577 0.0000 19.6789 0.0000
# 4 0.0000 0.0000 0.0000 14.0357 0.0000 -23.7258
# 5 16.2805 7.9478 19.6789 0.0000 44.5484 0.0000
# 6 0.0000 0.0000 0.0000 -23.7258 0.0000 -69.1155
#
#
#
# Elastic Compliance Matrix: (Units=1/GPa)
#
#
# Indices 1 2 3 4 5 6 
#
# 1 0.022551 -0.003184 -0.017371 0.000000 0.000000 0.000000
# 2 -0.003184 0.009356 -0.001877 0.000000 0.000324 0.000000
# 3 -0.017371 -0.001877 0.034547 0.000000 -0.008577 0.000000
# 4 0.000000 0.000000 0.000000 0.045085 0.000000 -0.015477
# 5 0.000000 0.000324 -0.008577 0.000000 0.026179 0.000000
# 6 0.000000 0.000000 0.000000 -0.015477 0.000000 -0.009156
#
#
# Mechanical properties :
#
#
# Convention : Reuss Voigt Hill
#
# Bulk Modulus (GPa) = 46.32060 57.49683 51.90871
# Shear Modulus (GPa) = 27.68190 8.31590 17.99890
#
# Velocity S-wave (km/s) = 3.50820 1.92283 2.82884
# Velocity P-wave (km/s) = 6.08311 5.52204 5.80935
#
# Compressibility (1/GPa) = 0.02158867
#
# Stress axis : x y z
#
# Youngs Moduli (GPa) = 44.34406 106.88260 28.94613
#
# Poissons Ratio (x) = 0.34031 0.50284
# Poissons Ratio (y) = 0.14119 0.05434
# Poissons Ratio (z) = 0.77032 0.20065
#
# Static dielectric constant tensor:
#      x y z
#    x 1.895310 0.000000 0.020500 
#    y 0.000000 1.832850 0.000000 
#    z 0.020500 0.000000 1.948100 
# 
# From -- ./inp_files/2365.got.cif
#   From: 2010.05.17/outbox.cif.g08.bks.cpg/sg5_2_cif.got.tgz:2365.got - 2010.06.03 18:56:24.
