data_PCOD9123061
_publ_section_title
;
Structure prediction by ZEFSAII (Michael W. Deem and Ramdas Pophale) SiO2 
 PCOD9123061
Probable space group: C 2
;
_chemical_formula_sum "Si O2"
_cell_formula_units_Z 26
_cell_length_a 7.721589
_cell_length_b 11.425552
_cell_length_c 18.825090
_cell_angle_alpha 90.000000
_cell_angle_beta 140.192638
_cell_angle_gamma 90.000000
_cell_volume 1063.266939
_symmetry_space_group_name_H-M "C 2"
_symmetry_group_IT_number 5
_symmetry_cell_setting 'monoclinic'
loop_
_space_group_symop_operation_xyz
x,y,z
-x,y,-z
1/2+x,1/2+y,z
1/2-x,1/2+y,-z
loop_
_atom_site_type_symbol
_atom_site_label
_atom_site_fract_x
_atom_site_fract_y
_atom_site_fract_z
Si Si1 0.566401 0.226930 0.837756
Si Si2 0.312314 0.939984 0.230969
Si Si3 0.349181 0.736397 0.706444
Si Si4 0.000000 0.956420 0.000000
Si Si5 0.315684 0.245985 0.618199
Si Si6 0.120749 0.253333 0.937477
Si Si7 0.248311 0.510756 0.630697
O O1 0.380468 0.329753 0.810258
O O2 0.404431 0.177497 0.718218
O O3 0.839191 0.278021 0.888067
O O4 0.691622 0.174055 0.951071
O O5 0.579067 0.868367 0.292831
O O6 0.169769 0.008582 0.120346
O O7 0.337484 0.004358 0.313353
O O8 0.530086 0.706467 0.832616
O O9 0.417171 0.629856 0.675063
O O10 0.030331 0.728097 0.623000
O O11 0.220051 0.871219 0.032328
O O12 0.366305 0.383313 0.652308
O O13 0.000000 0.228896 0.500000
O O14 0.000000 0.519976 0.500000
#
# Coordination Sequence:
#
# PCOD9123061 Si02
#       7
#     4   4   4   2   4   4   4
#     4   8  14  28  52  77 110 148 178 225 283 327
#     4   9  18  35  58  83 113 147 187 235 284 334
#     4  10  20  37  61  82 109 150 191 236 286 329
#     4   8  14  28  56  84 112 146 182 234 286 332
#     4   9  19  37  56  81 117 152 188 232 282 335
#     4   8  14  27  52  81 107 144 184 224 282 332
#     4  10  22  38  55  82 115 149 192 232 275 340
#
# _framework density 24.452936999999999
#
# number of rings (size 3 to 8) (size 9 to 14) (size 15 to 20)
#    0.000    3.077    0.000    0.000    0.000    3.692 
#    0.000   10.769    0.000  108.923    0.000    0.000 
#    0.000    0.000    0.000    0.000    0.000    0.000 
#
# Total GULP energy -72415.120562 kJ/mol
# GULP energy per Si atom -5570.393889 kJ/mol
# Density = 2.439728 g / cm^3
# Si number density = 24.452937 Si / 1000 Ang^3
#
#
#
# Elastic Constant Matrix: (Units=GPa)
#
#
# Indices 1 2 3 4 5 6 
#
# 1 86.7190 6.8377 12.6779 0.0000 15.3921 0.0000
# 2 6.8377 75.3447 22.8533 0.0000 2.2905 0.0000
# 3 12.6779 22.8533 128.1901 0.0000 4.7415 0.0000
# 4 0.0000 0.0000 0.0000 41.6256 0.0000 -3.9773
# 5 15.3921 2.2905 4.7415 0.0000 38.0732 0.0000
# 6 0.0000 0.0000 0.0000 -3.9773 0.0000 13.9980
#
#
#
# Elastic Compliance Matrix: (Units=1/GPa)
#
#
# Indices 1 2 3 4 5 6 
#
# 1 0.012600 -0.000709 -0.000937 0.000000 -0.004935 0.000000
# 2 -0.000709 0.014082 -0.002431 0.000000 -0.000258 0.000000
# 3 -0.000937 -0.002431 0.008346 0.000000 -0.000514 0.000000
# 4 0.000000 0.000000 0.000000 0.024694 0.000000 0.007016
# 5 -0.004935 -0.000258 -0.000514 0.000000 0.028340 0.000000
# 6 0.000000 0.000000 0.000000 0.007016 0.000000 0.073433
#
#
# Mechanical properties :
#
#
# Convention : Reuss Voigt Hill
#
# Bulk Modulus (GPa) = 37.21113 41.66574 39.43844
# Shear Modulus (GPa) = 27.99447 35.26502 31.62974
#
# Velocity S-wave (km/s) = 3.38720 3.80170 3.60042
# Velocity P-wave (km/s) = 5.52703 6.02882 5.78337
#
# Compressibility (1/GPa) = 0.02687368
#
# Stress axis : x y z
#
# Youngs Moduli (GPa) = 79.36315 71.01352 119.81827
#
# Poissons Ratio (x) = 0.05036 0.11229
# Poissons Ratio (y) = 0.05629 0.29125
# Poissons Ratio (z) = 0.07438 0.17262
#
# Static dielectric constant tensor:
#      x y z
#    x 1.984480 0.000000 -0.053980 
#    y 0.000000 2.020570 0.000000 
#    z -0.053980 0.000000 2.003430 
# 
# From -- ./inp_files/64583.got.cif
#   From: 2010.05.17/outbox.cif.g08.bks.cpg/sg5_33_cif.got.tgz:64583.got - 2010.06.03 18:56:24.
