data_PCOD9123613
_publ_section_title
;
Structure prediction by ZEFSAII (Michael W. Deem and Ramdas Pophale) SiO2 
 PCOD9123613
Probable space group: C 2
;
_chemical_formula_sum "Si O2"
_cell_formula_units_Z 32
_cell_length_a 15.343236
_cell_length_b 16.222525
_cell_length_c 5.325878
_cell_angle_alpha 90.000000
_cell_angle_beta 105.230969
_cell_angle_gamma 90.000000
_cell_volume 1279.079451
_symmetry_space_group_name_H-M "C 2"
_symmetry_group_IT_number 5
_symmetry_cell_setting 'monoclinic'
loop_
_space_group_symop_operation_xyz
x,y,z
-x,y,-z
1/2+x,1/2+y,z
1/2-x,1/2+y,-z
loop_
_atom_site_type_symbol
_atom_site_label
_atom_site_fract_x
_atom_site_fract_y
_atom_site_fract_z
Si Si1 0.728104 0.579620 0.794871
Si Si2 0.797350 0.479798 0.422547
Si Si3 0.103728 0.995540 0.057589
Si Si4 0.051494 0.746879 0.790885
Si Si5 0.572618 0.647420 0.357890
Si Si6 0.747666 0.749664 0.055823
Si Si7 0.054668 0.546797 0.792029
Si Si8 0.650632 0.801414 0.478420
O O1 0.801822 0.544968 0.654994
O O2 0.666969 0.634968 0.565070
O O3 0.750868 0.650880 0.013599
O O4 0.658574 0.508932 0.839917
O O5 0.689047 0.464244 0.292081
O O6 0.845267 0.511294 0.201185
O O7 0.850096 0.398885 0.544928
O O8 0.084820 0.090776 0.127831
O O9 0.000000 0.960396 0.000000
O O10 0.056907 0.646713 0.795274
O O11 0.000000 0.772288 0.500000
O O12 0.151209 0.782199 0.893418
O O13 0.000000 0.771118 0.000000
O O14 0.500000 0.614668 0.500000
O O15 0.564110 0.745794 0.333781
O O16 0.683849 0.787181 0.790888
O O17 0.718931 0.771911 0.313221
O O18 0.000000 0.523421 0.500000
O O19 0.000000 0.520592 0.000000
#
# Coordination Sequence:
#
# PCOD9123613 Si02
#       8
#     4   4   4   4   4   4   4   4
#     4  10  22  38  73  97 133 183 241 302 349 426
#     4  11  27  42  67 105 147 193 233 301 367 436
#     4  11  21  40  72 104 135 184 248 307 353 422
#     4  10  21  37  64  95 122 162 225 294 334 395
#     4  10  20  39  64 102 134 176 242 298 356 426
#     4  11  23  43  67  96 130 181 234 288 347 420
#     4  10  24  41  67 102 137 178 235 291 348 423
#     4  11  26  43  65 100 143 186 224 285 368 436
#
# _framework density 25.017990000000001
#
# number of rings (size 3 to 8) (size 9 to 14) (size 15 to 20)
#    0.000    1.500    2.500    1.500   12.250    0.500 
#    0.000    1.875    2.750    0.000    0.000    0.000 
#    0.000    0.000    0.000    0.000    0.000    0.000 
#
# Total GULP energy -89212.753103 kJ/mol
# GULP energy per Si atom -5575.797069 kJ/mol
# Density = 2.496105 g / cm^3
# Si number density = 25.017990 Si / 1000 Ang^3
#
#
#
# Elastic Constant Matrix: (Units=GPa)
#
#
# Indices 1 2 3 4 5 6 
#
# 1 106.3816 -6.6689 30.4699 0.0000 -23.8629 0.0000
# 2 -6.6689 81.2564 7.1456 0.0000 -8.0698 0.0000
# 3 30.4699 7.1456 113.8422 0.0000 -35.4249 0.0000
# 4 0.0000 0.0000 0.0000 21.5253 0.0000 7.4117
# 5 -23.8629 -8.0698 -35.4249 0.0000 49.8987 0.0000
# 6 0.0000 0.0000 0.0000 7.4117 0.0000 5.4506
#
#
#
# Elastic Compliance Matrix: (Units=1/GPa)
#
#
# Indices 1 2 3 4 5 6 
#
# 1 0.010934 0.001470 -0.001691 0.000000 0.004266 0.000000
# 2 0.001470 0.012709 -0.000427 0.000000 0.002455 0.000000
# 3 -0.001691 -0.000427 0.011540 0.000000 0.007315 0.000000
# 4 0.000000 0.000000 0.000000 0.087359 0.000000 -0.118789
# 5 0.004266 0.002455 0.007315 0.000000 0.027671 0.000000
# 6 0.000000 0.000000 0.000000 -0.118789 0.000000 0.344992
#
#
# Mechanical properties :
#
#
# Convention : Reuss Voigt Hill
#
# Bulk Modulus (GPa) = 29.51194 40.37481 34.94337
# Shear Modulus (GPa) = 9.84648 33.41049 21.62848
#
# Velocity S-wave (km/s) = 1.98603 3.65836 2.94346
# Velocity P-wave (km/s) = 4.13291 5.83251 5.05466
#
# Compressibility (1/GPa) = 0.03388460
#
# Stress axis : x y z
#
# Youngs Moduli (GPa) = 91.46184 78.68616 86.65762
#
# Poissons Ratio (x) = -0.11565 0.14656
# Poissons Ratio (y) = -0.13442 0.03702
# Poissons Ratio (z) = 0.15468 0.03361
#
# Static dielectric constant tensor:
#      x y z
#    x 2.100520 0.000000 0.098150 
#    y 0.000000 2.028560 0.000000 
#    z 0.098150 0.000000 2.009870 
# 
# From -- ./inp_files/7318.got.cif
#   From: 2010.05.17/outbox.cif.g08.bks.cpg/sg5_4_cif.got.tgz:7318.got - 2010.06.03 18:56:24.
