data_PCOD9123957
_publ_section_title
;
Structure prediction by ZEFSAII (Michael W. Deem and Ramdas Pophale) SiO2 
 PCOD9123957
Probable space group: C 2
;
_chemical_formula_sum "Si O2"
_cell_formula_units_Z 24
_cell_length_a 27.160601
_cell_length_b 7.287840
_cell_length_c 5.221376
_cell_angle_alpha 90.000000
_cell_angle_beta 96.286940
_cell_angle_gamma 90.000000
_cell_volume 1027.314495
_symmetry_space_group_name_H-M "C 2"
_symmetry_group_IT_number 5
_symmetry_cell_setting 'monoclinic'
loop_
_space_group_symop_operation_xyz
x,y,z
-x,y,-z
1/2+x,1/2+y,z
1/2-x,1/2+y,-z
loop_
_atom_site_type_symbol
_atom_site_label
_atom_site_fract_x
_atom_site_fract_y
_atom_site_fract_z
Si Si1 0.601126 0.985780 0.730433
Si Si2 0.391619 0.352559 0.994439
Si Si3 0.181239 0.676521 0.414119
Si Si4 0.716537 0.787717 0.285738
Si Si5 0.500000 0.090713 0.500000
Si Si6 0.500000 0.345692 0.000000
Si Si7 0.335429 0.647579 0.229009
O O1 0.622457 0.794283 0.828117
O O2 0.642344 0.074795 0.572853
O O3 0.549139 0.971898 0.558291
O O4 0.595391 0.139882 0.943173
O O5 0.349310 0.328870 0.757846
O O6 0.445668 0.442477 0.977231
O O7 0.363313 0.455789 0.206913
O O8 0.226989 0.762001 0.594371
O O9 0.202950 0.504300 0.260107
O O10 0.684831 0.700219 0.503090
O O11 0.705786 0.685021 0.013078
O O12 0.504016 0.222825 0.257554
#
# Coordination Sequence:
#
# PCOD9123957 Si02
#       7
#     4   4   4   4   2   2   4
#     4  10  23  44  66  99 132 178 221 278 337 395
#     4  11  23  43  70  94 137 177 219 281 336 393
#     4  11  23  42  68  93 137 175 225 276 338 391
#     4  11  26  42  65 101 131 176 229 271 331 408
#     4  10  20  40  72  92 132 172 226 268 340 400
#     4  10  22  40  68 104 122 176 228 266 338 406
#     4  11  26  43  65 101 134 172 225 273 335 400
#
# _framework density 23.361882000000001
#
# number of rings (size 3 to 8) (size 9 to 14) (size 15 to 20)
#    0.000    1.333    3.333    1.000    7.000    0.000 
#    0.000   10.000    0.000    0.000    0.000    0.000 
#    0.000    0.000    0.000    0.000    0.000    0.000 
#
# Total GULP energy -67052.563878 kJ/mol
# GULP energy per Si atom -5587.713656 kJ/mol
# Density = 2.330871 g / cm^3
# Si number density = 23.361882 Si / 1000 Ang^3
#
#
#
# Elastic Constant Matrix: (Units=GPa)
#
#
# Indices 1 2 3 4 5 6 
#
# 1 156.2721 35.0882 30.1354 0.0000 28.7283 0.0000
# 2 35.0882 65.3922 21.9573 0.0000 9.7616 0.0000
# 3 30.1354 21.9573 96.0224 0.0000 7.0858 0.0000
# 4 0.0000 0.0000 0.0000 19.5164 0.0000 -6.2941
# 5 28.7283 9.7616 7.0858 0.0000 51.0970 0.0000
# 6 0.0000 0.0000 0.0000 -6.2941 0.0000 21.2746
#
#
#
# Elastic Compliance Matrix: (Units=1/GPa)
#
#
# Indices 1 2 3 4 5 6 
#
# 1 0.008115 -0.003288 -0.001520 0.000000 -0.003724 0.000000
# 2 -0.003288 0.018264 -0.003055 0.000000 -0.001217 0.000000
# 3 -0.001520 -0.003055 0.011602 0.000000 -0.000171 0.000000
# 4 0.000000 0.000000 0.000000 0.056643 0.000000 0.016758
# 5 -0.003724 -0.001217 -0.000171 0.000000 0.021920 0.000000
# 6 0.000000 0.000000 0.000000 0.016758 0.000000 0.051962
#
#
# Mechanical properties :
#
#
# Convention : Reuss Voigt Hill
#
# Bulk Modulus (GPa) = 44.93242 54.67205 49.80224
# Shear Modulus (GPa) = 26.08897 33.74466 29.91682
#
# Velocity S-wave (km/s) = 3.34538 3.80469 3.58241
# Velocity P-wave (km/s) = 5.84783 6.53865 6.20286
#
# Compressibility (1/GPa) = 0.02225564
#
# Stress axis : x y z
#
# Youngs Moduli (GPa) = 123.22784 54.75240 86.18893
#
# Poissons Ratio (x) = 0.18003 0.13102
# Poissons Ratio (y) = 0.40519 0.26328
# Poissons Ratio (z) = 0.18732 0.16725
#
# Static dielectric constant tensor:
#      x y z
#    x 1.920570 0.000000 0.015560 
#    y 0.000000 1.914830 0.000000 
#    z 0.015560 0.000000 1.903760 
# 
# From -- ./inp_files/10706.got.cif
#   From: 2010.05.17/outbox.cif.g08.bks.cpg/sg5_6_cif.got.tgz:10706.got - 2010.06.03 18:56:24.
