data_PCOD9123994
_publ_section_title
;
Structure prediction by ZEFSAII (Michael W. Deem and Ramdas Pophale) SiO2 
 PCOD9123994
Probable space group: C 2
;
_chemical_formula_sum "Si O2"
_cell_formula_units_Z 32
_cell_length_a 10.600257
_cell_length_b 9.399430
_cell_length_c 27.167047
_cell_angle_alpha 90.000000
_cell_angle_beta 143.788008
_cell_angle_gamma 90.000000
_cell_volume 1599.123943
_symmetry_space_group_name_H-M "C 2"
_symmetry_group_IT_number 5
_symmetry_cell_setting 'monoclinic'
loop_
_space_group_symop_operation_xyz
x,y,z
-x,y,-z
1/2+x,1/2+y,z
1/2-x,1/2+y,-z
loop_
_atom_site_type_symbol
_atom_site_label
_atom_site_fract_x
_atom_site_fract_y
_atom_site_fract_z
Si Si1 0.228979 0.141530 0.147930
Si Si2 0.631063 0.854972 0.990782
Si Si3 0.878012 0.851901 0.707449
Si Si4 0.885099 0.592913 0.094045
Si Si5 0.213580 0.932831 0.543938
Si Si6 0.866607 0.417035 0.268395
Si Si7 0.122543 0.098218 0.728386
Si Si8 0.021522 0.191769 0.424604
O O1 0.433546 0.244087 0.219205
O O2 0.244666 0.071522 0.098838
O O3 0.024488 0.242918 0.085729
O O4 0.248940 0.022173 0.195071
O O5 0.670083 0.990588 0.968869
O O6 0.500000 0.891015 0.000000
O O7 0.839438 0.759516 0.067747
O O8 0.768512 0.903030 0.723782
O O9 0.688814 0.768067 0.619920
O O10 0.975534 0.982769 0.708335
O O11 0.129382 0.562494 0.185548
O O12 0.396360 0.966575 0.641454
O O13 0.319417 0.817754 0.541210
O O14 0.000000 0.867731 0.500000
O O15 0.136736 0.075198 0.493266
O O16 0.899540 0.258365 0.257681
O O17 0.059749 0.115223 0.651367
#
# Coordination Sequence:
#
# PCOD9123994 Si02
#       8
#     4   4   4   4   4   4   4   4
#     4  11  21  41  66  90 127 163 205 252 311 367
#     4  10  25  41  63  92 127 164 199 258 312 368
#     4  10  20  41  62  89 126 162 210 254 304 365
#     4  11  22  44  64  92 126 161 205 256 308 367
#     4  10  22  39  60  89 128 160 202 263 307 357
#     4  10  24  39  63  96 122 165 208 255 305 373
#     4  10  21  41  65  87 128 167 204 258 305 366
#     4  10  23  40  60  93 123 164 211 257 306 370
#
# _framework density 20.010957999999999
#
# number of rings (size 3 to 8) (size 9 to 14) (size 15 to 20)
#    0.000    2.000    3.750    0.750    1.750    7.000 
#    2.250    0.000    0.000    0.000    0.000    0.000 
#    0.000    0.000    0.000    0.000    0.000    0.000 
#
# Total GULP energy -89337.777928 kJ/mol
# GULP energy per Si atom -5583.611121 kJ/mol
# Density = 1.996541 g / cm^3
# Si number density = 20.010958 Si / 1000 Ang^3
#
#
#
# Elastic Constant Matrix: (Units=GPa)
#
#
# Indices 1 2 3 4 5 6 
#
# 1 57.3340 46.2140 10.3982 0.0000 8.9983 0.0000
# 2 46.2140 86.5218 23.1906 0.0000 -3.8015 0.0000
# 3 10.3982 23.1906 53.4150 0.0000 10.7529 0.0000
# 4 0.0000 0.0000 0.0000 45.1741 0.0000 0.9295
# 5 8.9983 -3.8015 10.7529 0.0000 32.8015 0.0000
# 6 0.0000 0.0000 0.0000 0.9295 0.0000 32.7445
#
#
#
# Elastic Compliance Matrix: (Units=1/GPa)
#
#
# Indices 1 2 3 4 5 6 
#
# 1 0.035595 -0.020945 0.004945 0.000000 -0.013813 0.000000
# 2 -0.020945 0.025817 -0.009519 0.000000 0.011858 0.000000
# 3 0.004945 -0.009519 0.023968 0.000000 -0.010317 0.000000
# 4 0.000000 0.000000 0.000000 0.022150 0.000000 -0.000629
# 5 -0.013813 0.011858 -0.010317 0.000000 0.039032 0.000000
# 6 0.000000 0.000000 0.000000 -0.000629 0.000000 0.030557
#
#
# Mechanical properties :
#
#
# Convention : Reuss Voigt Hill
#
# Bulk Modulus (GPa) = 29.11760 39.65292 34.38526
# Shear Modulus (GPa) = 20.86765 29.97521 25.42143
#
# Velocity S-wave (km/s) = 3.23276 3.87452 3.56810
# Velocity P-wave (km/s) = 5.34011 6.31463 5.84770
#
# Compressibility (1/GPa) = 0.03434349
#
# Stress axis : x y z
#
# Youngs Moduli (GPa) = 28.09357 38.73357 41.72184
#
# Poissons Ratio (x) = 0.81127 -0.20631
# Poissons Ratio (y) = 0.58842 0.39714
# Poissons Ratio (z) = -0.13892 0.36869
#
# Static dielectric constant tensor:
#      x y z
#    x 1.709810 0.000000 -0.000870 
#    y 0.000000 1.693970 0.000000 
#    z -0.000870 0.000000 1.742180 
# 
# From -- ./inp_files/71769.got.cif
#   From: 2010.05.17/outbox.cif.g08.bks.cpg/sg5_36_cif.got.tgz:71769.got - 2010.06.03 18:56:24.
