data_PCOD9123270
_publ_section_title
;
Structure prediction by ZEFSAII (Michael W. Deem and Ramdas Pophale) SiO2 
 PCOD9123270
Probable space group: C 2
;
_chemical_formula_sum "Si O2"
_cell_formula_units_Z 32
_cell_length_a 7.884204
_cell_length_b 15.228346
_cell_length_c 12.003283
_cell_angle_alpha 90.000000
_cell_angle_beta 93.781105
_cell_angle_gamma 90.000000
_cell_volume 1438.017800
_symmetry_space_group_name_H-M "C 2"
_symmetry_group_IT_number 5
_symmetry_cell_setting 'monoclinic'
loop_
_space_group_symop_operation_xyz
x,y,z
-x,y,-z
1/2+x,1/2+y,z
1/2-x,1/2+y,-z
loop_
_atom_site_type_symbol
_atom_site_label
_atom_site_fract_x
_atom_site_fract_y
_atom_site_fract_z
Si Si1 0.203210 0.014720 0.479865
Si Si2 0.085728 0.928762 0.270171
Si Si3 0.807184 0.201727 0.442884
Si Si4 0.721029 0.762467 0.811696
Si Si5 0.836756 0.287260 0.838327
Si Si6 0.345953 0.454892 0.072143
Si Si7 0.295663 0.345350 0.399987
Si Si8 0.208657 0.138320 0.005957
O O1 0.266657 0.108276 0.522460
O O2 0.000000 0.018040 0.500000
O O3 0.206902 0.990623 0.349108
O O4 0.282041 0.935101 0.553693
O O5 0.179417 0.853210 0.204116
O O6 0.949627 0.982141 0.189537
O O7 0.972366 0.875023 0.353633
O O8 0.801964 0.217354 0.310375
O O9 0.704813 0.277033 0.500996
O O10 0.000000 0.208359 0.500000
O O11 0.538368 0.785258 0.855446
O O12 0.786045 0.692431 0.905180
O O13 0.763513 0.371018 0.900056
O O14 0.800220 0.301703 0.707114
O O15 0.755907 0.197810 0.884046
O O16 0.248515 0.536021 0.010810
O O17 0.500000 0.427271 0.000000
O O18 0.000000 0.133869 0.000000
#
# Coordination Sequence:
#
# PCOD9123270 Si02
#       8
#     4   4   4   4   4   4   4   4
#     4   9  20  34  55  87 117 158 204 240 286 359
#     4  10  21  37  61  83 125 157 199 247 294 355
#     4  11  21  33  60  88 119 160 199 246 292 354
#     4  11  21  36  59  85 121 156 196 246 304 344
#     4  10  21  38  62  90 119 154 200 250 299 354
#     4  10  21  38  65  89 113 157 202 246 300 353
#     4  10  20  38  59  88 118 160 203 244 292 352
#     4   9  21  37  59  88 113 152 204 245 289 365
#
# _framework density 22.252855
#
# number of rings (size 3 to 8) (size 9 to 14) (size 15 to 20)
#    0.000    2.000    2.500    0.750    7.000    1.000 
#    0.000    1.250    5.500   23.250    0.000    0.000 
#    0.000    0.000    0.000    0.000    0.000    0.000 
#
# Total GULP energy -89280.023215 kJ/mol
# GULP energy per Si atom -5580.001451 kJ/mol
# Density = 2.220221 g / cm^3
# Si number density = 22.252855 Si / 1000 Ang^3
#
#
#
# Elastic Constant Matrix: (Units=GPa)
#
#
# Indices 1 2 3 4 5 6 
#
# 1 21.3978 12.6198 8.0734 0.0000 -12.4507 0.0000
# 2 12.6198 106.6440 38.7407 0.0000 -6.1279 0.0000
# 3 8.0734 38.7407 73.0369 0.0000 -7.9527 0.0000
# 4 0.0000 0.0000 0.0000 31.6039 0.0000 1.2090
# 5 -12.4507 -6.1279 -7.9527 0.0000 33.1721 0.0000
# 6 0.0000 0.0000 0.0000 1.2090 0.0000 23.4331
#
#
#
# Elastic Compliance Matrix: (Units=1/GPa)
#
#
# Indices 1 2 3 4 5 6 
#
# 1 0.063778 -0.005677 -0.001588 0.000000 0.022509 0.000000
# 2 -0.005677 0.012136 -0.005953 0.000000 -0.001316 0.000000
# 3 -0.001588 -0.005953 0.017292 0.000000 0.002450 0.000000
# 4 0.000000 0.000000 0.000000 0.031704 0.000000 -0.001636
# 5 0.022509 -0.001316 0.002450 0.000000 0.038939 0.000000
# 6 0.000000 0.000000 0.000000 -0.001636 0.000000 0.042759
#
#
# Mechanical properties :
#
#
# Convention : Reuss Voigt Hill
#
# Bulk Modulus (GPa) = 14.97672 35.54958 25.26315
# Shear Modulus (GPa) = 19.58485 27.08482 23.33484
#
# Velocity S-wave (km/s) = 2.96987 3.49254 3.24176
# Velocity P-wave (km/s) = 4.30175 5.68100 5.03879
#
# Compressibility (1/GPa) = 0.06677028
#
# Stress axis : x y z
#
# Youngs Moduli (GPa) = 15.67928 82.40181 57.83184
#
# Poissons Ratio (x) = 0.46780 0.09182
# Poissons Ratio (y) = 0.08901 0.34426
# Poissons Ratio (z) = 0.02490 0.49052
#
# Static dielectric constant tensor:
#      x y z
#    x 1.871320 0.000000 0.079670 
#    y 0.000000 1.876060 0.000000 
#    z 0.079670 0.000000 1.915430 
# 
# From -- ./inp_files/36431.got.cif
#   From: 2010.05.17/outbox.cif.g08.bks.cpg/sg5_19_cif.got.tgz:36431.got - 2010.06.03 18:56:24.
