data_PCOD9123520
_publ_section_title
;
Structure prediction by ZEFSAII (Michael W. Deem and Ramdas Pophale) SiO2 
 PCOD9123520
Probable space group: C 2
;
_chemical_formula_sum "Si O2"
_cell_formula_units_Z 28
_cell_length_a 13.568663
_cell_length_b 14.181166
_cell_length_c 8.775215
_cell_angle_alpha 90.000000
_cell_angle_beta 52.590926
_cell_angle_gamma 90.000000
_cell_volume 1341.224248
_symmetry_space_group_name_H-M "C 2"
_symmetry_group_IT_number 5
_symmetry_cell_setting 'monoclinic'
loop_
_space_group_symop_operation_xyz
x,y,z
-x,y,-z
1/2+x,1/2+y,z
1/2-x,1/2+y,-z
loop_
_atom_site_type_symbol
_atom_site_label
_atom_site_fract_x
_atom_site_fract_y
_atom_site_fract_z
Si Si1 0.352639 0.386710 0.384606
Si Si2 0.500000 0.282688 0.000000
Si Si3 0.146521 0.275933 0.997892
Si Si4 0.860775 0.660468 0.879896
Si Si5 0.000000 0.767789 0.500000
Si Si6 0.640174 0.985951 0.941744
Si Si7 0.373299 0.762350 0.337155
Si Si8 0.632564 0.574977 0.466763
O O1 0.401844 0.348483 0.178258
O O2 0.430692 0.332621 0.442932
O O3 0.213111 0.350695 0.541619
O O4 0.374352 0.496183 0.393850
O O5 0.559556 0.213953 0.067799
O O6 0.223994 0.202264 0.022009
O O7 0.193732 0.382836 0.930187
O O8 0.141131 0.237879 0.829208
O O9 0.016956 0.287875 0.204668
O O10 0.907231 0.699940 0.676203
O O11 0.872798 0.550600 0.897059
O O12 0.745470 0.040726 0.743406
O O13 0.500000 0.976865 0.000000
O O14 0.345306 0.676018 0.475730
O O15 0.500000 0.574361 0.500000
#
# Coordination Sequence:
#
# PCOD9123520 Si02
#       8
#     4   2   4   4   2   4   4   4
#     4  11  21  44  65  96 135 178 231 283 344 413
#     4  10  24  36  66 100 136 162 234 306 328 378
#     4  11  23  45  67  96 141 189 217 288 359 420
#     4  11  22  41  68 100 131 176 236 285 339 413
#     4  10  20  38  68  92 130 174 224 290 338 390
#     4  12  23  43  72  99 133 187 236 280 351 427
#     4  11  23  42  68  97 141 178 230 280 353 422
#     4  12  25  42  71 102 136 189 235 287 354 427
#
# _framework density 20.876448
#
# number of rings (size 3 to 8) (size 9 to 14) (size 15 to 20)
#    0.000    0.857    5.714    1.714    4.000    1.143 
#    2.571    0.000    4.714    0.000    0.000    0.000 
#    0.000    0.000    0.000    0.000    0.000    0.000 
#
# Total GULP energy -78167.015253 kJ/mol
# GULP energy per Si atom -5583.358232 kJ/mol
# Density = 2.082893 g / cm^3
# Si number density = 20.876448 Si / 1000 Ang^3
#
#
#
# Elastic Constant Matrix: (Units=GPa)
#
#
# Indices 1 2 3 4 5 6 
#
# 1 44.7951 11.1619 -6.0541 0.0000 -21.6424 0.0000
# 2 11.1619 88.3560 -13.6425 0.0000 14.5547 0.0000
# 3 -6.0541 -13.6425 57.2467 0.0000 -12.2707 0.0000
# 4 0.0000 0.0000 0.0000 21.8839 0.0000 -0.8618
# 5 -21.6424 14.5547 -12.2707 0.0000 23.9551 0.0000
# 6 0.0000 0.0000 0.0000 -0.8618 0.0000 26.0816
#
#
#
# Elastic Compliance Matrix: (Units=1/GPa)
#
#
# Indices 1 2 3 4 5 6 
#
# 1 0.075742 -0.021378 0.022879 0.000000 0.093138 0.000000
# 2 -0.021378 0.018730 -0.004916 0.000000 -0.033213 0.000000
# 3 0.022879 -0.004916 0.026721 0.000000 0.037345 0.000000
# 4 0.000000 0.000000 0.000000 0.045755 0.000000 0.001512
# 5 0.093138 -0.033213 0.037345 0.000000 0.165200 0.000000
# 6 0.000000 0.000000 0.000000 0.001512 0.000000 0.038391
#
#
# Mechanical properties :
#
#
# Convention : Reuss Voigt Hill
#
# Bulk Modulus (GPa) = 8.74405 19.25871 14.00138
# Shear Modulus (GPa) = 12.03396 27.64628 19.84012
#
# Velocity S-wave (km/s) = 2.40352 3.64301 3.08613
# Velocity P-wave (km/s) = 3.44965 5.19043 4.40685
#
# Compressibility (1/GPa) = 0.11436345
#
# Stress axis : x y z
#
# Youngs Moduli (GPa) = 13.20273 53.38891 37.42365
#
# Poissons Ratio (x) = 1.14135 -0.85623
# Poissons Ratio (y) = 0.28225 0.18398
# Poissons Ratio (z) = -0.30207 0.26247
#
# Static dielectric constant tensor:
#      x y z
#    x 1.898990 0.000000 -0.024980 
#    y 0.000000 1.718560 0.000000 
#    z -0.024980 0.000000 1.804110 
# 
# From -- ./inp_files/24589.got.cif
#   From: 2010.05.17/outbox.cif.g08.bks.cpg/sg5_13_cif.got.tgz:24589.got - 2010.06.03 18:56:24.
