data_PCOD9123631
_publ_section_title
;
Structure prediction by ZEFSAII (Michael W. Deem and Ramdas Pophale) SiO2 
 PCOD9123631
Probable space group: C 2
;
_chemical_formula_sum "Si O2"
_cell_formula_units_Z 32
_cell_length_a 11.894010
_cell_length_b 15.534172
_cell_length_c 17.108461
_cell_angle_alpha 90.000000
_cell_angle_beta 30.314899
_cell_angle_gamma 90.000000
_cell_volume 1595.531952
_symmetry_space_group_name_H-M "C 2"
_symmetry_group_IT_number 5
_symmetry_cell_setting 'monoclinic'
loop_
_space_group_symop_operation_xyz
x,y,z
-x,y,-z
1/2+x,1/2+y,z
1/2-x,1/2+y,-z
loop_
_atom_site_type_symbol
_atom_site_label
_atom_site_fract_x
_atom_site_fract_y
_atom_site_fract_z
Si Si1 0.251595 0.832930 0.839842
Si Si2 0.891508 0.514029 0.751059
Si Si3 0.730850 0.794352 0.348091
Si Si4 0.281174 0.850117 0.180150
Si Si5 0.954727 0.245488 0.211135
Si Si6 0.842442 0.694884 0.860810
Si Si7 0.250372 0.569210 0.328068
Si Si8 0.655554 0.447491 0.601985
O O1 0.285814 0.836941 0.726704
O O2 0.427740 0.774631 0.779903
O O3 0.282296 0.929433 0.853882
O O4 0.000000 0.801636 0.000000
O O5 0.889712 0.598655 0.804828
O O6 0.738993 0.541993 0.768197
O O7 0.141877 0.484952 0.572665
O O8 0.500000 0.745705 0.500000
O O9 0.756791 0.867040 0.398886
O O10 0.941779 0.733819 0.227242
O O11 0.353344 0.825424 0.224260
O O12 0.211822 0.759803 0.178865
O O13 0.068904 0.913033 0.304121
O O14 0.500000 0.880724 0.000000
O O15 0.777970 0.169946 0.326866
O O16 0.139289 0.204235 0.042587
O O17 0.404168 0.518600 0.296507
O O18 0.000000 0.542762 0.500000
#
# Coordination Sequence:
#
# PCOD9123631 Si02
#       8
#     4   4   4   4   4   4   4   4
#     4  12  25  40  64  97 131 168 218 267 326 394
#     4  11  22  39  66  98 123 166 223 274 317 379
#     4  11  20  41  68  90 130 174 208 268 330 391
#     4   9  20  38  65  89 126 172 211 263 333 384
#     4  11  23  41  61  96 130 168 218 268 323 395
#     4  10  22  39  64  94 127 166 222 273 322 381
#     4  10  21  37  62  92 126 162 218 268 315 379
#     4  10  20  39  64  98 125 160 222 269 321 386
#
# _framework density 20.056007999999999
#
# number of rings (size 3 to 8) (size 9 to 14) (size 15 to 20)
#    0.000    1.500    5.000    0.375    1.750    3.000 
#    0.000    3.125    0.000    0.000    0.000    0.000 
#    0.000    0.000    0.000    0.000    0.000    0.000 
#
# Total GULP energy -89283.304186 kJ/mol
# GULP energy per Si atom -5580.206512 kJ/mol
# Density = 2.001036 g / cm^3
# Si number density = 20.056008 Si / 1000 Ang^3
#
#
#
# Elastic Constant Matrix: (Units=GPa)
#
#
# Indices 1 2 3 4 5 6 
#
# 1 81.3947 28.0439 23.8516 0.0074 -23.7419 -0.0071
# 2 28.0439 67.5533 10.4720 -0.0093 -9.3260 -0.0032
# 3 23.8516 10.4720 49.6698 0.0090 -24.3418 -0.0214
# 4 0.0074 -0.0093 0.0090 27.0159 0.0032 -4.9506
# 5 -23.7419 -9.3260 -24.3418 0.0032 20.8274 0.0062
# 6 -0.0071 -0.0032 -0.0214 -4.9506 0.0062 24.8236
#
#
#
# Elastic Compliance Matrix: (Units=1/GPa)
#
#
# Indices 1 2 3 4 5 6 
#
# 1 0.020461 -0.005597 0.003644 -0.000012 0.025077 0.000000
# 2 -0.005597 0.017312 -0.000679 0.000008 0.000578 0.000001
# 3 0.003644 -0.000679 0.047779 -0.000020 0.059692 0.000023
# 4 -0.000012 0.000008 -0.000020 0.038419 -0.000042 0.007662
# 5 0.025077 0.000578 0.059692 -0.000042 0.146623 0.000014
# 6 0.000000 0.000001 0.000023 0.007662 0.000014 0.041812
#
#
# Mechanical properties :
#
#
# Convention : Reuss Voigt Hill
#
# Bulk Modulus (GPa) = 12.45502 35.92810 24.19156
# Shear Modulus (GPa) = 14.51660 23.61674 19.06667
#
# Velocity S-wave (km/s) = 2.69328 3.43525 3.08664
# Velocity P-wave (km/s) = 3.98689 5.80408 4.97909
#
# Compressibility (1/GPa) = 0.08028894
#
# Stress axis : x y z
#
# Youngs Moduli (GPa) = 48.87315 57.76436 20.92952
#
# Poissons Ratio (x) = 0.32331 -0.07627
# Poissons Ratio (y) = 0.27355 0.01421
# Poissons Ratio (z) = -0.17811 0.03921
#
# Static dielectric constant tensor:
#      x y z
#    x 1.722540 0.000000 0.026320 
#    y 0.000000 1.694060 0.000000 
#    z 0.026320 0.000000 1.779990 
# 
# From -- ./inp_files/44956.got.cif
#   From: 2010.05.17/outbox.cif.g08.bks.cpg/sg5_23_cif.got.tgz:44956.got - 2010.06.03 18:56:24.
