data_PCOD9123416
_publ_section_title
;
Structure prediction by ZEFSAII (Michael W. Deem and Ramdas Pophale) SiO2 
 PCOD9123416
Probable space group: C 2
;
_chemical_formula_sum "Si O2"
_cell_formula_units_Z 30
_cell_length_a 28.029368
_cell_length_b 7.940050
_cell_length_c 9.367174
_cell_angle_alpha 90.000000
_cell_angle_beta 138.050555
_cell_angle_gamma 90.000000
_cell_volume 1393.574082
_symmetry_space_group_name_H-M "C 2"
_symmetry_group_IT_number 5
_symmetry_cell_setting 'monoclinic'
loop_
_space_group_symop_operation_xyz
x,y,z
-x,y,-z
1/2+x,1/2+y,z
1/2-x,1/2+y,-z
loop_
_atom_site_type_symbol
_atom_site_label
_atom_site_fract_x
_atom_site_fract_y
_atom_site_fract_z
Si Si1 0.713589 0.629640 0.812520
Si Si2 0.604764 0.854863 0.390558
Si Si3 0.500000 0.657666 0.000000
Si Si4 0.716198 0.793210 0.113448
Si Si5 0.186204 0.671514 0.441240
Si Si6 0.051469 0.839049 0.233491
Si Si7 0.346630 0.112406 0.949263
Si Si8 0.506041 0.096042 0.344741
O O1 0.653401 0.725051 0.587593
O O2 0.723611 0.432290 0.799569
O O3 0.792536 0.697382 0.940551
O O4 0.704091 0.667472 0.957435
O O5 0.568611 0.773774 0.169925
O O6 0.652074 0.010848 0.443963
O O7 0.540740 0.933094 0.345190
O O8 0.515275 0.522480 0.159981
O O9 0.741694 0.711998 0.316364
O O10 0.650513 0.916913 0.995843
O O11 0.129546 0.824196 0.337497
O O12 0.191686 0.632296 0.287547
O O13 0.054631 0.747106 0.391428
O O14 0.000000 0.747447 0.000000
O O15 0.428231 0.159365 0.121368
O O16 0.500000 0.076321 0.500000
#
# Coordination Sequence:
#
# PCOD9123416 Si02
#       8
#     4   4   2   4   4   4   4   4
#     4  10  23  40  61  94 126 171 211 257 329 380
#     4  11  23  39  69  91 130 173 209 269 325 386
#     4  10  20  38  64  92 122 160 214 254 320 378
#     4  10  23  39  65  89 129 167 211 266 318 386
#     4  11  21  40  64  94 122 169 218 259 320 377
#     4   9  20  37  65  89 126 160 211 256 318 377
#     4  10  23  37  64  95 127 162 220 262 313 380
#     4  11  22  40  67  95 129 168 218 260 321 389
#
# _framework density 21.527380999999998
#
# number of rings (size 3 to 8) (size 9 to 14) (size 15 to 20)
#    1.200    0.533    1.333    3.200    7.467    0.000 
#    0.000    0.667    8.800    0.000    0.000    0.000 
#    0.000    0.000    0.000    0.000    0.000    0.000 
#
# Total GULP energy -83504.949036 kJ/mol
# GULP energy per Si atom -5566.996602 kJ/mol
# Density = 2.147838 g / cm^3
# Si number density = 21.527381 Si / 1000 Ang^3
#
#
#
# Elastic Constant Matrix: (Units=GPa)
#
#
# Indices 1 2 3 4 5 6 
#
# 1 48.2907 -13.0305 -9.9216 0.0000 -10.9321 0.0000
# 2 -13.0305 46.8011 1.7230 0.0000 0.2882 0.0000
# 3 -9.9216 1.7230 42.6500 0.0000 -0.4667 0.0000
# 4 0.0000 0.0000 0.0000 35.6581 0.0000 -1.6183
# 5 -10.9321 0.2882 -0.4667 0.0000 34.5892 0.0000
# 6 0.0000 0.0000 0.0000 -1.6183 0.0000 14.1254
#
#
#
# Elastic Compliance Matrix: (Units=1/GPa)
#
#
# Indices 1 2 3 4 5 6 
#
# 1 0.025577 0.006859 0.005762 0.000000 0.008104 0.000000
# 2 0.006859 0.023240 0.000679 0.000000 0.001983 0.000000
# 3 0.005762 0.000679 0.024783 0.000000 0.002150 0.000000
# 4 0.000000 0.000000 0.000000 0.028191 0.000000 0.003230
# 5 0.008104 0.001983 0.002150 0.000000 0.031485 0.000000
# 6 0.000000 0.000000 0.000000 0.003230 0.000000 0.071165
#
#
# Mechanical properties :
#
#
# Convention : Reuss Voigt Hill
#
# Bulk Modulus (GPa) = 9.98018 10.58706 10.28362
# Shear Modulus (GPa) = 23.66968 27.47259 25.57114
#
# Velocity S-wave (km/s) = 3.31949 3.57623 3.45025
# Velocity P-wave (km/s) = 4.39751 4.68841 4.54529
#
# Compressibility (1/GPa) = 0.10019861
#
# Stress axis : x y z
#
# Youngs Moduli (GPa) = 39.09731 43.02997 40.35014
#
# Poissons Ratio (x) = -0.29515 -0.23248
# Poissons Ratio (y) = -0.26818 -0.02738
# Poissons Ratio (z) = -0.22526 -0.02920
#
# Static dielectric constant tensor:
#      x y z
#    x 1.766410 0.000000 0.003990 
#    y 0.000000 1.816890 0.000000 
#    z 0.003990 0.000000 1.783460 
# 
# From -- ./inp_files/32437.got.cif
#   From: 2010.05.17/outbox.cif.g08.bks.cpg/sg5_17_cif.got.tgz:32437.got - 2010.06.03 18:56:24.
