data_PCOD9123053
_publ_section_title
;
Structure prediction by ZEFSAII (Michael W. Deem and Ramdas Pophale) SiO2 
 PCOD9123053
Probable space group: C 2
;
_chemical_formula_sum "Si O2"
_cell_formula_units_Z 32
_cell_length_a 11.535418
_cell_length_b 15.458402
_cell_length_c 10.069229
_cell_angle_alpha 90.000000
_cell_angle_beta 120.980727
_cell_angle_gamma 90.000000
_cell_volume 1539.385852
_symmetry_space_group_name_H-M "C 2"
_symmetry_group_IT_number 5
_symmetry_cell_setting 'monoclinic'
loop_
_space_group_symop_operation_xyz
x,y,z
-x,y,-z
1/2+x,1/2+y,z
1/2-x,1/2+y,-z
loop_
_atom_site_type_symbol
_atom_site_label
_atom_site_fract_x
_atom_site_fract_y
_atom_site_fract_z
Si Si1 0.103711 0.934560 0.447045
Si Si2 0.359124 0.169082 0.754929
Si Si3 0.364059 0.241659 0.485074
Si Si4 0.868091 0.002656 0.835851
Si Si5 0.648379 0.710996 0.140638
Si Si6 0.852982 0.463013 0.774617
Si Si7 0.167158 0.679403 0.982299
Si Si8 0.337097 0.970041 0.061483
O O1 0.079208 0.832089 0.425652
O O2 0.000000 0.970267 0.500000
O O3 0.107908 0.973872 0.302177
O O4 0.250872 0.941060 0.598898
O O5 0.311455 0.189588 0.580867
O O6 0.362106 0.066910 0.778065
O O7 0.512250 0.202133 0.862587
O O8 0.285044 0.202966 0.841786
O O9 0.500000 0.199065 0.500000
O O10 0.236988 0.252126 0.311365
O O11 0.853513 0.107508 0.827667
O O12 0.747909 0.958500 0.852888
O O13 0.000000 0.982608 0.000000
O O14 0.740433 0.724469 0.067764
O O15 0.500000 0.736375 0.000000
O O16 0.008086 0.437460 0.838512
O O17 0.797686 0.437228 0.889087
O O18 0.171702 0.575235 0.961567
#
# Coordination Sequence:
#
# PCOD9123053 Si02
#       8
#     4   4   4   4   4   4   4   4
#     4  11  24  38  53  81 118 159 194 233 284 345
#     4   9  16  32  59  84 109 142 189 241 276 331
#     4  11  22  38  56  84 118 155 197 234 281 349
#     4  10  20  37  60  88 115 149 194 242 289 341
#     4  10  20  37  61  88 115 149 189 244 294 340
#     4   9  17  34  57  85 111 142 188 234 289 333
#     4   8  15  30  56  90 109 131 184 237 288 333
#     4   8  16  31  58  87 109 137 180 239 286 336
#
# _framework density 20.787510999999999
#
# number of rings (size 3 to 8) (size 9 to 14) (size 15 to 20)
#    0.000    2.500    1.250    3.000    0.000    1.500 
#    4.500    1.875    2.750    0.000    0.000    0.000 
#    0.000    0.000    0.000    0.000    0.000    0.000 
#
# Total GULP energy -89072.567000 kJ/mol
# GULP energy per Si atom -5567.035437 kJ/mol
# Density = 2.074020 g / cm^3
# Si number density = 20.787511 Si / 1000 Ang^3
#
#
#
# Elastic Constant Matrix: (Units=GPa)
#
#
# Indices 1 2 3 4 5 6 
#
# 1 91.2292 26.5564 64.4795 0.0000 -33.4789 0.0000
# 2 26.5564 25.8704 21.2603 0.0000 -10.7493 0.0000
# 3 64.4795 21.2603 160.0600 0.0000 -27.6323 0.0000
# 4 0.0000 0.0000 0.0000 10.0609 0.0000 -4.9338
# 5 -33.4789 -10.7493 -27.6323 0.0000 40.2849 0.0000
# 6 0.0000 0.0000 0.0000 -4.9338 0.0000 3.4088
#
#
#
# Elastic Compliance Matrix: (Units=1/GPa)
#
#
# Indices 1 2 3 4 5 6 
#
# 1 0.023407 -0.014646 -0.005445 0.000000 0.011810 0.000000
# 2 -0.014646 0.055384 -0.001142 0.000000 0.001824 0.000000
# 3 -0.005445 -0.001142 0.008801 0.000000 0.001207 0.000000
# 4 0.000000 0.000000 0.000000 0.342477 0.000000 0.495689
# 5 0.011810 0.001824 0.001207 0.000000 0.035952 0.000000
# 6 0.000000 0.000000 0.000000 0.495689 0.000000 1.010798
#
#
# Mechanical properties :
#
#
# Convention : Reuss Voigt Hill
#
# Bulk Modulus (GPa) = 22.15963 55.75021 38.95492
# Shear Modulus (GPa) = 3.25875 21.74183 12.50029
#
# Velocity S-wave (km/s) = 1.25342 3.23756 2.45488
# Velocity P-wave (km/s) = 3.57463 6.39164 5.17837
#
# Compressibility (1/GPa) = 0.04512711
#
# Stress axis : x y z
#
# Youngs Moduli (GPa) = 42.72166 18.05561 113.61936
#
# Poissons Ratio (x) = 0.26444 0.61870
# Poissons Ratio (y) = 0.62570 0.12971
# Poissons Ratio (z) = 0.23264 0.02061
#
# Static dielectric constant tensor:
#      x y z
#    x 1.797060 0.000000 -0.002840 
#    y 0.000000 1.808010 0.000000 
#    z -0.002840 0.000000 1.762650 
# 
# From -- ./inp_files/21810.got.cif
#   From: 2010.05.17/outbox.cif.g08.bks.cpg/sg5_11_cif.got.tgz:21810.got - 2010.06.03 18:56:24.
