data_PCOD9123141
_publ_section_title
;
Structure prediction by ZEFSAII (Michael W. Deem and Ramdas Pophale) SiO2 
 PCOD9123141
Probable space group: C 2
;
_chemical_formula_sum "Si O2"
_cell_formula_units_Z 20
_cell_length_a 11.509090
_cell_length_b 8.139918
_cell_length_c 9.226729
_cell_angle_alpha 90.000000
_cell_angle_beta 88.437197
_cell_angle_gamma 90.000000
_cell_volume 864.066578
_symmetry_space_group_name_H-M "C 2"
_symmetry_group_IT_number 5
_symmetry_cell_setting 'monoclinic'
loop_
_space_group_symop_operation_xyz
x,y,z
-x,y,-z
1/2+x,1/2+y,z
1/2-x,1/2+y,-z
loop_
_atom_site_type_symbol
_atom_site_label
_atom_site_fract_x
_atom_site_fract_y
_atom_site_fract_z
Si Si1 0.064293 0.232970 0.725765
Si Si2 0.767787 0.153390 0.538451
Si Si3 0.130943 0.474732 0.330359
Si Si4 0.777971 0.694562 0.922309
Si Si5 0.843206 0.024069 0.818791
O O1 0.129392 0.158190 0.584388
O O2 0.159548 0.252695 0.846569
O O3 0.995907 0.396603 0.680604
O O4 0.964731 0.114379 0.790173
O O5 0.784108 0.325665 0.621650
O O6 0.788427 0.014903 0.659717
O O7 0.653397 0.114760 0.449655
O O8 0.170110 0.547465 0.175435
O O9 0.858547 0.852651 0.900468
O O10 0.742921 0.633097 0.080419
#
# Coordination Sequence:
#
# PCOD9123141 Si02
#       5
#     4   4   4   4   4
#     4  10  22  42  63  87 124 166 202 254 314 364
#     4  10  20  37  63  91 122 160 203 254 307 364
#     4  10  20  39  62  89 123 162 206 250 307 368
#     4  11  24  41  63  90 125 167 207 256 308 369
#     4  11  21  39  63  89 123 161 206 254 307 365
#
# _framework density 23.146363999999998
#
# number of rings (size 3 to 8) (size 9 to 14) (size 15 to 20)
#    0.000    1.600    0.000    7.800    0.000    0.000 
#    0.000   24.000    0.000    0.000    0.000    0.000 
#    0.000    0.000    0.000    0.000    0.000    0.000 
#
# Total GULP energy -55931.830307 kJ/mol
# GULP energy per Si atom -5593.183031 kJ/mol
# Density = 2.309368 g / cm^3
# Si number density = 23.146364 Si / 1000 Ang^3
#
#
#
# Elastic Constant Matrix: (Units=GPa)
#
#
# Indices 1 2 3 4 5 6 
#
# 1 78.0907 8.0235 20.8769 0.0000 -8.7067 0.0000
# 2 8.0235 81.2512 30.4782 0.0000 -28.7015 0.0000
# 3 20.8769 30.4782 120.8932 0.0000 -27.0149 0.0000
# 4 0.0000 0.0000 0.0000 48.9523 0.0000 -8.2570
# 5 -8.7067 -28.7015 -27.0149 0.0000 36.1290 0.0000
# 6 0.0000 0.0000 0.0000 -8.2570 0.0000 36.4471
#
#
#
# Elastic Compliance Matrix: (Units=1/GPa)
#
#
# Indices 1 2 3 4 5 6 
#
# 1 0.013524 0.000042 -0.001933 0.000000 0.001847 0.000000
# 2 0.000042 0.017348 -0.001560 0.000000 0.012626 0.000000
# 3 -0.001933 -0.001560 0.010347 0.000000 0.006032 0.000000
# 4 0.000000 0.000000 0.000000 0.021240 0.000000 0.004812
# 5 0.001847 0.012626 0.006032 0.000000 0.042664 0.000000
# 6 0.000000 0.000000 0.000000 0.004812 0.000000 0.028527
#
#
# Mechanical properties :
#
#
# Convention : Reuss Voigt Hill
#
# Bulk Modulus (GPa) = 29.13955 44.33247 36.73601
# Shear Modulus (GPa) = 32.89676 39.02943 35.96310
#
# Velocity S-wave (km/s) = 3.77404 4.11079 3.94601
# Velocity P-wave (km/s) = 5.62207 6.45958 6.05532
#
# Compressibility (1/GPa) = 0.03431762
#
# Stress axis : x y z
#
# Youngs Moduli (GPa) = 73.94218 57.64235 96.64956
#
# Poissons Ratio (x) = -0.00243 0.18686
# Poissons Ratio (y) = -0.00312 0.15073
# Poissons Ratio (z) = 0.14296 0.08990
#
# Static dielectric constant tensor:
#      x y z
#    x 1.849330 0.000000 0.029080 
#    y 0.000000 1.943870 0.000000 
#    z 0.029080 0.000000 1.856200 
# 
# From -- ./inp_files/18242.got.cif
#   From: 2010.05.17/outbox.cif.g08.bks.cpg/sg5_10_cif.got.tgz:18242.got - 2010.06.03 18:56:24.
