data_PCOD9123052
_publ_section_title
;
Structure prediction by ZEFSAII (Michael W. Deem and Ramdas Pophale) SiO2 
 PCOD9123052
Probable space group: C 2
;
_chemical_formula_sum "Si O2"
_cell_formula_units_Z 32
_cell_length_a 23.017156
_cell_length_b 9.037895
_cell_length_c 14.121260
_cell_angle_alpha 90.000000
_cell_angle_beta 144.572190
_cell_angle_gamma 90.000000
_cell_volume 1702.857404
_symmetry_space_group_name_H-M "C 2"
_symmetry_group_IT_number 5
_symmetry_cell_setting 'monoclinic'
loop_
_space_group_symop_operation_xyz
x,y,z
-x,y,-z
1/2+x,1/2+y,z
1/2-x,1/2+y,-z
loop_
_atom_site_type_symbol
_atom_site_label
_atom_site_fract_x
_atom_site_fract_y
_atom_site_fract_z
Si Si1 0.025629 0.231820 0.897983
Si Si2 0.609534 0.240941 0.387569
Si Si3 0.947580 0.491120 0.195308
Si Si4 0.115915 0.822801 0.175260
Si Si5 0.187866 0.734579 0.065300
Si Si6 0.827537 0.152892 0.740556
Si Si7 0.085749 0.237241 0.690205
Si Si8 0.052439 0.978321 0.782940
O O1 0.025766 0.396718 0.861375
O O2 0.913472 0.192952 0.780032
O O3 0.048151 0.113054 0.848944
O O4 0.115932 0.210704 0.091319
O O5 0.615468 0.248628 0.279452
O O6 0.720879 0.222366 0.575530
O O7 0.551377 0.386628 0.348040
O O8 0.539268 0.105672 0.329673
O O9 0.927823 0.370211 0.250820
O O10 0.851157 0.588361 0.040136
O O11 0.152484 0.738338 0.128678
O O12 0.178571 0.974754 0.263891
O O13 0.000000 0.865261 0.000000
O O14 0.305777 0.750519 0.212744
O O15 0.134486 0.866303 0.934990
O O16 0.000000 0.258610 0.500000
O O17 0.075148 0.069445 0.717877
#
# Coordination Sequence:
#
# PCOD9123052 Si02
#       8
#     4   4   4   4   4   4   4   4
#     4  10  20  37  60  87 128 169 204 256 310 386
#     4  11  24  38  65  98 127 168 205 269 312 380
#     4  10  24  41  62  95 123 162 216 261 314 370
#     4  12  20  42  67  94 131 173 206 250 324 388
#     4  11  22  43  69  90 122 174 214 255 310 384
#     4  11  21  35  59  95 129 167 209 250 321 375
#     4  11  26  42  65  93 127 165 211 272 316 366
#     4  10  20  43  65  83 123 170 213 250 318 380
#
# _framework density 18.791943
#
# number of rings (size 3 to 8) (size 9 to 14) (size 15 to 20)
#    0.000    1.250    6.250    0.750    3.500    4.000 
#    0.000    2.500    0.000    0.000    0.000    0.000 
#    0.000    0.000    0.000    0.000    0.000    0.000 
#
# Total GULP energy -89169.473674 kJ/mol
# GULP energy per Si atom -5573.092105 kJ/mol
# Density = 1.874917 g / cm^3
# Si number density = 18.791943 Si / 1000 Ang^3
#
#
#
# Elastic Constant Matrix: (Units=GPa)
#
#
# Indices 1 2 3 4 5 6 
#
# 1 75.8864 20.1867 31.9571 0.0000 8.5890 0.0000
# 2 20.1867 76.5339 1.3121 0.0000 27.0792 0.0000
# 3 31.9571 1.3121 6.4196 0.0000 168.9731 0.0000
# 4 0.0000 0.0000 0.0000 24.8145 0.0000 -17.0811
# 5 8.5890 27.0792 168.9731 0.0000 -139.1002 0.0000
# 6 0.0000 0.0000 0.0000 -17.0811 0.0000 31.5738
#
#
#
# Elastic Compliance Matrix: (Units=1/GPa)
#
#
# Indices 1 2 3 4 5 6 
#
# 1 0.015391 -0.003028 -0.002593 0.000000 -0.002789 0.000000
# 2 -0.003028 0.013706 -0.001608 0.000000 0.000527 0.000000
# 3 -0.002593 -0.001608 0.005503 0.000000 0.006212 0.000000
# 4 0.000000 0.000000 0.000000 0.064210 0.000000 0.034737
# 5 -0.002789 0.000527 0.006212 0.000000 0.000287 0.000000
# 6 0.000000 0.000000 0.000000 0.034737 0.000000 0.050464
#
#
# Mechanical properties :
#
#
# Convention : Reuss Voigt Hill
#
# Bulk Modulus (GPa) = 49.65026 29.52797 39.58911
# Shear Modulus (GPa) = 29.28533 -9.51679 9.88427
#
# Velocity S-wave (km/s) = 3.95194 -2.25284 2.29592
# Velocity P-wave (km/s) = 6.87766 2.99669 5.30482
#
# Compressibility (1/GPa) = 0.02014088
#
# Stress axis : x y z
#
# Youngs Moduli (GPa) = 64.97452 72.96167 181.71214
#
# Poissons Ratio (x) = 0.22095 0.47113
# Poissons Ratio (y) = 0.19676 0.29226
# Poissons Ratio (z) = 0.16846 0.11735
#
# Static dielectric constant tensor:
#      x y z
#    x 1.674410 0.000000 0.006950 
#    y 0.000000 1.669690 0.000000 
#    z 0.006950 0.000000 1.606210 
# 
# From -- ./inp_files/57676.got.cif
#   From: 2010.05.17/outbox.cif.g08.bks.cpg/sg5_29_cif.got.tgz:57676.got - 2010.06.03 18:56:24.
