data_PCOD9123729
_publ_section_title
;
Structure prediction by ZEFSAII (Michael W. Deem and Ramdas Pophale) SiO2 
 PCOD9123729
Probable space group: C 2
;
_chemical_formula_sum "Si O2"
_cell_formula_units_Z 32
_cell_length_a 13.777363
_cell_length_b 27.117134
_cell_length_c 8.103365
_cell_angle_alpha 90.000000
_cell_angle_beta 31.635255
_cell_angle_gamma 90.000000
_cell_volume 1587.921282
_symmetry_space_group_name_H-M "C 2"
_symmetry_group_IT_number 5
_symmetry_cell_setting 'monoclinic'
loop_
_space_group_symop_operation_xyz
x,y,z
-x,y,-z
1/2+x,1/2+y,z
1/2-x,1/2+y,-z
loop_
_atom_site_type_symbol
_atom_site_label
_atom_site_fract_x
_atom_site_fract_y
_atom_site_fract_z
Si Si1 0.493363 0.583430 0.808979
Si Si2 0.152105 0.460910 0.465016
Si Si3 0.505083 0.858480 0.792082
Si Si4 0.231090 0.501517 0.032384
Si Si5 0.505470 0.696715 0.193368
Si Si6 0.712050 0.279366 0.234206
Si Si7 0.222391 0.506353 0.682945
Si Si8 0.708964 0.274545 0.635019
O O1 0.476728 0.640211 0.781729
O O2 0.685784 0.559447 0.471903
O O3 0.500000 0.579946 0.000000
O O4 0.333607 0.549882 0.955375
O O5 0.041259 0.411112 0.660133
O O6 0.258753 0.462016 0.138361
O O7 0.272591 0.473981 0.450235
O O8 0.992617 0.503029 0.672445
O O9 0.670947 0.822606 0.492901
O O10 0.500000 0.864666 0.000000
O O11 0.319363 0.828356 0.021003
O O12 0.292572 0.487898 0.758493
O O13 0.322437 0.725369 0.519636
O O14 0.500000 0.696070 0.000000
O O15 0.676269 0.731955 0.993478
O O16 0.500000 0.279279 0.500000
O O17 0.720553 0.276463 0.419909
O O18 0.000000 0.506727 0.000000
O O19 0.500000 0.275307 0.000000
#
# Coordination Sequence:
#
# PCOD9123729 Si02
#       8
#     4   4   4   4   4   4   4   4
#     4  11  20  38  60  88 118 163 209 250 303 366
#     4  10  20  40  60  85 120 164 200 246 302 352
#     4   9  18  37  63  82 118 162 198 239 306 366
#     4  10  21  37  58  86 120 153 204 251 291 355
#     4   8  18  36  61  84 117 161 196 239 306 362
#     4   9  18  38  60  88 118 151 196 249 299 366
#     4  10  21  38  60  82 122 159 199 256 298 347
#     4   9  18  37  60  88 120 151 195 249 299 367
#
# _framework density 20.152132000000002
#
# number of rings (size 3 to 8) (size 9 to 14) (size 15 to 20)
#    0.000    2.500    1.250    3.000    0.000    0.500 
#    9.000    9.375    0.000    0.000    0.000    0.000 
#    0.000    0.000    0.000    0.000    0.000    0.000 
#
# Total GULP energy -89113.762100 kJ/mol
# GULP energy per Si atom -5569.610131 kJ/mol
# Density = 2.010627 g / cm^3
# Si number density = 20.152132 Si / 1000 Ang^3
#
#
#
# Elastic Constant Matrix: (Units=GPa)
#
#
# Indices 1 2 3 4 5 6 
#
# 1 106.2827 54.9865 38.1208 0.0000 5.5899 0.0000
# 2 54.9865 138.8782 48.0810 0.0000 -6.7924 0.0000
# 3 38.1208 48.0810 97.7691 0.0000 -9.3980 0.0000
# 4 0.0000 0.0000 0.0000 17.7415 0.0000 5.2547
# 5 5.5899 -6.7924 -9.3980 0.0000 44.6682 0.0000
# 6 0.0000 0.0000 0.0000 5.2547 0.0000 12.2331
#
#
#
# Elastic Compliance Matrix: (Units=1/GPa)
#
#
# Indices 1 2 3 4 5 6 
#
# 1 0.012859 -0.004099 -0.003279 0.000000 -0.002922 0.000000
# 2 -0.004099 0.009993 -0.003185 0.000000 0.001362 0.000000
# 3 -0.003279 -0.003185 0.013336 0.000000 0.002732 0.000000
# 4 0.000000 0.000000 0.000000 0.064581 0.000000 -0.027741
# 5 -0.002922 0.001362 0.002732 0.000000 0.023535 0.000000
# 6 0.000000 0.000000 0.000000 -0.027741 0.000000 0.093661
#
#
# Mechanical properties :
#
#
# Convention : Reuss Voigt Hill
#
# Bulk Modulus (GPa) = 66.39461 69.47853 67.93657
# Shear Modulus (GPa) = 20.48240 28.37801 24.43021
#
# Velocity S-wave (km/s) = 3.19154 3.75666 3.48557
# Velocity P-wave (km/s) = 6.82638 7.30537 7.06993
#
# Compressibility (1/GPa) = 0.01506146
#
# Stress axis : x y z
#
# Youngs Moduli (GPa) = 77.76398 100.07110 74.98716
#
# Poissons Ratio (x) = 0.41021 0.24588
# Poissons Ratio (y) = 0.31877 0.23884
# Poissons Ratio (z) = 0.25499 0.31873
#
# Static dielectric constant tensor:
#      x y z
#    x 1.804250 0.000000 0.033980 
#    y 0.000000 1.693910 0.000000 
#    z 0.033980 0.000000 1.764100 
# 
# From -- ./inp_files/25704.got.cif
#   From: 2010.05.17/outbox.cif.g08.bks.cpg/sg5_13_cif.got.tgz:25704.got - 2010.06.03 18:56:24.
