data_PCOD9123162
_publ_section_title
;
Structure prediction by ZEFSAII (Michael W. Deem and Ramdas Pophale) SiO2 
 PCOD9123162
Probable space group: C 2
;
_chemical_formula_sum "Si O2"
_cell_formula_units_Z 28
_cell_length_a 9.420398
_cell_length_b 13.242026
_cell_length_c 13.178436
_cell_angle_alpha 90.000000
_cell_angle_beta 125.792572
_cell_angle_gamma 90.000000
_cell_volume 1333.469816
_symmetry_space_group_name_H-M "C 2"
_symmetry_group_IT_number 5
_symmetry_cell_setting 'monoclinic'
loop_
_space_group_symop_operation_xyz
x,y,z
-x,y,-z
1/2+x,1/2+y,z
1/2-x,1/2+y,-z
loop_
_atom_site_type_symbol
_atom_site_label
_atom_site_fract_x
_atom_site_fract_y
_atom_site_fract_z
Si Si1 0.685424 0.587420 0.530416
Si Si2 0.500000 0.991573 0.000000
Si Si3 0.016076 0.430145 0.390719
Si Si4 0.819788 0.980637 0.011660
Si Si5 0.333089 0.158274 0.797728
Si Si6 0.500000 0.309309 0.000000
Si Si7 0.457450 0.719997 0.711885
Si Si8 0.812071 0.071860 0.804618
O O1 0.500000 0.552179 0.500000
O O2 0.809019 0.496546 0.548256
O O3 0.781596 0.648647 0.660344
O O4 0.642514 0.660856 0.419924
O O5 0.574994 0.058168 0.123652
O O6 0.673755 0.946193 0.027990
O O7 0.029109 0.337130 0.316546
O O8 0.000000 0.390263 0.500000
O O9 0.853389 0.508096 0.305831
O O10 0.840615 0.883699 0.949592
O O11 0.006575 0.009178 0.138359
O O12 0.786465 0.070854 0.916539
O O13 0.157194 0.178398 0.789932
O O14 0.466250 0.244546 0.886722
O O15 0.356016 0.679396 0.769861
#
# Coordination Sequence:
#
# PCOD9123162 Si02
#       8
#     4   2   4   4   4   2   4   4
#     4  10  23  43  64  96 133 174 224 284 334 407
#     4  11  20  36  66  87 128 176 209 282 346 379
#     4  12  23  41  72  99 135 186 223 279 347 405
#     4  10  21  38  68  93 131 177 219 288 340 397
#     4  10  20  37  64  88 129 175 219 271 333 400
#     4   9  20  38  66  95 126 178 231 266 342 421
#     4  11  21  40  67  96 131 178 228 277 337 404
#     4  10  21  41  65  96 135 177 226 281 331 411
#
# _framework density 20.99785
#
# number of rings (size 3 to 8) (size 9 to 14) (size 15 to 20)
#    0.000    1.714    2.857    3.857    0.000    0.000 
#    2.571    0.000   25.143    1.714    0.000    0.000 
#    0.000    0.000    0.000    0.000    0.000    0.000 
#
# Total GULP energy -78003.003182 kJ/mol
# GULP energy per Si atom -5571.643084 kJ/mol
# Density = 2.095006 g / cm^3
# Si number density = 20.997850 Si / 1000 Ang^3
#
#
#
# Elastic Constant Matrix: (Units=GPa)
#
#
# Indices 1 2 3 4 5 6 
#
# 1 106.9698 32.5255 19.4997 0.0000 -9.1360 0.0000
# 2 32.5255 67.9971 5.7361 0.0000 -0.7768 0.0000
# 3 19.4997 5.7361 68.4882 0.0000 12.1795 0.0000
# 4 0.0000 0.0000 0.0000 44.6436 0.0000 -11.2197
# 5 -9.1360 -0.7768 12.1795 0.0000 26.2586 0.0000
# 6 0.0000 0.0000 0.0000 -11.2197 0.0000 24.6729
#
#
#
# Elastic Compliance Matrix: (Units=1/GPa)
#
#
# Indices 1 2 3 4 5 6 
#
# 1 0.012268 -0.005453 -0.004105 0.000000 0.006011 0.000000
# 2 -0.005453 0.017265 0.000385 0.000000 -0.001565 0.000000
# 3 -0.004105 0.000385 0.017427 0.000000 -0.009500 0.000000
# 4 0.000000 0.000000 0.000000 0.025290 0.000000 0.011500
# 5 0.006011 -0.001565 -0.009500 0.000000 0.044534 0.000000
# 6 0.000000 0.000000 0.000000 0.011500 0.000000 0.045760
#
#
# Mechanical properties :
#
#
# Convention : Reuss Voigt Hill
#
# Bulk Modulus (GPa) = 34.94927 39.88640 37.41784
# Shear Modulus (GPa) = 26.25649 31.49461 28.87555
#
# Velocity S-wave (km/s) = 3.53999 3.87705 3.71235
# Velocity P-wave (km/s) = 5.77832 6.25130 6.01946
#
# Compressibility (1/GPa) = 0.02861290
#
# Stress axis : x y z
#
# Youngs Moduli (GPa) = 81.51039 57.92161 57.38196
#
# Poissons Ratio (x) = 0.31587 0.23557
# Poissons Ratio (y) = 0.44451 -0.02210
# Poissons Ratio (z) = 0.33462 -0.02230
#
# Static dielectric constant tensor:
#      x y z
#    x 1.778680 0.000000 -0.029610 
#    y 0.000000 1.769580 0.000000 
#    z -0.029610 0.000000 1.758800 
# 
# From -- ./inp_files/36517.got.cif
#   From: 2010.05.17/outbox.cif.g08.bks.cpg/sg5_19_cif.got.tgz:36517.got - 2010.06.03 18:56:24.
