data_PCOD9123769
_publ_section_title
;
Structure prediction by ZEFSAII (Michael W. Deem and Ramdas Pophale) SiO2 
 PCOD9123769
Probable space group: C 2
;
_chemical_formula_sum "Si O2"
_cell_formula_units_Z 26
_cell_length_a 26.555680
_cell_length_b 8.321918
_cell_length_c 8.906199
_cell_angle_alpha 90.000000
_cell_angle_beta 142.108074
_cell_angle_gamma 90.000000
_cell_volume 1208.828469
_symmetry_space_group_name_H-M "C 2"
_symmetry_group_IT_number 5
_symmetry_cell_setting 'monoclinic'
loop_
_space_group_symop_operation_xyz
x,y,z
-x,y,-z
1/2+x,1/2+y,z
1/2-x,1/2+y,-z
loop_
_atom_site_type_symbol
_atom_site_label
_atom_site_fract_x
_atom_site_fract_y
_atom_site_fract_z
Si Si1 0.500000 0.656420 0.000000
Si Si2 0.761036 0.663099 0.895935
Si Si3 0.597348 0.498629 0.622612
Si Si4 0.852349 0.388243 0.563314
Si Si5 0.352218 0.226395 0.421998
Si Si6 0.936253 0.100586 0.151010
Si Si7 0.804859 0.378728 0.795630
O O1 0.430603 0.771694 0.764884
O O2 0.550465 0.559947 0.992453
O O3 0.684986 0.562338 0.782979
O O4 0.718118 0.807505 0.704862
O O5 0.809077 0.544312 0.897717
O O6 0.811539 0.707536 0.161541
O O7 0.578596 0.353983 0.463043
O O8 0.528964 0.631825 0.425035
O O9 0.593495 0.473519 0.792984
O O10 0.877452 0.557061 0.549298
O O11 0.816329 0.408981 0.646228
O O12 0.283275 0.301184 0.369852
O O13 0.874211 0.250416 0.009062
#
# Coordination Sequence:
#
# PCOD9123769 Si02
#       7
#     2   4   4   4   4   4   4
#     4  10  22  40  66  96 128 180 224 260 352 400
#     4  11  21  39  65  98 127 173 226 284 325 401
#     4  10  21  38  62  91 127 172 228 266 333 390
#     4  11  22  41  65  93 139 174 219 282 337 403
#     4  11  23  39  63  99 133 172 228 282 329 404
#     4  10  20  40  62  90 129 175 213 277 320 411
#     4  10  22  38  65  97 127 175 226 271 349 395
#
# _framework density 21.508427999999999
#
# number of rings (size 3 to 8) (size 9 to 14) (size 15 to 20)
#    0.000    1.538    3.077    2.769    0.000    0.000 
#    0.000    8.462    0.000    0.000    0.000    0.000 
#    0.000    0.000    0.000    0.000    0.000    0.000 
#
# Total GULP energy -72479.537172 kJ/mol
# GULP energy per Si atom -5575.349013 kJ/mol
# Density = 2.145947 g / cm^3
# Si number density = 21.508428 Si / 1000 Ang^3
#
#
#
# Elastic Constant Matrix: (Units=GPa)
#
#
# Indices 1 2 3 4 5 6 
#
# 1 168.1253 47.5056 23.5101 0.0000 -32.7232 0.0000
# 2 47.5056 68.3204 14.8593 0.0000 -16.4683 0.0000
# 3 23.5101 14.8593 63.0549 0.0000 -9.8628 0.0000
# 4 0.0000 0.0000 0.0000 27.4472 0.0000 -11.5222
# 5 -32.7232 -16.4683 -9.8628 0.0000 33.1569 0.0000
# 6 0.0000 0.0000 0.0000 -11.5222 0.0000 34.5525
#
#
#
# Elastic Compliance Matrix: (Units=1/GPa)
#
#
# Indices 1 2 3 4 5 6 
#
# 1 0.008451 -0.004186 -0.001243 0.000000 0.005892 0.000000
# 2 -0.004186 0.019170 -0.002217 0.000000 0.004731 0.000000
# 3 -0.001243 -0.002217 0.017285 0.000000 0.002814 0.000000
# 4 0.000000 0.000000 0.000000 0.042364 0.000000 0.014127
# 5 0.005892 0.004731 0.002814 0.000000 0.039161 0.000000
# 6 0.000000 0.000000 0.000000 0.014127 0.000000 0.033652
#
#
# Mechanical properties :
#
#
# Convention : Reuss Voigt Hill
#
# Bulk Modulus (GPa) = 33.76679 52.36119 43.06399
# Shear Modulus (GPa) = 26.99091 33.27303 30.13197
#
# Velocity S-wave (km/s) = 3.54630 3.93743 3.74697
# Velocity P-wave (km/s) = 5.70103 6.71331 6.22777
#
# Compressibility (1/GPa) = 0.02961490
#
# Stress axis : x y z
#
# Youngs Moduli (GPa) = 118.32447 52.16484 57.85297
#
# Poissons Ratio (x) = 0.21836 0.07191
# Poissons Ratio (y) = 0.49530 0.12825
# Poissons Ratio (z) = 0.14708 0.11564
#
# Static dielectric constant tensor:
#      x y z
#    x 1.817560 0.000000 -0.017050 
#    y 0.000000 1.873040 0.000000 
#    z -0.017050 0.000000 1.807310 
# 
# From -- ./inp_files/26708.got.cif
#   From: 2010.05.17/outbox.cif.g08.bks.cpg/sg5_14_cif.got.tgz:26708.got - 2010.06.03 18:56:24.
