data_PCOD9123594
_publ_section_title
;
Structure prediction by ZEFSAII (Michael W. Deem and Ramdas Pophale) SiO2 
 PCOD9123594
Probable space group: C 2
;
_chemical_formula_sum "Si O2"
_cell_formula_units_Z 28
_cell_length_a 5.140909
_cell_length_b 32.160372
_cell_length_c 8.676755
_cell_angle_alpha 90.000000
_cell_angle_beta 62.021048
_cell_angle_gamma 90.000000
_cell_volume 1266.887449
_symmetry_space_group_name_H-M "C 2"
_symmetry_group_IT_number 5
_symmetry_cell_setting 'monoclinic'
loop_
_space_group_symop_operation_xyz
x,y,z
-x,y,-z
1/2+x,1/2+y,z
1/2-x,1/2+y,-z
loop_
_atom_site_type_symbol
_atom_site_label
_atom_site_fract_x
_atom_site_fract_y
_atom_site_fract_z
Si Si1 0.419901 0.598850 0.700862
Si Si2 0.846532 0.912380 0.710083
Si Si3 0.651383 0.692535 0.286256
Si Si4 0.854263 0.739142 0.709481
Si Si5 0.845357 0.825260 0.877907
Si Si6 0.191983 0.554149 0.176928
Si Si7 0.156707 0.460417 0.287914
O O1 0.500000 0.600986 0.500000
O O2 0.382601 0.646154 0.768104
O O3 0.700887 0.576659 0.697797
O O4 0.108496 0.574618 0.802124
O O5 0.897457 0.867666 0.770389
O O6 0.513911 0.926638 0.768954
O O7 0.000000 0.912475 0.500000
O O8 0.012185 0.946053 0.769922
O O9 0.500000 0.693317 0.500000
O O10 0.481516 0.725741 0.227006
O O11 0.984049 0.705972 0.226201
O O12 0.919610 0.784263 0.760055
O O13 0.000000 0.737278 0.500000
O O14 0.500000 0.822994 0.000000
O O15 0.000000 0.825809 0.000000
O O16 0.135703 0.505547 0.219731
O O17 0.500000 0.558880 0.000000
O O18 0.000000 0.462004 0.500000
#
# Coordination Sequence:
#
# PCOD9123594 Si02
#       7
#     4   4   4   4   4   4   4
#     4  11  22  41  66  90 121 164 213 258 303 361
#     4  10  22  41  64  88 115 154 204 251 296 352
#     4   9  19  36  63  91 113 151 208 258 295 344
#     4  10  20  39  63  87 117 155 201 249 297 352
#     4  12  25  40  59  89 125 157 193 238 301 367
#     4  12  25  40  60  93 131 164 201 251 314 370
#     4  10  21  39  64  90 116 155 207 253 297 356
#
# _framework density 22.101409
#
# number of rings (size 3 to 8) (size 9 to 14) (size 15 to 20)
#    0.000    1.429    0.000    5.571    0.000    5.143 
#    0.000   12.857    0.000    0.000    0.000    0.000 
#    0.000    0.000    0.000    0.000    0.000    0.000 
#
# Total GULP energy -78275.054861 kJ/mol
# GULP energy per Si atom -5591.075347 kJ/mol
# Density = 2.205111 g / cm^3
# Si number density = 22.101409 Si / 1000 Ang^3
#
#
#
# Elastic Constant Matrix: (Units=GPa)
#
#
# Indices 1 2 3 4 5 6 
#
# 1 138.3829 24.0923 20.6388 0.0000 12.1751 0.0000
# 2 24.0923 117.4240 9.3633 0.0000 18.7019 0.0000
# 3 20.6388 9.3633 26.7008 0.0000 3.0434 0.0000
# 4 0.0000 0.0000 0.0000 6.6877 0.0000 3.7745
# 5 12.1751 18.7019 3.0434 0.0000 28.1438 0.0000
# 6 0.0000 0.0000 0.0000 3.7745 0.0000 45.9634
#
#
#
# Elastic Compliance Matrix: (Units=1/GPa)
#
#
# Indices 1 2 3 4 5 6 
#
# 1 0.008484 -0.000875 -0.005973 0.000000 -0.002443 0.000000
# 2 -0.000875 0.009804 -0.002087 0.000000 -0.005910 0.000000
# 3 -0.005973 -0.002087 0.042877 0.000000 -0.000666 0.000000
# 4 0.000000 0.000000 0.000000 0.156795 0.000000 -0.012876
# 5 -0.002443 -0.005910 -0.000666 0.000000 0.040588 0.000000
# 6 0.000000 0.000000 0.000000 -0.012876 0.000000 0.022814
#
#
# Mechanical properties :
#
#
# Convention : Reuss Voigt Hill
#
# Bulk Modulus (GPa) = 23.09830 43.41072 33.25451
# Shear Modulus (GPa) = 15.94066 31.38654 23.66360
#
# Velocity S-wave (km/s) = 2.68852 3.77253 3.27568
# Velocity P-wave (km/s) = 4.48456 6.21773 5.42086
#
# Compressibility (1/GPa) = 0.04329323
#
# Stress axis : x y z
#
# Youngs Moduli (GPa) = 117.86260 102.00429 23.32269
#
# Poissons Ratio (x) = 0.08930 0.13930
# Poissons Ratio (y) = 0.10318 0.04869
# Poissons Ratio (z) = 0.70396 0.21293
#
# Static dielectric constant tensor:
#      x y z
#    x 1.764620 0.000000 0.016240 
#    y 0.000000 1.920340 0.000000 
#    z 0.016240 0.000000 1.858600 
# 
# From -- ./inp_files/13290.got.cif
#   From: 2010.05.17/outbox.cif.g08.bks.cpg/sg5_7_cif.got.tgz:13290.got - 2010.06.03 18:56:24.
