data_PCOD9123965
_publ_section_title
;
Structure prediction by ZEFSAII (Michael W. Deem and Ramdas Pophale) SiO2 
 PCOD9123965
Probable space group: C 2
;
_chemical_formula_sum "Si O2"
_cell_formula_units_Z 16
_cell_length_a 23.231751
_cell_length_b 4.995283
_cell_length_c 5.475079
_cell_angle_alpha 90.000000
_cell_angle_beta 71.733057
_cell_angle_gamma 90.000000
_cell_volume 603.359424
_symmetry_space_group_name_H-M "C 2"
_symmetry_group_IT_number 5
_symmetry_cell_setting 'monoclinic'
loop_
_space_group_symop_operation_xyz
x,y,z
-x,y,-z
1/2+x,1/2+y,z
1/2-x,1/2+y,-z
loop_
_atom_site_type_symbol
_atom_site_label
_atom_site_fract_x
_atom_site_fract_y
_atom_site_fract_z
Si Si1 0.328741 0.807190 0.794601
Si Si2 0.000000 0.954777 0.000000
Si Si3 0.500000 0.510279 0.500000
Si Si4 0.900385 0.676067 0.404008
Si Si5 0.692543 0.310088 0.833326
O O1 0.265266 0.817776 0.732547
O O2 0.381935 0.887611 0.534751
O O3 0.329845 0.545461 0.959176
O O4 0.325739 0.041272 0.000688
O O5 0.993798 0.140064 0.770765
O O6 0.056057 0.754059 0.880120
O O7 0.441081 0.321264 0.552775
O O8 0.837566 0.807326 0.394132
#
# Coordination Sequence:
#
# PCOD9123965 Si02
#       5
#     4   2   2   4   4
#     4  10  23  42  69 107 146 191 244 308 378 449
#     4   8  18  36  68 104 138 192 240 302 356 444
#     4   8  18  36  68 104 138 192 240 302 356 444
#     4  10  20  40  74 102 150 190 252 304 376 446
#     4  10  23  42  69 107 146 191 244 308 378 449
#
# _framework density 26.518191999999999
#
# number of rings (size 3 to 8) (size 9 to 14) (size 15 to 20)
#    1.500    1.000    0.000    1.500    0.000    8.000 
#    0.000    0.000   11.000    0.000    0.000    0.000 
#    0.000    0.000    0.000    0.000    0.000    0.000 
#
# Total GULP energy -44675.454333 kJ/mol
# GULP energy per Si atom -5584.431792 kJ/mol
# Density = 2.645784 g / cm^3
# Si number density = 26.518192 Si / 1000 Ang^3
#
#
#
# Elastic Constant Matrix: (Units=GPa)
#
#
# Indices 1 2 3 4 5 6 
#
# 1 129.8707 38.3924 35.0912 0.0000 20.3960 0.0000
# 2 38.3924 110.8280 22.2057 0.0000 -1.9776 0.0000
# 3 35.0912 22.2057 135.2428 0.0000 16.8617 0.0000
# 4 0.0000 0.0000 0.0000 32.4817 0.0000 -6.8543
# 5 20.3960 -1.9776 16.8617 0.0000 57.6808 0.0000
# 6 0.0000 0.0000 0.0000 -6.8543 0.0000 15.9829
#
#
#
# Elastic Compliance Matrix: (Units=1/GPa)
#
#
# Indices 1 2 3 4 5 6 
#
# 1 0.009495 -0.003023 -0.001594 0.000000 -0.002995 0.000000
# 2 -0.003023 0.010328 -0.001130 0.000000 0.001753 0.000000
# 3 -0.001594 -0.001130 0.008228 0.000000 -0.001880 0.000000
# 4 0.000000 0.000000 0.000000 0.033850 0.000000 0.014517
# 5 -0.002995 0.001753 -0.001880 0.000000 0.019006 0.000000
# 6 0.000000 0.000000 0.000000 0.014517 0.000000 0.068792
#
#
# Mechanical properties :
#
#
# Convention : Reuss Voigt Hill
#
# Bulk Modulus (GPa) = 60.39957 63.03558 61.71757
# Shear Modulus (GPa) = 29.99206 39.91256 34.95231
#
# Velocity S-wave (km/s) = 3.36668 3.88377 3.63443
# Velocity P-wave (km/s) = 6.15945 6.62826 6.39815
#
# Compressibility (1/GPa) = 0.01655641
#
# Stress axis : x y z
#
# Youngs Moduli (GPa) = 105.32187 96.82451 121.54208
#
# Poissons Ratio (x) = 0.29272 0.19371
# Poissons Ratio (y) = 0.31841 0.13734
# Poissons Ratio (z) = 0.16786 0.10941
#
# Static dielectric constant tensor:
#      x y z
#    x 2.082580 0.000000 0.011140 
#    y 0.000000 1.999870 0.000000 
#    z 0.011140 0.000000 2.139900 
# 
# From -- ./inp_files/9072.got.cif
#   From: 2010.05.17/outbox.cif.g08.bks.cpg/sg5_5_cif.got.tgz:9072.got - 2010.06.03 18:56:24.
