data_PCOD9123512
_publ_section_title
;
Structure prediction by ZEFSAII (Michael W. Deem and Ramdas Pophale) SiO2 
 PCOD9123512
Probable space group: C 2
;
_chemical_formula_sum "Si O2"
_cell_formula_units_Z 30
_cell_length_a 20.441337
_cell_length_b 8.610052
_cell_length_c 16.738218
_cell_angle_alpha 90.000000
_cell_angle_beta 154.706659
_cell_angle_gamma 90.000000
_cell_volume 1258.662219
_symmetry_space_group_name_H-M "C 2"
_symmetry_group_IT_number 5
_symmetry_cell_setting 'monoclinic'
loop_
_space_group_symop_operation_xyz
x,y,z
-x,y,-z
1/2+x,1/2+y,z
1/2-x,1/2+y,-z
loop_
_atom_site_type_symbol
_atom_site_label
_atom_site_fract_x
_atom_site_fract_y
_atom_site_fract_z
Si Si1 0.450422 0.571980 0.331643
Si Si2 0.500000 0.322407 0.500000
Si Si3 0.763749 0.879149 0.560358
Si Si4 0.744719 0.820849 0.805734
Si Si5 0.807959 0.582067 0.382205
Si Si6 0.433649 0.792581 0.810420
Si Si7 0.419977 0.543072 0.116523
Si Si8 0.182753 0.610716 0.256206
O O1 0.396208 0.435932 0.331403
O O2 0.396428 0.731283 0.311304
O O3 0.381904 0.563128 0.167366
O O4 0.635730 0.563483 0.537433
O O5 0.420645 0.213896 0.477349
O O6 0.674001 0.815348 0.386172
O O7 0.828589 0.742433 0.687992
O O8 0.657296 0.988708 0.498223
O O9 0.905293 0.982757 0.689486
O O10 0.834947 0.696575 0.849189
O O11 0.700712 0.955099 0.695820
O O12 0.831167 0.909014 0.971983
O O13 0.646972 0.668698 0.219868
O O14 0.580346 0.703242 0.935474
O O15 0.419809 0.960919 0.836106
#
# Coordination Sequence:
#
# PCOD9123512 Si02
#       8
#     4   2   4   4   4   4   4   4
#     4  12  22  43  72  95 138 184 239 282 333 422
#     4  12  22  38  68 100 130 180 234 294 316 410
#     4  10  20  38  68 104 131 171 232 290 348 399
#     4  11  26  43  64 100 143 188 215 278 365 421
#     4  10  23  35  63  98 141 169 230 279 342 402
#     4  11  19  41  69 102 126 175 240 292 335 402
#     4  11  25  43  67  97 146 174 226 292 353 414
#     4  11  20  40  72 104 129 179 238 286 336 408
#
# _framework density 23.834828999999999
#
# number of rings (size 3 to 8) (size 9 to 14) (size 15 to 20)
#    0.000    1.067    5.333    0.800    3.733    5.867 
#    0.000    5.333    0.000    0.000    0.000    0.000 
#    0.000    0.000    0.000    0.000    0.000    0.000 
#
# Total GULP energy -83894.497117 kJ/mol
# GULP energy per Si atom -5592.966474 kJ/mol
# Density = 2.378058 g / cm^3
# Si number density = 23.834829 Si / 1000 Ang^3
#
#
#
# Elastic Constant Matrix: (Units=GPa)
#
#
# Indices 1 2 3 4 5 6 
#
# 1 129.4759 69.9438 36.1411 0.0000 -38.2829 0.0000
# 2 69.9438 178.6048 38.5728 0.0000 -16.7521 0.0000
# 3 36.1411 38.5728 59.8202 0.0000 -25.3361 0.0000
# 4 0.0000 0.0000 0.0000 35.9870 0.0000 1.4958
# 5 -38.2829 -16.7521 -25.3361 0.0000 28.7784 0.0000
# 6 0.0000 0.0000 0.0000 1.4958 0.0000 52.4339
#
#
#
# Elastic Compliance Matrix: (Units=1/GPa)
#
#
# Indices 1 2 3 4 5 6 
#
# 1 0.015490 -0.004646 0.001944 0.000000 0.019612 0.000000
# 2 -0.004646 0.007899 -0.004714 0.000000 -0.005733 0.000000
# 3 0.001944 -0.004714 0.029524 0.000000 0.025834 0.000000
# 4 0.000000 0.000000 0.000000 0.027821 0.000000 -0.000794
# 5 0.019612 -0.005733 0.025834 0.000000 0.080245 0.000000
# 6 0.000000 0.000000 0.000000 -0.000794 0.000000 0.019094
#
#
# Mechanical properties :
#
#
# Convention : Reuss Voigt Hill
#
# Bulk Modulus (GPa) = 26.26089 73.02404 49.64246
# Shear Modulus (GPa) = 24.08499 38.32274 31.20386
#
# Velocity S-wave (km/s) = 3.18228 4.01415 3.62217
# Velocity P-wave (km/s) = 4.95422 7.22416 6.19406
#
# Compressibility (1/GPa) = 0.03807945
#
# Stress axis : x y z
#
# Youngs Moduli (GPa) = 64.55959 126.59959 33.87085
#
# Poissons Ratio (x) = 0.58822 -0.06586
# Poissons Ratio (y) = 0.29996 0.15968
# Poissons Ratio (z) = -0.12552 0.59685
#
# Static dielectric constant tensor:
#      x y z
#    x 1.935200 0.000000 0.016290 
#    y 0.000000 1.930760 0.000000 
#    z 0.016290 0.000000 1.952640 
# 
# From -- ./inp_files/62784.got.cif
#   From: 2010.05.17/outbox.cif.g08.bks.cpg/sg5_32_cif.got.tgz:62784.got - 2010.06.03 18:56:24.
