data_PCOD9123831
_publ_section_title
;
Structure prediction by ZEFSAII (Michael W. Deem and Ramdas Pophale) SiO2 
 PCOD9123831
Probable space group: C 2
;
_chemical_formula_sum "Si O2"
_cell_formula_units_Z 26
_cell_length_a 20.392537
_cell_length_b 9.787257
_cell_length_c 11.220903
_cell_angle_alpha 90.000000
_cell_angle_beta 144.764511
_cell_angle_gamma 90.000000
_cell_volume 1292.080178
_symmetry_space_group_name_H-M "C 2"
_symmetry_group_IT_number 5
_symmetry_cell_setting 'monoclinic'
loop_
_space_group_symop_operation_xyz
x,y,z
-x,y,-z
1/2+x,1/2+y,z
1/2-x,1/2+y,-z
loop_
_atom_site_type_symbol
_atom_site_label
_atom_site_fract_x
_atom_site_fract_y
_atom_site_fract_z
Si Si1 0.796494 0.003050 0.322327
Si Si2 0.500000 0.314555 0.000000
Si Si3 0.226007 0.083463 0.183191
Si Si4 0.755639 0.288428 0.348275
Si Si5 0.135320 0.308938 0.228321
Si Si6 0.872871 0.790336 0.261268
Si Si7 0.966908 0.939910 0.200966
O O1 0.792668 0.165768 0.317062
O O2 0.699196 0.938135 0.262300
O O3 0.799788 0.918435 0.204041
O O4 0.918030 0.967797 0.560340
O O5 0.624555 0.248187 0.185960
O O6 0.500396 0.404627 0.117818
O O7 0.190895 0.180704 0.240647
O O8 0.319277 0.156270 0.239688
O O9 0.256377 0.935550 0.283679
O O10 0.117207 0.066267 0.936019
O O11 0.829784 0.297238 0.580274
O O12 0.000000 0.312551 0.000000
O O13 0.895102 0.817006 0.155119
O O14 0.000000 0.797358 0.500000
#
# Coordination Sequence:
#
# PCOD9123831 Si02
#       7
#     4   2   4   4   4   4   4
#     4  10  21  39  60  92 126 166 213 258 315 376
#     4  10  22  36  60  96 118 168 202 260 320 376
#     4  10  23  39  63  92 122 171 215 256 320 373
#     4  11  22  37  60  93 131 159 216 261 317 374
#     4  11  22  37  60  92 131 169 210 263 316 372
#     4   9  21  43  63  85 125 175 211 259 315 375
#     4  10  20  40  65  88 126 168 209 259 315 379
#
# _framework density 20.122591
#
# number of rings (size 3 to 8) (size 9 to 14) (size 15 to 20)
#    0.000    1.846    1.538    1.846    7.538    2.462 
#    0.000    6.923    0.000    0.000    0.000    0.000 
#    0.000    0.000    0.000    0.000    0.000    0.000 
#
# Total GULP energy -72424.383899 kJ/mol
# GULP energy per Si atom -5571.106454 kJ/mol
# Density = 2.007679 g / cm^3
# Si number density = 20.122591 Si / 1000 Ang^3
#
#
#
# Elastic Constant Matrix: (Units=GPa)
#
#
# Indices 1 2 3 4 5 6 
#
# 1 88.6891 48.4606 15.1004 0.0000 9.1918 0.0000
# 2 48.4606 133.5756 17.0286 0.0000 6.0496 0.0000
# 3 15.1004 17.0286 78.2698 0.0000 13.1279 0.0000
# 4 0.0000 0.0000 0.0000 18.6162 0.0000 5.3429
# 5 9.1918 6.0496 13.1279 0.0000 27.0325 0.0000
# 6 0.0000 0.0000 0.0000 5.3429 0.0000 24.1008
#
#
#
# Elastic Compliance Matrix: (Units=1/GPa)
#
#
# Indices 1 2 3 4 5 6 
#
# 1 0.014531 -0.004975 -0.001175 0.000000 -0.003257 0.000000
# 2 -0.004975 0.009427 -0.001112 0.000000 0.000122 0.000000
# 3 -0.001175 -0.001112 0.014301 0.000000 -0.006297 0.000000
# 4 0.000000 0.000000 0.000000 0.057367 0.000000 -0.012718
# 5 -0.003257 0.000122 -0.006297 0.000000 0.041131 0.000000
# 6 0.000000 0.000000 0.000000 -0.012718 0.000000 0.044312
#
#
# Mechanical properties :
#
#
# Convention : Reuss Voigt Hill
#
# Bulk Modulus (GPa) = 42.12791 51.30150 46.71471
# Shear Modulus (GPa) = 24.56965 28.61289 26.59127
#
# Velocity S-wave (km/s) = 3.49807 3.77494 3.63914
# Velocity P-wave (km/s) = 6.10708 6.67458 6.39713
#
# Compressibility (1/GPa) = 0.02373723
#
# Stress axis : x y z
#
# Youngs Moduli (GPa) = 68.81809 106.07441 69.92520
#
# Poissons Ratio (x) = 0.52767 0.08215
# Poissons Ratio (y) = 0.34234 0.07774
# Poissons Ratio (z) = 0.08085 0.11793
#
# Static dielectric constant tensor:
#      x y z
#    x 1.858270 0.000000 0.029850 
#    y 0.000000 1.742740 0.000000 
#    z 0.029850 0.000000 1.755630 
# 
# From -- ./inp_files/46177.got.cif
#   From: 2010.05.17/outbox.cif.g08.bks.cpg/sg5_24_cif.got.tgz:46177.got - 2010.06.03 18:56:24.
