data_PCOD9123551
_publ_section_title
;
Structure prediction by ZEFSAII (Michael W. Deem and Ramdas Pophale) SiO2 
 PCOD9123551
Probable space group: C 2
;
_chemical_formula_sum "Si O2"
_cell_formula_units_Z 32
_cell_length_a 12.101000
_cell_length_b 14.613541
_cell_length_c 17.566816
_cell_angle_alpha 90.000000
_cell_angle_beta 32.082596
_cell_angle_gamma 90.000000
_cell_volume 1649.984237
_symmetry_space_group_name_H-M "C 2"
_symmetry_group_IT_number 5
_symmetry_cell_setting 'monoclinic'
loop_
_space_group_symop_operation_xyz
x,y,z
-x,y,-z
1/2+x,1/2+y,z
1/2-x,1/2+y,-z
loop_
_atom_site_type_symbol
_atom_site_label
_atom_site_fract_x
_atom_site_fract_y
_atom_site_fract_z
Si Si1 0.247815 0.513250 0.354439
Si Si2 0.436612 0.670052 0.831728
Si Si3 0.683221 0.692437 0.454942
Si Si4 0.509696 0.201807 0.143096
Si Si5 0.911684 0.329239 0.351636
Si Si6 0.885070 0.986030 0.446523
Si Si7 0.802335 0.551735 0.160206
Si Si8 0.141931 0.884932 0.848546
O O1 0.367981 0.606597 0.265237
O O2 0.306862 0.483010 0.405042
O O3 0.334395 0.443216 0.241593
O O4 0.000000 0.521566 0.500000
O O5 0.522264 0.768183 0.758027
O O6 0.319766 0.619168 0.828045
O O7 0.254088 0.681667 0.999469
O O8 0.500000 0.710967 0.500000
O O9 0.653676 0.757119 0.544639
O O10 0.667892 0.586067 0.488135
O O11 0.900062 0.714792 0.287592
O O12 0.393137 0.115885 0.172873
O O13 0.457428 0.287893 0.119122
O O14 0.734551 0.404495 0.442170
O O15 0.124907 0.374389 0.256427
O O16 0.134553 0.983557 0.293621
O O17 0.000000 0.511416 0.000000
O O18 0.000000 0.922567 0.000000
#
# Coordination Sequence:
#
# PCOD9123551 Si02
#       8
#     4   4   4   4   4   4   4   4
#     4  11  23  40  60  87 129 169 201 250 314 374
#     4  10  20  39  57  86 123 165 197 247 320 365
#     4  12  21  37  64  94 125 161 208 261 311 363
#     4  11  19  34  64  91 123 149 206 261 317 356
#     4  12  21  37  63  91 125 163 206 260 306 369
#     4  11  22  36  60  97 127 158 213 256 310 374
#     4   9  16  33  59  85 123 157 191 254 314 358
#     4  12  21  35  63  96 124 154 211 271 309 359
#
# _framework density 19.394126
#
# number of rings (size 3 to 8) (size 9 to 14) (size 15 to 20)
#    0.000    1.000    8.750    1.125    0.000    1.000 
#    0.000    0.625    0.000    0.000    0.000    0.000 
#    0.000    0.000    0.000    0.000    0.000    0.000 
#
# Total GULP energy -89349.761467 kJ/mol
# GULP energy per Si atom -5584.360092 kJ/mol
# Density = 1.934998 g / cm^3
# Si number density = 19.394126 Si / 1000 Ang^3
#
#
#
# Elastic Constant Matrix: (Units=GPa)
#
#
# Indices 1 2 3 4 5 6 
#
# 1 25.3844 5.8570 18.5933 0.0003 -0.4466 0.0004
# 2 5.8570 47.6422 25.4010 0.0012 -10.1500 0.0010
# 3 18.5933 25.4010 154.4340 0.0038 2.4355 0.0038
# 4 0.0003 0.0012 0.0038 30.1657 -0.0016 0.3225
# 5 -0.4466 -10.1500 2.4355 -0.0016 19.9013 -0.0015
# 6 0.0004 0.0010 0.0038 0.3225 -0.0015 22.3130
#
#
#
# Elastic Compliance Matrix: (Units=1/GPa)
#
#
# Indices 1 2 3 4 5 6 
#
# 1 0.043544 -0.002767 -0.004790 0.000000 0.000152 0.000000
# 2 -0.002767 0.026589 -0.004261 0.000000 0.014020 0.000000
# 3 -0.004790 -0.004261 0.007804 -0.000001 -0.003236 -0.000001
# 4 0.000000 0.000000 -0.000001 0.033155 0.000003 -0.000479
# 5 0.000152 0.014020 -0.003236 0.000003 0.057798 0.000004
# 6 0.000000 0.000000 -0.000001 -0.000479 0.000004 0.044824
#
#
# Mechanical properties :
#
#
# Convention : Reuss Voigt Hill
#
# Bulk Modulus (GPa) = 18.41607 36.35147 27.38377
# Shear Modulus (GPa) = 19.57332 26.31662 22.94497
#
# Velocity S-wave (km/s) = 3.18030 3.68766 3.44334
# Velocity P-wave (km/s) = 4.79605 6.07586 5.47348
#
# Compressibility (1/GPa) = 0.05430041
#
# Stress axis : x y z
#
# Youngs Moduli (GPa) = 22.96538 37.60977 128.14183
#
# Poissons Ratio (x) = 0.10406 0.61378
# Poissons Ratio (y) = 0.06354 0.54605
# Poissons Ratio (z) = 0.11000 0.16026
#
# Static dielectric constant tensor:
#      x y z
#    x 1.675560 0.000000 0.006980 
#    y 0.000000 1.696210 0.000000 
#    z 0.006980 0.000000 1.701500 
# 
# From -- ./inp_files/60672.got.cif
#   From: 2010.05.17/outbox.cif.g08.bks.cpg/sg5_31_cif.got.tgz:60672.got - 2010.06.03 18:56:24.
