data_PCOD9123206
_publ_section_title
;
Structure prediction by ZEFSAII (Michael W. Deem and Ramdas Pophale) SiO2 
 PCOD9123206
Probable space group: C 2
;
_chemical_formula_sum "Si O2"
_cell_formula_units_Z 28
_cell_length_a 30.847171
_cell_length_b 5.213900
_cell_length_c 10.657764
_cell_angle_alpha 90.000000
_cell_angle_beta 48.521987
_cell_angle_gamma 90.000000
_cell_volume 1284.244369
_symmetry_space_group_name_H-M "C 2"
_symmetry_group_IT_number 5
_symmetry_cell_setting 'monoclinic'
loop_
_space_group_symop_operation_xyz
x,y,z
-x,y,-z
1/2+x,1/2+y,z
1/2-x,1/2+y,-z
loop_
_atom_site_type_symbol
_atom_site_label
_atom_site_fract_x
_atom_site_fract_y
_atom_site_fract_z
Si Si1 0.261157 0.057050 0.815093
Si Si2 0.000000 0.739997 0.500000
Si Si3 0.903269 0.642945 0.316403
Si Si4 0.000000 0.290753 0.000000
Si Si5 0.180070 0.055084 0.189336
Si Si6 0.417852 0.880663 0.532287
Si Si7 0.725033 0.234257 0.492342
Si Si8 0.004410 0.029042 0.748898
O O1 0.303441 0.271669 0.796833
O O2 0.283125 0.770320 0.804382
O O3 0.257126 0.130353 0.678801
O O4 0.200914 0.084202 0.006571
O O5 0.058602 0.582167 0.415053
O O6 0.985726 0.878520 0.660256
O O7 0.883305 0.487393 0.479099
O O8 0.844646 0.727105 0.362113
O O9 0.939653 0.878917 0.303294
O O10 0.947885 0.469848 0.151020
O O11 0.974435 0.113722 0.936093
O O12 0.115179 0.145762 0.341151
O O13 0.476224 0.792150 0.351953
O O14 0.752342 0.022204 0.532239
#
# Coordination Sequence:
#
# PCOD9123206 Si02
#       8
#     4   2   4   2   4   4   4   4
#     4  10  21  40  62  98 121 162 222 269 325 381
#     4  10  22  38  60 102 128 166 220 280 340 410
#     4  10  22  41  68  96 129 181 234 272 342 409
#     4  10  22  40  72 100 126 188 228 288 338 418
#     4  10  20  37  70  90 124 162 216 273 319 398
#     4  10  20  37  66  93 124 172 214 271 335 404
#     4  12  26  42  68  97 140 183 227 279 335 413
#     4  10  21  40  68  93 135 172 225 282 340 410
#
# _framework density 21.802703999999999
#
# number of rings (size 3 to 8) (size 9 to 14) (size 15 to 20)
#    0.000    1.714    1.429    2.571    6.000    0.000 
#    0.000    7.143    6.286    0.000    0.000    0.000 
#    0.000    0.000    0.000    0.000    0.000    0.000 
#
# Total GULP energy -78057.053893 kJ/mol
# GULP energy per Si atom -5575.503850 kJ/mol
# Density = 2.175308 g / cm^3
# Si number density = 21.802704 Si / 1000 Ang^3
#
#
#
# Elastic Constant Matrix: (Units=GPa)
#
#
# Indices 1 2 3 4 5 6 
#
# 1 77.3700 22.0267 23.7246 0.0000 7.2847 0.0000
# 2 22.0267 70.0824 8.3534 0.0000 3.4971 0.0000
# 3 23.7246 8.3534 120.2576 0.0000 10.9449 0.0000
# 4 0.0000 0.0000 0.0000 40.8924 0.0000 8.1457
# 5 7.2847 3.4971 10.9449 0.0000 24.6498 0.0000
# 6 0.0000 0.0000 0.0000 8.1457 0.0000 27.4266
#
#
#
# Elastic Compliance Matrix: (Units=1/GPa)
#
#
# Indices 1 2 3 4 5 6 
#
# 1 0.015170 -0.004338 -0.002438 0.000000 -0.002785 0.000000
# 2 -0.004338 0.015695 -0.000155 0.000000 -0.000876 0.000000
# 3 -0.002438 -0.000155 0.009108 0.000000 -0.003302 0.000000
# 4 0.000000 0.000000 0.000000 0.025992 0.000000 -0.007720
# 5 -0.002785 -0.000876 -0.003302 0.000000 0.042982 0.000000
# 6 0.000000 0.000000 0.000000 -0.007720 0.000000 0.038754
#
#
# Mechanical properties :
#
#
# Convention : Reuss Voigt Hill
#
# Bulk Modulus (GPa) = 38.29878 41.76881 40.03380
# Shear Modulus (GPa) = 29.36607 32.83411 31.10009
#
# Velocity S-wave (km/s) = 3.67400 3.88489 3.78091
# Velocity P-wave (km/s) = 5.96673 6.27075 6.12063
#
# Compressibility (1/GPa) = 0.02611049
#
# Stress axis : x y z
#
# Youngs Moduli (GPa) = 65.92061 63.71635 109.79774
#
# Poissons Ratio (x) = 0.27642 0.26767
# Poissons Ratio (y) = 0.28598 0.01697
# Poissons Ratio (z) = 0.16071 0.00985
#
# Static dielectric constant tensor:
#      x y z
#    x 1.851250 0.000000 -0.006020 
#    y 0.000000 1.835690 0.000000 
#    z -0.006020 0.000000 1.816040 
# 
# From -- ./inp_files/32123.got.cif
#   From: 2010.05.17/outbox.cif.g08.bks.cpg/sg5_17_cif.got.tgz:32123.got - 2010.06.03 18:56:24.
