data_PCOD9123710
_publ_section_title
;
Structure prediction by ZEFSAII (Michael W. Deem and Ramdas Pophale) SiO2 
 PCOD9123710
Probable space group: C 2
;
_chemical_formula_sum "Si O2"
_cell_formula_units_Z 28
_cell_length_a 29.287904
_cell_length_b 8.307802
_cell_length_c 5.490072
_cell_angle_alpha 90.000000
_cell_angle_beta 60.638943
_cell_angle_gamma 90.000000
_cell_volume 1164.242412
_symmetry_space_group_name_H-M "C 2"
_symmetry_group_IT_number 5
_symmetry_cell_setting 'monoclinic'
loop_
_space_group_symop_operation_xyz
x,y,z
-x,y,-z
1/2+x,1/2+y,z
1/2-x,1/2+y,-z
loop_
_atom_site_type_symbol
_atom_site_label
_atom_site_fract_x
_atom_site_fract_y
_atom_site_fract_z
Si Si1 0.276954 0.222850 0.717037
Si Si2 0.987430 0.762329 0.784805
Si Si3 0.293272 0.005790 0.051095
Si Si4 0.634679 0.216661 0.842229
Si Si5 0.028228 0.402043 0.677132
Si Si6 0.825962 0.073908 0.180487
Si Si7 0.355900 0.758456 0.603928
O O1 0.270772 0.171367 0.010360
O O2 0.337949 0.216783 0.493367
O O3 0.236353 0.109449 0.679726
O O4 0.253238 0.396535 0.733393
O O5 0.000000 0.849339 0.500000
O O6 0.022480 0.598474 0.690170
O O7 0.926880 0.713780 0.963126
O O8 0.000000 0.854961 0.000000
O O9 0.316391 0.906236 0.761889
O O10 0.340258 0.058494 0.100598
O O11 0.656088 0.388895 0.880114
O O12 0.086691 0.336963 0.540923
O O13 0.000000 0.349678 0.500000
O O14 0.000000 0.350008 0.000000
O O15 0.845858 0.161865 0.377626
O O16 0.848493 0.154200 0.871882
#
# Coordination Sequence:
#
# PCOD9123710 Si02
#       7
#     4   4   4   4   4   4   4
#     4  11  27  42  73 108 151 196 249 298 378 445
#     4  10  24  43  69 106 137 181 248 304 359 430
#     4  11  26  43  73 106 148 197 248 305 369 453
#     4  12  27  45  77 103 153 196 249 312 375 440
#     4  10  20  39  71 100 136 175 243 297 355 428
#     4  11  28  47  70 110 149 196 241 303 375 456
#     4  11  26  47  72 104 148 193 245 305 375 438
#
# _framework density 24.049973000000001
#
# number of rings (size 3 to 8) (size 9 to 14) (size 15 to 20)
#    0.000    1.143    0.000    4.286   22.000    0.000 
#    0.000    4.286    0.000    0.000    0.000    0.000 
#    0.000    0.000    0.000    0.000    0.000    0.000 
#
# Total GULP energy -78221.043901 kJ/mol
# GULP energy per Si atom -5587.217422 kJ/mol
# Density = 2.399523 g / cm^3
# Si number density = 24.049973 Si / 1000 Ang^3
#
#
#
# Elastic Constant Matrix: (Units=GPa)
#
#
# Indices 1 2 3 4 5 6 
#
# 1 79.3707 -4.2137 40.5204 0.0000 4.5606 0.0000
# 2 -4.2137 62.5406 16.6065 0.0000 3.0732 0.0000
# 3 40.5204 16.6065 142.9425 0.0000 10.0417 0.0000
# 4 0.0000 0.0000 0.0000 31.8113 0.0000 11.3795
# 5 4.5606 3.0732 10.0417 0.0000 49.2379 0.0000
# 6 0.0000 0.0000 0.0000 11.3795 0.0000 24.4049
#
#
#
# Elastic Compliance Matrix: (Units=1/GPa)
#
#
# Indices 1 2 3 4 5 6 
#
# 1 0.015040 0.002233 -0.004479 0.000000 -0.000619 0.000000
# 2 0.002233 0.016851 -0.002539 0.000000 -0.000741 0.000000
# 3 -0.004479 -0.002539 0.008644 0.000000 -0.001190 0.000000
# 4 0.000000 0.000000 0.000000 0.037728 0.000000 -0.017592
# 5 -0.000619 -0.000741 -0.001190 0.000000 0.020656 0.000000
# 6 0.000000 0.000000 0.000000 -0.017592 0.000000 0.049178
#
#
# Mechanical properties :
#
#
# Convention : Reuss Voigt Hill
#
# Bulk Modulus (GPa) = 32.29456 43.40893 37.85175
# Shear Modulus (GPa) = 29.76399 36.55354 33.15877
#
# Velocity S-wave (km/s) = 3.52176 3.90282 3.71717
# Velocity P-wave (km/s) = 5.47670 6.19661 5.84775
#
# Compressibility (1/GPa) = 0.03096496
#
# Stress axis : x y z
#
# Youngs Moduli (GPa) = 66.48907 59.34514 115.68569
#
# Poissons Ratio (x) = -0.13253 0.51821
# Poissons Ratio (y) = -0.14848 0.29368
# Poissons Ratio (z) = 0.29783 0.15066
#
# Static dielectric constant tensor:
#      x y z
#    x 1.938930 0.000000 0.065570 
#    y 0.000000 1.965240 0.000000 
#    z 0.065570 0.000000 2.012690 
# 
# From -- ./inp_files/11205.got.cif
#   From: 2010.05.17/outbox.cif.g08.bks.cpg/sg5_6_cif.got.tgz:11205.got - 2010.06.03 18:56:24.
