data_PCOD9123218
_publ_section_title
;
Structure prediction by ZEFSAII (Michael W. Deem and Ramdas Pophale) SiO2 
 PCOD9123218
Probable space group: C 2
;
_chemical_formula_sum "Si O2"
_cell_formula_units_Z 26
_cell_length_a 16.893999
_cell_length_b 9.592463
_cell_length_c 8.010172
_cell_angle_alpha 90.000000
_cell_angle_beta 124.322049
_cell_angle_gamma 90.000000
_cell_volume 1072.067448
_symmetry_space_group_name_H-M "C 2"
_symmetry_group_IT_number 5
_symmetry_cell_setting 'monoclinic'
loop_
_space_group_symop_operation_xyz
x,y,z
-x,y,-z
1/2+x,1/2+y,z
1/2-x,1/2+y,-z
loop_
_atom_site_type_symbol
_atom_site_label
_atom_site_fract_x
_atom_site_fract_y
_atom_site_fract_z
Si Si1 0.261739 0.776150 0.682607
Si Si2 0.685489 0.240419 0.045344
Si Si3 0.443840 0.645437 0.093067
Si Si4 0.893992 0.612071 0.387115
Si Si5 0.000000 0.630920 0.000000
Si Si6 0.079316 0.396325 0.350598
Si Si7 0.322344 0.499723 0.179117
O O1 0.180029 0.662497 0.558392
O O2 0.320362 0.842328 0.602964
O O3 0.199970 0.896158 0.697839
O O4 0.343647 0.709158 0.901455
O O5 0.776018 0.143522 0.192183
O O6 0.652679 0.154424 0.840730
O O7 0.592988 0.220944 0.054553
O O8 0.710514 0.397212 0.016770
O O9 0.506103 0.772256 0.234137
O O10 0.423456 0.542555 0.221040
O O11 0.500000 0.584222 0.000000
O O12 0.000000 0.676400 0.500000
O O13 0.092891 0.451801 0.552168
O O14 0.965440 0.524723 0.812015
#
# Coordination Sequence:
#
# PCOD9123218 Si02
#       7
#     4   4   4   4   2   4   4
#     4  10  21  41  63  94 130 175 214 281 328 389
#     4  11  24  39  66  97 133 173 223 272 330 397
#     4  10  20  37  67  98 130 170 227 273 326 393
#     4  11  23  39  61  93 134 171 208 270 344 387
#     4  12  20  40  66  98 118 172 232 272 314 402
#     4  11  21  41  67  92 129 176 222 269 331 398
#     4  11  20  39  65  96 132 170 223 270 327 398
#
# _framework density 24.252206000000001
#
# number of rings (size 3 to 8) (size 9 to 14) (size 15 to 20)
#    0.000    1.231    8.462    0.000    1.077    0.000 
#    2.769    7.692    0.000    4.615    0.000    0.000 
#    0.000    0.000    0.000    0.000    0.000    0.000 
#
# Total GULP energy -72474.166327 kJ/mol
# GULP energy per Si atom -5574.935871 kJ/mol
# Density = 2.419701 g / cm^3
# Si number density = 24.252206 Si / 1000 Ang^3
#
#
#
# Elastic Constant Matrix: (Units=GPa)
#
#
# Indices 1 2 3 4 5 6 
#
# 1 163.5673 48.4607 15.3248 0.0000 34.3493 0.0000
# 2 48.4607 81.4184 -4.9337 0.0000 11.5179 0.0000
# 3 15.3248 -4.9337 36.8153 0.0000 6.6441 0.0000
# 4 0.0000 0.0000 0.0000 22.1335 0.0000 -1.1519
# 5 34.3493 11.5179 6.6441 0.0000 24.3865 0.0000
# 6 0.0000 0.0000 0.0000 -1.1519 0.0000 56.2886
#
#
#
# Elastic Compliance Matrix: (Units=1/GPa)
#
#
# Indices 1 2 3 4 5 6 
#
# 1 0.010109 -0.004584 -0.002780 0.000000 -0.011316 0.000000
# 2 -0.004584 0.015571 0.004372 0.000000 -0.002088 0.000000
# 3 -0.002780 0.004372 0.030049 0.000000 -0.006336 0.000000
# 4 0.000000 0.000000 0.000000 0.045229 0.000000 0.000926
# 5 -0.011316 -0.002088 -0.006336 0.000000 0.059658 0.000000
# 6 0.000000 0.000000 0.000000 0.000926 0.000000 0.017785
#
#
# Mechanical properties :
#
#
# Convention : Reuss Voigt Hill
#
# Bulk Modulus (GPa) = 20.10291 44.38939 32.24615
# Shear Modulus (GPa) = 24.87975 35.42499 30.15237
#
# Velocity S-wave (km/s) = 3.20640 3.82605 3.52985
# Velocity P-wave (km/s) = 4.69203 6.15314 5.47158
#
# Compressibility (1/GPa) = 0.04974403
#
# Stress axis : x y z
#
# Youngs Moduli (GPa) = 98.92401 64.22092 33.27872
#
# Poissons Ratio (x) = 0.29442 0.09252
# Poissons Ratio (y) = 0.45351 -0.14549
# Poissons Ratio (z) = 0.27502 -0.28077
#
# Static dielectric constant tensor:
#      x y z
#    x 1.988790 0.000000 -0.018190 
#    y 0.000000 1.965930 0.000000 
#    z -0.018190 0.000000 2.077060 
# 
# From -- ./inp_files/44226.got.cif
#   From: 2010.05.17/outbox.cif.g08.bks.cpg/sg5_23_cif.got.tgz:44226.got - 2010.06.03 18:56:24.
