data_PCOD9123759
_publ_section_title
;
Structure prediction by ZEFSAII (Michael W. Deem and Ramdas Pophale) SiO2 
 PCOD9123759
Probable space group: C 2
;
_chemical_formula_sum "Si O2"
_cell_formula_units_Z 32
_cell_length_a 14.642484
_cell_length_b 23.776345
_cell_length_c 8.817010
_cell_angle_alpha 90.000000
_cell_angle_beta 149.446640
_cell_angle_gamma 90.000000
_cell_volume 1560.400100
_symmetry_space_group_name_H-M "C 2"
_symmetry_group_IT_number 5
_symmetry_cell_setting 'monoclinic'
loop_
_space_group_symop_operation_xyz
x,y,z
-x,y,-z
1/2+x,1/2+y,z
1/2-x,1/2+y,-z
loop_
_atom_site_type_symbol
_atom_site_label
_atom_site_fract_x
_atom_site_fract_y
_atom_site_fract_z
Si Si1 0.976198 0.976770 0.288933
Si Si2 0.804832 0.901254 0.807319
Si Si3 0.042556 0.593474 0.897288
Si Si4 0.141177 0.695964 0.827418
Si Si5 0.928241 0.094461 0.548801
Si Si6 0.358145 0.976536 0.667009
Si Si7 0.304899 0.271287 0.800436
Si Si8 0.976226 0.197658 0.789570
O O1 0.163660 0.973077 0.466999
O O2 0.000000 0.963413 0.500000
O O3 0.938760 0.043714 0.222589
O O4 0.837529 0.936348 0.007332
O O5 0.659744 0.933893 0.497847
O O6 0.757361 0.836302 0.760921
O O7 0.000000 0.901653 0.000000
O O8 0.064269 0.638486 0.794773
O O9 0.913508 0.539705 0.691921
O O10 0.240898 0.569773 0.219755
O O11 0.000000 0.622317 0.000000
O O12 0.000000 0.716051 0.500000
O O13 0.174176 0.737955 0.013171
O O14 0.329341 0.691304 0.009394
O O15 0.000000 0.125962 0.500000
O O16 0.894972 0.135857 0.639411
O O17 0.500000 0.960808 0.000000
O O18 0.153916 0.241431 0.480842
O O19 0.500000 0.269147 0.000000
O O20 0.000000 0.209790 0.000000
#
# Coordination Sequence:
#
# PCOD9123759 Si02
#       8
#     4   4   4   4   4   4   4   4
#     4  10  21  38  63  91 130 170 211 259 317 380
#     4   9  22  42  68  94 124 172 217 261 320 386
#     4  11  21  39  66  96 134 170 206 265 328 385
#     4  12  26  42  66  98 132 171 219 271 326 395
#     4  11  20  39  65  92 134 171 206 263 326 386
#     4  10  20  40  61  92 129 169 210 261 315 381
#     4  11  23  46  70  94 133 171 219 277 326 380
#     4  12  26  42  68  98 128 175 220 268 331 392
#
# _framework density 20.507560999999999
#
# number of rings (size 3 to 8) (size 9 to 14) (size 15 to 20)
#    0.000    1.250    5.000    1.500    1.750    3.500 
#    0.000    5.625    0.000    0.000    0.000    0.000 
#    0.000    0.000    0.000    0.000    0.000    0.000 
#
# Total GULP energy -89271.874262 kJ/mol
# GULP energy per Si atom -5579.492141 kJ/mol
# Density = 2.046088 g / cm^3
# Si number density = 20.507561 Si / 1000 Ang^3
#
#
#
# Elastic Constant Matrix: (Units=GPa)
#
#
# Indices 1 2 3 4 5 6 
#
# 1 89.4461 50.8914 47.4952 0.0000 -14.5303 0.0000
# 2 50.8914 150.8780 78.9970 0.0000 -36.4674 0.0000
# 3 47.4952 78.9970 126.5282 0.0000 -30.9438 0.0000
# 4 0.0000 0.0000 0.0000 11.3595 0.0000 1.4093
# 5 -14.5303 -36.4674 -30.9438 0.0000 45.0002 0.0000
# 6 0.0000 0.0000 0.0000 1.4093 0.0000 16.0917
#
#
#
# Elastic Compliance Matrix: (Units=1/GPa)
#
#
# Indices 1 2 3 4 5 6 
#
# 1 0.014889 -0.003163 -0.003685 0.000000 -0.000289 0.000000
# 2 -0.003163 0.011344 -0.004685 0.000000 0.004950 0.000000
# 3 -0.003685 -0.004685 0.013214 0.000000 0.004100 0.000000
# 4 0.000000 0.000000 0.000000 0.088999 0.000000 -0.007794
# 5 -0.000289 0.004950 0.004100 0.000000 0.028960 0.000000
# 6 0.000000 0.000000 0.000000 -0.007794 0.000000 0.062826
#
#
# Mechanical properties :
#
#
# Convention : Reuss Voigt Hill
#
# Bulk Modulus (GPa) = 61.04087 80.17992 70.61040
# Shear Modulus (GPa) = 20.09983 27.12154 23.61068
#
# Velocity S-wave (km/s) = 3.13408 3.64058 3.39679
# Velocity P-wave (km/s) = 6.55182 7.54019 7.06331
#
# Compressibility (1/GPa) = 0.01638247
#
# Stress axis : x y z
#
# Youngs Moduli (GPa) = 67.16323 88.15269 75.67535
#
# Poissons Ratio (x) = 0.27879 0.27888
# Poissons Ratio (y) = 0.21241 0.35452
# Poissons Ratio (z) = 0.24751 0.41297
#
# Static dielectric constant tensor:
#      x y z
#    x 1.814100 0.000000 0.054630 
#    y 0.000000 1.758170 0.000000 
#    z 0.054630 0.000000 1.759600 
# 
# From -- ./inp_files/25654.got.cif
#   From: 2010.05.17/outbox.cif.g08.bks.cpg/sg5_13_cif.got.tgz:25654.got - 2010.06.03 18:56:24.
