data_PCOD9123669
_publ_section_title
;
Structure prediction by ZEFSAII (Michael W. Deem and Ramdas Pophale) SiO2 
 PCOD9123669
Probable space group: C 2
;
_chemical_formula_sum "Si O2"
_cell_formula_units_Z 24
_cell_length_a 8.578225
_cell_length_b 11.399407
_cell_length_c 10.242055
_cell_angle_alpha 90.000000
_cell_angle_beta 91.198631
_cell_angle_gamma 90.000000
_cell_volume 1001.317383
_symmetry_space_group_name_H-M "C 2"
_symmetry_group_IT_number 5
_symmetry_cell_setting 'monoclinic'
loop_
_space_group_symop_operation_xyz
x,y,z
-x,y,-z
1/2+x,1/2+y,z
1/2-x,1/2+y,-z
loop_
_atom_site_type_symbol
_atom_site_label
_atom_site_fract_x
_atom_site_fract_y
_atom_site_fract_z
Si Si1 0.932620 0.151750 0.787353
Si Si2 0.971856 0.890145 0.235847
Si Si3 0.193266 0.322090 0.721246
Si Si4 0.491091 0.033318 0.642234
Si Si5 0.764679 0.310635 0.575923
Si Si6 0.389971 0.175122 0.116919
O O1 0.838132 0.204184 0.660852
O O2 0.790205 0.133000 0.886472
O O3 0.068466 0.249518 0.802701
O O4 0.019811 0.029198 0.769103
O O5 0.143207 0.842065 0.210157
O O6 0.903715 0.846740 0.373132
O O7 0.869049 0.816212 0.132671
O O8 0.216146 0.273581 0.573973
O O9 0.135494 0.451480 0.683673
O O10 0.500000 0.090656 0.500000
O O11 0.507476 0.125984 0.758139
O O12 0.361149 0.930330 0.617457
O O13 0.500000 0.143357 0.000000
#
# Coordination Sequence:
#
# PCOD9123669 Si02
#       6
#     4   4   4   4   4   4
#     4  10  22  43  61  92 133 178 223 278 332 401
#     4  11  23  41  63  95 131 181 223 271 337 400
#     4  10  20  39  66  99 136 175 217 274 339 401
#     4   9  19  41  67  97 135 173 215 276 340 395
#     4   9  21  37  64 102 139 169 219 274 330 409
#     4  11  25  47  65  96 138 177 233 285 327 400
#
# _framework density 23.968426000000001
#
# number of rings (size 3 to 8) (size 9 to 14) (size 15 to 20)
#    0.000    2.000    1.667    2.000    2.333    5.333 
#    9.000    0.833    0.000    1.000    0.000    0.000 
#    0.000    0.000    0.000    0.000    0.000    0.000 
#
# Total GULP energy -66880.103250 kJ/mol
# GULP energy per Si atom -5573.341937 kJ/mol
# Density = 2.391387 g / cm^3
# Si number density = 23.968426 Si / 1000 Ang^3
#
#
#
# Elastic Constant Matrix: (Units=GPa)
#
#
# Indices 1 2 3 4 5 6 
#
# 1 71.0254 8.9708 13.1909 0.0000 -21.1711 0.0000
# 2 8.9708 107.9844 26.0798 0.0000 -1.7060 0.0000
# 3 13.1909 26.0798 81.5261 0.0000 -22.7441 0.0000
# 4 0.0000 0.0000 0.0000 6.4556 0.0000 3.1961
# 5 -21.1711 -1.7060 -22.7441 0.0000 28.7894 0.0000
# 6 0.0000 0.0000 0.0000 3.1961 0.0000 34.6036
#
#
#
# Elastic Compliance Matrix: (Units=1/GPa)
#
#
# Indices 1 2 3 4 5 6 
#
# 1 0.018376 -0.001700 0.001684 0.000000 0.014743 0.000000
# 2 -0.001700 0.010334 -0.004116 0.000000 -0.003890 0.000000
# 3 0.001684 -0.004116 0.017429 0.000000 0.014763 0.000000
# 4 0.000000 0.000000 0.000000 0.162326 0.000000 -0.014993
# 5 0.014743 -0.003890 0.014763 0.000000 0.057009 0.000000
# 6 0.000000 0.000000 0.000000 -0.014993 0.000000 0.030284
#
#
# Mechanical properties :
#
#
# Convention : Reuss Voigt Hill
#
# Bulk Modulus (GPa) = 26.40326 39.66877 33.03601
# Shear Modulus (GPa) = 15.79038 28.12267 21.95653
#
# Velocity S-wave (km/s) = 2.56949 3.42909 3.02993
# Velocity P-wave (km/s) = 4.45453 5.68019 5.10428
#
# Compressibility (1/GPa) = 0.03787411
#
# Stress axis : x y z
#
# Youngs Moduli (GPa) = 54.41876 96.76359 57.37568
#
# Poissons Ratio (x) = 0.16453 -0.09660
# Poissons Ratio (y) = 0.09253 0.23616
# Poissons Ratio (z) = -0.09162 0.39828
#
# Static dielectric constant tensor:
#      x y z
#    x 1.993810 0.000000 -0.025510 
#    y 0.000000 1.954520 0.000000 
#    z -0.025510 0.000000 1.971350 
# 
# From -- ./inp_files/35429.got.cif
#   From: 2010.05.17/outbox.cif.g08.bks.cpg/sg5_18_cif.got.tgz:35429.got - 2010.06.03 18:56:24.
