data_PCOD9123145
_publ_section_title
;
Structure prediction by ZEFSAII (Michael W. Deem and Ramdas Pophale) SiO2 
 PCOD9123145
Probable space group: C 2
;
_chemical_formula_sum "Si O2"
_cell_formula_units_Z 30
_cell_length_a 21.200626
_cell_length_b 5.007838
_cell_length_c 24.427362
_cell_angle_alpha 90.000000
_cell_angle_beta 151.407772
_cell_angle_gamma 90.000000
_cell_volume 1241.147788
_symmetry_space_group_name_H-M "C 2"
_symmetry_group_IT_number 5
_symmetry_cell_setting 'monoclinic'
loop_
_space_group_symop_operation_xyz
x,y,z
-x,y,-z
1/2+x,1/2+y,z
1/2-x,1/2+y,-z
loop_
_atom_site_type_symbol
_atom_site_label
_atom_site_fract_x
_atom_site_fract_y
_atom_site_fract_z
Si Si1 0.349577 0.387170 0.703973
Si Si2 0.000000 0.228232 0.000000
Si Si3 0.161010 0.386215 0.224743
Si Si4 0.771050 0.257366 0.889993
Si Si5 0.105011 0.996725 0.673997
Si Si6 0.831710 0.252733 0.053072
Si Si7 0.069077 0.490921 0.435857
Si Si8 0.503712 0.037863 0.737054
O O1 0.373183 0.628812 0.764595
O O2 0.207762 0.448882 0.569981
O O3 0.439242 0.280443 0.721596
O O4 0.349258 0.135557 0.743803
O O5 0.066711 0.393052 0.099815
O O6 0.125708 0.088841 0.067646
O O7 0.309420 0.398617 0.312483
O O8 0.707464 0.482552 0.803067
O O9 0.641932 0.112249 0.813815
O O10 0.846062 0.346873 0.001712
O O11 0.989001 0.785440 0.598060
O O12 0.038002 0.284351 0.621211
O O13 0.950669 0.319462 0.183919
O O14 0.709572 0.443394 0.978552
O O15 0.081890 0.445585 0.379899
#
# Coordination Sequence:
#
# PCOD9123145 Si02
#       8
#     4   2   4   4   4   4   4   4
#     4  12  27  43  67 101 140 180 232 285 340 413
#     4  10  22  44  72  98 136 172 222 284 346 420
#     4  11  26  46  69 104 137 178 226 285 351 412
#     4   9  20  39  64  95 126 169 215 271 336 399
#     4  10  22  43  69  96 133 174 228 281 339 408
#     4  10  20  37  63  92 125 165 213 268 330 405
#     4  11  24  43  68  96 131 183 229 283 339 395
#     4  10  24  42  64  97 136 177 226 276 340 409
#
# _framework density 24.171171999999999
#
# number of rings (size 3 to 8) (size 9 to 14) (size 15 to 20)
#    0.000    1.600    0.000    3.200    0.000   15.467 
#    0.000    5.333    0.000    0.000    0.000    0.000 
#    0.000    0.000    0.000    0.000    0.000    0.000 
#
# Total GULP energy -83802.618602 kJ/mol
# GULP energy per Si atom -5586.841240 kJ/mol
# Density = 2.411616 g / cm^3
# Si number density = 24.171172 Si / 1000 Ang^3
#
#
#
# Elastic Constant Matrix: (Units=GPa)
#
#
# Indices 1 2 3 4 5 6 
#
# 1 128.6031 0.2049 41.8189 0.0084 1.3993 0.0241
# 2 0.2049 69.3939 23.6249 0.0125 -13.8917 0.0647
# 3 41.8189 23.6249 147.2114 0.0062 -22.4896 0.0217
# 4 0.0084 0.0125 0.0062 19.7630 -0.0021 3.9165
# 5 1.3993 -13.8917 -22.4896 -0.0021 29.3410 0.0028
# 6 0.0241 0.0647 0.0217 3.9165 0.0028 22.6531
#
#
#
# Elastic Compliance Matrix: (Units=1/GPa)
#
#
# Indices 1 2 3 4 5 6 
#
# 1 0.008757 0.000486 -0.002938 -0.000002 -0.002440 -0.000007
# 2 0.000486 0.016282 -0.001786 0.000000 0.006317 -0.000046
# 3 -0.002938 -0.001786 0.008842 0.000000 0.006072 -0.000001
# 4 -0.000002 0.000000 0.000000 0.052395 0.000005 -0.009058
# 5 -0.002440 0.006317 0.006072 0.000005 0.041843 -0.000027
# 6 -0.000007 -0.000046 -0.000001 -0.009058 -0.000027 0.045710
#
#
# Mechanical properties :
#
#
# Convention : Reuss Voigt Hill
#
# Bulk Modulus (GPa) = 39.36384 52.94508 46.15446
# Shear Modulus (GPa) = 26.20913 32.98874 29.59893
#
# Velocity S-wave (km/s) = 3.29646 3.69832 3.50316
# Velocity P-wave (km/s) = 5.55065 6.33945 5.95812
#
# Compressibility (1/GPa) = 0.02540402
#
# Stress axis : x y z
#
# Youngs Moduli (GPa) = 114.19254 61.41892 113.09808
#
# Poissons Ratio (x) = -0.02986 0.33233
# Poissons Ratio (y) = -0.05551 0.20200
# Poissons Ratio (z) = 0.33554 0.10970
#
# Static dielectric constant tensor:
#      x y z
#    x 1.986670 -0.000020 0.018610 
#    y -0.000020 1.891060 -0.000010 
#    z 0.018610 -0.000010 1.965350 
# 
# From -- ./inp_files/69371.got.cif
#   From: 2010.05.17/outbox.cif.g08.bks.cpg/sg5_35_cif.got.tgz:69371.got - 2010.06.03 18:56:24.
