data_PCOD9123696
_publ_section_title
;
Structure prediction by ZEFSAII (Michael W. Deem and Ramdas Pophale) SiO2 
 PCOD9123696
Probable space group: C 2
;
_chemical_formula_sum "Si O2"
_cell_formula_units_Z 28
_cell_length_a 14.511692
_cell_length_b 9.263215
_cell_length_c 19.687976
_cell_angle_alpha 90.000000
_cell_angle_beta 27.860091
_cell_angle_gamma 90.000000
_cell_volume 1236.772360
_symmetry_space_group_name_H-M "C 2"
_symmetry_group_IT_number 5
_symmetry_cell_setting 'monoclinic'
loop_
_space_group_symop_operation_xyz
x,y,z
-x,y,-z
1/2+x,1/2+y,z
1/2-x,1/2+y,-z
loop_
_atom_site_type_symbol
_atom_site_label
_atom_site_fract_x
_atom_site_fract_y
_atom_site_fract_z
Si Si1 0.707642 0.743710 0.442232
Si Si2 0.165122 0.023200 0.708802
Si Si3 0.333753 0.270932 0.514298
Si Si4 0.077482 0.434186 0.181630
Si Si5 0.806707 0.406207 0.745823
Si Si6 0.000000 0.681435 0.000000
Si Si7 0.772391 0.640291 0.022597
Si Si8 0.000000 0.987616 0.500000
O O1 0.820697 0.858402 0.323245
O O2 0.814843 0.736971 0.446229
O O3 0.497841 0.819656 0.595912
O O4 0.654048 0.601849 0.433559
O O5 0.235120 0.025158 0.740233
O O6 0.308990 0.119396 0.568744
O O7 0.944645 0.075921 0.843845
O O8 0.509285 0.371825 0.430431
O O9 0.133247 0.356650 0.668681
O O10 0.151121 0.472590 0.208446
O O11 0.226846 0.311374 0.055290
O O12 0.092574 0.571603 0.123427
O O13 0.640508 0.285063 0.864820
O O14 0.865903 0.597698 0.034110
#
# Coordination Sequence:
#
# PCOD9123696 Si02
#       8
#     4   4   4   4   4   2   4   2
#     4  11  23  43  66  95 132 178 227 264 336 410
#     4  11  21  41  65  93 131 177 216 269 337 397
#     4  10  25  40  62  98 137 164 223 286 324 397
#     4   9  21  41  62  93 125 163 213 274 321 390
#     4  10  20  39  69  88 121 173 218 257 325 401
#     4  10  22  38  64 100 124 166 222 272 320 396
#     4  10  21  39  65  90 130 168 210 273 323 389
#     4  12  24  40  68  98 128 184 216 280 336 394
#
# _framework density 22.639576000000002
#
# number of rings (size 3 to 8) (size 9 to 14) (size 15 to 20)
#    0.000    1.714    1.429    3.429    4.000    1.143 
#    0.000    2.857    3.143    0.000    0.000    0.000 
#    0.000    0.000    0.000    0.000    0.000    0.000 
#
# Total GULP energy -78162.984650 kJ/mol
# GULP energy per Si atom -5583.070332 kJ/mol
# Density = 2.258805 g / cm^3
# Si number density = 22.639576 Si / 1000 Ang^3
#
#
#
# Elastic Constant Matrix: (Units=GPa)
#
#
# Indices 1 2 3 4 5 6 
#
# 1 168.9949 74.1883 27.7589 -0.0003 6.3961 0.0001
# 2 74.1883 107.8453 13.6399 -0.0001 3.1391 -0.0003
# 3 27.7589 13.6399 66.1875 -0.0004 -4.4394 0.0000
# 4 -0.0003 -0.0001 -0.0004 36.5504 0.0001 -8.9688
# 5 6.3961 3.1391 -4.4394 0.0001 25.4232 0.0003
# 6 0.0001 -0.0003 0.0000 -8.9688 0.0003 42.6240
#
#
#
# Elastic Compliance Matrix: (Units=1/GPa)
#
#
# Indices 1 2 3 4 5 6 
#
# 1 0.008972 -0.005771 -0.002709 0.000000 -0.002018 0.000000
# 2 -0.005771 0.013292 -0.000336 0.000000 -0.000248 0.000000
# 3 -0.002709 -0.000336 0.016556 0.000000 0.003614 0.000000
# 4 0.000000 0.000000 0.000000 0.028849 0.000000 0.006070
# 5 -0.002018 -0.000248 0.003614 0.000000 0.040504 0.000000
# 6 0.000000 0.000000 0.000000 0.006070 0.000000 0.024738
#
#
# Mechanical properties :
#
#
# Convention : Reuss Voigt Hill
#
# Bulk Modulus (GPa) = 47.19262 63.80021 55.49641
# Shear Modulus (GPa) = 31.72498 36.08222 33.90360
#
# Velocity S-wave (km/s) = 3.74746 3.99653 3.87400
# Velocity P-wave (km/s) = 6.29405 7.03835 6.67658
#
# Compressibility (1/GPa) = 0.02118975
#
# Stress axis : x y z
#
# Youngs Moduli (GPa) = 111.45860 75.23395 60.40000
#
# Poissons Ratio (x) = 0.43414 0.16362
# Poissons Ratio (y) = 0.64318 0.02027
# Poissons Ratio (z) = 0.30194 0.02525
#
# Static dielectric constant tensor:
#      x y z
#    x 1.874130 0.000000 -0.032220 
#    y 0.000000 1.841100 0.000000 
#    z -0.032220 0.000000 1.870900 
# 
# From -- ./inp_files/61485.got.cif
#   From: 2010.05.17/outbox.cif.g08.bks.cpg/sg5_31_cif.got.tgz:61485.got - 2010.06.03 18:56:24.
