data_PCOD9123023
_publ_section_title
;
Structure prediction by ZEFSAII (Michael W. Deem and Ramdas Pophale) SiO2 
 PCOD9123023
Probable space group: C 2
;
_chemical_formula_sum "Si O2"
_cell_formula_units_Z 28
_cell_length_a 7.790493
_cell_length_b 9.791753
_cell_length_c 21.311347
_cell_angle_alpha 90.000000
_cell_angle_beta 48.111338
_cell_angle_gamma 90.000000
_cell_volume 1210.230636
_symmetry_space_group_name_H-M "C 2"
_symmetry_group_IT_number 5
_symmetry_cell_setting 'monoclinic'
loop_
_space_group_symop_operation_xyz
x,y,z
-x,y,-z
1/2+x,1/2+y,z
1/2-x,1/2+y,-z
loop_
_atom_site_type_symbol
_atom_site_label
_atom_site_fract_x
_atom_site_fract_y
_atom_site_fract_z
Si Si1 0.762386 0.337050 0.188249
Si Si2 0.092477 0.055809 0.877983
Si Si3 0.505702 0.017177 0.423642
Si Si4 0.634257 0.056746 0.057053
Si Si5 0.856203 0.226384 0.471961
Si Si6 0.482966 0.556527 0.683838
Si Si7 0.871236 0.776897 0.180111
O O1 0.876606 0.190833 0.170442
O O2 0.666055 0.419277 0.271325
O O3 0.549965 0.303632 0.193381
O O4 0.950030 0.435425 0.109063
O O5 0.218871 0.067573 0.914234
O O6 0.209290 0.925311 0.819172
O O7 0.820678 0.034765 0.957382
O O8 0.500000 0.003096 0.500000
O O9 0.376083 0.876827 0.434878
O O10 0.385054 0.163702 0.445145
O O11 0.773833 0.026234 0.341471
O O12 0.502331 0.201676 0.090282
O O13 0.000000 0.229807 0.500000
O O14 0.959074 0.113842 0.399120
O O15 0.329682 0.674742 0.751821
#
# Coordination Sequence:
#
# PCOD9123023 Si02
#       7
#     4   4   4   4   4   4   4
#     4  10  21  38  58  86 123 160 198 247 300 347
#     4  10  20  37  59  86 117 159 207 246 294 350
#     4   9  20  40  63  87 116 149 189 238 292 351
#     4   9  20  37  58  84 120 157 202 257 293 340
#     4  10  21  41  66  91 115 152 199 239 292 355
#     4  10  21  41  60  85 128 157 186 245 299 352
#     4  10  21  38  59  87 119 160 202 240 298 351
#
# _framework density 23.136087
#
# number of rings (size 3 to 8) (size 9 to 14) (size 15 to 20)
#    0.000    2.286    0.000    1.714    0.000    5.714 
#    0.000   34.286    0.000    0.000    0.000    0.000 
#    0.000    0.000    0.000    0.000    0.000    0.000 
#
# Total GULP energy -78124.413104 kJ/mol
# GULP energy per Si atom -5580.315222 kJ/mol
# Density = 2.308343 g / cm^3
# Si number density = 23.136087 Si / 1000 Ang^3
#
#
#
# Elastic Constant Matrix: (Units=GPa)
#
#
# Indices 1 2 3 4 5 6 
#
# 1 27.2596 19.5757 20.2934 0.0000 -11.2474 0.0000
# 2 19.5757 169.5465 54.4739 0.0000 -19.8756 0.0000
# 3 20.2934 54.4739 93.7420 0.0000 -29.2635 0.0000
# 4 0.0000 0.0000 0.0000 23.7137 0.0000 -3.6363
# 5 -11.2474 -19.8756 -29.2635 0.0000 31.7604 0.0000
# 6 0.0000 0.0000 0.0000 -3.6363 0.0000 14.2845
#
#
#
# Elastic Compliance Matrix: (Units=1/GPa)
#
#
# Indices 1 2 3 4 5 6 
#
# 1 0.046670 -0.002430 -0.005624 0.000000 0.009825 0.000000
# 2 -0.002430 0.007398 -0.003645 0.000000 0.000411 0.000000
# 3 -0.005624 -0.003645 0.017785 0.000000 0.012114 0.000000
# 4 0.000000 0.000000 0.000000 0.043883 0.000000 0.011171
# 5 0.009825 0.000411 0.012114 0.000000 0.046384 0.000000
# 6 0.000000 0.000000 0.000000 0.011171 0.000000 0.072850
#
#
# Mechanical properties :
#
#
# Convention : Reuss Voigt Hill
#
# Bulk Modulus (GPa) = 20.63766 53.24825 36.94296
# Shear Modulus (GPa) = 18.21380 27.03206 22.62293
#
# Velocity S-wave (km/s) = 2.80883 3.42189 3.13040
# Velocity P-wave (km/s) = 4.41122 6.21913 5.39150
#
# Compressibility (1/GPa) = 0.04845510
#
# Stress axis : x y z
#
# Youngs Moduli (GPa) = 21.42712 135.17569 56.22835
#
# Poissons Ratio (x) = 0.32844 0.31624
# Poissons Ratio (y) = 0.05206 0.20493
# Poissons Ratio (z) = 0.12051 0.49266
#
# Static dielectric constant tensor:
#      x y z
#    x 1.902310 0.000000 -0.046860 
#    y 0.000000 1.935250 0.000000 
#    z -0.046860 0.000000 1.924690 
# 
# From -- ./inp_files/70136.got.cif
#   From: 2010.05.17/outbox.cif.g08.bks.cpg/sg5_36_cif.got.tgz:70136.got - 2010.06.03 18:56:24.
