data_PCOD9123733
_publ_section_title
;
Structure prediction by ZEFSAII (Michael W. Deem and Ramdas Pophale) SiO2 
 PCOD9123733
Probable space group: C 2
;
_chemical_formula_sum "Si O2"
_cell_formula_units_Z 30
_cell_length_a 27.806185
_cell_length_b 9.291069
_cell_length_c 5.976772
_cell_angle_alpha 90.000000
_cell_angle_beta 70.645250
_cell_angle_gamma 90.000000
_cell_volume 1456.829208
_symmetry_space_group_name_H-M "C 2"
_symmetry_group_IT_number 5
_symmetry_cell_setting 'monoclinic'
loop_
_space_group_symop_operation_xyz
x,y,z
-x,y,-z
1/2+x,1/2+y,z
1/2-x,1/2+y,-z
loop_
_atom_site_type_symbol
_atom_site_label
_atom_site_fract_x
_atom_site_fract_y
_atom_site_fract_z
Si Si1 0.583652 0.847920 0.706776
Si Si2 0.000000 0.389826 0.500000
Si Si3 0.865189 0.835293 0.860725
Si Si4 0.332429 0.848441 0.808490
Si Si5 0.796683 0.966845 0.571127
Si Si6 0.588608 0.048096 0.093277
Si Si7 0.737211 0.259148 0.730976
Si Si8 0.632323 0.612729 0.915542
O O1 0.534731 0.813337 0.631770
O O2 0.632711 0.844974 0.468200
O O3 0.592678 0.723745 0.872955
O O4 0.580750 0.999983 0.845962
O O5 0.958341 0.479039 0.701962
O O6 0.836057 0.892761 0.684174
O O7 0.905268 0.707222 0.818378
O O8 0.819020 0.775575 0.085722
O O9 0.890701 0.975211 0.928939
O O10 0.274571 0.858923 0.822021
O O11 0.358556 0.970078 0.916884
O O12 0.337850 0.702753 0.942281
O O13 0.765077 0.835661 0.508089
O O14 0.759329 0.097223 0.704267
O O15 0.830412 0.049075 0.330837
#
# Coordination Sequence:
#
# PCOD9123733 Si02
#       8
#     4   2   4   4   4   4   4   4
#     4  10  20  40  68  93 119 156 210 269 332 386
#     4  10  22  42  68  98 118 156 210 280 334 390
#     4  11  25  38  59  91 130 176 214 265 317 382
#     4  10  21  37  63  88 125 169 212 265 310 387
#     4  11  25  39  57  88 132 176 218 263 314 373
#     4  10  24  39  67  93 125 164 218 268 330 388
#     4  11  25  35  60  88 132 172 225 259 317 376
#     4  10  20  40  60  89 124 170 207 262 319 386
#
# _framework density 20.592666000000001
#
# number of rings (size 3 to 8) (size 9 to 14) (size 15 to 20)
#    0.000    1.600    2.667    0.400    7.467    3.200 
#    0.000    0.000    0.000   32.800    0.000    0.000 
#    0.000    0.000    0.000    0.000    0.000    0.000 
#
# Total GULP energy -83638.527960 kJ/mol
# GULP energy per Si atom -5575.901864 kJ/mol
# Density = 2.054580 g / cm^3
# Si number density = 20.592666 Si / 1000 Ang^3
#
#
#
# Elastic Constant Matrix: (Units=GPa)
#
#
# Indices 1 2 3 4 5 6 
#
# 1 80.9862 14.8385 9.8578 0.0000 19.2205 0.0000
# 2 14.8385 94.6045 22.6288 0.0000 20.0812 0.0000
# 3 9.8578 22.6288 66.3467 0.0000 15.7089 0.0000
# 4 0.0000 0.0000 0.0000 17.2099 0.0000 2.3052
# 5 19.2205 20.0812 15.7089 0.0000 35.0261 0.0000
# 6 0.0000 0.0000 0.0000 2.3052 0.0000 18.8593
#
#
#
# Elastic Compliance Matrix: (Units=1/GPa)
#
#
# Indices 1 2 3 4 5 6 
#
# 1 0.014233 -0.000629 -0.000153 0.000000 -0.007381 0.000000
# 2 -0.000629 0.012534 -0.002866 0.000000 -0.005555 0.000000
# 3 -0.000153 -0.002866 0.017525 0.000000 -0.006133 0.000000
# 4 0.000000 0.000000 0.000000 0.059073 0.000000 -0.007221
# 5 -0.007381 -0.005555 -0.006133 0.000000 0.038536 0.000000
# 6 0.000000 0.000000 0.000000 -0.007221 0.000000 0.053907
#
#
# Mechanical properties :
#
#
# Convention : Reuss Voigt Hill
#
# Bulk Modulus (GPa) = 27.02974 37.39861 32.21417
# Shear Modulus (GPa) = 23.20879 27.19321 25.20100
#
# Velocity S-wave (km/s) = 3.36079 3.63785 3.50206
# Velocity P-wave (km/s) = 5.31171 5.98714 5.65951
#
# Compressibility (1/GPa) = 0.03699629
#
# Stress axis : x y z
#
# Youngs Moduli (GPa) = 70.25688 79.78479 57.06267
#
# Poissons Ratio (x) = 0.05020 0.00870
# Poissons Ratio (y) = 0.04420 0.16355
# Poissons Ratio (z) = 0.01071 0.22867
#
# Static dielectric constant tensor:
#      x y z
#    x 1.711980 0.000000 0.036790 
#    y 0.000000 1.784260 0.000000 
#    z 0.036790 0.000000 1.789570 
# 
# From -- ./inp_files/11220.got.cif
#   From: 2010.05.17/outbox.cif.g08.bks.cpg/sg5_6_cif.got.tgz:11220.got - 2010.06.03 18:56:24.
