data_PCOD9123344
_publ_section_title
;
Structure prediction by ZEFSAII (Michael W. Deem and Ramdas Pophale) SiO2 
 PCOD9123344
Probable space group: C 2
;
_chemical_formula_sum "Si O2"
_cell_formula_units_Z 30
_cell_length_a 10.442862
_cell_length_b 13.613887
_cell_length_c 11.705498
_cell_angle_alpha 90.000000
_cell_angle_beta 69.396577
_cell_angle_gamma 90.000000
_cell_volume 1557.705287
_symmetry_space_group_name_H-M "C 2"
_symmetry_group_IT_number 5
_symmetry_cell_setting 'monoclinic'
loop_
_space_group_symop_operation_xyz
x,y,z
-x,y,-z
1/2+x,1/2+y,z
1/2-x,1/2+y,-z
loop_
_atom_site_type_symbol
_atom_site_label
_atom_site_fract_x
_atom_site_fract_y
_atom_site_fract_z
Si Si1 0.356952 0.432040 0.214892
Si Si2 0.500000 0.289028 0.000000
Si Si3 0.657066 0.297128 0.410448
Si Si4 0.321459 0.653215 0.218850
Si Si5 0.844472 0.308780 0.573972
Si Si6 0.241162 0.274253 0.975985
Si Si7 0.163362 0.946714 0.206774
Si Si8 0.116429 0.171275 0.230437
O O1 0.315323 0.539636 0.188181
O O2 0.237281 0.389438 0.328730
O O3 0.499897 0.436484 0.238732
O O4 0.396955 0.359270 0.100588
O O5 0.398252 0.235131 0.945546
O O6 0.500000 0.301104 0.500000
O O7 0.692682 0.200710 0.324374
O O8 0.757294 0.294050 0.487128
O O9 0.691281 0.390037 0.316993
O O10 0.334837 0.714923 0.099277
O O11 0.454331 0.662604 0.258177
O O12 0.852243 0.214221 0.654803
O O13 0.000000 0.337590 0.500000
O O14 0.261660 0.383858 0.916822
O O15 0.166350 0.246655 0.116825
O O16 0.185776 0.063726 0.195948
#
# Coordination Sequence:
#
# PCOD9123344 Si02
#       8
#     4   2   4   4   4   4   4   4
#     4  10  21  39  64  92 120 163 212 258 311 378
#     4  10  20  38  62  88 122 162 206 254 320 378
#     4  11  22  42  64  87 126 169 211 257 312 377
#     4  10  23  38  63  94 121 163 211 259 315 378
#     4  12  24  40  63  92 130 166 209 268 313 361
#     4  10  21  37  64  89 125 156 206 265 314 372
#     4   9  22  40  65  91 119 169 216 253 315 386
#     4  11  22  39  65  92 124 166 213 260 316 380
#
# _framework density 19.2591
#
# number of rings (size 3 to 8) (size 9 to 14) (size 15 to 20)
#    0.000    1.600    4.000    0.400    5.600    2.133 
#    0.000    1.333    5.867    0.000    0.000    0.000 
#    0.000    0.000    0.000    0.000    0.000    0.000 
#
# Total GULP energy -83598.497493 kJ/mol
# GULP energy per Si atom -5573.233166 kJ/mol
# Density = 1.921527 g / cm^3
# Si number density = 19.259100 Si / 1000 Ang^3
#
#
#
# Elastic Constant Matrix: (Units=GPa)
#
#
# Indices 1 2 3 4 5 6 
#
# 1 62.0802 21.3343 30.0736 0.0000 11.0356 0.0000
# 2 21.3343 64.5910 16.2647 0.0000 -5.9108 0.0000
# 3 30.0736 16.2647 97.9227 0.0000 -3.7759 0.0000
# 4 0.0000 0.0000 0.0000 4.5778 0.0000 0.8660
# 5 11.0356 -5.9108 -3.7759 0.0000 45.7278 0.0000
# 6 0.0000 0.0000 0.0000 0.8660 0.0000 27.1733
#
#
#
# Elastic Compliance Matrix: (Units=1/GPa)
#
#
# Indices 1 2 3 4 5 6 
#
# 1 0.022503 -0.006519 -0.006089 0.000000 -0.006776 0.000000
# 2 -0.006519 0.018208 -0.000873 0.000000 0.003855 0.000000
# 3 -0.006089 -0.000873 0.012319 0.000000 0.002374 0.000000
# 4 0.000000 0.000000 0.000000 0.219768 0.000000 -0.007004
# 5 -0.006776 0.003855 0.002374 0.000000 0.024198 0.000000
# 6 0.000000 0.000000 0.000000 -0.007004 0.000000 0.037024
#
#
# Mechanical properties :
#
#
# Convention : Reuss Voigt Hill
#
# Bulk Modulus (GPa) = 38.36504 39.99322 39.17913
# Shear Modulus (GPa) = 13.52542 25.95721 19.74132
#
# Velocity S-wave (km/s) = 2.65295 3.67521 3.20510
# Velocity P-wave (km/s) = 5.41737 6.23061 5.83817
#
# Compressibility (1/GPa) = 0.02606539
#
# Stress axis : x y z
#
# Youngs Moduli (GPa) = 44.43816 54.92060 81.17591
#
# Poissons Ratio (x) = 0.35805 0.49432
# Poissons Ratio (y) = 0.28971 0.07090
# Poissons Ratio (z) = 0.27061 0.04797
#
# Static dielectric constant tensor:
#      x y z
#    x 1.702490 0.000000 0.024070 
#    y 0.000000 1.677060 0.000000 
#    z 0.024070 0.000000 1.699730 
# 
# From -- ./inp_files/39136.got.cif
#   From: 2010.05.17/outbox.cif.g08.bks.cpg/sg5_20_cif.got.tgz:39136.got - 2010.06.03 18:56:24.
