data_PCOD9123517
_publ_section_title
;
Structure prediction by ZEFSAII (Michael W. Deem and Ramdas Pophale) SiO2 
 PCOD9123517
Probable space group: C 2
;
_chemical_formula_sum "Si O2"
_cell_formula_units_Z 22
_cell_length_a 16.992044
_cell_length_b 7.910552
_cell_length_c 20.261173
_cell_angle_alpha 90.000000
_cell_angle_beta 20.364806
_cell_angle_gamma 90.000000
_cell_volume 947.745146
_symmetry_space_group_name_H-M "C 2"
_symmetry_group_IT_number 5
_symmetry_cell_setting 'monoclinic'
loop_
_space_group_symop_operation_xyz
x,y,z
-x,y,-z
1/2+x,1/2+y,z
1/2-x,1/2+y,-z
loop_
_atom_site_type_symbol
_atom_site_label
_atom_site_fract_x
_atom_site_fract_y
_atom_site_fract_z
Si Si1 0.500000 0.060951 0.500000
Si Si2 0.185441 0.829442 0.082944
Si Si3 0.189384 0.753146 0.721369
Si Si4 0.010465 0.205179 0.734131
Si Si5 0.043211 0.749354 0.329255
Si Si6 0.380219 0.634205 0.697702
O O1 0.565515 0.156232 0.381504
O O2 0.286949 0.942283 0.650655
O O3 0.035048 0.746109 0.143735
O O4 0.177146 0.716541 0.155728
O O5 0.070247 0.012409 0.186237
O O6 0.429653 0.825786 0.857073
O O7 0.187713 0.681034 0.796569
O O8 0.385549 0.661473 0.525802
O O9 0.902197 0.242765 0.747307
O O10 0.279890 0.224701 0.516611
O O11 0.120318 0.939712 0.283535
#
# Coordination Sequence:
#
# PCOD9123517 Si02
#       6
#     2   4   4   4   4   4
#     4  10  20  38  68  88 122 162 212 254 316 360
#     4  11  25  41  65  92 128 163 214 251 311 371
#     4  10  20  39  64  94 120 167 208 250 313 371
#     4  11  24  40  64  96 122 171 204 261 307 369
#     4  11  22  43  65  91 123 165 209 261 308 369
#     4   9  21  37  64  93 121 163 204 250 318 358
#
# _framework density 23.212989
#
# number of rings (size 3 to 8) (size 9 to 14) (size 15 to 20)
#    0.000    1.818    3.636    1.091    2.545    3.636 
#    0.000    0.909    0.000    0.000    0.000    0.000 
#    0.000    0.000    0.000    0.000    0.000    0.000 
#
# Total GULP energy -61428.779365 kJ/mol
# GULP energy per Si atom -5584.434488 kJ/mol
# Density = 2.316016 g / cm^3
# Si number density = 23.212989 Si / 1000 Ang^3
#
#
#
# Elastic Constant Matrix: (Units=GPa)
#
#
# Indices 1 2 3 4 5 6 
#
# 1 145.7511 18.3881 20.9865 0.0376 34.2703 -0.0411
# 2 18.3881 41.2657 -8.6839 0.0013 7.3801 -0.0106
# 3 20.9865 -8.6839 56.5056 -0.0059 33.7049 -0.0089
# 4 0.0376 0.0013 -0.0059 104.6829 0.0213 -94.8030
# 5 34.2703 7.3801 33.7049 0.0213 33.3631 -0.0180
# 6 -0.0411 -0.0106 -0.0089 -94.8030 -0.0180 143.2256
#
#
#
# Elastic Compliance Matrix: (Units=1/GPa)
#
#
# Indices 1 2 3 4 5 6 
#
# 1 0.009782 -0.000351 0.005687 0.000003 -0.015715 0.000003
# 2 -0.000351 0.035685 0.025435 0.000019 -0.033228 0.000013
# 3 0.005687 0.025435 0.066267 0.000038 -0.078413 0.000023
# 4 0.000003 0.000019 0.000038 0.023848 -0.000052 0.015786
# 5 -0.015715 -0.033228 -0.078413 -0.000052 0.132682 -0.000030
# 6 0.000003 0.000013 0.000023 0.015786 -0.000030 0.017431
#
#
# Mechanical properties :
#
#
# Convention : Reuss Voigt Hill
#
# Bulk Modulus (GPa) = 5.77124 33.87821 19.82472
# Shear Modulus (GPa) = 17.73603 70.44310 44.08957
#
# Velocity S-wave (km/s) = 2.76716 5.51473 4.36288
# Velocity P-wave (km/s) = 3.56387 7.42805 5.82568
#
# Compressibility (1/GPa) = 0.17327307
#
# Stress axis : x y z
#
# Youngs Moduli (GPa) = 102.23367 28.02305 15.09054
#
# Poissons Ratio (x) = 0.00985 -0.08582
# Poissons Ratio (y) = 0.03593 -0.38382
# Poissons Ratio (z) = -0.58137 -0.71276
#
# Static dielectric constant tensor:
#      x y z
#    x 1.865590 0.000020 -0.044960 
#    y 0.000020 1.903380 0.000020 
#    z -0.044960 0.000020 1.837340 
# 
# From -- ./inp_files/22659.got.cif
#   From: 2010.05.17/outbox.cif.g08.bks.cpg/sg5_12_cif.got.tgz:22659.got - 2010.06.03 18:56:24.
