data_PCOD9123343
_publ_section_title
;
Structure prediction by ZEFSAII (Michael W. Deem and Ramdas Pophale) SiO2 
 PCOD9123343
Probable space group: C 2
;
_chemical_formula_sum "Si O2"
_cell_formula_units_Z 24
_cell_length_a 12.385041
_cell_length_b 9.037366
_cell_length_c 11.044946
_cell_angle_alpha 90.000000
_cell_angle_beta 86.666480
_cell_angle_gamma 90.000000
_cell_volume 1234.148598
_symmetry_space_group_name_H-M "C 2"
_symmetry_group_IT_number 5
_symmetry_cell_setting 'monoclinic'
loop_
_space_group_symop_operation_xyz
x,y,z
-x,y,-z
1/2+x,1/2+y,z
1/2-x,1/2+y,-z
loop_
_atom_site_type_symbol
_atom_site_label
_atom_site_fract_x
_atom_site_fract_y
_atom_site_fract_z
Si Si1 0.245285 0.300880 0.598064
Si Si2 0.388040 0.082161 0.435762
Si Si3 0.294390 0.242689 0.234421
Si Si4 0.636904 0.559575 0.764180
Si Si5 0.884595 0.010375 0.741807
Si Si6 0.373605 0.393493 0.005165
O O1 0.296620 0.185092 0.502565
O O2 0.154109 0.414197 0.558382
O O3 0.192104 0.203174 0.707828
O O4 0.343014 0.403347 0.639478
O O5 0.500000 0.098951 0.500000
O O6 0.384712 0.142842 0.297103
O O7 0.303307 0.409623 0.284452
O O8 0.181737 0.162056 0.261373
O O9 0.315085 0.268767 0.089663
O O10 0.511785 0.540860 0.735019
O O11 0.640259 0.539610 0.909366
O O12 0.848317 0.930493 0.869388
O O13 0.500000 0.354504 0.000000
#
# Coordination Sequence:
#
# PCOD9123343 Si02
#       6
#     4   4   4   4   4   4
#     4  11  24  38  62  88 116 162 205 240 305 352
#     4  11  24  41  60  87 125 157 206 253 292 352
#     4   9  20  37  60  88 117 158 202 237 302 359
#     4   9  20  37  58  84 119 152 196 243 294 351
#     4  10  20  38  62  88 120 156 194 251 301 354
#     4   8  18  35  62  86 118 152 195 245 297 358
#
# _framework density 19.446604000000001
#
# number of rings (size 3 to 8) (size 9 to 14) (size 15 to 20)
#    1.000    1.333    0.000    2.000    2.333    4.000 
#    0.000    0.833    3.667    0.000    0.000    0.000 
#    0.000    0.000    0.000    0.000    0.000    0.000 
#
# Total GULP energy -66826.233449 kJ/mol
# GULP energy per Si atom -5568.852787 kJ/mol
# Density = 1.940234 g / cm^3
# Si number density = 19.446604 Si / 1000 Ang^3
#
#
#
# Elastic Constant Matrix: (Units=GPa)
#
#
# Indices 1 2 3 4 5 6 
#
# 1 42.3987 33.5050 13.8739 0.0000 12.4480 0.0000
# 2 33.5050 98.2120 6.9972 0.0000 -5.6617 0.0000
# 3 13.8739 6.9972 32.0083 0.0000 2.8598 0.0000
# 4 0.0000 0.0000 0.0000 31.7601 0.0000 4.8245
# 5 12.4480 -5.6617 2.8598 0.0000 26.5592 0.0000
# 6 0.0000 0.0000 0.0000 4.8245 0.0000 14.6506
#
#
#
# Elastic Compliance Matrix: (Units=1/GPa)
#
#
# Indices 1 2 3 4 5 6 
#
# 1 0.049844 -0.017361 -0.015541 0.000000 -0.025389 0.000000
# 2 -0.017361 0.016553 0.002892 0.000000 0.011354 0.000000
# 3 -0.015541 0.002892 0.036996 0.000000 0.003917 0.000000
# 4 0.000000 0.000000 0.000000 0.033144 0.000000 -0.010915
# 5 -0.025389 0.011354 0.003917 0.000000 0.051550 0.000000
# 6 0.000000 0.000000 0.000000 -0.010915 0.000000 0.071851
#
#
# Mechanical properties :
#
#
# Convention : Reuss Voigt Hill
#
# Bulk Modulus (GPa) = 23.05568 31.26348 27.15958
# Shear Modulus (GPa) = 14.95147 22.47685 18.71416
#
# Velocity S-wave (km/s) = 2.77582 3.40343 3.10552
# Velocity P-wave (km/s) = 4.70693 5.61746 5.18223
#
# Compressibility (1/GPa) = 0.04337326
#
# Stress axis : x y z
#
# Youngs Moduli (GPa) = 20.06260 60.41144 27.02992
#
# Poissons Ratio (x) = 1.04878 0.42008
# Poissons Ratio (y) = 0.34830 -0.07817
# Poissons Ratio (z) = 0.31180 -0.17470
#
# Static dielectric constant tensor:
#      x y z
#    x 1.638030 0.000000 0.005710 
#    y 0.000000 1.668620 0.000000 
#    z 0.005710 0.000000 1.766860 
# 
# From -- ./inp_files/38327.got.cif
#   From: 2010.05.17/outbox.cif.g08.bks.cpg/sg5_20_cif.got.tgz:38327.got - 2010.06.03 18:56:24.
