data_PCOD9123897
_publ_section_title
;
Structure prediction by ZEFSAII (Michael W. Deem and Ramdas Pophale) SiO2 
 PCOD9123897
Probable space group: C 2
;
_chemical_formula_sum "Si O2"
_cell_formula_units_Z 32
_cell_length_a 22.566742
_cell_length_b 5.252536
_cell_length_c 11.254436
_cell_angle_alpha 90.000000
_cell_angle_beta 106.100178
_cell_angle_gamma 90.000000
_cell_volume 1281.695382
_symmetry_space_group_name_H-M "C 2"
_symmetry_group_IT_number 5
_symmetry_cell_setting 'monoclinic'
loop_
_space_group_symop_operation_xyz
x,y,z
-x,y,-z
1/2+x,1/2+y,z
1/2-x,1/2+y,-z
loop_
_atom_site_type_symbol
_atom_site_label
_atom_site_fract_x
_atom_site_fract_y
_atom_site_fract_z
Si Si1 0.290940 0.958730 0.018889
Si Si2 0.678519 0.546550 0.382318
Si Si3 0.934039 0.691766 0.725730
Si Si4 0.447030 0.429362 0.109268
Si Si5 0.909759 0.425421 0.945928
Si Si6 0.362324 0.670345 0.252435
Si Si7 0.604775 0.933252 0.509159
Si Si8 0.214328 0.811728 0.636394
O O1 0.334721 0.894605 0.156124
O O2 0.336934 0.932914 0.933026
O O3 0.240539 0.733085 0.989803
O O4 0.631503 0.335546 0.310246
O O5 0.638090 0.752854 0.430957
O O6 0.723624 0.656687 0.308144
O O7 0.722019 0.432350 0.509683
O O8 0.944058 0.583912 0.598285
O O9 0.928438 0.470723 0.820764
O O10 0.986947 0.885513 0.794295
O O11 0.434122 0.172391 0.030145
O O12 0.397715 0.480335 0.185306
O O13 0.437417 0.669635 0.017462
O O14 0.408267 0.765824 0.381900
O O15 0.305279 0.529631 0.284078
O O16 0.655157 0.131535 0.586968
#
# Coordination Sequence:
#
# PCOD9123897 Si02
#       8
#     4   4   4   4   4   4   4   4
#     4  11  25  48  76 113 155 203 258 313 382 472
#     4  10  21  41  64 110 148 194 246 311 384 461
#     4  11  27  47  77 113 147 199 274 331 378 468
#     4  11  27  52  82 104 153 211 266 319 388 463
#     4  11  27  51  78 111 150 208 259 327 395 452
#     4  10  25  46  75 108 155 210 250 316 398 472
#     4  10  23  43  74 106 152 193 248 317 390 456
#     4  10  20  40  68 103 151 201 238 304 394 465
#
# _framework density 24.966933999999998
#
# number of rings (size 3 to 8) (size 9 to 14) (size 15 to 20)
#    0.000    1.500    1.250    1.875    8.750    3.000 
#    2.250    6.875    0.000    0.000    0.000    0.000 
#    0.000    0.000    0.000    0.000    0.000    0.000 
#
# Total GULP energy -89660.805870 kJ/mol
# GULP energy per Si atom -5603.800367 kJ/mol
# Density = 2.491011 g / cm^3
# Si number density = 24.966934 Si / 1000 Ang^3
#
#
#
# Elastic Constant Matrix: (Units=GPa)
#
#
# Indices 1 2 3 4 5 6 
#
# 1 76.0684 9.7303 32.8672 0.0000 3.2029 0.0000
# 2 9.7303 115.7303 41.7911 0.0000 6.0598 0.0000
# 3 32.8672 41.7911 133.1075 0.0000 -1.8254 0.0000
# 4 0.0000 0.0000 0.0000 42.2275 0.0000 2.4641
# 5 3.2029 6.0598 -1.8254 0.0000 19.3185 0.0000
# 6 0.0000 0.0000 0.0000 2.4641 0.0000 9.7646
#
#
#
# Elastic Compliance Matrix: (Units=1/GPa)
#
#
# Indices 1 2 3 4 5 6 
#
# 1 0.014875 0.000274 -0.003799 0.000000 -0.002911 0.000000
# 2 0.000274 0.009972 -0.003246 0.000000 -0.003480 0.000000
# 3 -0.003799 -0.003246 0.009505 0.000000 0.002546 0.000000
# 4 0.000000 0.000000 0.000000 0.024035 0.000000 -0.006065
# 5 -0.002911 -0.003480 0.002546 0.000000 0.053579 0.000000
# 6 0.000000 0.000000 0.000000 -0.006065 0.000000 0.103941
#
#
# Mechanical properties :
#
#
# Convention : Reuss Voigt Hill
#
# Bulk Modulus (GPa) = 48.05567 54.85371 51.45469
# Shear Modulus (GPa) = 21.15179 30.29662 25.72420
#
# Velocity S-wave (km/s) = 2.91381 3.48727 3.21336
# Velocity P-wave (km/s) = 5.53262 6.18328 5.86698
#
# Compressibility (1/GPa) = 0.02080920
#
# Stress axis : x y z
#
# Youngs Moduli (GPa) = 67.22687 100.27845 105.20959
#
# Poissons Ratio (x) = -0.02743 0.39967
# Poissons Ratio (y) = -0.01839 0.34153
# Poissons Ratio (z) = 0.25538 0.32552
#
# Static dielectric constant tensor:
#      x y z
#    x 1.946880 0.000000 0.019450 
#    y 0.000000 1.999650 0.000000 
#    z 0.019450 0.000000 1.996760 
# 
# From -- ./inp_files/47047.got.cif
#   From: 2010.05.17/outbox.cif.g08.bks.cpg/sg5_24_cif.got.tgz:47047.got - 2010.06.03 18:56:24.
