data_PCOD9123652
_publ_section_title
;
Structure prediction by ZEFSAII (Michael W. Deem and Ramdas Pophale) SiO2 
 PCOD9123652
Probable space group: C 2
;
_chemical_formula_sum "Si O2"
_cell_formula_units_Z 26
_cell_length_a 15.216115
_cell_length_b 8.811557
_cell_length_c 18.089001
_cell_angle_alpha 90.000000
_cell_angle_beta 29.415367
_cell_angle_gamma 90.000000
_cell_volume 1191.170765
_symmetry_space_group_name_H-M "C 2"
_symmetry_group_IT_number 5
_symmetry_cell_setting 'monoclinic'
loop_
_space_group_symop_operation_xyz
x,y,z
-x,y,-z
1/2+x,1/2+y,z
1/2-x,1/2+y,-z
loop_
_atom_site_type_symbol
_atom_site_label
_atom_site_fract_x
_atom_site_fract_y
_atom_site_fract_z
Si Si1 0.147674 0.372260 0.529890
Si Si2 0.500000 0.054607 0.500000
Si Si3 0.194234 0.298327 0.731049
Si Si4 0.110301 0.374081 0.139271
Si Si5 0.573988 0.170679 0.069311
Si Si6 0.352386 0.540772 0.497554
Si Si7 0.230112 0.568556 0.799813
O O1 0.059860 0.455029 0.525286
O O2 0.305116 0.467699 0.453218
O O3 0.225974 0.209667 0.449320
O O4 0.993121 0.359919 0.706624
O O5 0.330404 0.162243 0.642114
O O6 0.283938 0.418775 0.607222
O O7 0.171372 0.398994 0.820501
O O8 0.003630 0.266336 0.833117
O O9 0.314925 0.320059 0.991933
O O10 0.087291 0.543238 0.123084
O O11 0.677729 0.106305 0.921205
O O12 0.374339 0.178729 0.181055
O O13 0.558764 0.571180 0.362110
#
# Coordination Sequence:
#
# PCOD9123652 Si02
#       7
#     4   2   4   4   4   4   4
#     4  11  25  39  64  93 130 160 213 257 325 372
#     4  12  24  38  62 104 122 160 200 266 332 372
#     4  10  22  41  67  91 132 160 203 260 323 375
#     4  10  22  44  58  91 122 167 211 254 304 375
#     4  10  22  40  64  86 123 169 212 249 305 364
#     4  11  21  42  64  91 129 166 201 263 319 381
#     4  10  20  39  66  87 120 168 205 248 311 371
#
# _framework density 21.827265000000001
#
# number of rings (size 3 to 8) (size 9 to 14) (size 15 to 20)
#    0.000    1.538    3.077    1.846    2.154    1.231 
#    8.308    0.000    0.000    0.000    0.000    0.000 
#    0.000    0.000    0.000    0.000    0.000    0.000 
#
# Total GULP energy -72605.253115 kJ/mol
# GULP energy per Si atom -5585.019470 kJ/mol
# Density = 2.177759 g / cm^3
# Si number density = 21.827265 Si / 1000 Ang^3
#
#
#
# Elastic Constant Matrix: (Units=GPa)
#
#
# Indices 1 2 3 4 5 6 
#
# 1 106.4824 44.7056 23.4511 0.0000 -14.6971 0.0000
# 2 44.7056 86.5643 8.7802 0.0000 -10.8075 0.0000
# 3 23.4511 8.7802 61.2754 0.0002 -28.8760 -0.0001
# 4 0.0000 0.0000 0.0002 31.7683 -0.0001 -12.5616
# 5 -14.6971 -10.8075 -28.8760 -0.0001 46.1461 0.0000
# 6 0.0000 0.0000 -0.0001 -12.5616 0.0000 29.3414
#
#
#
# Elastic Compliance Matrix: (Units=1/GPa)
#
#
# Indices 1 2 3 4 5 6 
#
# 1 0.012909 -0.006244 -0.003967 0.000000 0.000167 0.000000
# 2 -0.006244 0.014933 0.001363 0.000000 0.002361 0.000000
# 3 -0.003967 0.001363 0.024390 0.000000 0.014318 0.000000
# 4 0.000000 0.000000 0.000000 0.037893 0.000000 0.016222
# 5 0.000167 0.002361 0.014318 0.000000 0.031236 0.000000
# 6 0.000000 0.000000 0.000000 0.016222 0.000000 0.041027
#
#
# Mechanical properties :
#
#
# Convention : Reuss Voigt Hill
#
# Bulk Modulus (GPa) = 28.95561 45.35509 37.15535
# Shear Modulus (GPa) = 26.09649 33.27683 29.68666
#
# Velocity S-wave (km/s) = 3.46148 3.90879 3.69192
# Velocity P-wave (km/s) = 5.41021 6.41839 5.93575
#
# Compressibility (1/GPa) = 0.03453562
#
# Stress axis : x y z
#
# Youngs Moduli (GPa) = 77.46310 66.96454 41.00024
#
# Poissons Ratio (x) = 0.41811 0.16267
# Poissons Ratio (y) = 0.48366 -0.05587
# Poissons Ratio (z) = 0.30733 -0.09125
#
# Static dielectric constant tensor:
#      x y z
#    x 1.808830 0.000000 -0.014730 
#    y 0.000000 1.795720 0.000000 
#    z -0.014730 0.000000 1.867970 
# 
# From -- ./inp_files/65867.got.cif
#   From: 2010.05.17/outbox.cif.g08.bks.cpg/sg5_33_cif.got.tgz:65867.got - 2010.06.03 18:56:24.
