data_PCOD9123931
_publ_section_title
;
Structure prediction by ZEFSAII (Michael W. Deem and Ramdas Pophale) SiO2 
 PCOD9123931
Probable space group: C 2
;
_chemical_formula_sum "Si O2"
_cell_formula_units_Z 20
_cell_length_a 10.939155
_cell_length_b 14.360514
_cell_length_c 6.413335
_cell_angle_alpha 90.000000
_cell_angle_beta 61.989732
_cell_angle_gamma 90.000000
_cell_volume 889.469829
_symmetry_space_group_name_H-M "C 2"
_symmetry_group_IT_number 5
_symmetry_cell_setting 'monoclinic'
loop_
_space_group_symop_operation_xyz
x,y,z
-x,y,-z
1/2+x,1/2+y,z
1/2-x,1/2+y,-z
loop_
_atom_site_type_symbol
_atom_site_label
_atom_site_fract_x
_atom_site_fract_y
_atom_site_fract_z
Si Si1 0.218780 0.642000 0.651858
Si Si2 0.500000 0.064303 0.500000
Si Si3 0.345443 0.732842 0.181643
Si Si4 0.254814 0.542437 0.020692
Si Si5 0.896202 0.879614 0.747535
Si Si6 0.000000 0.760218 0.000000
O O1 0.333655 0.697575 0.431771
O O2 0.139788 0.702248 0.887269
O O3 0.103164 0.618928 0.570973
O O4 0.253815 0.554220 0.768337
O O5 0.608290 0.019890 0.249281
O O6 0.315762 0.636515 0.075340
O O7 0.231486 0.814435 0.230711
O O8 0.500000 0.764601 0.000000
O O9 0.346211 0.450683 0.965140
O O10 0.000000 0.925958 0.500000
O O11 0.001093 0.812244 0.783357
#
# Coordination Sequence:
#
# PCOD9123931 Si02
#       6
#     4   2   4   4   4   2
#     4  11  20  42  73  96 135 184 228 277 344 405
#     4  10  20  40  70 100 132 178 234 272 332 420
#     4  11  26  46  67 103 145 180 231 287 343 410
#     4  11  25  42  70 104 138 184 228 287 346 403
#     4  12  27  45  71 104 137 181 235 284 341 416
#     4  12  20  44  72  98 126 188 232 276 338 414
#
# _framework density 22.485305
#
# number of rings (size 3 to 8) (size 9 to 14) (size 15 to 20)
#    0.000    0.800    6.000    1.200    5.600    3.200 
#    3.600    0.000    0.000    0.000    0.000    0.000 
#    0.000    0.000    0.000    0.000    0.000    0.000 
#
# Total GULP energy -55676.281715 kJ/mol
# GULP energy per Si atom -5567.628171 kJ/mol
# Density = 2.243413 g / cm^3
# Si number density = 22.485305 Si / 1000 Ang^3
#
#
#
# Elastic Constant Matrix: (Units=GPa)
#
#
# Indices 1 2 3 4 5 6 
#
# 1 59.2420 11.4721 31.1127 0.0000 -23.5006 0.0000
# 2 11.4721 48.0601 17.7203 0.0000 -21.5852 0.0000
# 3 31.1127 17.7203 132.9609 0.0000 -33.4472 0.0000
# 4 0.0000 0.0000 0.0000 22.2945 0.0000 -8.2249
# 5 -23.5006 -21.5852 -33.4472 0.0000 48.8458 0.0000
# 6 0.0000 0.0000 0.0000 -8.2249 0.0000 10.2798
#
#
#
# Elastic Compliance Matrix: (Units=1/GPa)
#
#
# Indices 1 2 3 4 5 6 
#
# 1 0.021799 -0.000389 -0.002965 0.000000 0.008286 0.000000
# 2 -0.000389 0.026020 -0.000642 0.000000 0.010871 0.000000
# 3 -0.002965 -0.000642 0.009508 0.000000 0.004800 0.000000
# 4 0.000000 0.000000 0.000000 0.063639 0.000000 0.050917
# 5 0.008286 0.010871 0.004800 0.000000 0.032550 0.000000
# 6 0.000000 0.000000 0.000000 0.050917 0.000000 0.138017
#
#
# Mechanical properties :
#
#
# Convention : Reuss Voigt Hill
#
# Bulk Modulus (GPa) = 20.26944 40.09700 30.18322
# Shear Modulus (GPa) = 15.82432 28.28122 22.05277
#
# Velocity S-wave (km/s) = 2.65573 3.55035 3.13511
# Velocity P-wave (km/s) = 4.29395 5.88879 5.15344
#
# Compressibility (1/GPa) = 0.04933536
#
# Stress axis : x y z
#
# Youngs Moduli (GPa) = 45.87318 38.43271 105.17569
#
# Poissons Ratio (x) = 0.01495 0.31182
# Poissons Ratio (y) = 0.01784 0.06752
# Poissons Ratio (z) = 0.13600 0.02467
#
# Static dielectric constant tensor:
#      x y z
#    x 1.824990 0.000000 0.023770 
#    y 0.000000 1.827320 0.000000 
#    z 0.023770 0.000000 1.868360 
# 
# From -- ./inp_files/5011.got.cif
#   From: 2010.05.17/outbox.cif.g08.bks.cpg/sg5_3_cif.got.tgz:5011.got - 2010.06.03 18:56:24.
