data_PCOD9123082
_publ_section_title
;
Structure prediction by ZEFSAII (Michael W. Deem and Ramdas Pophale) SiO2 
 PCOD9123082
Probable space group: C 2
;
_chemical_formula_sum "Si O2"
_cell_formula_units_Z 32
_cell_length_a 13.482279
_cell_length_b 20.093984
_cell_length_c 8.448350
_cell_angle_alpha 90.000000
_cell_angle_beta 133.314731
_cell_angle_gamma 90.000000
_cell_volume 1665.297405
_symmetry_space_group_name_H-M "C 2"
_symmetry_group_IT_number 5
_symmetry_cell_setting 'monoclinic'
loop_
_space_group_symop_operation_xyz
x,y,z
-x,y,-z
1/2+x,1/2+y,z
1/2-x,1/2+y,-z
loop_
_atom_site_type_symbol
_atom_site_label
_atom_site_fract_x
_atom_site_fract_y
_atom_site_fract_z
Si Si1 0.737441 0.822210 0.007771
Si Si2 0.224322 0.668139 0.039328
Si Si3 0.341686 0.334625 0.479004
Si Si4 0.550980 0.793090 0.237208
Si Si5 0.830306 0.155954 0.510730
Si Si6 0.940978 0.683959 0.611253
Si Si7 0.060855 0.073948 0.888314
Si Si8 0.942555 0.921733 0.112621
O O1 0.757456 0.744514 0.994377
O O2 0.575441 0.831630 0.826680
O O3 0.803389 0.835938 0.252189
O O4 0.817223 0.871015 0.981470
O O5 0.276057 0.660783 0.274091
O O6 0.312829 0.621482 0.019525
O O7 0.062219 0.657615 0.853877
O O8 0.193239 0.332090 0.397423
O O9 0.414882 0.263769 0.595564
O O10 0.439628 0.392827 0.643932
O O11 0.582991 0.722161 0.351294
O O12 0.500000 0.780607 0.000000
O O13 0.703749 0.153517 0.495164
O O14 0.933415 0.095427 0.641212
O O15 0.000000 0.671790 0.500000
O O16 0.097303 0.997482 0.896478
O O17 0.000000 0.082648 0.000000
O O18 0.000000 0.920907 0.000000
#
# Coordination Sequence:
#
# PCOD9123082 Si02
#       8
#     4   4   4   4   4   4   4   4
#     4  11  21  37  61  93 126 161 209 259 318 378
#     4  12  23  36  61  99 125 160 214 271 320 362
#     4  10  20  37  61  90 120 168 204 252 315 375
#     4   9  20  35  59  91 124 158 200 255 316 372
#     4  11  23  36  60  94 126 162 207 272 313 363
#     4  11  20  36  60  92 126 164 202 256 318 374
#     4  11  25  45  63  86 129 179 216 254 321 394
#     4  11  25  42  63  91 127 171 214 260 313 381
#
# _framework density 19.215786000000001
#
# number of rings (size 3 to 8) (size 9 to 14) (size 15 to 20)
#    0.000    1.250    3.750    2.250    5.250    2.000 
#    0.000    1.250    0.000    6.000    0.000    0.000 
#    0.000    0.000    0.000    0.000    0.000    0.000 
#
# Total GULP energy -89360.627453 kJ/mol
# GULP energy per Si atom -5585.039216 kJ/mol
# Density = 1.917205 g / cm^3
# Si number density = 19.215786 Si / 1000 Ang^3
#
#
#
# Elastic Constant Matrix: (Units=GPa)
#
#
# Indices 1 2 3 4 5 6 
#
# 1 86.8264 54.4598 30.3549 0.0000 27.4520 0.0000
# 2 54.4598 100.2599 20.0409 0.0000 13.3058 0.0000
# 3 30.3549 20.0409 94.2027 0.0000 15.5753 0.0000
# 4 0.0000 0.0000 0.0000 21.8061 0.0000 2.9679
# 5 27.4520 13.3058 15.5753 0.0000 34.0900 0.0000
# 6 0.0000 0.0000 0.0000 2.9679 0.0000 28.1872
#
#
#
# Elastic Compliance Matrix: (Units=1/GPa)
#
#
# Indices 1 2 3 4 5 6 
#
# 1 0.023220 -0.010228 -0.003110 0.000000 -0.013286 0.000000
# 2 -0.010228 0.015278 -0.000357 0.000000 0.002437 0.000000
# 3 -0.003110 -0.000357 0.012176 0.000000 -0.002920 0.000000
# 4 0.000000 0.000000 0.000000 0.046525 0.000000 -0.004899
# 5 -0.013286 0.002437 -0.002920 0.000000 0.040416 0.000000
# 6 0.000000 0.000000 0.000000 -0.004899 0.000000 0.035993
#
#
# Mechanical properties :
#
#
# Convention : Reuss Voigt Hill
#
# Bulk Modulus (GPa) = 42.94759 54.55559 48.75159
# Shear Modulus (GPa) = 23.95089 28.57888 26.26489
#
# Velocity S-wave (km/s) = 3.53429 3.86069 3.70109
# Velocity P-wave (km/s) = 6.24929 6.95168 6.60982
#
# Compressibility (1/GPa) = 0.02328419
#
# Stress axis : x y z
#
# Youngs Moduli (GPa) = 43.06558 65.45394 82.12779
#
# Poissons Ratio (x) = 0.66947 0.25539
# Poissons Ratio (y) = 0.44048 0.02934
# Poissons Ratio (z) = 0.13392 0.02339
#
# Static dielectric constant tensor:
#      x y z
#    x 1.732530 0.000000 -0.002740 
#    y 0.000000 1.652090 0.000000 
#    z -0.002740 0.000000 1.687320 
# 
# From -- ./inp_files/25433.got.cif
#   From: 2010.05.17/outbox.cif.g08.bks.cpg/sg5_13_cif.got.tgz:25433.got - 2010.06.03 18:56:24.
