data_PCOD9123451
_publ_section_title
;
Structure prediction by ZEFSAII (Michael W. Deem and Ramdas Pophale) SiO2 
 PCOD9123451
Probable space group: C 2
;
_chemical_formula_sum "Si O2"
_cell_formula_units_Z 20
_cell_length_a 7.796751
_cell_length_b 23.094622
_cell_length_c 7.415346
_cell_angle_alpha 90.000000
_cell_angle_beta 141.862181
_cell_angle_gamma 90.000000
_cell_volume 824.577926
_symmetry_space_group_name_H-M "C 2"
_symmetry_group_IT_number 5
_symmetry_cell_setting 'monoclinic'
loop_
_space_group_symop_operation_xyz
x,y,z
-x,y,-z
1/2+x,1/2+y,z
1/2-x,1/2+y,-z
loop_
_atom_site_type_symbol
_atom_site_label
_atom_site_fract_x
_atom_site_fract_y
_atom_site_fract_z
Si Si1 0.786375 0.323270 0.169626
Si Si2 0.421012 0.553884 0.146530
Si Si3 0.306144 0.732561 0.680417
Si Si4 0.199603 0.924685 0.831573
Si Si5 0.416667 0.123085 0.644980
O O1 0.000000 0.343944 0.500000
O O2 0.988226 0.281825 0.220970
O O3 0.500000 0.293220 0.000000
O O4 0.670066 0.377136 0.961130
O O5 0.331307 0.489834 0.123450
O O6 0.690394 0.573129 0.478768
O O7 0.500000 0.552921 0.000000
O O8 0.185762 0.603013 0.974651
O O9 0.227262 0.685563 0.461827
O O10 0.000000 0.752477 0.500000
O O11 0.500000 0.704945 0.000000
O O12 0.000000 0.914110 0.500000
O O13 0.500000 0.916931 0.000000
O O14 0.500000 0.123504 0.500000
#
# Coordination Sequence:
#
# PCOD9123451 Si02
#       5
#     4   4   4   4   4
#     4  12  27  46  68  99 137 183 232 287 347 407
#     4  10  20  38  65  95 129 169 216 271 330 400
#     4  11  22  42  70 100 134 180 232 282 332 403
#     4  12  26  45  68  99 135 178 228 284 345 409
#     4   9  18  35  64  97 127 168 219 266 326 403
#
# _framework density 24.254830999999999
#
# number of rings (size 3 to 8) (size 9 to 14) (size 15 to 20)
#    0.000    1.200    0.000    7.800    0.000    4.000 
#    0.000    4.000    0.000    0.000    0.000    0.000 
#    0.000    0.000    0.000    0.000    0.000    0.000 
#
# Total GULP energy -55971.560216 kJ/mol
# GULP energy per Si atom -5597.156022 kJ/mol
# Density = 2.419963 g / cm^3
# Si number density = 24.254831 Si / 1000 Ang^3
#
#
#
# Elastic Constant Matrix: (Units=GPa)
#
#
# Indices 1 2 3 4 5 6 
#
# 1 84.9674 25.6924 37.9589 0.0000 22.9895 0.0000
# 2 25.6924 114.7884 35.1271 0.0000 -1.5421 0.0000
# 3 37.9589 35.1271 185.1743 0.0000 16.5867 0.0000
# 4 0.0000 0.0000 0.0000 37.5900 0.0000 10.2724
# 5 22.9895 -1.5421 16.5867 0.0000 44.3542 0.0000
# 6 0.0000 0.0000 0.0000 10.2724 0.0000 36.8107
#
#
#
# Elastic Compliance Matrix: (Units=1/GPa)
#
#
# Indices 1 2 3 4 5 6 
#
# 1 0.015557 -0.002983 -0.001957 0.000000 -0.007435 0.000000
# 2 -0.002983 0.009865 -0.001479 0.000000 0.002442 0.000000
# 3 -0.001957 -0.001479 0.006204 0.000000 -0.001357 0.000000
# 4 0.000000 0.000000 0.000000 0.028799 0.000000 -0.008037
# 5 -0.007435 0.002442 -0.001357 0.000000 0.026992 0.000000
# 6 0.000000 0.000000 0.000000 -0.008037 0.000000 0.029409
#
#
# Mechanical properties :
#
#
# Convention : Reuss Voigt Hill
#
# Bulk Modulus (GPa) = 53.22569 64.72078 58.97324
# Shear Modulus (GPa) = 36.78480 42.82776 39.80628
#
# Velocity S-wave (km/s) = 3.89858 4.20663 4.05553
# Velocity P-wave (km/s) = 6.50055 7.09478 6.80416
#
# Compressibility (1/GPa) = 0.01878792
#
# Stress axis : x y z
#
# Youngs Moduli (GPa) = 64.27803 101.37230 161.19835
#
# Poissons Ratio (x) = 0.30240 0.31550
# Poissons Ratio (y) = 0.19175 0.23834
# Poissons Ratio (z) = 0.12581 0.14988
#
# Static dielectric constant tensor:
#      x y z
#    x 2.021910 0.000000 -0.023600 
#    y 0.000000 1.933140 0.000000 
#    z -0.023600 0.000000 1.874230 
# 
# From -- ./inp_files/17329.got.cif
#   From: 2010.05.17/outbox.cif.g08.bks.cpg/sg5_9_cif.got.tgz:17329.got - 2010.06.03 18:56:24.
