data_PCOD9123213
_publ_section_title
;
Structure prediction by ZEFSAII (Michael W. Deem and Ramdas Pophale) SiO2 
 PCOD9123213
Probable space group: C 2
;
_chemical_formula_sum "Si O2"
_cell_formula_units_Z 22
_cell_length_a 18.342354
_cell_length_b 8.979583
_cell_length_c 7.405249
_cell_angle_alpha 90.000000
_cell_angle_beta 111.065457
_cell_angle_gamma 90.000000
_cell_volume 1138.182391
_symmetry_space_group_name_H-M "C 2"
_symmetry_group_IT_number 5
_symmetry_cell_setting 'monoclinic'
loop_
_space_group_symop_operation_xyz
x,y,z
-x,y,-z
1/2+x,1/2+y,z
1/2-x,1/2+y,-z
loop_
_atom_site_type_symbol
_atom_site_label
_atom_site_fract_x
_atom_site_fract_y
_atom_site_fract_z
Si Si1 0.210665 0.660250 0.653161
Si Si2 0.883061 0.167819 0.894554
Si Si3 0.821741 0.344211 0.530134
Si Si4 0.000000 0.912030 0.000000
Si Si5 0.418186 0.671905 0.332052
Si Si6 0.431078 0.319095 0.304142
O O1 0.291837 0.622173 0.827657
O O2 0.181517 0.515192 0.523346
O O3 0.239070 0.785005 0.534439
O O4 0.145148 0.722925 0.726212
O O5 0.880717 0.297840 0.744290
O O6 0.085452 0.213389 0.882162
O O7 0.933040 0.026721 0.871301
O O8 0.849629 0.249556 0.382974
O O9 0.963879 0.819578 0.130667
O O10 0.500000 0.711799 0.500000
O O11 0.411786 0.492475 0.329383
O O12 0.500000 0.271512 0.500000
#
# Coordination Sequence:
#
# PCOD9123213 Si02
#       6
#     4   4   4   2   4   4
#     4  10  23  39  62  94 133 167 219 261 323 378
#     4   9  21  37  62  98 123 169 215 260 315 392
#     4  10  21  39  58  91 132 172 209 269 314 381
#     4  10  20  38  68  92 122 168 216 260 320 376
#     4  10  20  37  67  91 126 169 218 262 323 382
#     4  10  21  39  62  93 125 167 211 265 314 388
#
# _framework density 19.329063000000001
#
# number of rings (size 3 to 8) (size 9 to 14) (size 15 to 20)
#    1.091    1.091    0.000    4.364    2.545    3.636 
#    0.000    0.000    0.000    1.091    0.000    0.000 
#    0.000    0.000    0.000    0.000    0.000    0.000 
#
# Total GULP energy -61323.712017 kJ/mol
# GULP energy per Si atom -5574.882911 kJ/mol
# Density = 1.928507 g / cm^3
# Si number density = 19.329063 Si / 1000 Ang^3
#
#
#
# Elastic Constant Matrix: (Units=GPa)
#
#
# Indices 1 2 3 4 5 6 
#
# 1 136.2192 52.2012 35.0515 0.0000 -25.2583 0.0000
# 2 52.2012 58.2587 42.5966 0.0000 -11.8088 0.0000
# 3 35.0515 42.5966 94.3490 0.0000 -21.3320 0.0000
# 4 0.0000 0.0000 0.0000 1.6032 0.0000 -18.7497
# 5 -25.2583 -11.8088 -21.3320 0.0000 34.3602 0.0000
# 6 0.0000 0.0000 0.0000 -18.7497 0.0000 34.4670
#
#
#
# Elastic Compliance Matrix: (Units=1/GPa)
#
#
# Indices 1 2 3 4 5 6 
#
# 1 0.012296 -0.011103 0.001891 0.000000 0.006397 0.000000
# 2 -0.011103 0.035756 -0.012895 0.000000 -0.003879 0.000000
# 3 0.001891 -0.012895 0.017485 0.000000 0.007814 0.000000
# 4 0.000000 0.000000 0.000000 -0.116327 0.000000 -0.063281
# 5 0.006397 -0.003879 0.007814 0.000000 0.037323 0.000000
# 6 0.000000 0.000000 0.000000 -0.063281 0.000000 -0.005411
#
#
# Mechanical properties :
#
#
# Convention : Reuss Voigt Hill
#
# Bulk Modulus (GPa) = 46.90034 60.94730 53.92382
# Shear Modulus (GPa) = 154.11855 24.68460 89.40157
#
# Velocity S-wave (km/s) = 8.93908 3.57749 6.80829
# Velocity P-wave (km/s) = 11.43940 6.97599 9.47429
#
# Compressibility (1/GPa) = 0.02132181
#
# Stress axis : x y z
#
# Youngs Moduli (GPa) = 81.33048 27.96753 57.19241
#
# Poissons Ratio (x) = 0.31053 -0.10817
# Poissons Ratio (y) = 0.90304 0.73750
# Poissons Ratio (z) = -0.15382 0.36064
#
# Static dielectric constant tensor:
#      x y z
#    x 1.697480 0.000000 0.006920 
#    y 0.000000 1.647190 0.000000 
#    z 0.006920 0.000000 1.685970 
# 
# From -- ./inp_files/26297.got.cif
#   From: 2010.05.17/outbox.cif.g08.bks.cpg/sg5_14_cif.got.tgz:26297.got - 2010.06.03 18:56:24.
