data_PCOD9123080
_publ_section_title
;
Structure prediction by ZEFSAII (Michael W. Deem and Ramdas Pophale) SiO2 
 PCOD9123080
Probable space group: C 2
;
_chemical_formula_sum "Si O2"
_cell_formula_units_Z 32
_cell_length_a 15.356922
_cell_length_b 20.024744
_cell_length_c 15.459752
_cell_angle_alpha 90.000000
_cell_angle_beta 161.193194
_cell_angle_gamma 90.000000
_cell_volume 1532.636848
_symmetry_space_group_name_H-M "C 2"
_symmetry_group_IT_number 5
_symmetry_cell_setting 'monoclinic'
loop_
_space_group_symop_operation_xyz
x,y,z
-x,y,-z
1/2+x,1/2+y,z
1/2-x,1/2+y,-z
loop_
_atom_site_type_symbol
_atom_site_label
_atom_site_fract_x
_atom_site_fract_y
_atom_site_fract_z
Si Si1 0.767716 0.660230 0.017844
Si Si2 0.603086 0.969280 0.503517
Si Si3 0.276925 0.268805 0.720175
Si Si4 0.267212 0.989160 0.708737
Si Si5 0.975097 0.807770 0.228085
Si Si6 0.177823 0.130969 0.541069
Si Si7 0.897587 0.061037 0.995069
Si Si8 0.059518 0.391829 0.281759
O O1 0.585728 0.654460 0.760018
O O2 0.610833 0.617307 0.940809
O O3 0.834032 0.735813 0.108515
O O4 0.060610 0.628550 0.274907
O O5 0.500000 0.941718 0.500000
O O6 0.588309 0.923632 0.404709
O O7 0.902143 0.999774 0.794071
O O8 0.399088 0.030650 0.295139
O O9 0.378012 0.300279 0.726439
O O10 0.245063 0.190014 0.670956
O O11 0.000000 0.293173 0.500000
O O12 0.500000 0.281203 0.000000
O O13 0.382965 0.946012 0.738244
O O14 0.000000 0.956757 0.500000
O O15 0.163306 0.059614 0.572301
O O16 0.500000 0.998705 0.000000
O O17 0.216394 0.833115 0.515852
O O18 0.738778 0.861914 0.006095
O O19 0.000000 0.088377 0.000000
#
# Coordination Sequence:
#
# PCOD9123080 Si02
#       8
#     4   4   4   4   4   4   4   4
#     4  11  21  39  62  90 120 159 200 251 316 374
#     4  10  22  39  63  93 121 153 196 249 314 380
#     4  11  21  38  61  91 124 153 191 251 315 379
#     4  12  25  42  65  95 126 168 218 267 317 371
#     4  11  25  40  60  87 122 169 213 245 296 374
#     4  11  22  38  64  93 123 155 196 256 322 382
#     4  10  20  37  61  90 118 145 193 257 314 368
#     4  12  24  43  63  87 128 172 212 258 300 362
#
# _framework density 20.879048000000001
#
# number of rings (size 3 to 8) (size 9 to 14) (size 15 to 20)
#    0.000    1.000    0.000    9.000    0.000    1.500 
#    0.000    1.875    0.000    0.000    0.000    0.000 
#    0.000    0.000    0.000    0.000    0.000    0.000 
#
# Total GULP energy -89469.558138 kJ/mol
# GULP energy per Si atom -5591.847384 kJ/mol
# Density = 2.083153 g / cm^3
# Si number density = 20.879048 Si / 1000 Ang^3
#
#
#
# Elastic Constant Matrix: (Units=GPa)
#
#
# Indices 1 2 3 4 5 6 
#
# 1 -216.9613 -189.9223 -90.5654 -0.0097 152.9229 0.0364
# 2 -189.9223 -107.9480 -68.7535 -0.0092 114.7031 0.0282
# 3 -90.5654 -68.7535 66.6850 -0.0084 54.6946 0.0092
# 4 -0.0097 -0.0092 -0.0084 19.5430 0.0037 19.5580
# 5 152.9229 114.7031 54.6946 0.0037 -29.7343 -0.0174
# 6 0.0364 0.0282 0.0092 19.5580 -0.0174 -43.1889
#
#
#
# Elastic Compliance Matrix: (Units=1/GPa)
#
#
# Indices 1 2 3 4 5 6 
#
# 1 0.011460 -0.012761 -0.002216 -0.000001 0.005638 -0.000002
# 2 -0.012761 0.018890 -0.001513 0.000001 0.004460 0.000000
# 3 -0.002216 -0.001513 0.009791 0.000002 0.000775 0.000000
# 4 -0.000001 0.000001 0.000002 0.035212 0.000000 0.015945
# 5 0.005638 0.004460 0.000775 0.000000 0.013998 0.000002
# 6 -0.000002 0.000000 0.000000 0.015945 0.000002 -0.015933
#
#
# Mechanical properties :
#
#
# Convention : Reuss Voigt Hill
#
# Bulk Modulus (GPa) = 139.63250 -106.30075 16.66588
# Shear Modulus (GPa) = 45.96278 -4.60825 20.67727
#
# Velocity S-wave (km/s) = 4.69698 -1.48725 3.15037
# Velocity P-wave (km/s) = 9.82026 7.34659 4.60788
#
# Compressibility (1/GPa) = 0.00716166
#
# Stress axis : x y z
#
# Youngs Moduli (GPa) = 87.25695 52.93776 102.13976
#
# Poissons Ratio (x) = 0.67552 0.22638
# Poissons Ratio (y) = 1.11346 0.15450
# Poissons Ratio (z) = 0.19340 0.08008
#
# Static dielectric constant tensor:
#      x y z
#    x 1.779640 -0.000020 -0.028190 
#    y -0.000020 1.871480 0.000000 
#    z -0.028190 0.000000 1.776040 
# 
# From -- ./inp_files/55006.got.cif
#   From: 2010.05.17/outbox.cif.g08.bks.cpg/sg5_28_cif.got.tgz:55006.got - 2010.06.03 18:56:24.
