data_PCOD9123329
_publ_section_title
;
Structure prediction by ZEFSAII (Michael W. Deem and Ramdas Pophale) SiO2 
 PCOD9123329
Probable space group: C 2
;
_chemical_formula_sum "Si O2"
_cell_formula_units_Z 28
_cell_length_a 9.021652
_cell_length_b 11.793514
_cell_length_c 13.483138
_cell_angle_alpha 90.000000
_cell_angle_beta 132.393344
_cell_angle_gamma 90.000000
_cell_volume 1059.474665
_symmetry_space_group_name_H-M "C 2"
_symmetry_group_IT_number 5
_symmetry_cell_setting 'monoclinic'
loop_
_space_group_symop_operation_xyz
x,y,z
-x,y,-z
1/2+x,1/2+y,z
1/2-x,1/2+y,-z
loop_
_atom_site_type_symbol
_atom_site_label
_atom_site_fract_x
_atom_site_fract_y
_atom_site_fract_z
Si Si1 0.247381 0.381280 0.241393
Si Si2 0.115026 0.018917 0.402798
Si Si3 0.000000 0.035560 0.000000
Si Si4 0.018497 0.186251 0.820766
Si Si5 0.379738 0.287868 0.099337
Si Si6 0.500000 0.686834 0.500000
Si Si7 0.063778 0.535647 0.808471
Si Si8 0.306177 0.895307 0.312456
O O1 0.472043 0.416055 0.370713
O O2 0.252807 0.349427 0.128083
O O3 0.149203 0.283057 0.263541
O O4 0.103840 0.486129 0.196703
O O5 0.984428 0.098929 0.269924
O O6 0.153429 0.102280 0.512390
O O7 0.273410 0.962815 0.400349
O O8 0.942614 0.116121 0.882016
O O9 0.785851 0.991920 0.942020
O O10 0.231491 0.243494 0.945420
O O11 0.444407 0.170371 0.183388
O O12 0.580897 0.362301 0.169739
O O13 0.402728 0.774214 0.378981
O O14 0.064051 0.473492 0.702051
#
# Coordination Sequence:
#
# PCOD9123329 Si02
#       8
#     4   4   2   4   4   2   4   4
#     4  11  22  38  67  99 136 183 213 266 340 400
#     4  11  26  47  70  98 138 177 233 285 333 394
#     4  10  20  38  62 102 148 164 210 268 322 420
#     4  11  20  42  68 102 145 172 212 274 329 422
#     4  10  23  41  65 106 143 169 219 273 333 427
#     4  12  28  50  64 100 132 172 248 302 316 388
#     4  11  22  39  65 100 139 180 213 269 332 407
#     4  11  25  46  73  95 130 186 228 278 350 395
#
# _framework density 26.428191000000002
#
# number of rings (size 3 to 8) (size 9 to 14) (size 15 to 20)
#    0.000    1.143    4.286    1.714    2.000    6.857 
#    0.000    5.714    0.000    3.429    0.000    0.000 
#    0.000    0.000    0.000    0.000    0.000    0.000 
#
# Total GULP energy -78340.532567 kJ/mol
# GULP energy per Si atom -5595.752326 kJ/mol
# Density = 2.636804 g / cm^3
# Si number density = 26.428191 Si / 1000 Ang^3
#
#
#
# Elastic Constant Matrix: (Units=GPa)
#
#
# Indices 1 2 3 4 5 6 
#
# 1 142.8328 60.8337 2.8722 0.0000 -8.2873 0.0000
# 2 60.8337 126.9892 19.3657 0.0000 -15.6075 0.0000
# 3 2.8722 19.3657 57.2572 0.0000 -5.6420 0.0000
# 4 0.0000 0.0000 0.0000 36.3643 0.0000 2.0326
# 5 -8.2873 -15.6075 -5.6420 0.0000 30.5333 0.0000
# 6 0.0000 0.0000 0.0000 2.0326 0.0000 58.4639
#
#
#
# Elastic Compliance Matrix: (Units=1/GPa)
#
#
# Indices 1 2 3 4 5 6 
#
# 1 0.008859 -0.004361 0.001067 0.000000 0.000373 0.000000
# 2 -0.004361 0.010905 -0.003093 0.000000 0.003819 0.000000
# 3 0.001067 -0.003093 0.018670 0.000000 0.002158 0.000000
# 4 0.000000 0.000000 0.000000 0.027553 0.000000 -0.000958
# 5 0.000373 0.003819 0.002158 0.000000 0.035203 0.000000
# 6 0.000000 0.000000 0.000000 -0.000958 0.000000 0.017138
#
#
# Mechanical properties :
#
#
# Convention : Reuss Voigt Hill
#
# Bulk Modulus (GPa) = 38.97042 54.80249 46.88645
# Shear Modulus (GPa) = 35.80267 41.33949 38.57108
#
# Velocity S-wave (km/s) = 3.68464 3.95931 3.82444
# Velocity P-wave (km/s) = 5.73410 6.45623 6.10585
#
# Compressibility (1/GPa) = 0.02566049
#
# Stress axis : x y z
#
# Youngs Moduli (GPa) = 112.88497 91.70362 53.56077
#
# Poissons Ratio (x) = 0.39988 -0.05716
# Poissons Ratio (y) = 0.49225 0.16567
# Poissons Ratio (z) = -0.12047 0.28365
#
# Static dielectric constant tensor:
#      x y z
#    x 2.027710 0.000000 0.044550 
#    y 0.000000 2.101910 0.000000 
#    z 0.044550 0.000000 2.191660 
# 
# From -- ./inp_files/50565.got.cif
#   From: 2010.05.17/outbox.cif.g08.bks.cpg/sg5_26_cif.got.tgz:50565.got - 2010.06.03 18:56:24.
