data_PCOD9123922
_publ_section_title
;
Structure prediction by ZEFSAII (Michael W. Deem and Ramdas Pophale) SiO2 
 PCOD9123922
Probable space group: C 2
;
_chemical_formula_sum "Si O2"
_cell_formula_units_Z 28
_cell_length_a 8.337019
_cell_length_b 13.547472
_cell_length_c 17.184233
_cell_angle_alpha 90.000000
_cell_angle_beta 138.615118
_cell_angle_gamma 90.000000
_cell_volume 1283.144323
_symmetry_space_group_name_H-M "C 2"
_symmetry_group_IT_number 5
_symmetry_cell_setting 'monoclinic'
loop_
_space_group_symop_operation_xyz
x,y,z
-x,y,-z
1/2+x,1/2+y,z
1/2-x,1/2+y,-z
loop_
_atom_site_type_symbol
_atom_site_label
_atom_site_fract_x
_atom_site_fract_y
_atom_site_fract_z
Si Si1 0.071642 0.151240 0.824184
Si Si2 0.629706 0.956187 0.360528
Si Si3 0.280052 0.874641 0.117737
Si Si4 0.369961 0.783544 0.525964
Si Si5 0.016932 0.636146 0.598961
Si Si6 0.262121 0.075100 0.052610
Si Si7 0.231729 0.108186 0.712025
O O1 0.091036 0.270089 0.830673
O O2 0.161039 0.101361 0.776849
O O3 0.789184 0.128229 0.726739
O O4 0.223342 0.116451 0.953163
O O5 0.365047 0.931175 0.226956
O O6 0.696622 0.855098 0.427264
O O7 0.616011 0.038020 0.421676
O O8 0.782903 0.009583 0.347210
O O9 0.340906 0.959734 0.077464
O O10 0.000000 0.853114 0.000000
O O11 0.500000 0.835286 0.500000
O O12 0.560424 0.696652 0.619401
O O13 0.124395 0.727422 0.414603
O O14 0.000000 0.646627 0.500000
O O15 0.477921 0.129386 0.178030
O O16 0.000000 0.079621 0.000000
#
# Coordination Sequence:
#
# PCOD9123922 Si02
#       7
#     4   4   4   4   4   4   4
#     4  12  23  43  71 104 145 192 239 312 365 441
#     4  11  24  45  71 102 141 192 248 304 377 437
#     4  10  20  40  68  99 135 186 236 296 366 433
#     4  12  25  48  73 105 147 197 251 305 376 437
#     4  12  24  44  66 105 146 186 249 310 367 444
#     4  10  23  42  69 104 144 186 243 304 368 435
#     4  11  22  44  72 102 137 194 247 298 374 443
#
# _framework density 21.821396
#
# number of rings (size 3 to 8) (size 9 to 14) (size 15 to 20)
#    0.000    0.857    4.286    4.286    0.000    0.000 
#   10.286    2.857    0.000    1.714    0.000    0.000 
#    0.000    0.000    0.000    0.000    0.000    0.000 
#
# Total GULP energy -78128.784768 kJ/mol
# GULP energy per Si atom -5580.627483 kJ/mol
# Density = 2.177173 g / cm^3
# Si number density = 21.821396 Si / 1000 Ang^3
#
#
#
# Elastic Constant Matrix: (Units=GPa)
#
#
# Indices 1 2 3 4 5 6 
#
# 1 98.7919 44.8979 24.5736 0.0000 -8.3988 0.0000
# 2 44.8979 114.0386 27.3345 0.0000 -9.1559 0.0000
# 3 24.5736 27.3345 66.5036 -0.0001 5.2195 0.0000
# 4 0.0000 0.0000 -0.0001 39.0411 0.0000 -12.1842
# 5 -8.3988 -9.1559 5.2195 0.0000 42.9598 0.0000
# 6 0.0000 0.0000 0.0000 -12.1842 0.0000 23.7982
#
#
#
# Elastic Compliance Matrix: (Units=1/GPa)
#
#
# Indices 1 2 3 4 5 6 
#
# 1 0.013002 -0.004176 -0.003249 0.000000 0.002047 0.000000
# 2 -0.004176 0.011361 -0.003284 0.000000 0.002004 0.000000
# 3 -0.003249 -0.003284 0.017862 0.000000 -0.003505 0.000000
# 4 0.000000 0.000000 0.000000 0.030485 0.000000 0.015608
# 5 0.002047 0.002004 -0.003505 0.000000 0.024531 0.000000
# 6 0.000000 0.000000 0.000000 0.015608 0.000000 0.050011
#
#
# Mechanical properties :
#
#
# Convention : Reuss Voigt Hill
#
# Bulk Modulus (GPa) = 48.05778 52.54956 50.30367
# Shear Modulus (GPa) = 28.47299 33.32837 30.90068
#
# Velocity S-wave (km/s) = 3.61615 3.91234 3.76716
# Velocity P-wave (km/s) = 6.28541 6.67402 6.48263
#
# Compressibility (1/GPa) = 0.02080829
#
# Stress axis : x y z
#
# Youngs Moduli (GPa) = 76.90980 88.01947 55.98479
#
# Poissons Ratio (x) = 0.36758 0.18187
# Poissons Ratio (y) = 0.32118 0.18385
# Poissons Ratio (z) = 0.24985 0.28904
#
# Static dielectric constant tensor:
#      x y z
#    x 1.825080 0.000000 0.002030 
#    y 0.000000 1.790010 0.000000 
#    z 0.002030 0.000000 1.802560 
# 
# From -- ./inp_files/59735.got.cif
#   From: 2010.05.17/outbox.cif.g08.bks.cpg/sg5_30_cif.got.tgz:59735.got - 2010.06.03 18:56:24.
