data_PCOD9123039
_publ_section_title
;
Structure prediction by ZEFSAII (Michael W. Deem and Ramdas Pophale) SiO2 
 PCOD9123039
Probable space group: C 2
;
_chemical_formula_sum "Si O2"
_cell_formula_units_Z 28
_cell_length_a 9.437167
_cell_length_b 9.059957
_cell_length_c 25.329407
_cell_angle_alpha 90.000000
_cell_angle_beta 143.040359
_cell_angle_gamma 90.000000
_cell_volume 1302.115661
_symmetry_space_group_name_H-M "C 2"
_symmetry_group_IT_number 5
_symmetry_cell_setting 'monoclinic'
loop_
_space_group_symop_operation_xyz
x,y,z
-x,y,-z
1/2+x,1/2+y,z
1/2-x,1/2+y,-z
loop_
_atom_site_type_symbol
_atom_site_label
_atom_site_fract_x
_atom_site_fract_y
_atom_site_fract_z
Si Si1 0.409768 0.593210 0.558115
Si Si2 0.125803 0.606553 0.367954
Si Si3 0.476753 0.769228 0.679032
Si Si4 0.631182 0.983559 0.984633
Si Si5 0.194829 0.833191 0.690807
Si Si6 0.544682 0.647622 0.072768
Si Si7 0.962104 0.601535 0.822382
O O1 0.214043 0.596064 0.454924
O O2 0.649896 0.646770 0.600978
O O3 0.355942 0.693863 0.592326
O O4 0.487592 0.430788 0.601543
O O5 0.037846 0.444800 0.327798
O O6 0.926667 0.727406 0.303901
O O7 0.333123 0.735405 0.689344
O O8 0.741327 0.710805 0.757832
O O9 0.535952 0.069735 0.904814
O O10 0.575103 0.809665 0.958912
O O11 0.500000 0.023313 0.000000
O O12 0.905976 0.033659 0.069007
O O13 0.368030 0.948927 0.769629
O O14 0.827133 0.657160 0.152800
O O15 0.500000 0.588311 0.000000
#
# Coordination Sequence:
#
# PCOD9123039 Si02
#       7
#     4   4   4   4   4   4   4
#     4   9  20  38  57  82 119 156 202 257 297 340
#     4  10  20  37  60  84 115 159 205 249 295 347
#     4  10  22  38  57  86 121 159 201 242 296 352
#     4  10  22  40  65  91 113 150 199 239 291 356
#     4  10  22  37  57  87 119 159 201 244 300 350
#     4   9  21  41  61  84 115 148 188 239 292 351
#     4  10  23  41  58  86 128 157 187 244 299 352
#
# _framework density 21.503468000000002
#
# number of rings (size 3 to 8) (size 9 to 14) (size 15 to 20)
#    0.000    2.286    0.000    0.857    0.000   14.857 
#    0.000    0.000    0.000    0.000    0.000    0.000 
#    0.000    0.000    0.000    0.000    0.000    0.000 
#
# Total GULP energy -78157.288502 kJ/mol
# GULP energy per Si atom -5582.663464 kJ/mol
# Density = 2.145452 g / cm^3
# Si number density = 21.503468 Si / 1000 Ang^3
#
#
#
# Elastic Constant Matrix: (Units=GPa)
#
#
# Indices 1 2 3 4 5 6 
#
# 1 120.6189 49.7580 32.9388 0.0000 7.3955 0.0000
# 2 49.7580 38.9810 7.2438 0.0000 16.5179 0.0000
# 3 32.9388 7.2438 46.8141 0.0000 -5.6934 0.0000
# 4 0.0000 0.0000 0.0000 21.4339 0.0000 1.8288
# 5 7.3955 16.5179 -5.6934 0.0000 35.3756 0.0000
# 6 0.0000 0.0000 0.0000 1.8288 0.0000 36.0952
#
#
#
# Elastic Compliance Matrix: (Units=1/GPa)
#
#
# Indices 1 2 3 4 5 6 
#
# 1 0.024015 -0.032102 -0.010932 0.000000 0.008209 0.000000
# 2 -0.032102 0.077238 0.007207 0.000000 -0.028194 0.000000
# 3 -0.010932 0.007207 0.028361 0.000000 0.003485 0.000000
# 4 0.000000 0.000000 0.000000 0.046858 0.000000 -0.002374
# 5 0.008209 -0.028194 0.003485 0.000000 0.040277 0.000000
# 6 0.000000 0.000000 0.000000 -0.002374 0.000000 0.027825
#
#
# Mechanical properties :
#
#
# Convention : Reuss Voigt Hill
#
# Bulk Modulus (GPa) = 17.25290 42.92167 30.08729
# Shear Modulus (GPa) = 14.90104 26.34585 20.62344
#
# Velocity S-wave (km/s) = 2.63527 3.50407 3.10025
# Velocity P-wave (km/s) = 4.15936 6.03117 5.18051
#
# Compressibility (1/GPa) = 0.05796126
#
# Stress axis : x y z
#
# Youngs Moduli (GPa) = 41.64046 12.94702 35.25934
#
# Poissons Ratio (x) = 0.41562 0.38544
# Poissons Ratio (y) = 1.33673 -0.25411
# Poissons Ratio (z) = 0.45520 -0.09331
#
# Static dielectric constant tensor:
#      x y z
#    x 1.775280 0.000000 0.000820 
#    y 0.000000 1.751280 0.000000 
#    z 0.000820 0.000000 1.866640 
# 
# From -- ./inp_files/59340.got.cif
#   From: 2010.05.17/outbox.cif.g08.bks.cpg/sg5_30_cif.got.tgz:59340.got - 2010.06.03 18:56:24.
