data_PCOD9123697
_publ_section_title
;
Structure prediction by ZEFSAII (Michael W. Deem and Ramdas Pophale) SiO2 
 PCOD9123697
Probable space group: C 2
;
_chemical_formula_sum "Si O2"
_cell_formula_units_Z 32
_cell_length_a 24.594304
_cell_length_b 7.913851
_cell_length_c 24.635698
_cell_angle_alpha 90.000000
_cell_angle_beta 160.979213
_cell_angle_gamma 90.000000
_cell_volume 1562.739254
_symmetry_space_group_name_H-M "C 2"
_symmetry_group_IT_number 5
_symmetry_cell_setting 'monoclinic'
loop_
_space_group_symop_operation_xyz
x,y,z
-x,y,-z
1/2+x,1/2+y,z
1/2-x,1/2+y,-z
loop_
_atom_site_type_symbol
_atom_site_label
_atom_site_fract_x
_atom_site_fract_y
_atom_site_fract_z
Si Si1 0.584746 0.909660 0.349014
Si Si2 0.582689 0.111977 0.635356
Si Si3 0.204949 0.879034 0.618761
Si Si4 0.776219 0.459613 0.124759
Si Si5 0.525417 0.760786 0.865077
Si Si6 0.196000 0.421782 0.173468
Si Si7 0.738574 0.568214 0.881337
Si Si8 0.359518 0.597655 0.543172
O O1 0.416066 0.994826 0.210658
O O2 0.543325 0.778903 0.260956
O O3 0.644388 0.797983 0.455777
O O4 0.730598 0.026330 0.465215
O O5 0.500000 0.051044 0.500000
O O6 0.447072 0.248145 0.529118
O O7 0.747481 0.226809 0.781169
O O8 0.635762 0.986357 0.733331
O O9 0.374418 0.778429 0.765150
O O10 0.209495 0.963334 0.681801
O O11 0.197258 0.023877 0.567216
O O12 0.719649 0.264160 0.067768
O O13 0.631548 0.595112 0.978116
O O14 0.638551 0.928544 0.978547
O O15 0.253047 0.528549 0.175274
O O16 0.000000 0.439694 0.000000
O O17 0.552721 0.542833 0.729562
#
# Coordination Sequence:
#
# PCOD9123697 Si02
#       8
#     4   4   4   4   4   4   4   4
#     4  10  26  40  65  94 124 171 218 260 326 369
#     4  10  21  40  68  94 128 169 208 264 319 387
#     4  10  20  39  69  93 122 176 211 250 334 374
#     4  11  24  44  64  97 130 167 216 267 315 380
#     4  11  23  44  66  90 132 171 207 270 311 388
#     4  11  19  38  67  94 127 172 210 258 324 381
#     4  11  23  42  66  95 128 167 213 265 326 372
#     4  10  22  42  58  94 124 163 219 263 314 377
#
# _framework density 20.476863999999999
#
# number of rings (size 3 to 8) (size 9 to 14) (size 15 to 20)
#    0.000    1.500    3.750    0.000    8.750    0.000 
#    9.000    3.125    0.000    0.000    0.000    0.000 
#    0.000    0.000    0.000    0.000    0.000    0.000 
#
# Total GULP energy -89286.397394 kJ/mol
# GULP energy per Si atom -5580.399837 kJ/mol
# Density = 2.043026 g / cm^3
# Si number density = 20.476864 Si / 1000 Ang^3
#
#
#
# Elastic Constant Matrix: (Units=GPa)
#
#
# Indices 1 2 3 4 5 6 
#
# 1 69.3686 11.4517 11.1892 0.0005 12.0199 0.0001
# 2 11.4517 75.3018 40.0754 -0.0003 -5.4210 -0.0001
# 3 11.1892 40.0754 57.8549 -0.0014 15.8070 -0.0004
# 4 0.0005 -0.0003 -0.0014 25.8498 -0.0003 0.8646
# 5 12.0199 -5.4210 15.8070 -0.0003 32.1235 0.0000
# 6 0.0001 -0.0001 -0.0004 0.8646 0.0000 18.6734
#
#
#
# Elastic Compliance Matrix: (Units=1/GPa)
#
#
# Indices 1 2 3 4 5 6 
#
# 1 0.016080 -0.003809 0.001557 0.000000 -0.007426 0.000000
# 2 -0.003809 0.027285 -0.022888 -0.000001 0.017292 0.000000
# 3 0.001557 -0.022888 0.039341 0.000002 -0.023803 0.000001
# 4 0.000000 -0.000001 0.000002 0.038745 0.000000 -0.001794
# 5 -0.007426 0.017292 -0.023803 0.000000 0.048540 0.000000
# 6 0.000000 0.000000 0.000001 -0.001794 0.000000 0.053635
#
#
# Mechanical properties :
#
#
# Convention : Reuss Voigt Hill
#
# Bulk Modulus (GPa) = 30.83803 36.43974 33.63889
# Shear Modulus (GPa) = 17.56157 24.64993 21.10575
#
# Velocity S-wave (km/s) = 2.93171 3.47334 3.21395
# Velocity P-wave (km/s) = 5.15291 5.82406 5.49873
#
# Compressibility (1/GPa) = 0.03242749
#
# Stress axis : x y z
#
# Youngs Moduli (GPa) = 62.18887 36.65068 25.41888
#
# Poissons Ratio (x) = 0.13959 -0.03958
# Poissons Ratio (y) = 0.23686 0.58177
# Poissons Ratio (z) = -0.09684 0.83884
#
# Static dielectric constant tensor:
#      x y z
#    x 1.779370 0.000000 -0.016660 
#    y 0.000000 1.700710 0.000000 
#    z -0.016660 0.000000 1.767040 
# 
# From -- ./inp_files/69669.got.cif
#   From: 2010.05.17/outbox.cif.g08.bks.cpg/sg5_35_cif.got.tgz:69669.got - 2010.06.03 18:56:24.
