data_PCOD9123440
_publ_section_title
;
Structure prediction by ZEFSAII (Michael W. Deem and Ramdas Pophale) SiO2 
 PCOD9123440
Probable space group: C 2
;
_chemical_formula_sum "Si O2"
_cell_formula_units_Z 32
_cell_length_a 15.551985
_cell_length_b 12.003530
_cell_length_c 17.539352
_cell_angle_alpha 90.000000
_cell_angle_beta 148.707228
_cell_angle_gamma 90.000000
_cell_volume 1700.668868
_symmetry_space_group_name_H-M "C 2"
_symmetry_group_IT_number 5
_symmetry_cell_setting 'monoclinic'
loop_
_space_group_symop_operation_xyz
x,y,z
-x,y,-z
1/2+x,1/2+y,z
1/2-x,1/2+y,-z
loop_
_atom_site_type_symbol
_atom_site_label
_atom_site_fract_x
_atom_site_fract_y
_atom_site_fract_z
Si Si1 0.472490 0.934640 0.887777
Si Si2 0.481492 0.157199 0.167124
Si Si3 0.737638 0.354758 0.345540
Si Si4 0.820139 0.235674 0.822095
Si Si5 0.871118 0.274157 0.122627
Si Si6 0.482476 0.127263 0.340369
Si Si7 0.590905 0.877774 0.681959
Si Si8 0.671845 0.609611 0.322965
O O1 0.314029 0.852566 0.771854
O O2 0.591053 0.859942 0.920031
O O3 0.470860 0.057717 0.853464
O O4 0.500000 0.947801 0.000000
O O5 0.606680 0.259466 0.260495
O O6 0.493537 0.105868 0.259822
O O7 0.299709 0.208050 0.016995
O O8 0.779822 0.352082 0.287231
O O9 0.671804 0.475175 0.325218
O O10 0.910834 0.332533 0.520140
O O11 0.661339 0.217166 0.753977
O O12 0.818224 0.140213 0.758108
O O13 0.000000 0.228787 0.000000
O O14 0.867779 0.337137 0.201600
O O15 0.015285 0.180014 0.233633
O O16 0.661350 0.153725 0.510398
O O17 0.428830 0.010650 0.335811
#
# Coordination Sequence:
#
# PCOD9123440 Si02
#       8
#     4   4   4   4   4   4   4   4
#     4  10  23  42  57  86 131 157 198 251 312 361
#     4  12  25  38  64  91 126 165 202 254 315 372
#     4  10  23  40  64  91 123 161 202 254 311 374
#     4  10  20  38  65  91 123 158 204 260 308 363
#     4  11  24  41  65  90 124 161 208 260 304 370
#     4  11  20  40  67  92 120 160 212 256 305 369
#     4  10  21  43  63  89 124 158 208 255 304 370
#     4  10  21  39  66  93 122 159 208 259 310 365
#
# _framework density 18.816127000000002
#
# number of rings (size 3 to 8) (size 9 to 14) (size 15 to 20)
#    0.000    1.500    2.500    3.375    3.500    1.000 
#    0.000    0.000   11.000    0.000    0.000    0.000 
#    0.000    0.000    0.000    0.000    0.000    0.000 
#
# Total GULP energy -89120.819517 kJ/mol
# GULP energy per Si atom -5570.051220 kJ/mol
# Density = 1.877330 g / cm^3
# Si number density = 18.816127 Si / 1000 Ang^3
#
#
#
# Elastic Constant Matrix: (Units=GPa)
#
#
# Indices 1 2 3 4 5 6 
#
# 1 45.7601 -6.0187 14.0098 0.0001 -5.9849 0.0000
# 2 -6.0187 71.8701 27.4296 0.0001 13.8864 -0.0001
# 3 14.0098 27.4296 86.7395 0.0002 2.6789 0.0000
# 4 0.0001 0.0001 0.0002 -3.6229 0.0000 -30.2071
# 5 -5.9849 13.8864 2.6789 0.0000 30.3611 -0.0001
# 6 0.0000 -0.0001 0.0000 -30.2071 -0.0001 8.9559
#
#
#
# Elastic Compliance Matrix: (Units=1/GPa)
#
#
# Indices 1 2 3 4 5 6 
#
# 1 0.024324 0.003247 -0.005071 0.000000 0.003757 0.000000
# 2 0.003247 0.017800 -0.005938 0.000000 -0.006978 0.000000
# 3 -0.005071 -0.005938 0.014211 0.000000 0.000462 0.000000
# 4 0.000000 0.000000 0.000000 -0.009478 0.000000 -0.031968
# 5 0.003757 -0.006978 0.000462 0.000000 0.036828 0.000000
# 6 0.000000 0.000000 0.000000 -0.031968 0.000000 0.003834
#
#
# Mechanical properties :
#
#
# Convention : Reuss Voigt Hill
#
# Bulk Modulus (GPa) = 24.50363 30.57904 27.54133
# Shear Modulus (GPa) = 42.86362 18.40207 30.63284
#
# Velocity S-wave (km/s) = 4.77804 3.13068 4.03924
# Velocity P-wave (km/s) = 6.59474 5.41803 6.03513
#
# Compressibility (1/GPa) = 0.04081028
#
# Stress axis : x y z
#
# Youngs Moduli (GPa) = 41.11133 56.17905 70.36636
#
# Poissons Ratio (x) = -0.18239 0.35686
# Poissons Ratio (y) = -0.13347 0.41782
# Poissons Ratio (z) = 0.20849 0.33358
#
# Static dielectric constant tensor:
#      x y z
#    x 1.669610 0.000000 -0.002190 
#    y 0.000000 1.652880 0.000000 
#    z -0.002190 0.000000 1.676760 
# 
# From -- ./inp_files/61717.got.cif
#   From: 2010.05.17/outbox.cif.g08.bks.cpg/sg5_31_cif.got.tgz:61717.got - 2010.06.03 18:56:24.
