data_PCOD9123750
_publ_section_title
;
Structure prediction by ZEFSAII (Michael W. Deem and Ramdas Pophale) SiO2 
 PCOD9123750
Probable space group: C 2
;
_chemical_formula_sum "Si O2"
_cell_formula_units_Z 28
_cell_length_a 20.289697
_cell_length_b 10.778772
_cell_length_c 10.091720
_cell_angle_alpha 90.000000
_cell_angle_beta 148.804384
_cell_angle_gamma 90.000000
_cell_volume 1143.161446
_symmetry_space_group_name_H-M "C 2"
_symmetry_group_IT_number 5
_symmetry_cell_setting 'monoclinic'
loop_
_space_group_symop_operation_xyz
x,y,z
-x,y,-z
1/2+x,1/2+y,z
1/2-x,1/2+y,-z
loop_
_atom_site_type_symbol
_atom_site_label
_atom_site_fract_x
_atom_site_fract_y
_atom_site_fract_z
Si Si1 0.137953 0.708050 0.642309
Si Si2 0.515842 0.860337 0.239584
Si Si3 0.000000 0.145855 0.000000
Si Si4 0.645264 0.202730 0.365582
Si Si5 0.636633 0.081254 0.099243
Si Si6 0.805239 0.932512 0.730585
Si Si7 0.500000 0.964330 0.500000
Si Si8 0.149952 0.777946 0.928968
O O1 0.201913 0.706995 0.609507
O O2 0.108642 0.568087 0.646769
O O3 0.205606 0.783422 0.876293
O O4 0.999686 0.766578 0.366627
O O5 0.526135 0.735122 0.172384
O O6 0.652032 0.929551 0.454502
O O7 0.491621 0.877669 0.355769
O O8 0.401701 0.940497 0.979612
O O9 0.110748 0.052611 0.145818
O O10 0.501196 0.151339 0.134391
O O11 0.647589 0.335879 0.300539
O O12 0.697959 0.149345 0.079645
O O13 0.703633 0.117394 0.349547
O O14 0.829362 0.877478 0.920745
#
# Coordination Sequence:
#
# PCOD9123750 Si02
#       8
#     4   4   2   4   4   4   2   4
#     4   9  14  30  67  99 113 169 232 267 349 397
#     4  12  25  43  70  96 142 189 230 288 367 415
#     4  12  28  48  66 104 150 182 234 308 340 418
#     4   9  16  31  66  96 124 161 223 286 332 402
#     4   9  15  31  61  93 120 167 216 278 332 397
#     4  11  25  44  65 102 142 180 231 291 355 424
#     4  10  20  40  60  98 136 176 226 296 328 426
#     4   8  15  33  63  94 124 169 222 277 338 401
#
# _framework density 24.493479000000001
#
# number of rings (size 3 to 8) (size 9 to 14) (size 15 to 20)
#    0.000    2.286    4.286    4.286    2.000    0.000 
#    0.000    7.143    0.000    0.000    0.000    0.000 
#    0.000    0.000    0.000    0.000    0.000    0.000 
#
# Total GULP energy -78057.705108 kJ/mol
# GULP energy per Si atom -5575.550365 kJ/mol
# Density = 2.443773 g / cm^3
# Si number density = 24.493479 Si / 1000 Ang^3
#
#
#
# Elastic Constant Matrix: (Units=GPa)
#
#
# Indices 1 2 3 4 5 6 
#
# 1 167.3617 86.5740 82.3204 0.0000 -72.7913 0.0000
# 2 86.5740 147.7249 64.0416 0.0000 -21.2154 0.0000
# 3 82.3204 64.0416 95.8963 0.0000 -25.8584 0.0000
# 4 0.0000 0.0000 0.0000 29.8107 0.0000 -3.0774
# 5 -72.7913 -21.2154 -25.8584 0.0000 61.6973 0.0000
# 6 0.0000 0.0000 0.0000 -3.0774 0.0000 30.6722
#
#
#
# Elastic Compliance Matrix: (Units=1/GPa)
#
#
# Indices 1 2 3 4 5 6 
#
# 1 0.023553 -0.006289 -0.010269 0.000000 0.021322 0.000000
# 2 -0.006289 0.011233 -0.003452 0.000000 -0.005004 0.000000
# 3 -0.010269 -0.003452 0.020250 0.000000 -0.004816 0.000000
# 4 0.000000 0.000000 0.000000 0.033896 0.000000 0.003401
# 5 0.021322 -0.005004 -0.004816 0.000000 0.037624 0.000000
# 6 0.000000 0.000000 0.000000 0.003401 0.000000 0.032944
#
#
# Mechanical properties :
#
#
# Convention : Reuss Voigt Hill
#
# Bulk Modulus (GPa) = 66.60010 97.42833 82.01421
# Shear Modulus (GPa) = 24.44662 36.30585 30.37623
#
# Velocity S-wave (km/s) = 3.16268 3.85420 3.52543
# Velocity P-wave (km/s) = 6.37077 7.72464 7.08014
#
# Compressibility (1/GPa) = 0.01501499
#
# Stress axis : x y z
#
# Youngs Moduli (GPa) = 42.45734 89.02319 49.38197
#
# Poissons Ratio (x) = 0.55989 0.50712
# Poissons Ratio (y) = 0.26702 0.17048
# Poissons Ratio (z) = 0.43601 0.30733
#
# Static dielectric constant tensor:
#      x y z
#    x 2.123160 0.000000 -0.011800 
#    y 0.000000 2.000190 0.000000 
#    z -0.011800 0.000000 2.013580 
# 
# From -- ./inp_files/47467.got.cif
#   From: 2010.05.17/outbox.cif.g08.bks.cpg/sg5_24_cif.got.tgz:47467.got - 2010.06.03 18:56:24.
