data_PCOD9123296
_publ_section_title
;
Structure prediction by ZEFSAII (Michael W. Deem and Ramdas Pophale) SiO2 
 PCOD9123296
Probable space group: C 2
;
_chemical_formula_sum "Si O2"
_cell_formula_units_Z 28
_cell_length_a 10.368995
_cell_length_b 11.635828
_cell_length_c 16.610604
_cell_angle_alpha 90.000000
_cell_angle_beta 40.093348
_cell_angle_gamma 90.000000
_cell_volume 1290.710164
_symmetry_space_group_name_H-M "C 2"
_symmetry_group_IT_number 5
_symmetry_cell_setting 'monoclinic'
loop_
_space_group_symop_operation_xyz
x,y,z
-x,y,-z
1/2+x,1/2+y,z
1/2-x,1/2+y,-z
loop_
_atom_site_type_symbol
_atom_site_label
_atom_site_fract_x
_atom_site_fract_y
_atom_site_fract_z
Si Si1 0.937556 0.929230 0.359396
Si Si2 0.427392 0.828163 0.253023
Si Si3 0.077547 0.669620 0.661436
Si Si4 0.473750 0.054669 0.140564
Si Si5 0.500000 0.758944 0.500000
Si Si6 0.479251 0.944923 0.629291
Si Si7 0.669005 0.599517 0.144674
Si Si8 0.500000 0.381662 0.500000
O O1 0.999686 0.797601 0.316165
O O2 0.012217 0.957866 0.414066
O O3 0.702463 0.939485 0.486208
O O4 0.012182 0.005800 0.251299
O O5 0.547091 0.712968 0.180771
O O6 0.204285 0.809699 0.396537
O O7 0.427053 0.920276 0.180914
O O8 0.535866 0.893638 0.274589
O O9 0.037943 0.621523 0.769605
O O10 0.322165 0.686426 0.541626
O O11 0.968621 0.582130 0.650928
O O12 0.317211 0.108223 0.151423
O O13 0.690558 0.062502 0.995788
O O14 0.385714 0.844637 0.617990
#
# Coordination Sequence:
#
# PCOD9123296 Si02
#       8
#     4   4   4   4   2   4   4   2
#     4  10  22  36  58  92 124 161 210 253 326 380
#     4  10  21  40  65  95 126 163 220 265 325 387
#     4  10  22  38  59  87 125 162 205 263 315 379
#     4  10  23  41  65  90 122 177 214 265 320 374
#     4  10  20  38  60  92 126 158 206 258 326 376
#     4   9  21  35  58  91 119 161 202 259 321 379
#     4  11  23  40  65  93 124 168 222 260 314 397
#     4  10  20  40  62  94 132 162 206 278 322 384
#
# _framework density 21.693481999999999
#
# number of rings (size 3 to 8) (size 9 to 14) (size 15 to 20)
#    0.000    2.000    1.429    0.857   10.000    1.714 
#    2.571    0.000    0.000    0.000    0.000    0.000 
#    0.000    0.000    0.000    0.000    0.000    0.000 
#
# Total GULP energy -77982.311573 kJ/mol
# GULP energy per Si atom -5570.165112 kJ/mol
# Density = 2.164411 g / cm^3
# Si number density = 21.693482 Si / 1000 Ang^3
#
#
#
# Elastic Constant Matrix: (Units=GPa)
#
#
# Indices 1 2 3 4 5 6 
#
# 1 30.6319 15.7161 5.5017 0.0000 10.8680 0.0000
# 2 15.7161 149.1801 63.7592 0.0000 0.5155 0.0000
# 3 5.5017 63.7592 112.5288 -0.0001 -1.7765 0.0000
# 4 0.0000 0.0000 -0.0001 29.8253 0.0000 2.0802
# 5 10.8680 0.5155 -1.7765 0.0000 26.8474 0.0000
# 6 0.0000 0.0000 0.0000 2.0802 0.0000 23.1201
#
#
#
# Elastic Compliance Matrix: (Units=1/GPa)
#
#
# Indices 1 2 3 4 5 6 
#
# 1 0.040620 -0.004307 0.000196 0.000000 -0.016348 0.000000
# 2 -0.004307 0.009309 -0.005044 0.000000 0.001231 0.000000
# 3 0.000196 -0.005044 0.011748 0.000000 0.000795 0.000000
# 4 0.000000 0.000000 0.000000 0.033740 0.000000 -0.003036
# 5 -0.016348 0.001231 0.000795 0.000000 0.043894 0.000000
# 6 0.000000 0.000000 0.000000 -0.003036 0.000000 0.043526
#
#
# Mechanical properties :
#
#
# Convention : Reuss Voigt Hill
#
# Bulk Modulus (GPa) = 23.05912 51.36609 37.21261
# Shear Modulus (GPa) = 23.19085 29.78279 26.48682
#
# Velocity S-wave (km/s) = 3.27314 3.70927 3.49801
# Velocity P-wave (km/s) = 4.99372 6.48648 5.78842
#
# Compressibility (1/GPa) = 0.04336678
#
# Stress axis : x y z
#
# Youngs Moduli (GPa) = 24.61830 107.42640 85.12293
#
# Poissons Ratio (x) = 0.46265 -0.01669
# Poissons Ratio (y) = 0.10602 0.42939
# Poissons Ratio (z) = -0.00483 0.54190
#
# Static dielectric constant tensor:
#      x y z
#    x 1.982820 0.000000 -0.020580 
#    y 0.000000 1.856880 0.000000 
#    z -0.020580 0.000000 1.749760 
# 
# From -- ./inp_files/38834.got.cif
#   From: 2010.05.17/outbox.cif.g08.bks.cpg/sg5_20_cif.got.tgz:38834.got - 2010.06.03 18:56:24.
