data_PCOD9123576
_publ_section_title
;
Structure prediction by ZEFSAII (Michael W. Deem and Ramdas Pophale) SiO2 
 PCOD9123576
Probable space group: C 2
;
_chemical_formula_sum "Si O2"
_cell_formula_units_Z 20
_cell_length_a 15.359136
_cell_length_b 10.341542
_cell_length_c 10.818617
_cell_angle_alpha 90.000000
_cell_angle_beta 35.291080
_cell_angle_gamma 90.000000
_cell_volume 992.771204
_symmetry_space_group_name_H-M "C 2"
_symmetry_group_IT_number 5
_symmetry_cell_setting 'monoclinic'
loop_
_space_group_symop_operation_xyz
x,y,z
-x,y,-z
1/2+x,1/2+y,z
1/2-x,1/2+y,-z
loop_
_atom_site_type_symbol
_atom_site_label
_atom_site_fract_x
_atom_site_fract_y
_atom_site_fract_z
Si Si1 0.029570 0.703680 0.108117
Si Si2 0.176085 0.135559 0.322761
Si Si3 0.873737 0.615212 0.541894
Si Si4 0.733308 0.365658 0.612405
Si Si5 0.822767 0.369318 0.231001
O O1 0.953310 0.637214 0.314963
O O2 0.944945 0.841275 0.199050
O O3 0.209520 0.699849 0.909539
O O4 0.000000 0.650754 0.000000
O O5 0.203816 0.229234 0.408517
O O6 0.000000 0.135857 0.500000
O O7 0.237147 0.989741 0.266864
O O8 0.779132 0.483311 0.645382
O O9 0.765276 0.736478 0.693985
O O10 0.000000 0.607169 0.500000
O O11 0.803128 0.391257 0.399226
O O12 0.000000 0.360297 0.000000
#
# Coordination Sequence:
#
# PCOD9123576 Si02
#       5
#     4   4   4   4   4
#     4   9  20  40  63  81 116 164 199 226 288 375
#     4  11  22  39  61  85 114 158 202 242 290 353
#     4  11  23  39  61  96 125 145 194 264 302 327
#     4  10  20  39  62  84 117 160 199 238 292 362
#     4  11  22  39  61  86 120 163 199 234 294 367
#
# _framework density 20.145629
#
# number of rings (size 3 to 8) (size 9 to 14) (size 15 to 20)
#    0.000    1.600    0.000    7.800    0.000    4.000 
#    0.000   18.000    0.000    0.000    0.000    0.000 
#    0.000    0.000    0.000    0.000    0.000    0.000 
#
# Total GULP energy -55734.480179 kJ/mol
# GULP energy per Si atom -5573.448018 kJ/mol
# Density = 2.009978 g / cm^3
# Si number density = 20.145629 Si / 1000 Ang^3
#
#
#
# Elastic Constant Matrix: (Units=GPa)
#
#
# Indices 1 2 3 4 5 6 
#
# 1 86.4064 70.0423 55.8607 0.0000 -27.8002 0.0000
# 2 70.0423 121.8532 55.2583 0.0000 -31.5708 0.0000
# 3 55.8607 55.2583 166.7872 0.0000 -35.0980 0.0000
# 4 0.0000 0.0000 0.0000 -1.4384 0.0000 -2.8110
# 5 -27.8002 -31.5708 -35.0980 0.0000 48.4523 0.0000
# 6 0.0000 0.0000 0.0000 -2.8110 0.0000 27.2114
#
#
#
# Elastic Compliance Matrix: (Units=1/GPa)
#
#
# Indices 1 2 3 4 5 6 
#
# 1 0.024365 -0.011355 -0.003555 0.000000 0.004005 0.000000
# 2 -0.011355 0.015946 -0.000784 0.000000 0.003307 0.000000
# 3 -0.003555 -0.000784 0.008152 0.000000 0.003354 0.000000
# 4 0.000000 0.000000 0.000000 -0.578431 0.000000 -0.059753
# 5 0.004005 0.003307 0.003354 0.000000 0.027522 0.000000
# 6 0.000000 0.000000 0.000000 -0.059753 0.000000 0.030577
#
#
# Mechanical properties :
#
#
# Convention : Reuss Voigt Hill
#
# Bulk Modulus (GPa) = 58.56891 81.92995 70.24943
# Shear Modulus (GPa) = -11.49984 27.77074 8.13545
#
# Velocity S-wave (km/s) = -2.39181 3.71684 2.01174
# Velocity P-wave (km/s) = 4.63770 7.69266 6.35158
#
# Compressibility (1/GPa) = 0.01707390
#
# Stress axis : x y z
#
# Youngs Moduli (GPa) = 41.04217 62.71136 122.66769
#
# Poissons Ratio (x) = 0.71210 0.43614
# Poissons Ratio (y) = 0.46604 0.09618
# Poissons Ratio (z) = 0.14592 0.04917
#
# Static dielectric constant tensor:
#      x y z
#    x 1.747460 0.000000 -0.028600 
#    y 0.000000 1.738520 0.000000 
#    z -0.028600 0.000000 1.766050 
# 
# From -- ./inp_files/44282.got.cif
#   From: 2010.05.17/outbox.cif.g08.bks.cpg/sg5_23_cif.got.tgz:44282.got - 2010.06.03 18:56:24.
