data_PCOD9123490
_publ_section_title
;
Structure prediction by ZEFSAII (Michael W. Deem and Ramdas Pophale) SiO2 
 PCOD9123490
Probable space group: C 2
;
_chemical_formula_sum "Si O2"
_cell_formula_units_Z 20
_cell_length_a 9.528088
_cell_length_b 23.412111
_cell_length_c 8.121503
_cell_angle_alpha 90.000000
_cell_angle_beta 31.529049
_cell_angle_gamma 90.000000
_cell_volume 947.385981
_symmetry_space_group_name_H-M "C 2"
_symmetry_group_IT_number 5
_symmetry_cell_setting 'monoclinic'
loop_
_space_group_symop_operation_xyz
x,y,z
-x,y,-z
1/2+x,1/2+y,z
1/2-x,1/2+y,-z
loop_
_atom_site_type_symbol
_atom_site_label
_atom_site_fract_x
_atom_site_fract_y
_atom_site_fract_z
Si Si1 0.750000 0.520860 0.630987
Si Si2 0.388419 0.333599 0.795700
Si Si3 0.606450 0.643520 0.706174
Si Si4 0.611580 0.208121 0.072539
Si Si5 0.606451 0.898200 0.580926
O O1 0.673998 0.577255 0.606577
O O2 0.000000 0.535798 0.500000
O O3 0.826001 0.464465 0.454574
O O4 0.500000 0.505922 0.000000
O O5 0.500000 0.329946 0.500000
O O6 0.318907 0.270860 0.931092
O O7 0.627295 0.360953 0.663955
O O8 0.127843 0.373140 0.071784
O O9 0.872704 0.680767 0.418546
O O10 0.500000 0.646453 0.000000
O O11 0.372156 0.668580 0.827471
O O12 0.500000 0.211774 0.000000
O O13 0.500000 0.895266 0.500000
#
# Coordination Sequence:
#
# PCOD9123490 Si02
#       5
#     4   4   4   4   4
#     4  10  20  38  66  98 126 162 210 258 308 374
#     4  12  25  42  63  94 130 168 209 260 317 375
#     4  11  22  41  67  94 125 167 212 258 308 372
#     4  12  25  42  63  94 130 168 209 260 317 375
#     4  11  22  41  67  94 125 167 212 258 308 372
#
# _framework density 21.110719
#
# number of rings (size 3 to 8) (size 9 to 14) (size 15 to 20)
#    0.000    0.800    0.000   10.800    0.000    0.000 
#    0.000    4.000    0.000    2.400    0.000    0.000 
#    0.000    0.000    0.000    0.000    0.000    0.000 
#
# Total GULP energy -55998.922228 kJ/mol
# GULP energy per Si atom -5599.892223 kJ/mol
# Density = 2.106267 g / cm^3
# Si number density = 21.110719 Si / 1000 Ang^3
#
#
#
# Elastic Constant Matrix: (Units=GPa)
#
#
# Indices 1 2 3 4 5 6 
#
# 1 63.5585 52.6378 23.2109 0.0000 -4.3915 0.0000
# 2 52.6378 189.8809 66.6695 0.0000 -7.3354 0.0000
# 3 23.2109 66.6695 120.2391 0.0000 -25.2418 0.0000
# 4 0.0000 0.0000 0.0000 -35.2947 0.0000 13.5809
# 5 -4.3915 -7.3354 -25.2418 0.0000 35.2754 0.0000
# 6 0.0000 0.0000 0.0000 13.5809 0.0000 -9.2014
#
#
#
# Elastic Compliance Matrix: (Units=1/GPa)
#
#
# Indices 1 2 3 4 5 6 
#
# 1 0.020541 -0.005380 -0.000801 0.000000 0.000866 0.000000
# 2 -0.005380 0.008012 -0.003760 0.000000 -0.001694 0.000000
# 3 -0.000801 -0.003760 0.012204 0.000000 0.007851 0.000000
# 4 0.000000 0.000000 0.000000 -0.065575 0.000000 -0.096787
# 5 0.000866 -0.001694 0.007851 0.000000 0.033722 0.000000
# 6 0.000000 0.000000 0.000000 -0.096787 0.000000 -0.251534
#
#
# Mechanical properties :
#
#
# Convention : Reuss Voigt Hill
#
# Bulk Modulus (GPa) = 47.89834 73.19055 60.54444
# Shear Modulus (GPa) = -23.17065 13.56657 -4.80204
#
# Velocity S-wave (km/s) = -3.31657 2.53778 -1.50985
# Velocity P-wave (km/s) = 2.84117 6.58272 5.06974
#
# Compressibility (1/GPa) = 0.02087755
#
# Stress axis : x y z
#
# Youngs Moduli (GPa) = 48.68282 124.80520 81.93854
#
# Poissons Ratio (x) = 0.67142 0.06560
# Poissons Ratio (y) = 0.26190 0.30807
# Poissons Ratio (z) = 0.03897 0.46925
#
# Static dielectric constant tensor:
#      x y z
#    x 1.801390 0.000000 -0.045720 
#    y 0.000000 1.749520 0.000000 
#    z -0.045720 0.000000 1.889040 
# 
# From -- ./inp_files/2800.got.cif
#   From: 2010.05.17/outbox.cif.g08.bks.cpg/sg5_2_cif.got.tgz:2800.got - 2010.06.03 18:56:24.
