data_PCOD9123605
_publ_section_title
;
Structure prediction by ZEFSAII (Michael W. Deem and Ramdas Pophale) SiO2 
 PCOD9123605
Probable space group: C 2
;
_chemical_formula_sum "Si O2"
_cell_formula_units_Z 24
_cell_length_a 19.763973
_cell_length_b 7.945532
_cell_length_c 8.867223
_cell_angle_alpha 90.000000
_cell_angle_beta 51.670934
_cell_angle_gamma 90.000000
_cell_volume 1092.337128
_symmetry_space_group_name_H-M "C 2"
_symmetry_group_IT_number 5
_symmetry_cell_setting 'monoclinic'
loop_
_space_group_symop_operation_xyz
x,y,z
-x,y,-z
1/2+x,1/2+y,z
1/2-x,1/2+y,-z
loop_
_atom_site_type_symbol
_atom_site_label
_atom_site_fract_x
_atom_site_fract_y
_atom_site_fract_z
Si Si1 0.259059 0.523960 0.260468
Si Si2 0.742010 0.647680 0.407730
Si Si3 0.590922 0.992748 0.315181
Si Si4 0.586230 0.991706 0.960776
Si Si5 0.942921 0.113129 0.955666
Si Si6 0.068501 0.126503 0.504715
O O1 0.263683 0.635824 0.404599
O O2 0.243118 0.339097 0.350346
O O3 0.177973 0.567693 0.266870
O O4 0.351388 0.527617 0.047193
O O5 0.830079 0.566769 0.231100
O O6 0.659211 0.561609 0.441313
O O7 0.500000 0.064406 0.500000
O O8 0.588915 0.796849 0.379383
O O9 0.590575 0.010772 0.135652
O O10 0.500000 0.060390 0.000000
O O11 0.584488 0.791809 0.937577
O O12 0.009612 0.158588 0.732199
O O13 0.000000 0.014874 0.000000
O O14 0.000000 0.020905 0.500000
#
# Coordination Sequence:
#
# PCOD9123605 Si02
#       6
#     4   4   4   4   4   4
#     4  11  24  39  66  93 129 162 214 261 312 371
#     4  11  24  41  62  94 126 166 210 263 313 371
#     4  10  20  39  63  93 121 164 213 257 302 379
#     4  11  23  39  68  94 123 165 214 254 318 374
#     4  11  21  40  67  93 120 169 212 254 315 377
#     4  10  20  39  64  89 125 165 211 253 308 379
#
# _framework density 21.971240000000002
#
# number of rings (size 3 to 8) (size 9 to 14) (size 15 to 20)
#    0.000    1.333    5.000    2.000    7.000    0.667 
#    0.000    0.000    0.000    0.000    0.000    0.000 
#    0.000    0.000    0.000    0.000    0.000    0.000 
#
# Total GULP energy -66925.970917 kJ/mol
# GULP energy per Si atom -5577.164243 kJ/mol
# Density = 2.192123 g / cm^3
# Si number density = 21.971240 Si / 1000 Ang^3
#
#
#
# Elastic Constant Matrix: (Units=GPa)
#
#
# Indices 1 2 3 4 5 6 
#
# 1 242.0321 8.5618 77.0218 0.0000 -24.1027 0.0000
# 2 8.5618 20.9262 3.6730 0.0000 -3.2142 0.0000
# 3 77.0218 3.6730 137.7619 0.0000 -11.5030 0.0000
# 4 0.0000 0.0000 0.0000 14.9784 0.0000 -4.1488
# 5 -24.1027 -3.2142 -11.5030 0.0000 46.9615 0.0000
# 6 0.0000 0.0000 0.0000 -4.1488 0.0000 22.1096
#
#
#
# Elastic Compliance Matrix: (Units=1/GPa)
#
#
# Indices 1 2 3 4 5 6 
#
# 1 0.005242 -0.001369 -0.002733 0.000000 0.001927 0.000000
# 2 -0.001369 0.048797 -0.000322 0.000000 0.002558 0.000000
# 3 -0.002733 -0.000322 0.008858 0.000000 0.000745 0.000000
# 4 0.000000 0.000000 0.000000 0.070423 0.000000 0.013215
# 5 0.001927 0.002558 0.000745 0.000000 0.022641 0.000000
# 6 0.000000 0.000000 0.000000 0.013215 0.000000 0.047709
#
#
# Mechanical properties :
#
#
# Convention : Reuss Voigt Hill
#
# Bulk Modulus (GPa) = 18.50214 64.35925 41.43069
# Shear Modulus (GPa) = 21.68888 37.57415 29.63152
#
# Velocity S-wave (km/s) = 3.14530 4.13988 3.67638
# Velocity P-wave (km/s) = 4.65080 7.22548 6.07608
#
# Compressibility (1/GPa) = 0.05404781
#
# Stress axis : x y z
#
# Youngs Moduli (GPa) = 190.77330 20.49325 112.89455
#
# Poissons Ratio (x) = 0.02805 0.30857
# Poissons Ratio (y) = 0.26115 0.03636
# Poissons Ratio (z) = 0.52143 0.00660
#
# Static dielectric constant tensor:
#      x y z
#    x 1.909800 0.000000 0.032290 
#    y 0.000000 1.845120 0.000000 
#    z 0.032290 0.000000 1.838100 
# 
# From -- ./inp_files/28887.got.cif
#   From: 2010.05.17/outbox.cif.g08.bks.cpg/sg5_15_cif.got.tgz:28887.got - 2010.06.03 18:56:24.
