data_PCOD9123566
_publ_section_title
;
Structure prediction by ZEFSAII (Michael W. Deem and Ramdas Pophale) SiO2 
 PCOD9123566
Probable space group: C 2
;
_chemical_formula_sum "Si O2"
_cell_formula_units_Z 20
_cell_length_a 9.990307
_cell_length_b 9.196326
_cell_length_c 13.983684
_cell_angle_alpha 90.000000
_cell_angle_beta 45.729341
_cell_angle_gamma 90.000000
_cell_volume 919.937500
_symmetry_space_group_name_H-M "C 2"
_symmetry_group_IT_number 5
_symmetry_cell_setting 'monoclinic'
loop_
_space_group_symop_operation_xyz
x,y,z
-x,y,-z
1/2+x,1/2+y,z
1/2-x,1/2+y,-z
loop_
_atom_site_type_symbol
_atom_site_label
_atom_site_fract_x
_atom_site_fract_y
_atom_site_fract_z
Si Si1 0.295203 0.171830 0.128908
Si Si2 0.243451 0.488078 0.190896
Si Si3 0.939168 0.169709 0.936340
Si Si4 0.892204 0.391662 0.453669
Si Si5 0.027224 0.055721 0.599099
O O1 0.310261 0.323882 0.178590
O O2 0.169980 0.056531 0.247665
O O3 0.179725 0.221698 0.092307
O O4 0.500000 0.121449 0.000000
O O5 0.366626 0.596641 0.194781
O O6 0.022383 0.484476 0.316010
O O7 0.313569 0.544922 0.052324
O O8 0.000000 0.262535 0.000000
O O9 0.901097 0.221695 0.424010
O O10 0.682886 0.447583 0.559879
O O11 0.000000 0.408466 0.500000
O O12 0.000000 0.029857 0.500000
#
# Coordination Sequence:
#
# PCOD9123566 Si02
#       5
#     4   4   4   4   4
#     4  11  19  36  63  83 113 153 191 239 292 339
#     4   8  18  36  57  78 118 144 188 240 287 337
#     4   8  18  34  54  83 108 145 184 232 283 337
#     4  10  20  39  61  84 116 160 196 237 297 346
#     4  10  24  38  60  90 119 154 196 242 293 351
#
# _framework density 21.740607000000001
#
# number of rings (size 3 to 8) (size 9 to 14) (size 15 to 20)
#    1.200    1.200    2.000    1.200    2.800    0.800 
#    0.000    1.000    0.000    0.000    0.000    0.000 
#    0.000    0.000    0.000    0.000    0.000    0.000 
#
# Total GULP energy -55685.569537 kJ/mol
# GULP energy per Si atom -5568.556954 kJ/mol
# Density = 2.169112 g / cm^3
# Si number density = 21.740607 Si / 1000 Ang^3
#
#
#
# Elastic Constant Matrix: (Units=GPa)
#
#
# Indices 1 2 3 4 5 6 
#
# 1 98.3466 14.3033 26.0016 0.0000 -6.5336 0.0000
# 2 14.3033 29.2291 4.5370 0.0000 -11.5961 0.0000
# 3 26.0016 4.5370 107.2472 0.0000 -21.2081 0.0000
# 4 0.0000 0.0000 0.0000 14.0377 0.0000 -0.7932
# 5 -6.5336 -11.5961 -21.2081 0.0000 31.5349 0.0000
# 6 0.0000 0.0000 0.0000 -0.7932 0.0000 13.2182
#
#
#
# Elastic Compliance Matrix: (Units=1/GPa)
#
#
# Indices 1 2 3 4 5 6 
#
# 1 0.011693 -0.005956 -0.002926 0.000000 -0.001736 0.000000
# 2 -0.005956 0.043275 0.002902 0.000000 0.016631 0.000000
# 3 -0.002926 0.002902 0.011536 0.000000 0.008219 0.000000
# 4 0.000000 0.000000 0.000000 0.071479 0.000000 0.004289
# 5 -0.001736 0.016631 0.008219 0.000000 0.042995 0.000000
# 6 0.000000 0.000000 0.000000 0.004289 0.000000 0.075911
#
#
# Mechanical properties :
#
#
# Convention : Reuss Voigt Hill
#
# Bulk Modulus (GPa) = 18.33406 36.05631 27.19519
# Shear Modulus (GPa) = 17.41983 24.42358 20.92170
#
# Velocity S-wave (km/s) = 2.83372 3.35536 3.10551
# Velocity P-wave (km/s) = 4.37699 5.62424 5.03935
#
# Compressibility (1/GPa) = 0.05454328
#
# Stress axis : x y z
#
# Youngs Moduli (GPa) = 85.52351 23.10819 86.68313
#
# Poissons Ratio (x) = 0.13764 0.25364
# Poissons Ratio (y) = 0.50940 -0.25156
# Poissons Ratio (z) = 0.25025 -0.06706
#
# Static dielectric constant tensor:
#      x y z
#    x 1.837720 0.000000 0.033250 
#    y 0.000000 1.754930 0.000000 
#    z 0.033250 0.000000 1.863400 
# 
# From -- ./inp_files/34778.got.cif
#   From: 2010.05.17/outbox.cif.g08.bks.cpg/sg5_18_cif.got.tgz:34778.got - 2010.06.03 18:56:24.
