data_PCOD9123961
_publ_section_title
;
Structure prediction by ZEFSAII (Michael W. Deem and Ramdas Pophale) SiO2 
 PCOD9123961
Probable space group: C 2
;
_chemical_formula_sum "Si O2"
_cell_formula_units_Z 30
_cell_length_a 10.947680
_cell_length_b 11.933586
_cell_length_c 19.458941
_cell_angle_alpha 90.000000
_cell_angle_beta 29.533304
_cell_angle_gamma 90.000000
_cell_volume 1253.132433
_symmetry_space_group_name_H-M "C 2"
_symmetry_group_IT_number 5
_symmetry_cell_setting 'monoclinic'
loop_
_space_group_symop_operation_xyz
x,y,z
-x,y,-z
1/2+x,1/2+y,z
1/2-x,1/2+y,-z
loop_
_atom_site_type_symbol
_atom_site_label
_atom_site_fract_x
_atom_site_fract_y
_atom_site_fract_z
Si Si1 0.419511 0.328130 0.219981
Si Si2 0.341543 0.146404 0.371490
Si Si3 0.072262 0.415299 0.730585
Si Si4 0.792667 0.065661 0.347377
Si Si5 0.982726 0.231284 0.351779
Si Si6 0.479952 0.886972 0.932850
Si Si7 0.000000 0.971162 0.000000
Si Si8 0.142227 0.146997 0.824808
O O1 0.434562 0.224907 0.264767
O O2 0.315715 0.437272 0.311009
O O3 0.246969 0.283216 0.243035
O O4 0.690126 0.363849 0.063133
O O5 0.568703 0.120596 0.310966
O O6 0.146481 0.216778 0.510737
O O7 0.289772 0.025250 0.365481
O O8 0.144665 0.314127 0.642331
O O9 0.097766 0.422673 0.801534
O O10 0.771469 0.417162 0.867976
O O11 0.500000 0.089156 0.500000
O O12 0.915286 0.139739 0.226587
O O13 0.948934 0.106731 0.336523
O O14 0.601097 0.764893 0.879699
O O15 0.500000 0.942536 0.000000
O O16 0.004229 0.053353 0.063295
#
# Coordination Sequence:
#
# PCOD9123961 Si02
#       8
#     4   4   4   4   4   4   2   4
#     4  12  27  45  72 110 153 195 249 315 391 449
#     4  11  24  45  72 102 149 193 245 322 377 447
#     4  11  24  43  73 106 142 193 255 306 378 454
#     4  12  25  46  74 103 145 200 256 303 379 461
#     4  12  26  45  73 110 145 196 258 314 376 459
#     4  12  23  45  75 106 150 197 246 316 383 460
#     4  10  20  40  72  98 144 194 240 310 374 446
#     4  11  20  43  71 100 135 194 251 297 373 451
#
# _framework density 23.940007999999999
#
# number of rings (size 3 to 8) (size 9 to 14) (size 15 to 20)
#    0.000    0.533    4.667    5.200    1.867    1.067 
#    0.000    2.667    0.000    0.000    0.000    0.000 
#    0.000    0.000    0.000    0.000    0.000    0.000 
#
# Total GULP energy -83685.708532 kJ/mol
# GULP energy per Si atom -5579.047235 kJ/mol
# Density = 2.388552 g / cm^3
# Si number density = 23.940008 Si / 1000 Ang^3
#
#
#
# Elastic Constant Matrix: (Units=GPa)
#
#
# Indices 1 2 3 4 5 6 
#
# 1 107.8036 46.0844 30.9422 -0.0001 18.9489 -0.0004
# 2 46.0844 63.7183 13.3738 -0.0014 6.0097 0.0019
# 3 30.9422 13.3738 88.4097 -0.0082 10.2923 0.0058
# 4 -0.0001 -0.0014 -0.0082 29.7615 0.0008 20.7289
# 5 18.9489 6.0097 10.2923 0.0008 45.2448 -0.0007
# 6 -0.0004 0.0019 0.0058 20.7289 -0.0007 47.3100
#
#
#
# Elastic Compliance Matrix: (Units=1/GPa)
#
#
# Indices 1 2 3 4 5 6 
#
# 1 0.015222 -0.009905 -0.003328 -0.000003 -0.004302 0.000002
# 2 -0.009905 0.022773 -0.000112 0.000002 0.001149 -0.000002
# 3 -0.003328 -0.000112 0.012664 0.000007 -0.001472 -0.000004
# 4 -0.000003 0.000002 0.000007 0.048358 -0.000002 -0.021188
# 5 -0.004302 0.001149 -0.001472 -0.000002 0.024086 0.000001
# 6 0.000002 -0.000002 -0.000004 -0.021188 0.000001 0.030421
#
#
# Mechanical properties :
#
#
# Convention : Reuss Voigt Hill
#
# Bulk Modulus (GPa) = 41.72134 48.97026 45.34580
# Shear Modulus (GPa) = 26.56697 35.76535 31.16616
#
# Velocity S-wave (km/s) = 3.33488 3.86937 3.61202
# Velocity P-wave (km/s) = 5.68277 6.36101 6.03143
#
# Compressibility (1/GPa) = 0.02396855
#
# Stress axis : x y z
#
# Youngs Moduli (GPa) = 65.69521 43.91170 78.96312
#
# Poissons Ratio (x) = 0.43494 0.26281
# Poissons Ratio (y) = 0.65070 0.00885
# Poissons Ratio (z) = 0.21865 0.00492
#
# Static dielectric constant tensor:
#      x y z
#    x 1.968690 0.000000 -0.007430 
#    y 0.000000 1.954710 0.000000 
#    z -0.007430 0.000000 1.968140 
# 
# From -- ./inp_files/65306.got.cif
#   From: 2010.05.17/outbox.cif.g08.bks.cpg/sg5_33_cif.got.tgz:65306.got - 2010.06.03 18:56:24.
