data_PCOD9123732
_publ_section_title
;
Structure prediction by ZEFSAII (Michael W. Deem and Ramdas Pophale) SiO2 
 PCOD9123732
Probable space group: C 2
;
_chemical_formula_sum "Si O2"
_cell_formula_units_Z 18
_cell_length_a 22.611592
_cell_length_b 7.894047
_cell_length_c 6.718443
_cell_angle_alpha 90.000000
_cell_angle_beta 131.679081
_cell_angle_gamma 90.000000
_cell_volume 895.675930
_symmetry_space_group_name_H-M "C 2"
_symmetry_group_IT_number 5
_symmetry_cell_setting 'monoclinic'
loop_
_space_group_symop_operation_xyz
x,y,z
-x,y,-z
1/2+x,1/2+y,z
1/2-x,1/2+y,-z
loop_
_atom_site_type_symbol
_atom_site_label
_atom_site_fract_x
_atom_site_fract_y
_atom_site_fract_z
Si Si1 0.000000 0.016950 0.000000
Si Si2 0.189380 0.509275 0.254876
Si Si3 0.408843 0.111373 0.351905
Si Si4 0.350077 0.328577 0.572506
Si Si5 0.074108 0.343382 0.275062
O O1 0.961354 0.156478 0.763033
O O2 0.924556 0.898688 0.866566
O O3 0.278590 0.460006 0.403636
O O4 0.183719 0.662464 0.396748
O O5 0.143519 0.355745 0.266794
O O6 0.142988 0.570534 0.956327
O O7 0.500000 0.138616 0.500000
O O8 0.379488 0.267403 0.421938
O O9 0.404391 0.944985 0.481921
O O10 0.000000 0.436708 0.000000
#
# Coordination Sequence:
#
# PCOD9123732 Si02
#       5
#     2   4   4   4   4
#     4  10  20  40  60  88 122 160 204 244 304 366
#     4  11  23  42  62  92 126 162 205 256 302 367
#     4  11  21  40  66  91 121 164 206 251 306 369
#     4  11  25  39  64  90 125 166 204 254 309 354
#     4   9  20  39  67  88 121 162 199 247 314 357
#
# _framework density 20.096554999999999
#
# number of rings (size 3 to 8) (size 9 to 14) (size 15 to 20)
#    0.667    0.889    2.222    2.667    3.111    5.333 
#    0.000   12.222    0.000    0.000    0.000    0.000 
#    0.000    0.000    0.000    0.000    0.000    0.000 
#
# Total GULP energy -50152.144267 kJ/mol
# GULP energy per Si atom -5572.460474 kJ/mol
# Density = 2.005081 g / cm^3
# Si number density = 20.096555 Si / 1000 Ang^3
#
#
#
# Elastic Constant Matrix: (Units=GPa)
#
#
# Indices 1 2 3 4 5 6 
#
# 1 150.0743 51.5247 64.6507 0.0000 22.4057 0.0000
# 2 51.5247 79.6576 20.5212 0.0000 12.0498 0.0000
# 3 64.6507 20.5212 84.5849 0.0000 14.1951 0.0000
# 4 0.0000 0.0000 0.0000 18.8998 0.0000 15.7941
# 5 22.4057 12.0498 14.1951 0.0000 41.4680 0.0000
# 6 0.0000 0.0000 0.0000 15.7941 0.0000 28.7998
#
#
#
# Elastic Compliance Matrix: (Units=1/GPa)
#
#
# Indices 1 2 3 4 5 6 
#
# 1 0.012193 -0.005578 -0.007568 0.000000 -0.002377 0.000000
# 2 -0.005578 0.016291 0.000636 0.000000 -0.001938 0.000000
# 3 -0.007568 0.000636 0.017821 0.000000 -0.002196 0.000000
# 4 0.000000 0.000000 0.000000 0.097674 0.000000 -0.053566
# 5 -0.002377 -0.001938 -0.002196 0.000000 0.026714 0.000000
# 6 0.000000 0.000000 0.000000 -0.053566 0.000000 0.064098
#
#
# Mechanical properties :
#
#
# Convention : Reuss Voigt Hill
#
# Bulk Modulus (GPa) = 46.97813 65.30113 56.13963
# Shear Modulus (GPa) = 18.73319 29.67486 24.20402
#
# Velocity S-wave (km/s) = 3.05644 3.84684 3.47419
# Velocity P-wave (km/s) = 5.99022 7.23154 6.63995
#
# Compressibility (1/GPa) = 0.02128650
#
# Stress axis : x y z
#
# Youngs Moduli (GPa) = 82.01215 61.38396 56.11420
#
# Poissons Ratio (x) = 0.34239 0.42465
# Poissons Ratio (y) = 0.45745 -0.03570
# Poissons Ratio (z) = 0.62063 -0.03905
#
# Static dielectric constant tensor:
#      x y z
#    x 1.734080 0.000000 0.023100 
#    y 0.000000 1.779720 0.000000 
#    z 0.023100 0.000000 1.694860 
# 
# From -- ./inp_files/7914.got.cif
#   From: 2010.05.17/outbox.cif.g08.bks.cpg/sg5_4_cif.got.tgz:7914.got - 2010.06.03 18:56:24.
