data_PCOD9123059
_publ_section_title
;
Structure prediction by ZEFSAII (Michael W. Deem and Ramdas Pophale) SiO2 
 PCOD9123059
Probable space group: C 2
;
_chemical_formula_sum "Si O2"
_cell_formula_units_Z 30
_cell_length_a 11.640841
_cell_length_b 24.546528
_cell_length_c 5.360219
_cell_angle_alpha 90.000000
_cell_angle_beta 72.559178
_cell_angle_gamma 90.000000
_cell_volume 1461.226840
_symmetry_space_group_name_H-M "C 2"
_symmetry_group_IT_number 5
_symmetry_cell_setting 'monoclinic'
loop_
_space_group_symop_operation_xyz
x,y,z
-x,y,-z
1/2+x,1/2+y,z
1/2-x,1/2+y,-z
loop_
_atom_site_type_symbol
_atom_site_label
_atom_site_fract_x
_atom_site_fract_y
_atom_site_fract_z
Si Si1 0.256600 0.733930 0.667598
Si Si2 0.391723 0.240133 0.737901
Si Si3 0.000000 0.395450 0.000000
Si Si4 0.838885 0.348189 0.486752
Si Si5 0.774153 0.439382 0.887635
Si Si6 0.641279 0.616234 0.403467
Si Si7 0.647953 0.554305 0.900079
Si Si8 0.890737 0.862673 0.718231
O O1 0.209902 0.736651 0.410986
O O2 0.319749 0.793211 0.660808
O O3 0.337464 0.680479 0.623151
O O4 0.159479 0.723868 0.956076
O O5 0.500000 0.214278 0.500000
O O6 0.432665 0.302552 0.769338
O O7 0.041896 0.353875 0.755572
O O8 0.883813 0.432963 0.014223
O O9 0.831517 0.405913 0.626968
O O10 0.722012 0.350523 0.385298
O O11 0.720057 0.497692 0.862977
O O12 0.661001 0.401806 0.040547
O O13 0.500000 0.606397 0.500000
O O14 0.685197 0.588181 0.629920
O O15 0.685162 0.587375 0.123327
O O16 0.500000 0.546709 0.000000
O O17 0.000000 0.889660 0.500000
#
# Coordination Sequence:
#
# PCOD9123059 Si02
#       8
#     4   4   2   4   4   4   4   4
#     4  11  21  40  67  93 130 172 212 256 326 383
#     4  10  20  37  60  93 134 167 204 261 312 380
#     4  10  24  42  58  92 134 172 212 260 320 398
#     4  10  22  38  60  96 129 169 214 259 324 394
#     4  11  22  39  64  90 129 169 211 265 327 386
#     4  10  23  44  64  95 125 167 212 273 320 370
#     4  10  24  42  67  95 127 161 220 276 323 373
#     4   9  20  33  55  93 130 164 206 255 325 387
#
# _framework density 20.530692999999999
#
# number of rings (size 3 to 8) (size 9 to 14) (size 15 to 20)
#    0.000    1.867    1.333    1.600    5.600    1.600 
#    3.600    0.000    5.867    0.000    0.000    0.000 
#    0.000    0.000    0.000    0.000    0.000    0.000 
#
# Total GULP energy -83509.095701 kJ/mol
# GULP energy per Si atom -5567.273047 kJ/mol
# Density = 2.048396 g / cm^3
# Si number density = 20.530693 Si / 1000 Ang^3
#
#
#
# Elastic Constant Matrix: (Units=GPa)
#
#
# Indices 1 2 3 4 5 6 
#
# 1 27.4788 6.7963 19.1006 0.0000 -3.1329 0.0000
# 2 6.7963 92.4983 45.1945 0.0000 11.0692 0.0000
# 3 19.1006 45.1945 138.7990 0.0000 1.8555 0.0000
# 4 0.0000 0.0000 0.0000 22.9356 0.0000 6.5160
# 5 -3.1329 11.0692 1.8555 0.0000 28.0591 0.0000
# 6 0.0000 0.0000 0.0000 6.5160 0.0000 10.8041
#
#
#
# Elastic Compliance Matrix: (Units=1/GPa)
#
#
# Indices 1 2 3 4 5 6 
#
# 1 0.040992 -0.001022 -0.005380 0.000000 0.005336 0.000000
# 2 -0.001022 0.013562 -0.004206 0.000000 -0.005186 0.000000
# 3 -0.005380 -0.004206 0.009309 0.000000 0.000443 0.000000
# 4 0.000000 0.000000 0.000000 0.052615 0.000000 -0.031732
# 5 0.005336 -0.005186 0.000443 0.000000 0.038251 0.000000
# 6 0.000000 0.000000 0.000000 -0.031732 0.000000 0.111695
#
#
# Mechanical properties :
#
#
# Convention : Reuss Voigt Hill
#
# Bulk Modulus (GPa) = 23.44802 44.55100 33.99951
# Shear Modulus (GPa) = 16.56424 24.87208 20.71816
#
# Velocity S-wave (km/s) = 2.84351 3.48438 3.18013
# Velocity P-wave (km/s) = 4.71450 6.15911 5.48458
#
# Compressibility (1/GPa) = 0.04264752
#
# Stress axis : x y z
#
# Youngs Moduli (GPa) = 24.39484 73.73707 107.42823
#
# Poissons Ratio (x) = 0.07535 0.57793
# Poissons Ratio (y) = 0.02493 0.45183
# Poissons Ratio (z) = 0.13124 0.31013
#
# Static dielectric constant tensor:
#      x y z
#    x 1.826820 0.000000 0.038380 
#    y 0.000000 1.709990 0.000000 
#    z 0.038380 0.000000 1.867560 
# 
# From -- ./inp_files/5939.got.cif
#   From: 2010.05.17/outbox.cif.g08.bks.cpg/sg5_3_cif.got.tgz:5939.got - 2010.06.03 18:56:24.
