data_PCOD9123361
_publ_section_title
;
Structure prediction by ZEFSAII (Michael W. Deem and Ramdas Pophale) SiO2 
 PCOD9123361
Probable space group: C 2
;
_chemical_formula_sum "Si O2"
_cell_formula_units_Z 26
_cell_length_a 29.396690
_cell_length_b 5.155530
_cell_length_c 14.213938
_cell_angle_alpha 90.000000
_cell_angle_beta 28.265076
_cell_angle_gamma 90.000000
_cell_volume 1020.124847
_symmetry_space_group_name_H-M "C 2"
_symmetry_group_IT_number 5
_symmetry_cell_setting 'monoclinic'
loop_
_space_group_symop_operation_xyz
x,y,z
-x,y,-z
1/2+x,1/2+y,z
1/2-x,1/2+y,-z
loop_
_atom_site_type_symbol
_atom_site_label
_atom_site_fract_x
_atom_site_fract_y
_atom_site_fract_z
Si Si1 0.622019 0.128160 0.564668
Si Si2 0.304985 0.942987 0.176124
Si Si3 0.766173 0.007612 0.032544
Si Si4 0.136899 0.237020 0.394844
Si Si5 0.941156 0.682342 0.785305
Si Si6 0.310632 0.178616 0.367310
Si Si7 0.000000 0.336952 0.500000
O O1 0.734186 0.213532 0.343104
O O2 0.540540 0.278648 0.652897
O O3 0.607370 0.148156 0.702919
O O4 0.608311 0.839206 0.549118
O O5 0.227905 0.066094 0.245901
O O6 0.330430 0.108241 0.223151
O O7 0.397169 0.973914 0.940899
O O8 0.865486 0.911946 0.899638
O O9 0.736950 0.781566 0.012370
O O10 0.681451 0.995089 0.263321
O O11 0.065413 0.149350 0.444613
O O12 0.959788 0.524956 0.655185
O O13 0.268483 0.464473 0.457621
#
# Coordination Sequence:
#
# PCOD9123361 Si02
#       7
#     4   4   4   4   4   4   2
#     4  10  22  41  65  96 138 171 232 284 349 418
#     4  10  22  40  66  93 132 183 223 287 349 419
#     4  11  24  41  63  92 130 178 223 274 336 406
#     4  10  21  36  61  90 129 170 220 269 334 407
#     4  10  23  41  64 102 134 182 236 284 349 420
#     4  10  20  41  71  99 133 179 222 286 354 414
#     4  10  20  38  62  94 136 172 224 286 332 408
#
# _framework density 25.487076999999999
#
# number of rings (size 3 to 8) (size 9 to 14) (size 15 to 20)
#    0.000    1.846    3.077    0.000    4.308    1.846 
#    0.000    0.769    0.000    1.846    0.000    0.000 
#    0.000    0.000    0.000    0.000    0.000    0.000 
#
# Total GULP energy -72516.196800 kJ/mol
# GULP energy per Si atom -5578.168985 kJ/mol
# Density = 2.542907 g / cm^3
# Si number density = 25.487077 Si / 1000 Ang^3
#
#
#
# Elastic Constant Matrix: (Units=GPa)
#
#
# Indices 1 2 3 4 5 6 
#
# 1 197.8341 20.7030 36.4213 0.0016 11.4058 0.0012
# 2 20.7030 57.5354 8.7194 0.0015 5.2917 0.0007
# 3 36.4213 8.7194 92.6858 0.0024 10.4891 0.0015
# 4 0.0016 0.0015 0.0024 23.4557 0.0008 7.8432
# 5 11.4058 5.2917 10.4891 0.0008 47.0828 0.0005
# 6 0.0012 0.0007 0.0015 7.8432 0.0005 46.7318
#
#
#
# Elastic Compliance Matrix: (Units=1/GPa)
#
#
# Indices 1 2 3 4 5 6 
#
# 1 0.005635 -0.001660 -0.001974 0.000000 -0.000739 0.000000
# 2 -0.001660 0.018248 -0.000900 -0.000001 -0.001448 0.000000
# 3 -0.001974 -0.000900 0.011884 -0.000001 -0.002068 0.000000
# 4 0.000000 -0.000001 -0.000001 0.045168 0.000000 -0.007581
# 5 -0.000739 -0.001448 -0.002068 0.000000 0.022042 0.000000
# 6 0.000000 0.000000 0.000000 -0.007581 0.000000 0.022671
#
#
# Mechanical properties :
#
#
# Convention : Reuss Voigt Hill
#
# Bulk Modulus (GPa) = 37.45896 53.30474 45.38185
# Shear Modulus (GPa) = 34.81515 42.26816 38.54165
#
# Velocity S-wave (km/s) = 3.69994 4.07678 3.89293
# Velocity P-wave (km/s) = 5.74299 6.56658 6.16855
#
# Compressibility (1/GPa) = 0.02669588
#
# Stress axis : x y z
#
# Youngs Moduli (GPa) = 177.47642 54.80151 84.14887
#
# Poissons Ratio (x) = 0.09099 0.16614
# Poissons Ratio (y) = 0.29467 0.07576
# Poissons Ratio (z) = 0.35040 0.04934
#
# Static dielectric constant tensor:
#      x y z
#    x 2.064020 0.000000 -0.015460 
#    y 0.000000 2.112470 0.000000 
#    z -0.015460 0.000000 2.227060 
# 
# From -- ./inp_files/58294.got.cif
#   From: 2010.05.17/outbox.cif.g08.bks.cpg/sg5_30_cif.got.tgz:58294.got - 2010.06.03 18:56:24.
