data_PCOD9123115
_publ_section_title
;
Structure prediction by ZEFSAII (Michael W. Deem and Ramdas Pophale) SiO2 
 PCOD9123115
Probable space group: C 2
;
_chemical_formula_sum "Si O2"
_cell_formula_units_Z 32
_cell_length_a 9.736851
_cell_length_b 14.493692
_cell_length_c 10.293017
_cell_angle_alpha 90.000000
_cell_angle_beta 98.774788
_cell_angle_gamma 90.000000
_cell_volume 1435.579031
_symmetry_space_group_name_H-M "C 2"
_symmetry_group_IT_number 5
_symmetry_cell_setting 'monoclinic'
loop_
_space_group_symop_operation_xyz
x,y,z
-x,y,-z
1/2+x,1/2+y,z
1/2-x,1/2+y,-z
loop_
_atom_site_type_symbol
_atom_site_label
_atom_site_fract_x
_atom_site_fract_y
_atom_site_fract_z
Si Si1 0.852685 0.272270 0.941443
Si Si2 0.774673 0.937091 0.227057
Si Si3 0.914987 0.931143 0.694812
Si Si4 0.252760 0.637502 0.153101
Si Si5 0.187502 0.674045 0.556759
Si Si6 0.549946 0.639856 0.271899
Si Si7 0.041286 0.734493 0.285171
Si Si8 0.850669 0.460029 0.519391
O O1 0.753379 0.348183 0.864140
O O2 0.907092 0.199760 0.844018
O O3 0.781098 0.209420 0.041644
O O4 0.000000 0.320266 0.000000
O O5 0.667642 0.944464 0.330137
O O6 0.922709 0.934256 0.325511
O O7 0.764074 0.027595 0.134164
O O8 0.926484 0.834468 0.772734
O O9 0.783943 0.925774 0.580026
O O10 0.907293 0.033772 0.753246
O O11 0.385821 0.650499 0.268650
O O12 0.107627 0.660013 0.199794
O O13 0.351755 0.674699 0.599469
O O14 0.131016 0.734034 0.431045
O O15 0.149004 0.569342 0.513638
O O16 0.108392 0.705832 0.677627
O O17 0.000000 0.420890 0.500000
#
# Coordination Sequence:
#
# PCOD9123115 Si02
#       8
#     4   4   4   4   4   4   4   4
#     4  10  23  43  68  90 130 176 222 271 326 372
#     4  11  22  43  68  94 127 175 218 271 322 387
#     4  10  24  37  64  98 132 169 213 255 326 403
#     4  10  22  42  64  93 124 166 228 271 305 388
#     4  10  20  37  62  90 132 168 197 261 335 384
#     4   9  21  41  62  89 123 174 214 261 320 380
#     4  11  21  38  60  95 135 163 207 267 321 386
#     4  11  21  39  62  99 133 171 205 264 329 394
#
# _framework density 22.290655000000001
#
# number of rings (size 3 to 8) (size 9 to 14) (size 15 to 20)
#    0.000    1.750    2.500    1.125    5.250    3.500 
#    0.000    7.500    0.000    0.000    0.000    0.000 
#    0.000    0.000    0.000    0.000    0.000    0.000 
#
# Total GULP energy -89135.654890 kJ/mol
# GULP energy per Si atom -5570.978431 kJ/mol
# Density = 2.223992 g / cm^3
# Si number density = 22.290655 Si / 1000 Ang^3
#
#
#
# Elastic Constant Matrix: (Units=GPa)
#
#
# Indices 1 2 3 4 5 6 
#
# 1 77.8398 41.0725 31.8763 0.0000 5.5506 0.0000
# 2 41.0725 113.2835 21.0739 0.0000 6.0452 0.0000
# 3 31.8763 21.0739 43.6994 0.0000 0.0916 0.0000
# 4 0.0000 0.0000 0.0000 18.8920 0.0000 4.3317
# 5 5.5506 6.0452 0.0916 0.0000 21.9638 0.0000
# 6 0.0000 0.0000 0.0000 4.3317 0.0000 25.1519
#
#
#
# Elastic Compliance Matrix: (Units=1/GPa)
#
#
# Indices 1 2 3 4 5 6 
#
# 1 0.021076 -0.005026 -0.012942 0.000000 -0.003889 0.000000
# 2 -0.005026 0.011053 -0.001660 0.000000 -0.001765 0.000000
# 3 -0.012942 -0.001660 0.033117 0.000000 0.003589 0.000000
# 4 0.000000 0.000000 0.000000 0.055109 0.000000 -0.009491
# 5 -0.003889 -0.001765 0.003589 0.000000 0.046983 0.000000
# 6 0.000000 0.000000 0.000000 -0.009491 0.000000 0.041393
#
#
# Mechanical properties :
#
#
# Convention : Reuss Voigt Hill
#
# Bulk Modulus (GPa) = 38.47700 46.98534 42.73117
# Shear Modulus (GPa) = 19.48174 22.58820 21.03497
#
# Velocity S-wave (km/s) = 2.95953 3.18677 3.07525
# Velocity P-wave (km/s) = 5.38307 5.88769 5.64102
#
# Compressibility (1/GPa) = 0.02598955
#
# Stress axis : x y z
#
# Youngs Moduli (GPa) = 47.44668 90.47477 30.19594
#
# Poissons Ratio (x) = 0.45477 0.39079
# Poissons Ratio (y) = 0.23849 0.05012
# Poissons Ratio (z) = 0.61405 0.15019
#
# Static dielectric constant tensor:
#      x y z
#    x 1.880920 0.000000 0.047560 
#    y 0.000000 1.864810 0.000000 
#    z 0.047560 0.000000 1.823040 
# 
# From -- ./inp_files/36401.got.cif
#   From: 2010.05.17/outbox.cif.g08.bks.cpg/sg5_19_cif.got.tgz:36401.got - 2010.06.03 18:56:24.
