data_PCOD9123816
_publ_section_title
;
Structure prediction by ZEFSAII (Michael W. Deem and Ramdas Pophale) SiO2 
 PCOD9123816
Probable space group: C 2
;
_chemical_formula_sum "Si O2"
_cell_formula_units_Z 26
_cell_length_a 11.244052
_cell_length_b 12.419057
_cell_length_c 8.525680
_cell_angle_alpha 90.000000
_cell_angle_beta 112.350674
_cell_angle_gamma 90.000000
_cell_volume 1101.090332
_symmetry_space_group_name_H-M "C 2"
_symmetry_group_IT_number 5
_symmetry_cell_setting 'monoclinic'
loop_
_space_group_symop_operation_xyz
x,y,z
-x,y,-z
1/2+x,1/2+y,z
1/2-x,1/2+y,-z
loop_
_atom_site_type_symbol
_atom_site_label
_atom_site_fract_x
_atom_site_fract_y
_atom_site_fract_z
Si Si1 0.629253 0.408070 0.154767
Si Si2 0.764427 0.549361 0.031298
Si Si3 0.720988 0.437479 0.691949
Si Si4 0.529240 0.033948 0.343577
Si Si5 0.672632 0.733571 0.759513
Si Si6 0.500000 0.608135 0.500000
Si Si7 0.158893 0.761961 0.446046
O O1 0.665645 0.529418 0.126260
O O2 0.764594 0.349246 0.175877
O O3 0.606102 0.363385 0.317124
O O4 0.500000 0.376495 0.000000
O O5 0.907396 0.542878 0.169375
O O6 0.731396 0.461071 0.880894
O O7 0.741274 0.657745 0.920912
O O8 0.856762 0.468267 0.680687
O O9 0.617911 0.523477 0.574278
O O10 0.687102 0.315841 0.626043
O O11 0.500000 0.984214 0.500000
O O12 0.574652 0.155917 0.399577
O O13 0.529730 0.687594 0.664149
O O14 0.722232 0.725591 0.603383
#
# Coordination Sequence:
#
# PCOD9123816 Si02
#       7
#     4   4   4   4   4   2   4
#     4  10  22  40  68 102 135 184 233 292 358 422
#     4  11  23  44  69 103 139 186 229 303 352 419
#     4  11  24  41  70 102 135 187 242 292 353 426
#     4  12  25  45  70 102 143 187 241 294 357 420
#     4   9  22  38  66  94 140 178 228 285 356 410
#     4  10  20  40  64  92 138 180 222 290 356 400
#     4  10  23  42  64 103 135 184 233 290 347 432
#
# _framework density 23.612957999999999
#
# number of rings (size 3 to 8) (size 9 to 14) (size 15 to 20)
#    0.923    0.615    3.077    2.308    5.385    2.462 
#    0.000    0.000    0.000    1.846    0.000    0.000 
#    0.000    0.000    0.000    0.000    0.000    0.000 
#
# Total GULP energy -72370.829528 kJ/mol
# GULP energy per Si atom -5566.986887 kJ/mol
# Density = 2.355921 g / cm^3
# Si number density = 23.612958 Si / 1000 Ang^3
#
#
#
# Elastic Constant Matrix: (Units=GPa)
#
#
# Indices 1 2 3 4 5 6 
#
# 1 47.7548 6.1157 18.1136 0.0000 17.9117 0.0000
# 2 6.1157 76.8899 15.8240 0.0000 9.5681 0.0000
# 3 18.1136 15.8240 74.2885 0.0000 39.2214 0.0000
# 4 0.0000 0.0000 0.0000 33.7095 0.0000 -12.6211
# 5 17.9117 9.5681 39.2214 0.0000 42.5691 0.0000
# 6 0.0000 0.0000 0.0000 -12.6211 0.0000 12.9043
#
#
#
# Elastic Compliance Matrix: (Units=1/GPa)
#
#
# Indices 1 2 3 4 5 6 
#
# 1 0.024934 -0.000609 -0.000941 0.000000 -0.009488 0.000000
# 2 -0.000609 0.013629 -0.002478 0.000000 -0.000524 0.000000
# 3 -0.000941 -0.002478 0.026706 0.000000 -0.023653 0.000000
# 4 0.000000 0.000000 0.000000 0.046805 0.000000 0.045778
# 5 -0.009488 -0.000524 -0.023653 0.000000 0.049394 0.000000
# 6 0.000000 0.000000 0.000000 0.045778 0.000000 0.122266
#
#
# Mechanical properties :
#
#
# Convention : Reuss Voigt Hill
#
# Bulk Modulus (GPa) = 17.47825 31.00441 24.24133
# Shear Modulus (GPa) = 16.08436 28.42858 22.25647
#
# Velocity S-wave (km/s) = 2.61275 3.47355 3.07343
# Velocity P-wave (km/s) = 4.06448 5.40797 4.78362
#
# Compressibility (1/GPa) = 0.05721397
#
# Stress axis : x y z
#
# Youngs Moduli (GPa) = 40.10631 73.37172 37.44453
#
# Poissons Ratio (x) = 0.04468 0.03522
# Poissons Ratio (y) = 0.02442 0.09279
# Poissons Ratio (z) = 0.03773 0.18181
#
# Static dielectric constant tensor:
#      x y z
#    x 1.997910 0.000000 -0.003930 
#    y 0.000000 1.954980 0.000000 
#    z -0.003930 0.000000 1.892010 
# 
# From -- ./inp_files/20467.got.cif
#   From: 2010.05.17/outbox.cif.g08.bks.cpg/sg5_11_cif.got.tgz:20467.got - 2010.06.03 18:56:24.
