data_PCOD9123214
_publ_section_title
;
Structure prediction by ZEFSAII (Michael W. Deem and Ramdas Pophale) SiO2 
 PCOD9123214
Probable space group: C 2
;
_chemical_formula_sum "Si O2"
_cell_formula_units_Z 26
_cell_length_a 18.782970
_cell_length_b 9.241968
_cell_length_c 9.232974
_cell_angle_alpha 90.000000
_cell_angle_beta 129.519874
_cell_angle_gamma 90.000000
_cell_volume 1236.380565
_symmetry_space_group_name_H-M "C 2"
_symmetry_group_IT_number 5
_symmetry_cell_setting 'monoclinic'
loop_
_space_group_symop_operation_xyz
x,y,z
-x,y,-z
1/2+x,1/2+y,z
1/2-x,1/2+y,-z
loop_
_atom_site_type_symbol
_atom_site_label
_atom_site_fract_x
_atom_site_fract_y
_atom_site_fract_z
Si Si1 0.132522 0.980250 0.596777
Si Si2 0.379834 0.195592 0.575155
Si Si3 0.831294 0.851302 0.062584
Si Si4 0.266005 0.124622 0.159530
Si Si5 0.054874 0.492064 0.769558
Si Si6 0.000000 0.233243 0.500000
Si Si7 0.342546 0.097393 0.852271
O O1 0.108252 0.867371 0.437911
O O2 0.110860 0.893074 0.719186
O O3 0.076706 0.127683 0.533474
O O4 0.240221 0.028732 0.733919
O O5 0.293303 0.159665 0.358013
O O6 0.359933 0.145555 0.711753
O O7 0.468379 0.101270 0.642476
O O8 0.747769 0.765303 0.036838
O O9 0.857927 0.741007 0.971147
O O10 0.808025 0.001792 0.958311
O O11 0.358970 0.058269 0.207773
O O12 0.031907 0.340003 0.668479
O O13 0.086296 0.488533 0.977836
#
# Coordination Sequence:
#
# PCOD9123214 Si02
#       7
#     4   4   4   4   4   2   4
#     4  11  26  42  69 101 128 174 223 283 320 393
#     4  11  25  40  67  98 137 174 216 272 341 390
#     4  10  20  38  65  92 123 167 219 265 315 387
#     4  10  20  37  67  92 126 169 220 265 314 392
#     4  11  22  43  68  94 129 182 217 270 321 399
#     4  12  26  40  74 100 128 162 242 280 314 380
#     4  11  25  42  69  93 137 174 219 265 342 396
#
# _framework density 21.029123999999999
#
# number of rings (size 3 to 8) (size 9 to 14) (size 15 to 20)
#    0.000    1.231    4.615    1.385    8.615    0.000 
#    0.000    0.000    6.769    0.000    0.000    0.000 
#    0.000    0.000    0.000    0.000    0.000    0.000 
#
# Total GULP energy -72518.868294 kJ/mol
# GULP energy per Si atom -5578.374484 kJ/mol
# Density = 2.098126 g / cm^3
# Si number density = 21.029124 Si / 1000 Ang^3
#
#
#
# Elastic Constant Matrix: (Units=GPa)
#
#
# Indices 1 2 3 4 5 6 
#
# 1 52.6921 29.0164 33.0388 0.0000 -12.7517 0.0000
# 2 29.0164 140.0052 43.8391 0.0000 -4.9675 0.0000
# 3 33.0388 43.8391 109.5595 0.0000 -28.2988 0.0000
# 4 0.0000 0.0000 0.0000 37.4610 0.0000 2.7485
# 5 -12.7517 -4.9675 -28.2988 0.0000 41.5277 0.0000
# 6 0.0000 0.0000 0.0000 2.7485 0.0000 25.3297
#
#
#
# Elastic Compliance Matrix: (Units=1/GPa)
#
#
# Indices 1 2 3 4 5 6 
#
# 1 0.025036 -0.003423 -0.005219 0.000000 0.003722 0.000000
# 2 -0.003423 0.008713 -0.002981 0.000000 -0.002040 0.000000
# 3 -0.005219 -0.002981 0.013821 0.000000 0.007459 0.000000
# 4 0.000000 0.000000 0.000000 0.026909 0.000000 -0.002920
# 5 0.003722 -0.002040 0.007459 0.000000 0.030062 0.000000
# 6 0.000000 0.000000 0.000000 -0.002920 0.000000 0.039796
#
#
# Mechanical properties :
#
#
# Convention : Reuss Voigt Hill
#
# Bulk Modulus (GPa) = 41.11146 57.11617 49.11381
# Shear Modulus (GPa) = 28.45911 33.95451 31.20681
#
# Velocity S-wave (km/s) = 3.68274 4.02262 3.85643
# Velocity P-wave (km/s) = 6.13805 6.98533 6.57535
#
# Compressibility (1/GPa) = 0.02432412
#
# Stress axis : x y z
#
# Youngs Moduli (GPa) = 39.94248 114.77025 72.35426
#
# Poissons Ratio (x) = 0.39280 0.37762
# Poissons Ratio (y) = 0.13670 0.21571
# Poissons Ratio (z) = 0.20846 0.34217
#
# Static dielectric constant tensor:
#      x y z
#    x 1.773860 0.000000 0.035280 
#    y 0.000000 1.825510 0.000000 
#    z 0.035280 0.000000 1.808750 
# 
# From -- ./inp_files/29158.got.cif
#   From: 2010.05.17/outbox.cif.g08.bks.cpg/sg5_15_cif.got.tgz:29158.got - 2010.06.03 18:56:24.
