data_PCOD9123407
_publ_section_title
;
Structure prediction by ZEFSAII (Michael W. Deem and Ramdas Pophale) SiO2 
 PCOD9123407
Probable space group: C 2
;
_chemical_formula_sum "Si O2"
_cell_formula_units_Z 20
_cell_length_a 7.524400
_cell_length_b 22.920574
_cell_length_c 7.602691
_cell_angle_alpha 90.000000
_cell_angle_beta 38.329799
_cell_angle_gamma 90.000000
_cell_volume 813.181396
_symmetry_space_group_name_H-M "C 2"
_symmetry_group_IT_number 5
_symmetry_cell_setting 'monoclinic'
loop_
_space_group_symop_operation_xyz
x,y,z
-x,y,-z
1/2+x,1/2+y,z
1/2-x,1/2+y,-z
loop_
_atom_site_type_symbol
_atom_site_label
_atom_site_fract_x
_atom_site_fract_y
_atom_site_fract_z
Si Si1 0.786631 0.956130 0.480390
Si Si2 0.500000 0.553082 0.500000
Si Si3 0.749991 0.127736 0.957535
Si Si4 0.000000 0.040308 0.000000
Si Si5 0.820599 0.254470 0.821523
Si Si6 0.234509 0.880020 0.973406
O O1 0.497105 0.919887 0.708640
O O2 0.756258 0.004751 0.658268
O O3 0.052938 0.909812 0.270203
O O4 0.872169 0.996743 0.247092
O O5 0.507830 0.596816 0.654005
O O6 0.835065 0.194578 0.920243
O O7 0.749787 0.084121 0.122515
O O8 0.500000 0.124539 0.000000
O O9 0.857590 0.314606 0.898469
O O10 0.000000 0.252698 0.500000
O O11 0.500000 0.254590 0.000000
O O12 0.000000 0.876264 0.000000
#
# Coordination Sequence:
#
# PCOD9123407 Si02
#       6
#     4   2   4   2   4   4
#     4  11  24  39  62  93 130 164 209 263 314 378
#     4  10  24  40  62  88 130 170 212 256 318 382
#     4  10  22  42  65  92 127 170 211 262 316 371
#     4  10  24  42  64  98 130 164 214 260 314 384
#     4  10  20  38  64  89 120 164 215 255 310 377
#     4  11  22  37  63  94 124 160 213 260 312 376
#
# _framework density 24.594756
#
# number of rings (size 3 to 8) (size 9 to 14) (size 15 to 20)
#    0.000    1.600    2.000    3.000    5.600    0.000 
#    0.000    2.000    0.000    0.000    0.000    0.000 
#    0.000    0.000    0.000    0.000    0.000    0.000 
#
# Total GULP energy -55711.411865 kJ/mol
# GULP energy per Si atom -5571.141187 kJ/mol
# Density = 2.453878 g / cm^3
# Si number density = 24.594756 Si / 1000 Ang^3
#
#
#
# Elastic Constant Matrix: (Units=GPa)
#
#
# Indices 1 2 3 4 5 6 
#
# 1 60.5571 52.5513 18.1410 0.0000 -3.5313 0.0000
# 2 52.5513 252.2021 42.1548 0.0000 -10.6143 0.0000
# 3 18.1410 42.1548 132.8784 0.0000 -14.2756 0.0000
# 4 0.0000 0.0000 0.0000 17.0784 0.0000 -23.7173
# 5 -3.5313 -10.6143 -14.2756 0.0000 33.4014 0.0000
# 6 0.0000 0.0000 0.0000 -23.7173 0.0000 2.2515
#
#
#
# Elastic Compliance Matrix: (Units=1/GPa)
#
#
# Indices 1 2 3 4 5 6 
#
# 1 0.020447 -0.004000 -0.001496 0.000000 0.000251 0.000000
# 2 -0.004000 0.004990 -0.000956 0.000000 0.000754 0.000000
# 3 -0.001496 -0.000956 0.008368 0.000000 0.003114 0.000000
# 4 0.000000 0.000000 0.000000 -0.004296 0.000000 -0.045257
# 5 0.000251 0.000754 0.003114 0.000000 0.031536 0.000000
# 6 0.000000 0.000000 0.000000 -0.045257 0.000000 -0.032589
#
#
# Mechanical properties :
#
#
# Convention : Reuss Voigt Hill
#
# Bulk Modulus (GPa) = 47.84224 74.59241 61.21732
# Shear Modulus (GPa) = 103.46310 32.73230 68.09770
#
# Velocity S-wave (km/s) = 6.49295 3.65206 5.26764
# Velocity P-wave (km/s) = 8.70090 6.94102 7.87031
#
# Compressibility (1/GPa) = 0.02090203
#
# Stress axis : x y z
#
# Youngs Moduli (GPa) = 48.90641 200.39725 119.50698
#
# Poissons Ratio (x) = 0.80160 0.17873
# Poissons Ratio (y) = 0.19563 0.11424
# Poissons Ratio (z) = 0.07314 0.19157
#
# Static dielectric constant tensor:
#      x y z
#    x 2.234010 0.000000 0.070690 
#    y 0.000000 1.994540 0.000000 
#    z 0.070690 0.000000 1.994290 
# 
# From -- ./inp_files/17306.got.cif
#   From: 2010.05.17/outbox.cif.g08.bks.cpg/sg5_9_cif.got.tgz:17306.got - 2010.06.03 18:56:24.
