data_PCOD9123622
_publ_section_title
;
Structure prediction by ZEFSAII (Michael W. Deem and Ramdas Pophale) SiO2 
 PCOD9123622
Probable space group: C 2
;
_chemical_formula_sum "Si O2"
_cell_formula_units_Z 24
_cell_length_a 17.447431
_cell_length_b 9.229824
_cell_length_c 8.035268
_cell_angle_alpha 90.000000
_cell_angle_beta 56.380528
_cell_angle_gamma 90.000000
_cell_volume 1077.534328
_symmetry_space_group_name_H-M "C 2"
_symmetry_group_IT_number 5
_symmetry_cell_setting 'monoclinic'
loop_
_space_group_symop_operation_xyz
x,y,z
-x,y,-z
1/2+x,1/2+y,z
1/2-x,1/2+y,-z
loop_
_atom_site_type_symbol
_atom_site_label
_atom_site_fract_x
_atom_site_fract_y
_atom_site_fract_z
Si Si1 0.333315 0.985000 0.397773
Si Si2 0.288043 0.835125 0.760634
Si Si3 0.592469 0.256929 0.293964
Si Si4 0.669532 0.546900 0.096545
Si Si5 0.778970 0.199584 0.275995
Si Si6 0.596010 0.222749 0.915520
O O1 0.356113 0.912086 0.549319
O O2 0.311688 0.851667 0.304713
O O3 0.245815 0.087057 0.548005
O O4 0.401192 0.091554 0.218598
O O5 0.315912 0.677804 0.793047
O O6 0.190241 0.811739 0.782776
O O7 0.258234 0.943178 0.946224
O O8 0.500000 0.219869 0.500000
O O9 0.596643 0.428915 0.245154
O O10 0.681555 0.223758 0.298089
O O11 0.598749 0.181155 0.106772
O O12 0.653817 0.627207 0.939597
O O13 0.500000 0.303652 0.000000
#
# Coordination Sequence:
#
# PCOD9123622 Si02
#       6
#     4   4   4   4   4   4
#     4  11  23  37  64  96 123 163 207 257 305 369
#     4  10  21  39  66  92 120 167 207 258 300 371
#     4  11  24  40  64  92 125 165 208 256 311 371
#     4  10  20  39  64  92 120 163 212 254 303 369
#     4  11  22  38  66  92 122 167 209 255 303 371
#     4  11  22  41  60  93 127 160 206 256 309 368
#
# _framework density 22.273071999999999
#
# number of rings (size 3 to 8) (size 9 to 14) (size 15 to 20)
#    0.000    1.333    5.000    2.000    0.000    0.000 
#    0.000    1.667    0.000    0.000    0.000    0.000 
#    0.000    0.000    0.000    0.000    0.000    0.000 
#
# Total GULP energy -66939.909333 kJ/mol
# GULP energy per Si atom -5578.325778 kJ/mol
# Density = 2.222238 g / cm^3
# Si number density = 22.273072 Si / 1000 Ang^3
#
#
#
# Elastic Constant Matrix: (Units=GPa)
#
#
# Indices 1 2 3 4 5 6 
#
# 1 16.3972 23.4171 2.6409 0.0000 9.2226 0.0000
# 2 23.4171 127.5660 34.3095 0.0000 13.1621 0.0000
# 3 2.6409 34.3095 111.9068 0.0000 15.1897 0.0000
# 4 0.0000 0.0000 0.0000 57.6221 0.0000 21.5894
# 5 9.2226 13.1621 15.1897 0.0000 17.1527 0.0000
# 6 0.0000 0.0000 0.0000 21.5894 0.0000 25.6487
#
#
#
# Elastic Compliance Matrix: (Units=1/GPa)
#
#
# Indices 1 2 3 4 5 6 
#
# 1 0.119543 -0.018755 0.011025 0.000000 -0.059647 0.000000
# 2 -0.018755 0.011851 -0.003780 0.000000 0.004337 0.000000
# 3 0.011025 -0.003780 0.011645 0.000000 -0.013340 0.000000
# 4 0.000000 0.000000 0.000000 0.025349 0.000000 -0.021337
# 5 -0.059647 0.004337 -0.013340 0.000000 0.098856 0.000000
# 6 0.000000 0.000000 0.000000 -0.021337 0.000000 0.056948
#
#
# Mechanical properties :
#
#
# Convention : Reuss Voigt Hill
#
# Bulk Modulus (GPa) = 8.33193 41.84500 25.08847
# Shear Modulus (GPa) = 12.91262 33.11821 23.01541
#
# Velocity S-wave (km/s) = 2.41039 3.86024 3.21803
# Velocity P-wave (km/s) = 3.39052 6.22066 5.00960
#
# Compressibility (1/GPa) = 0.12002015
#
# Stress axis : x y z
#
# Youngs Moduli (GPa) = 8.36518 84.38138 85.87128
#
# Poissons Ratio (x) = 1.58260 -0.94675
# Poissons Ratio (y) = 0.15689 0.32455
# Poissons Ratio (z) = -0.09223 0.31892
#
# Static dielectric constant tensor:
#      x y z
#    x 1.839710 0.000000 0.051920 
#    y 0.000000 1.851010 0.000000 
#    z 0.051920 0.000000 1.861890 
# 
# From -- ./inp_files/28880.got.cif
#   From: 2010.05.17/outbox.cif.g08.bks.cpg/sg5_15_cif.got.tgz:28880.got - 2010.06.03 18:56:24.
