data_PCOD9123330
_publ_section_title
;
Structure prediction by ZEFSAII (Michael W. Deem and Ramdas Pophale) SiO2 
 PCOD9123330
Probable space group: C 2
;
_chemical_formula_sum "Si O2"
_cell_formula_units_Z 10
_cell_length_a 8.100627
_cell_length_b 11.728208
_cell_length_c 5.576147
_cell_angle_alpha 90.000000
_cell_angle_beta 56.662043
_cell_angle_gamma 90.000000
_cell_volume 442.589977
_symmetry_space_group_name_H-M "C 2"
_symmetry_group_IT_number 5
_symmetry_cell_setting 'monoclinic'
loop_
_space_group_symop_operation_xyz
x,y,z
-x,y,-z
1/2+x,1/2+y,z
1/2-x,1/2+y,-z
loop_
_atom_site_type_symbol
_atom_site_label
_atom_site_fract_x
_atom_site_fract_y
_atom_site_fract_z
Si Si1 0.500000 0.948180 0.000000
Si Si2 0.808206 0.240803 0.394928
Si Si3 0.259370 0.653516 0.933752
O O1 0.399299 0.865777 0.276418
O O2 0.335992 0.030085 0.016920
O O3 0.706807 0.221800 0.730837
O O4 0.001785 0.158500 0.249956
O O5 0.700209 0.209580 0.233706
#
# Coordination Sequence:
#
# PCOD9123330 Si02
#       3
#     2   4   4
#     4  10  20  38  62  78 112 152 174 232 282 304
#     4   9  21  38  52  83 114 138 185 227 264 334
#     4   9  19  36  57  79 110 144 182 223 271 326
#
# _framework density 22.594277000000002
#
# number of rings (size 3 to 8) (size 9 to 14) (size 15 to 20)
#    0.000    3.200    0.000    0.000    0.000   14.400 
#    0.000   32.000    0.000    0.000    0.000    0.000 
#    0.000    0.000    0.000    0.000    0.000    0.000 
#
# Total GULP energy -27872.064522 kJ/mol
# GULP energy per Si atom -5574.412904 kJ/mol
# Density = 2.254285 g / cm^3
# Si number density = 22.594277 Si / 1000 Ang^3
#
#
#
# Elastic Constant Matrix: (Units=GPa)
#
#
# Indices 1 2 3 4 5 6 
#
# 1 99.2632 55.7714 69.5969 0.0000 21.3433 0.0000
# 2 55.7714 160.1500 64.1279 0.0000 10.4337 0.0000
# 3 69.5969 64.1279 220.4623 0.0000 45.9219 0.0000
# 4 0.0000 0.0000 0.0000 76.8086 0.0000 -110.8194
# 5 21.3433 10.4337 45.9219 0.0000 55.1482 0.0000
# 6 0.0000 0.0000 0.0000 -110.8194 0.0000 207.7974
#
#
#
# Elastic Compliance Matrix: (Units=1/GPa)
#
#
# Indices 1 2 3 4 5 6 
#
# 1 0.014901 -0.003793 -0.003084 0.000000 -0.002481 0.000000
# 2 -0.003793 0.008042 -0.001368 0.000000 0.001086 0.000000
# 3 -0.003084 -0.001368 0.006781 0.000000 -0.004194 0.000000
# 4 0.000000 0.000000 0.000000 0.056472 0.000000 0.030117
# 5 -0.002481 0.001086 -0.004194 0.000000 0.022380 0.000000
# 6 0.000000 0.000000 0.000000 0.030117 0.000000 0.020874
#
#
# Mechanical properties :
#
#
# Convention : Reuss Voigt Hill
#
# Bulk Modulus (GPa) = 75.55903 95.42977 85.49440
# Shear Modulus (GPa) = 33.25560 87.30945 60.28252
#
# Velocity S-wave (km/s) = 3.84064 6.22304 5.17091
# Velocity P-wave (km/s) = 7.29258 9.69344 8.57743
#
# Compressibility (1/GPa) = 0.01323469
#
# Stress axis : x y z
#
# Youngs Moduli (GPa) = 67.10989 124.34722 147.46904
#
# Poissons Ratio (x) = 0.47160 0.45479
# Poissons Ratio (y) = 0.25452 0.20175
# Poissons Ratio (z) = 0.20696 0.17012
#
# Static dielectric constant tensor:
#      x y z
#    x 1.868800 0.000000 -0.040460 
#    y 0.000000 1.784450 0.000000 
#    z -0.040460 0.000000 1.833480 
# 
# From -- ./inp_files/1336.got.cif
#   From: 2010.05.17/outbox.cif.g08.bks.cpg/sg5_1_cif.got.tgz:1336.got - 2010.06.03 18:56:24.
