data_PCOD9123647
_publ_section_title
;
Structure prediction by ZEFSAII (Michael W. Deem and Ramdas Pophale) SiO2 
 PCOD9123647
Probable space group: C 2
;
_chemical_formula_sum "Si O2"
_cell_formula_units_Z 22
_cell_length_a 17.865097
_cell_length_b 7.166875
_cell_length_c 7.822976
_cell_angle_alpha 90.000000
_cell_angle_beta 104.906680
_cell_angle_gamma 90.000000
_cell_volume 967.920977
_symmetry_space_group_name_H-M "C 2"
_symmetry_group_IT_number 5
_symmetry_cell_setting 'monoclinic'
loop_
_space_group_symop_operation_xyz
x,y,z
-x,y,-z
1/2+x,1/2+y,z
1/2-x,1/2+y,-z
loop_
_atom_site_type_symbol
_atom_site_label
_atom_site_fract_x
_atom_site_fract_y
_atom_site_fract_z
Si Si1 0.439964 0.160930 0.816007
Si Si2 0.757512 0.193501 0.722305
Si Si3 0.733471 0.130064 0.313550
Si Si4 0.856305 0.413067 0.235297
Si Si5 0.500000 0.105378 0.500000
Si Si6 0.419038 0.750361 0.917766
O O1 0.350219 0.204758 0.795737
O O2 0.470037 0.220132 0.647178
O O3 0.438575 0.932037 0.814136
O O4 0.500000 0.211710 0.000000
O O5 0.730914 0.134583 0.518004
O O6 0.754428 0.416645 0.735596
O O7 0.847564 0.141250 0.796493
O O8 0.701375 0.089243 0.820225
O O9 0.803642 0.257359 0.293595
O O10 0.928165 0.482625 0.390460
O O11 0.887371 0.333669 0.076606
O O12 0.500000 0.649393 0.000000
#
# Coordination Sequence:
#
# PCOD9123647 Si02
#       6
#     4   4   4   4   2   4
#     4  10  20  39  65  99 130 169 227 268 332 403
#     4  11  23  42  69  97 132 176 225 275 335 401
#     4  11  23  42  67 100 132 176 222 278 335 398
#     4  12  24  41  71  95 135 178 223 274 340 395
#     4  12  20  40  72  94 126 188 208 276 346 390
#     4  10  22  40  65  99 133 176 226 272 333 401
#
# _framework density 22.729127999999999
#
# number of rings (size 3 to 8) (size 9 to 14) (size 15 to 20)
#    0.000    1.091    7.273    1.091    5.091    0.000 
#    0.000    1.818    4.000    1.091    0.000    0.000 
#    0.000    0.000    0.000    0.000    0.000    0.000 
#
# Total GULP energy -61529.531871 kJ/mol
# GULP energy per Si atom -5593.593806 kJ/mol
# Density = 2.267740 g / cm^3
# Si number density = 22.729128 Si / 1000 Ang^3
#
#
#
# Elastic Constant Matrix: (Units=GPa)
#
#
# Indices 1 2 3 4 5 6 
#
# 1 151.7370 30.1035 28.2255 0.0000 16.7119 0.0000
# 2 30.1035 94.0842 -4.8149 0.0000 0.2813 0.0000
# 3 28.2255 -4.8149 88.0119 0.0000 -0.3108 0.0000
# 4 0.0000 0.0000 0.0000 9.9009 0.0000 -6.7886
# 5 16.7119 0.2813 -0.3108 0.0000 60.7687 0.0000
# 6 0.0000 0.0000 0.0000 -6.7886 0.0000 16.6206
#
#
#
# Elastic Compliance Matrix: (Units=1/GPa)
#
#
# Indices 1 2 3 4 5 6 
#
# 1 0.007849 -0.002641 -0.002669 0.000000 -0.002160 0.000000
# 2 -0.002641 0.011548 0.001481 0.000000 0.000681 0.000000
# 3 -0.002669 0.001481 0.012302 0.000000 0.000790 0.000000
# 4 0.000000 0.000000 0.000000 0.140288 0.000000 0.057300
# 5 -0.002160 0.000681 0.000790 0.000000 0.017051 0.000000
# 6 0.000000 0.000000 0.000000 0.057300 0.000000 0.083570
#
#
# Mechanical properties :
#
#
# Convention : Reuss Voigt Hill
#
# Bulk Modulus (GPa) = 41.59807 48.98458 45.29133
# Shear Modulus (GPa) = 17.34424 36.14596 26.74510
#
# Velocity S-wave (km/s) = 2.76539 3.99217 3.43401
# Velocity P-wave (km/s) = 5.34209 6.54585 5.97437
#
# Compressibility (1/GPa) = 0.02403958
#
# Stress axis : x y z
#
# Youngs Moduli (GPa) = 127.40788 86.59712 81.28784
#
# Poissons Ratio (x) = 0.22874 0.21698
# Poissons Ratio (y) = 0.33654 -0.12041
# Poissons Ratio (z) = 0.34008 -0.12827
#
# Static dielectric constant tensor:
#      x y z
#    x 1.860330 0.000000 0.007120 
#    y 0.000000 1.868550 0.000000 
#    z 0.007120 0.000000 1.871460 
# 
# From -- ./inp_files/22889.got.cif
#   From: 2010.05.17/outbox.cif.g08.bks.cpg/sg5_12_cif.got.tgz:22889.got - 2010.06.03 18:56:24.
