data_PCOD9123703
_publ_section_title
;
Structure prediction by ZEFSAII (Michael W. Deem and Ramdas Pophale) SiO2 
 PCOD9123703
Probable space group: C 2
;
_chemical_formula_sum "Si O2"
_cell_formula_units_Z 18
_cell_length_a 7.363412
_cell_length_b 17.555080
_cell_length_c 6.176735
_cell_angle_alpha 90.000000
_cell_angle_beta 74.152475
_cell_angle_gamma 90.000000
_cell_volume 768.090264
_symmetry_space_group_name_H-M "C 2"
_symmetry_group_IT_number 5
_symmetry_cell_setting 'monoclinic'
loop_
_space_group_symop_operation_xyz
x,y,z
-x,y,-z
1/2+x,1/2+y,z
1/2-x,1/2+y,-z
loop_
_atom_site_type_symbol
_atom_site_label
_atom_site_fract_x
_atom_site_fract_y
_atom_site_fract_z
Si Si1 0.687892 0.128190 0.812799
Si Si2 0.421882 0.876116 0.237199
Si Si3 0.796208 0.006712 0.456307
Si Si4 0.500000 0.553859 0.000000
Si Si5 0.290981 0.302124 0.065167
O O1 0.683791 0.219265 0.835944
O O2 0.705021 0.085237 0.576975
O O3 0.500000 0.102274 0.000000
O O4 0.877589 0.104003 0.876692
O O5 0.322527 0.936544 0.418376
O O6 0.386356 0.836470 0.747251
O O7 0.500000 0.921282 0.000000
O O8 0.285750 0.813815 0.159096
O O9 0.000000 0.998118 0.500000
O O10 0.845162 0.008278 0.188349
O O11 0.500000 0.338072 0.000000
#
# Coordination Sequence:
#
# PCOD9123703 Si02
#       5
#     4   4   4   2   4
#     4  10  20  39  70 101 129 165 225 274 328 408
#     4   8  18  36  66  96 137 166 216 273 325 399
#     4  10  21  40  66  98 134 173 226 277 317 392
#     4  10  22  40  64  92 136 180 216 276 332 366
#     4   8  17  36  69  98 132 171 208 267 346 399
#
# _framework density 23.434744999999999
#
# number of rings (size 3 to 8) (size 9 to 14) (size 15 to 20)
#    1.333    1.333    0.000    2.000    0.000    0.889 
#    8.000    4.444   39.111    5.333    0.000    0.000 
#    0.000    0.000    0.000    0.000    0.000    0.000 
#
# Total GULP energy -50139.222690 kJ/mol
# GULP energy per Si atom -5571.024743 kJ/mol
# Density = 2.338141 g / cm^3
# Si number density = 23.434745 Si / 1000 Ang^3
#
#
#
# Elastic Constant Matrix: (Units=GPa)
#
#
# Indices 1 2 3 4 5 6 
#
# 1 137.9679 29.8155 17.9402 0.0000 -29.7072 0.0000
# 2 29.8155 113.2420 53.5075 0.0000 -18.5431 0.0000
# 3 17.9402 53.5075 121.5238 0.0000 -32.2989 0.0000
# 4 0.0000 0.0000 0.0000 6.0391 0.0000 -22.6342
# 5 -29.7072 -18.5431 -32.2989 0.0000 41.6238 0.0000
# 6 0.0000 0.0000 0.0000 -22.6342 0.0000 30.8076
#
#
#
# Elastic Compliance Matrix: (Units=1/GPa)
#
#
# Indices 1 2 3 4 5 6 
#
# 1 0.008882 -0.001859 0.001225 0.000000 0.006461 0.000000
# 2 -0.001859 0.011610 -0.004807 0.000000 0.000115 0.000000
# 3 0.001225 -0.004807 0.012381 0.000000 0.008340 0.000000
# 4 0.000000 0.000000 0.000000 -0.094428 0.000000 -0.069376
# 5 0.006461 0.000115 0.008340 0.000000 0.035159 0.000000
# 6 0.000000 0.000000 0.000000 -0.069376 0.000000 -0.018510
#
#
# Mechanical properties :
#
#
# Convention : Reuss Voigt Hill
#
# Bulk Modulus (GPa) = 45.47444 63.91778 54.69611
# Shear Modulus (GPa) = -187.31724 33.79214 -76.76255
#
# Velocity S-wave (km/s) = -8.95014 3.80144 -5.72948
# Velocity P-wave (km/s) = 9.34664 6.82656 4.51430
#
# Compressibility (1/GPa) = 0.02199037
#
# Stress axis : x y z
#
# Youngs Moduli (GPa) = 112.59005 86.12997 80.76742
#
# Poissons Ratio (x) = 0.16013 -0.09891
# Poissons Ratio (y) = 0.20932 0.38825
# Poissons Ratio (z) = -0.13788 0.41402
#
# Static dielectric constant tensor:
#      x y z
#    x 1.957180 0.000000 0.025950 
#    y 0.000000 1.910990 0.000000 
#    z 0.025950 0.000000 1.997480 
# 
# From -- ./inp_files/2290.got.cif
#   From: 2010.05.17/outbox.cif.g08.bks.cpg/sg5_2_cif.got.tgz:2290.got - 2010.06.03 18:56:24.
