data_PCOD9123326
_publ_section_title
;
Structure prediction by ZEFSAII (Michael W. Deem and Ramdas Pophale) SiO2 
 PCOD9123326
Probable space group: C 2
;
_chemical_formula_sum "Si O2"
_cell_formula_units_Z 24
_cell_length_a 17.849549
_cell_length_b 7.756454
_cell_length_c 8.888154
_cell_angle_alpha 90.000000
_cell_angle_beta 99.952625
_cell_angle_gamma 90.000000
_cell_volume 1212.039193
_symmetry_space_group_name_H-M "C 2"
_symmetry_group_IT_number 5
_symmetry_cell_setting 'monoclinic'
loop_
_space_group_symop_operation_xyz
x,y,z
-x,y,-z
1/2+x,1/2+y,z
1/2-x,1/2+y,-z
loop_
_atom_site_type_symbol
_atom_site_label
_atom_site_fract_x
_atom_site_fract_y
_atom_site_fract_z
Si Si1 0.735771 0.964150 0.683317
Si Si2 0.571205 0.277522 0.915702
Si Si3 0.311846 0.127389 0.616603
Si Si4 0.176701 0.479529 0.081408
Si Si5 0.172996 0.094145 0.002965
Si Si6 0.077721 0.615500 0.597491
O O1 0.770263 0.775854 0.692783
O O2 0.644391 0.981879 0.671039
O O3 0.746148 0.041373 0.520295
O O4 0.781945 0.067100 0.824094
O O5 0.634342 0.139640 0.990330
O O6 0.500000 0.245120 0.000000
O O7 0.601152 0.469898 0.959556
O O8 0.559851 0.236205 0.734552
O O9 0.342270 0.989960 0.747946
O O10 0.378093 0.199884 0.530322
O O11 0.266349 0.516001 0.093622
O O12 0.158023 0.297865 0.996560
O O13 0.000000 0.543397 0.500000
#
# Coordination Sequence:
#
# PCOD9123326 Si02
#       6
#     4   4   4   4   4   4
#     4  10  20  38  62 101 127 175 226 273 332 399
#     4  12  26  44  67  98 141 181 225 288 341 402
#     4  10  21  36  68  97 131 173 221 282 331 403
#     4  12  21  41  70  99 133 177 230 283 333 405
#     4  12  23  41  70 103 131 179 238 279 334 407
#     4  10  23  42  63  98 133 180 221 273 348 402
#
# _framework density 19.80134
#
# number of rings (size 3 to 8) (size 9 to 14) (size 15 to 20)
#    1.000    0.000    5.000    2.000    2.333    0.667 
#    0.000    0.000    0.000    2.000    0.000    0.000 
#    0.000    0.000    0.000    0.000    0.000    0.000 
#
# Total GULP energy -66819.524894 kJ/mol
# GULP energy per Si atom -5568.293741 kJ/mol
# Density = 1.975627 g / cm^3
# Si number density = 19.801340 Si / 1000 Ang^3
#
#
#
# Elastic Constant Matrix: (Units=GPa)
#
#
# Indices 1 2 3 4 5 6 
#
# 1 72.6000 18.6721 11.6835 0.0000 -6.9513 0.0000
# 2 18.6721 92.3529 17.5901 0.0000 -8.8007 0.0000
# 3 11.6835 17.5901 109.4477 0.0000 -5.5885 0.0000
# 4 0.0000 0.0000 0.0000 23.4794 0.0000 0.0080
# 5 -6.9513 -8.8007 -5.5885 0.0000 25.9476 0.0000
# 6 0.0000 0.0000 0.0000 0.0080 0.0000 23.8791
#
#
#
# Elastic Compliance Matrix: (Units=1/GPa)
#
#
# Indices 1 2 3 4 5 6 
#
# 1 0.014870 -0.002533 -0.001032 0.000000 0.002902 0.000000
# 2 -0.002533 0.011914 -0.001489 0.000000 0.003041 0.000000
# 3 -0.001032 -0.001489 0.009551 0.000000 0.001276 0.000000
# 4 0.000000 0.000000 0.000000 0.042591 0.000000 -0.000014
# 5 0.002902 0.003041 0.001276 0.000000 0.040623 0.000000
# 6 0.000000 0.000000 0.000000 -0.000014 0.000000 0.041878
#
#
# Mechanical properties :
#
#
# Convention : Reuss Voigt Hill
#
# Bulk Modulus (GPa) = 38.12994 41.14353 39.63674
# Shear Modulus (GPa) = 27.73522 29.75822 28.74672
#
# Velocity S-wave (km/s) = 3.74662 3.88085 3.81433
# Velocity P-wave (km/s) = 6.16557 6.39567 6.28167
#
# Compressibility (1/GPa) = 0.02622611
#
# Stress axis : x y z
#
# Youngs Moduli (GPa) = 67.25143 83.93734 104.69672
#
# Poissons Ratio (x) = 0.21263 0.10805
# Poissons Ratio (y) = 0.17036 0.15589
# Poissons Ratio (z) = 0.06940 0.12498
#
# Static dielectric constant tensor:
#      x y z
#    x 1.716870 0.000000 -0.011320 
#    y 0.000000 1.708380 0.000000 
#    z -0.011320 0.000000 1.790570 
# 
# From -- ./inp_files/26498.got.cif
#   From: 2010.05.17/outbox.cif.g08.bks.cpg/sg5_14_cif.got.tgz:26498.got - 2010.06.03 18:56:24.
