data_PCOD9123280
_publ_section_title
;
Structure prediction by ZEFSAII (Michael W. Deem and Ramdas Pophale) SiO2 
 PCOD9123280
Probable space group: C 2
;
_chemical_formula_sum "Si O2"
_cell_formula_units_Z 26
_cell_length_a 7.180505
_cell_length_b 12.755618
_cell_length_c 19.205443
_cell_angle_alpha 90.000000
_cell_angle_beta 140.643881
_cell_angle_gamma 90.000000
_cell_volume 1115.488133
_symmetry_space_group_name_H-M "C 2"
_symmetry_group_IT_number 5
_symmetry_cell_setting 'monoclinic'
loop_
_space_group_symop_operation_xyz
x,y,z
-x,y,-z
1/2+x,1/2+y,z
1/2-x,1/2+y,-z
loop_
_atom_site_type_symbol
_atom_site_label
_atom_site_fract_x
_atom_site_fract_y
_atom_site_fract_z
Si Si1 0.101548 0.582800 0.130528
Si Si2 0.311945 0.571149 0.349158
Si Si3 0.500000 0.497698 0.000000
Si Si4 0.011438 0.404810 0.654609
Si Si5 0.000000 0.774481 0.500000
Si Si6 0.916635 0.814788 0.878786
Si Si7 0.540104 0.117252 0.403534
Si Si8 0.000000 0.404704 0.000000
O O1 0.237054 0.579178 0.247018
O O2 0.160635 0.698906 0.118018
O O3 0.172817 0.484749 0.101434
O O4 0.748606 0.567327 0.036857
O O5 0.199272 0.459195 0.347093
O O6 0.873409 0.506238 0.352458
O O7 0.649212 0.591418 0.468011
O O8 0.334101 0.415643 0.901398
O O9 0.772611 0.336203 0.546132
O O10 0.879260 0.644832 0.653030
O O11 0.256441 0.334302 0.759477
O O12 0.118497 0.703544 0.597242
O O13 0.263808 0.832794 0.969972
#
# Coordination Sequence:
#
# PCOD9123280 Si02
#       8
#     4   4   2   4   2   4   4   2
#     4  11  21  40  63  86 120 162 198 255 303 359
#     4   9  18  42  58  82 132 155 190 252 296 351
#     4  10  20  38  60  82 122 156 196 262 306 348
#     4  10  20  39  60  88 125 156 202 241 298 364
#     4  12  20  38  68  86 120 170 198 240 302 356
#     4  11  22  39  62  88 116 163 202 248 310 357
#     4   9  20  37  61  89 123 157 199 243 291 359
#     4  10  26  42  60  94 122 146 220 258 288 362
#
# _framework density 23.308181999999999
#
# number of rings (size 3 to 8) (size 9 to 14) (size 15 to 20)
#    0.923    0.923    3.077    1.846    0.000    2.462 
#    2.769    4.615    0.000    0.000    0.000    0.000 
#    0.000    0.000    0.000    0.000    0.000    0.000 
#
# Total GULP energy -72461.356593 kJ/mol
# GULP energy per Si atom -5573.950507 kJ/mol
# Density = 2.325513 g / cm^3
# Si number density = 23.308182 Si / 1000 Ang^3
#
#
#
# Elastic Constant Matrix: (Units=GPa)
#
#
# Indices 1 2 3 4 5 6 
#
# 1 32.0733 -9.0373 1.9546 0.0000 -5.0721 0.0000
# 2 -9.0373 71.8690 4.7386 0.0000 -0.6386 0.0000
# 3 1.9546 4.7386 84.0533 -0.0001 -19.0041 -0.0001
# 4 0.0000 0.0000 -0.0001 24.6003 0.0000 -8.8612
# 5 -5.0721 -0.6386 -19.0041 0.0000 34.5172 0.0000
# 6 0.0000 0.0000 -0.0001 -8.8612 0.0000 19.1254
#
#
#
# Elastic Compliance Matrix: (Units=1/GPa)
#
#
# Indices 1 2 3 4 5 6 
#
# 1 0.033149 0.004205 0.000127 0.000000 0.005019 0.000000
# 2 0.004205 0.014501 -0.000817 0.000000 0.000437 0.000000
# 3 0.000127 -0.000817 0.013639 0.000000 0.007513 0.000000
# 4 0.000000 0.000000 0.000000 0.048793 0.000000 0.022607
# 5 0.005019 0.000437 0.007513 0.000000 0.033853 0.000000
# 6 0.000000 0.000000 0.000000 0.022607 0.000000 0.062761
#
#
# Mechanical properties :
#
#
# Convention : Reuss Voigt Hill
#
# Bulk Modulus (GPa) = 14.63730 20.36750 17.50240
# Shear Modulus (GPa) = 22.47813 28.33789 25.40801
#
# Velocity S-wave (km/s) = 3.10883 3.49060 3.30523
# Velocity P-wave (km/s) = 4.37949 5.00031 4.70016
#
# Compressibility (1/GPa) = 0.06831862
#
# Stress axis : x y z
#
# Youngs Moduli (GPa) = 30.16655 68.96245 73.31976
#
# Poissons Ratio (x) = -0.28996 -0.00930
# Poissons Ratio (y) = -0.12684 0.05987
# Poissons Ratio (z) = -0.00383 0.05631
#
# Static dielectric constant tensor:
#      x y z
#    x 1.871210 0.000000 -0.035310 
#    y 0.000000 1.920130 0.000000 
#    z -0.035310 0.000000 1.924550 
# 
# From -- ./inp_files/64518.got.cif
#   From: 2010.05.17/outbox.cif.g08.bks.cpg/sg5_33_cif.got.tgz:64518.got - 2010.06.03 18:56:24.
