data_PCOD9123971
_publ_section_title
;
Structure prediction by ZEFSAII (Michael W. Deem and Ramdas Pophale) SiO2 
 PCOD9123971
Probable space group: C 2
;
_chemical_formula_sum "Si O2"
_cell_formula_units_Z 24
_cell_length_a 18.626196
_cell_length_b 5.726607
_cell_length_c 11.551948
_cell_angle_alpha 90.000000
_cell_angle_beta 50.357581
_cell_angle_gamma 90.000000
_cell_volume 948.834981
_symmetry_space_group_name_H-M "C 2"
_symmetry_group_IT_number 5
_symmetry_cell_setting 'monoclinic'
loop_
_space_group_symop_operation_xyz
x,y,z
-x,y,-z
1/2+x,1/2+y,z
1/2-x,1/2+y,-z
loop_
_atom_site_type_symbol
_atom_site_label
_atom_site_fract_x
_atom_site_fract_y
_atom_site_fract_z
Si Si1 0.500000 0.335840 0.500000
Si Si2 0.675636 0.670157 0.359196
Si Si3 0.880599 0.679890 0.217181
Si Si4 0.000000 0.055389 0.000000
Si Si5 0.608772 0.684312 0.104951
Si Si6 0.460608 0.960573 0.363852
Si Si7 0.674370 0.179583 0.979309
O O1 0.595697 0.476150 0.428341
O O2 0.513234 0.166930 0.375400
O O3 0.768933 0.636787 0.341949
O O4 0.526346 0.736373 0.279651
O O5 0.624331 0.891760 0.466035
O O6 0.927350 0.534479 0.270802
O O7 0.893281 0.656915 0.064488
O O8 0.930791 0.931992 0.167235
O O9 0.070245 0.184633 0.012275
O O10 0.724691 0.703652 0.184934
O O11 0.648076 0.420811 0.068932
O O12 0.665081 0.929930 0.049024
#
# Coordination Sequence:
#
# PCOD9123971 Si02
#       7
#     2   4   4   2   4   4   4
#     4  12  30  50  76 108 174 214 276 332 408 472
#     4  10  27  47  76 112 159 214 263 335 397 485
#     4   9  22  42  76 120 150 198 262 332 398 474
#     4  10  20  40  76 124 164 186 256 352 414 460
#     4  11  22  42  78 117 157 198 260 327 405 470
#     4  12  26  45  80 112 158 218 265 330 402 489
#     4   9  23  45  76 118 158 196 257 341 395 468
#
# _framework density 25.294180000000001
#
# number of rings (size 3 to 8) (size 9 to 14) (size 15 to 20)
#    1.000    0.667    0.000    3.500    9.333    0.667 
#    0.000    0.000    7.333    0.000    0.000    0.000 
#    0.000    0.000    0.000    0.000    0.000    0.000 
#
# Total GULP energy -66885.658961 kJ/mol
# GULP energy per Si atom -5573.804913 kJ/mol
# Density = 2.523661 g / cm^3
# Si number density = 25.294180 Si / 1000 Ang^3
#
#
#
# Elastic Constant Matrix: (Units=GPa)
#
#
# Indices 1 2 3 4 5 6 
#
# 1 150.4975 71.0043 37.9951 -0.0003 -0.7591 0.0004
# 2 71.0043 182.9863 83.4451 -0.0018 -12.2274 0.0027
# 3 37.9951 83.4451 130.4540 -0.0006 -23.1061 0.0007
# 4 -0.0003 -0.0018 -0.0006 52.9907 0.0004 17.3734
# 5 -0.7591 -12.2274 -23.1061 0.0004 40.4572 0.0000
# 6 0.0004 0.0027 0.0007 17.3734 0.0000 -8.7637
#
#
#
# Elastic Compliance Matrix: (Units=1/GPa)
#
#
# Indices 1 2 3 4 5 6 
#
# 1 0.008203 -0.002933 -0.000715 0.000000 -0.001141 0.000000
# 2 -0.002933 0.008775 -0.004782 0.000000 -0.000134 0.000002
# 3 -0.000715 -0.004782 0.011876 0.000000 0.005324 0.000000
# 4 0.000000 0.000000 0.000000 0.011437 0.000000 0.022674
# 5 -0.001141 -0.000134 0.005324 0.000000 0.027696 0.000000
# 6 0.000000 0.000002 0.000000 0.022674 0.000000 -0.069157
#
#
# Mechanical properties :
#
#
# Convention : Reuss Voigt Hill
#
# Bulk Modulus (GPa) = 83.38447 94.31409 88.84928
# Shear Modulus (GPa) = 253.94809 35.03640 144.49224
#
# Velocity S-wave (km/s) = 10.03074 3.72581 7.56629
# Velocity P-wave (km/s) = 12.93027 7.47507 10.56098
#
# Compressibility (1/GPa) = 0.01199264
#
# Stress axis : x y z
#
# Youngs Moduli (GPa) = 121.90185 113.96033 84.20479
#
# Poissons Ratio (x) = 0.33428 0.06021
# Poissons Ratio (y) = 0.35758 0.40270
# Poissons Ratio (z) = 0.08716 0.54500
#
# Static dielectric constant tensor:
#      x y z
#    x 2.126880 0.000000 -0.030980 
#    y 0.000000 2.039260 0.000000 
#    z -0.030980 0.000000 1.988890 
# 
# From -- ./inp_files/43733.got.cif
#   From: 2010.05.17/outbox.cif.g08.bks.cpg/sg5_22_cif.got.tgz:43733.got - 2010.06.03 18:56:24.
