data_PCOD9123097
_publ_section_title
;
Structure prediction by ZEFSAII (Michael W. Deem and Ramdas Pophale) SiO2 
 PCOD9123097
Probable space group: C 2
;
_chemical_formula_sum "Si O2"
_cell_formula_units_Z 24
_cell_length_a 17.082269
_cell_length_b 8.257990
_cell_length_c 18.919676
_cell_angle_alpha 90.000000
_cell_angle_beta 156.494277
_cell_angle_gamma 90.000000
_cell_volume 1064.469050
_symmetry_space_group_name_H-M "C 2"
_symmetry_group_IT_number 5
_symmetry_cell_setting 'monoclinic'
loop_
_space_group_symop_operation_xyz
x,y,z
-x,y,-z
1/2+x,1/2+y,z
1/2-x,1/2+y,-z
loop_
_atom_site_type_symbol
_atom_site_label
_atom_site_fract_x
_atom_site_fract_y
_atom_site_fract_z
Si Si1 0.322509 0.192940 0.202584
Si Si2 0.677302 0.692974 0.932836
Si Si3 0.900062 0.470695 0.486246
Si Si4 0.546669 0.010511 0.233098
Si Si5 0.125234 0.940776 0.382436
Si Si6 0.223546 0.811251 0.687046
O O1 0.421954 0.034131 0.317528
O O2 0.500659 0.302766 0.318989
O O3 0.771037 0.281229 0.807872
O O4 0.178222 0.164898 0.018362
O O5 0.604566 0.874610 0.862603
O O6 0.530193 0.574961 0.771023
O O7 0.902407 0.659156 0.098192
O O8 0.748406 0.388915 0.414527
O O9 0.797959 0.636898 0.371305
O O10 0.000000 0.389158 0.500000
O O11 0.719976 0.016170 0.433916
O O12 0.639258 0.933749 0.240041
O O13 0.000000 0.875718 0.500000
#
# Coordination Sequence:
#
# PCOD9123097 Si02
#       6
#     4   4   4   4   4   4
#     4  10  20  37  61  98 125 164 225 272 319 390
#     4  12  25  39  62 107 126 178 218 276 331 398
#     4   9  18  35  61  93 124 167 221 268 318 375
#     4  12  24  41  66 100 137 171 225 277 334 396
#     4  12  20  39  64  90 137 169 215 272 339 390
#     4   9  18  38  64  99 125 168 229 274 323 375
#
# _framework density 22.546451999999999
#
# number of rings (size 3 to 8) (size 9 to 14) (size 15 to 20)
#    0.000    1.667    8.333    0.000    0.000    0.667 
#    0.000    0.000    0.000    7.000    8.667    0.000 
#    0.000    0.000    0.000    0.000    0.000    0.000 
#
# Total GULP energy -67042.964079 kJ/mol
# GULP energy per Si atom -5586.913673 kJ/mol
# Density = 2.249514 g / cm^3
# Si number density = 22.546452 Si / 1000 Ang^3
#
#
#
# Elastic Constant Matrix: (Units=GPa)
#
#
# Indices 1 2 3 4 5 6 
#
# 1 160.2166 20.3528 40.8589 0.0005 3.1952 0.0000
# 2 20.3528 29.5207 32.5034 -0.0009 -0.1468 0.0007
# 3 40.8589 32.5034 149.7333 0.0000 -7.9122 0.0006
# 4 0.0005 -0.0009 0.0000 38.9980 0.0004 9.5802
# 5 3.1952 -0.1468 -7.9122 0.0004 45.7588 0.0000
# 6 0.0000 0.0007 0.0006 9.5802 0.0000 35.1214
#
#
#
# Elastic Compliance Matrix: (Units=1/GPa)
#
#
# Indices 1 2 3 4 5 6 
#
# 1 0.007006 -0.003532 -0.001182 0.000000 -0.000705 0.000000
# 2 -0.003532 0.046402 -0.009172 0.000001 -0.001190 -0.000001
# 3 -0.001182 -0.009172 0.009078 0.000000 0.001623 0.000000
# 4 0.000000 0.000001 0.000000 0.027484 0.000000 -0.007497
# 5 -0.000705 -0.001190 0.001623 0.000000 0.022180 0.000000
# 6 0.000000 -0.000001 0.000000 -0.007497 0.000000 0.030518
#
#
# Mechanical properties :
#
#
# Convention : Reuss Voigt Hill
#
# Bulk Modulus (GPa) = 28.80698 58.54454 43.67576
# Shear Modulus (GPa) = 27.47090 40.35933 33.91512
#
# Velocity S-wave (km/s) = 3.49437 4.23549 3.88265
# Velocity P-wave (km/s) = 5.39307 7.06695 6.28598
#
# Compressibility (1/GPa) = 0.03471381
#
# Stress axis : x y z
#
# Youngs Moduli (GPa) = 142.73925 21.55069 110.15741
#
# Poissons Ratio (x) = 0.07611 0.13024
# Poissons Ratio (y) = 0.50413 1.01036
# Poissons Ratio (z) = 0.16876 0.19766
#
# Static dielectric constant tensor:
#      x y z
#    x 1.868680 0.000000 0.019280 
#    y 0.000000 1.867510 0.000000 
#    z 0.019280 0.000000 1.857310 
# 
# From -- ./inp_files/66666.got.cif
#   From: 2010.05.17/outbox.cif.g08.bks.cpg/sg5_34_cif.got.tgz:66666.got - 2010.06.03 18:56:24.
