data_PCOD9123620
_publ_section_title
;
Structure prediction by ZEFSAII (Michael W. Deem and Ramdas Pophale) SiO2 
 PCOD9123620
Probable space group: C 2
;
_chemical_formula_sum "Si O2"
_cell_formula_units_Z 28
_cell_length_a 21.728288
_cell_length_b 8.248761
_cell_length_c 24.468497
_cell_angle_alpha 90.000000
_cell_angle_beta 161.814155
_cell_angle_gamma 90.000000
_cell_volume 1368.723089
_symmetry_space_group_name_H-M "C 2"
_symmetry_group_IT_number 5
_symmetry_cell_setting 'monoclinic'
loop_
_space_group_symop_operation_xyz
x,y,z
-x,y,-z
1/2+x,1/2+y,z
1/2-x,1/2+y,-z
loop_
_atom_site_type_symbol
_atom_site_label
_atom_site_fract_x
_atom_site_fract_y
_atom_site_fract_z
Si Si1 0.181260 0.651320 0.802834
Si Si2 0.526433 0.929469 0.962691
Si Si3 0.991756 0.137364 0.741852
Si Si4 0.295498 0.143301 0.303354
Si Si5 0.460337 0.499027 0.828302
Si Si6 0.961259 0.633635 0.133625
Si Si7 0.864400 0.494685 0.609101
O O1 0.181043 0.594608 0.739778
O O2 0.978908 0.609737 0.662351
O O3 0.264597 0.835868 0.870112
O O4 0.342890 0.553307 0.974204
O O5 0.368061 0.783663 0.830842
O O6 0.487482 0.047896 0.880069
O O7 0.500000 0.009060 0.000000
O O8 0.943954 0.311480 0.675193
O O9 0.864342 0.009330 0.599720
O O10 0.923417 0.123068 0.747388
O O11 0.225868 0.109936 0.942089
O O12 0.500000 0.203974 0.500000
O O13 0.213963 0.004753 0.274638
O O14 0.492927 0.323337 0.830739
O O15 0.079551 0.558129 0.283698
#
# Coordination Sequence:
#
# PCOD9123620 Si02
#       7
#     4   4   4   4   4   4   4
#     4  10  20  39  64  89 125 171 218 258 322 383
#     4   9  22  41  65  92 122 175 216 263 327 386
#     4  12  25  42  65  99 134 171 219 266 330 388
#     4  10  21  40  64  92 127 170 222 265 318 391
#     4  11  22  41  65  92 127 175 216 264 327 383
#     4  12  24  43  67  94 138 169 214 274 326 384
#     4  12  25  40  67 100 128 174 217 270 324 393
#
# _framework density 20.457024000000001
#
# number of rings (size 3 to 8) (size 9 to 14) (size 15 to 20)
#    0.000    1.143    2.857    4.714    4.000    1.143 
#    2.571    0.714    0.000    0.000    0.000    0.000 
#    0.000    0.000    0.000    0.000    0.000    0.000 
#
# Total GULP energy -78222.070017 kJ/mol
# GULP energy per Si atom -5587.290715 kJ/mol
# Density = 2.041046 g / cm^3
# Si number density = 20.457024 Si / 1000 Ang^3
#
#
#
# Elastic Constant Matrix: (Units=GPa)
#
#
# Indices 1 2 3 4 5 6 
#
# 1 127.3584 22.9011 35.1724 -0.0011 -13.9218 0.0003
# 2 22.9011 28.4596 -3.6259 -0.0034 -3.5689 0.0004
# 3 35.1724 -3.6259 77.9762 0.0080 -20.1845 0.0013
# 4 -0.0011 -0.0034 0.0080 13.0921 0.0002 -5.9206
# 5 -13.9218 -3.5689 -20.1845 0.0002 28.7317 0.0007
# 6 0.0003 0.0004 0.0013 -5.9206 0.0007 28.7151
#
#
#
# Elastic Compliance Matrix: (Units=1/GPa)
#
#
# Indices 1 2 3 4 5 6 
#
# 1 0.011089 -0.009547 -0.005332 0.000002 0.000442 0.000001
# 2 -0.009547 0.044681 0.008095 0.000006 0.006611 0.000000
# 3 -0.005332 0.008095 0.018575 -0.000012 0.011472 -0.000004
# 4 0.000002 0.000006 -0.000012 0.084236 -0.000007 0.017368
# 5 0.000442 0.006611 0.011472 -0.000007 0.043899 -0.000003
# 6 0.000001 0.000000 -0.000004 0.017368 -0.000003 0.038406
#
#
# Mechanical properties :
#
#
# Convention : Reuss Voigt Hill
#
# Bulk Modulus (GPa) = 16.45324 38.07660 27.26492
# Shear Modulus (GPa) = 18.20082 26.06423 22.13252
#
# Velocity S-wave (km/s) = 2.98604 3.57332 3.29280
# Velocity P-wave (km/s) = 4.46641 5.97312 5.27385
#
# Compressibility (1/GPa) = 0.06077831
#
# Stress axis : x y z
#
# Youngs Moduli (GPa) = 90.17666 22.38105 53.83504
#
# Poissons Ratio (x) = 0.21368 0.28703
# Poissons Ratio (y) = 0.86095 -0.43582
# Poissons Ratio (z) = 0.48079 -0.18119
#
# Static dielectric constant tensor:
#      x y z
#    x 1.753860 0.000000 0.039100 
#    y 0.000000 1.718560 0.000000 
#    z 0.039100 0.000000 1.749970 
# 
# From -- ./inp_files/69445.got.cif
#   From: 2010.05.17/outbox.cif.g08.bks.cpg/sg5_35_cif.got.tgz:69445.got - 2010.06.03 18:56:24.
