data_PCOD9123084
_publ_section_title
;
Structure prediction by ZEFSAII (Michael W. Deem and Ramdas Pophale) SiO2 
 PCOD9123084
Probable space group: C 2
;
_chemical_formula_sum "Si O2"
_cell_formula_units_Z 30
_cell_length_a 26.309885
_cell_length_b 7.257230
_cell_length_c 14.231198
_cell_angle_alpha 90.000000
_cell_angle_beta 149.418993
_cell_angle_gamma 90.000000
_cell_volume 1382.422818
_symmetry_space_group_name_H-M "C 2"
_symmetry_group_IT_number 5
_symmetry_cell_setting 'monoclinic'
loop_
_space_group_symop_operation_xyz
x,y,z
-x,y,-z
1/2+x,1/2+y,z
1/2-x,1/2+y,-z
loop_
_atom_site_type_symbol
_atom_site_label
_atom_site_fract_x
_atom_site_fract_y
_atom_site_fract_z
Si Si1 0.522610 0.043180 0.903472
Si Si2 0.000000 0.880957 0.500000
Si Si3 0.704415 0.820805 0.173873
Si Si4 0.333737 0.458845 0.540558
Si Si5 0.702586 0.606329 0.821826
Si Si6 0.734132 0.493644 0.079024
Si Si7 0.150386 0.698174 0.265523
Si Si8 0.484317 0.311874 0.271735
O O1 0.414587 0.044131 0.780530
O O2 0.509932 0.130161 0.781570
O O3 0.590719 0.190193 0.072294
O O4 0.587100 0.857555 0.005045
O O5 0.008957 0.769580 0.418513
O O6 0.096381 0.009259 0.659154
O O7 0.763530 0.823057 0.365920
O O8 0.732393 0.648164 0.155267
O O9 0.738245 0.998382 0.165377
O O10 0.264741 0.638552 0.435219
O O11 0.354379 0.376807 0.676477
O O12 0.436347 0.456673 0.645783
O O13 0.693851 0.822147 0.788375
O O14 0.751971 0.579693 0.003872
O O15 0.624862 0.399656 0.905933
#
# Coordination Sequence:
#
# PCOD9123084 Si02
#       8
#     4   2   4   4   4   4   4   4
#     4   9  19  38  62  86 121 165 210 251 312 372
#     4  10  22  38  62  88 132 162 206 254 316 362
#     4  11  21  39  62  91 121 162 206 258 304 375
#     4  10  21  39  60  91 126 159 204 261 317 361
#     4  11  21  41  58  88 125 164 204 261 295 370
#     4  11  23  37  63  88 122 167 212 244 307 366
#     4   9  20  37  60  87 123 163 201 261 314 367
#     4  10  20  37  61  90 122 167 201 256 305 368
#
# _framework density 21.701031
#
# number of rings (size 3 to 8) (size 9 to 14) (size 15 to 20)
#    0.000    1.867    4.000    0.000    0.000    2.133 
#    0.000    7.333    0.000    0.000    0.000    0.000 
#    0.000    0.000    0.000    0.000    0.000    0.000 
#
# Total GULP energy -83738.579612 kJ/mol
# GULP energy per Si atom -5582.571974 kJ/mol
# Density = 2.165164 g / cm^3
# Si number density = 21.701031 Si / 1000 Ang^3
#
#
#
# Elastic Constant Matrix: (Units=GPa)
#
#
# Indices 1 2 3 4 5 6 
#
# 1 81.7675 6.5786 18.1552 0.0000 -9.8870 0.0000
# 2 6.5786 42.8767 -1.4560 0.0000 -18.6355 0.0000
# 3 18.1552 -1.4560 43.8056 0.0000 -4.0296 0.0000
# 4 0.0000 0.0000 0.0000 16.9894 0.0000 -0.6626
# 5 -9.8870 -18.6355 -4.0296 0.0000 48.4153 0.0000
# 6 0.0000 0.0000 0.0000 -0.6626 0.0000 26.0720
#
#
#
# Elastic Compliance Matrix: (Units=1/GPa)
#
#
# Indices 1 2 3 4 5 6 
#
# 1 0.013813 -0.001546 -0.005615 0.000000 0.001759 0.000000
# 2 -0.001546 0.028345 0.002577 0.000000 0.010809 0.000000
# 3 -0.005615 0.002577 0.025421 0.000000 0.001961 0.000000
# 4 0.000000 0.000000 0.000000 0.058919 0.000000 0.001497
# 5 0.001759 0.010809 0.001961 0.000000 0.025338 0.000000
# 6 0.000000 0.000000 0.000000 0.001497 0.000000 0.038393
#
#
# Mechanical properties :
#
#
# Convention : Reuss Voigt Hill
#
# Bulk Modulus (GPa) = 17.11934 23.88949 20.50442
# Shear Modulus (GPa) = 22.84493 27.97349 25.40921
#
# Velocity S-wave (km/s) = 3.24807 3.59421 3.42552
# Velocity P-wave (km/s) = 4.68748 5.31572 5.01145
#
# Compressibility (1/GPa) = 0.05841347
#
# Stress axis : x y z
#
# Youngs Moduli (GPa) = 72.39326 35.27918 39.33734
#
# Poissons Ratio (x) = 0.05453 0.22086
# Poissons Ratio (y) = 0.11190 -0.10137
# Poissons Ratio (z) = 0.40646 -0.09092
#
# Static dielectric constant tensor:
#      x y z
#    x 1.850480 0.000000 0.010980 
#    y 0.000000 1.773390 0.000000 
#    z 0.010980 0.000000 1.814830 
# 
# From -- ./inp_files/58081.got.cif
#   From: 2010.05.17/outbox.cif.g08.bks.cpg/sg5_30_cif.got.tgz:58081.got - 2010.06.03 18:56:24.
