data_PCOD9123970
_publ_section_title
;
Structure prediction by ZEFSAII (Michael W. Deem and Ramdas Pophale) SiO2 
 PCOD9123970
Probable space group: C 2
;
_chemical_formula_sum "Si O2"
_cell_formula_units_Z 28
_cell_length_a 5.479024
_cell_length_b 18.356853
_cell_length_c 14.699040
_cell_angle_alpha 90.000000
_cell_angle_beta 117.080999
_cell_angle_gamma 90.000000
_cell_volume 1316.309188
_symmetry_space_group_name_H-M "C 2"
_symmetry_group_IT_number 5
_symmetry_cell_setting 'monoclinic'
loop_
_space_group_symop_operation_xyz
x,y,z
-x,y,-z
1/2+x,1/2+y,z
1/2-x,1/2+y,-z
loop_
_atom_site_type_symbol
_atom_site_label
_atom_site_fract_x
_atom_site_fract_y
_atom_site_fract_z
Si Si1 0.717890 0.986690 0.612058
Si Si2 0.000000 0.833135 0.000000
Si Si3 0.053004 0.699634 0.307791
Si Si4 0.973862 0.403853 0.836108
Si Si5 0.246853 0.771833 0.887975
Si Si6 0.500000 0.254637 0.500000
Si Si7 0.162908 0.536663 0.289185
Si Si8 0.952125 0.334511 0.351512
O O1 0.500000 0.010558 0.500000
O O2 0.695501 0.899549 0.619174
O O3 0.583183 0.017888 0.681816
O O4 0.025692 0.009627 0.638266
O O5 0.255621 0.885426 0.061079
O O6 0.003035 0.777868 0.085280
O O7 0.167520 0.623371 0.292060
O O8 0.259173 0.764640 0.318230
O O9 0.784998 0.718393 0.201778
O O10 0.013651 0.706393 0.409939
O O11 0.753720 0.354195 0.849929
O O12 0.910036 0.488486 0.812016
O O13 0.991849 0.368379 0.738471
O O14 0.500000 0.758662 0.000000
O O15 0.764850 0.306223 0.556763
#
# Coordination Sequence:
#
# PCOD9123970 Si02
#       8
#     4   2   4   4   4   2   4   4
#     4  11  25  44  67  97 134 191 244 293 341 421
#     4  10  20  40  76 102 128 182 232 308 358 428
#     4  12  25  45  66 103 148 189 237 295 361 438
#     4  10  21  42  71 102 134 180 240 299 360 426
#     4  10  21  41  74 101 133 179 243 296 360 426
#     4  12  26  40  70 110 140 200 240 304 354 426
#     4  11  28  42  69  99 146 187 230 295 365 423
#     4  11  24  41  71  97 139 181 251 290 353 417
#
# _framework density 21.271598999999998
#
# number of rings (size 3 to 8) (size 9 to 14) (size 15 to 20)
#    0.000    1.143    2.857    2.571   11.000    1.143 
#    1.286    0.000    4.714    0.000    0.000    0.000 
#    0.000    0.000    0.000    0.000    0.000    0.000 
#
# Total GULP energy -78081.934827 kJ/mol
# GULP energy per Si atom -5577.281059 kJ/mol
# Density = 2.122318 g / cm^3
# Si number density = 21.271599 Si / 1000 Ang^3
#
#
#
# Elastic Constant Matrix: (Units=GPa)
#
#
# Indices 1 2 3 4 5 6 
#
# 1 53.1665 30.7165 23.9654 0.0000 -0.1480 0.0000
# 2 30.7165 124.3547 31.0979 0.0000 6.0773 0.0000
# 3 23.9654 31.0979 126.1080 0.0000 -2.8233 0.0000
# 4 0.0000 0.0000 0.0000 4.3814 0.0000 -1.5431
# 5 -0.1480 6.0773 -2.8233 0.0000 37.7360 0.0000
# 6 0.0000 0.0000 0.0000 -1.5431 0.0000 30.7458
#
#
#
# Elastic Compliance Matrix: (Units=1/GPa)
#
#
# Indices 1 2 3 4 5 6 
#
# 1 0.023090 -0.004947 -0.003154 0.000000 0.000651 0.000000
# 2 -0.004947 0.009720 -0.001495 0.000000 -0.001697 0.000000
# 3 -0.003154 -0.001495 0.008918 0.000000 0.000896 0.000000
# 4 0.000000 0.000000 0.000000 0.232345 0.000000 0.011661
# 5 0.000651 -0.001697 0.000896 0.000000 0.026843 0.000000
# 6 0.000000 0.000000 0.000000 0.011661 0.000000 0.033110
#
#
# Mechanical properties :
#
#
# Convention : Reuss Voigt Hill
#
# Bulk Modulus (GPa) = 44.37015 52.79875 48.58445
# Shear Modulus (GPa) = 13.86085 29.09593 21.47839
#
# Velocity S-wave (km/s) = 2.55544 3.70243 3.18106
# Velocity P-wave (km/s) = 5.44162 6.56905 6.03173
#
# Compressibility (1/GPa) = 0.02253767
#
# Stress axis : x y z
#
# Youngs Moduli (GPa) = 43.30873 102.87952 112.13645
#
# Poissons Ratio (x) = 0.50890 0.35363
# Poissons Ratio (y) = 0.21423 0.16763
# Poissons Ratio (z) = 0.13658 0.15379
#
# Static dielectric constant tensor:
#      x y z
#    x 1.875710 0.000000 -0.009700 
#    y 0.000000 1.753640 0.000000 
#    z -0.009700 0.000000 1.833980 
# 
# From -- ./inp_files/49197.got.cif
#   From: 2010.05.17/outbox.cif.g08.bks.cpg/sg5_25_cif.got.tgz:49197.got - 2010.06.03 18:56:24.
