data_PCOD9123974
_publ_section_title
;
Structure prediction by ZEFSAII (Michael W. Deem and Ramdas Pophale) SiO2 
 PCOD9123974
Probable space group: C 2
;
_chemical_formula_sum "Si O2"
_cell_formula_units_Z 26
_cell_length_a 18.269752
_cell_length_b 4.850321
_cell_length_c 19.776672
_cell_angle_alpha 90.000000
_cell_angle_beta 143.217025
_cell_angle_gamma 90.000000
_cell_volume 1049.367771
_symmetry_space_group_name_H-M "C 2"
_symmetry_group_IT_number 5
_symmetry_cell_setting 'monoclinic'
loop_
_space_group_symop_operation_xyz
x,y,z
-x,y,-z
1/2+x,1/2+y,z
1/2-x,1/2+y,-z
loop_
_atom_site_type_symbol
_atom_site_label
_atom_site_fract_x
_atom_site_fract_y
_atom_site_fract_z
Si Si1 0.859701 0.689360 0.516840
Si Si2 0.500000 0.935801 0.500000
Si Si3 0.365379 0.971702 0.024002
Si Si4 0.628806 0.907107 0.185712
Si Si5 0.719806 0.869802 0.745089
Si Si6 0.804325 0.681793 0.622521
Si Si7 0.794556 0.476507 0.117763
O O1 0.956834 0.618054 0.531604
O O2 0.885653 0.637679 0.615340
O O3 0.741354 0.497286 0.411010
O O4 0.818355 0.004337 0.481161
O O5 0.616469 0.775925 0.615425
O O6 0.484769 0.866147 0.074412
O O7 0.377402 0.922674 0.113822
O O8 0.326611 0.287373 0.984298
O O9 0.249331 0.790854 0.916595
O O10 0.679700 0.134529 0.172389
O O11 0.644251 0.061051 0.270022
O O12 0.711241 0.638587 0.233515
O O13 0.660754 0.916462 0.774322
#
# Coordination Sequence:
#
# PCOD9123974 Si02
#       7
#     4   2   4   4   4   4   4
#     4  10  22  37  64  78 128 162 214 250 313 354
#     4  12  24  44  60 100 124 180 196 284 292 394
#     4  10  23  43  73  89 133 157 222 254 325 370
#     4  12  23  42  63  98 126 170 207 267 304 398
#     4  12  27  40  66  92 137 162 220 251 332 358
#     4  10  20  41  56  91 116 168 206 258 299 381
#     4  10  23  46  64 102 121 171 202 273 311 389
#
# _framework density 24.776824999999999
#
# number of rings (size 3 to 8) (size 9 to 14) (size 15 to 20)
#    0.000    1.231    3.077    1.846    2.154    6.154 
#    0.000    0.000    0.000    0.000    0.000    0.000 
#    0.000    0.000    0.000    0.000    0.000    0.000 
#
# Total GULP energy -72701.322536 kJ/mol
# GULP energy per Si atom -5592.409426 kJ/mol
# Density = 2.472043 g / cm^3
# Si number density = 24.776825 Si / 1000 Ang^3
#
#
#
# Elastic Constant Matrix: (Units=GPa)
#
#
# Indices 1 2 3 4 5 6 
#
# 1 155.0214 9.4920 29.6513 -0.0001 -10.6704 -0.0002
# 2 9.4920 82.1183 -3.7248 0.0022 0.1399 0.0037
# 3 29.6513 -3.7248 54.6617 0.0001 -13.7540 0.0004
# 4 -0.0001 0.0022 0.0001 9.3011 0.0004 -10.0694
# 5 -10.6704 0.1399 -13.7540 0.0004 44.7983 0.0004
# 6 -0.0002 0.0037 0.0004 -10.0694 0.0004 29.0432
#
#
#
# Elastic Compliance Matrix: (Units=1/GPa)
#
#
# Indices 1 2 3 4 5 6 
#
# 1 0.007295 -0.001021 -0.003889 0.000001 0.000547 0.000001
# 2 -0.001021 0.012360 0.001436 -0.000008 0.000159 -0.000004
# 3 -0.003889 0.001436 0.021964 -0.000002 0.005813 -0.000001
# 4 0.000001 -0.000008 -0.000002 0.172118 -0.000002 0.059674
# 5 0.000547 0.000159 0.005813 -0.000002 0.024237 -0.000001
# 6 0.000001 -0.000004 -0.000001 0.059674 -0.000001 0.055121
#
#
# Mechanical properties :
#
#
# Convention : Reuss Voigt Hill
#
# Bulk Modulus (GPa) = 28.84153 40.29315 34.56734
# Shear Modulus (GPa) = 16.04623 33.72071 24.88347
#
# Velocity S-wave (km/s) = 2.54762 3.69315 3.17251
# Velocity P-wave (km/s) = 4.50773 5.87227 5.23465
#
# Compressibility (1/GPa) = 0.03467223
#
# Stress axis : x y z
#
# Youngs Moduli (GPa) = 137.08595 80.90368 45.52829
#
# Poissons Ratio (x) = 0.08256 0.17706
# Poissons Ratio (y) = 0.13990 -0.06537
# Poissons Ratio (z) = 0.53313 -0.11617
#
# Static dielectric constant tensor:
#      x y z
#    x 1.985650 0.000000 -0.012110 
#    y 0.000000 1.864710 0.000000 
#    z -0.012110 0.000000 2.003070 
# 
# From -- ./inp_files/66441.got.cif
#   From: 2010.05.17/outbox.cif.g08.bks.cpg/sg5_34_cif.got.tgz:66441.got - 2010.06.03 18:56:24.
