data_PCOD9123814
_publ_section_title
;
Structure prediction by ZEFSAII (Michael W. Deem and Ramdas Pophale) SiO2 
 PCOD9123814
Probable space group: C 2
;
_chemical_formula_sum "Si O2"
_cell_formula_units_Z 32
_cell_length_a 14.830493
_cell_length_b 23.300925
_cell_length_c 8.676580
_cell_angle_alpha 90.000000
_cell_angle_beta 31.356820
_cell_angle_gamma 90.000000
_cell_volume 1560.222087
_symmetry_space_group_name_H-M "C 2"
_symmetry_group_IT_number 5
_symmetry_cell_setting 'monoclinic'
loop_
_space_group_symop_operation_xyz
x,y,z
-x,y,-z
1/2+x,1/2+y,z
1/2-x,1/2+y,-z
loop_
_atom_site_type_symbol
_atom_site_label
_atom_site_fract_x
_atom_site_fract_y
_atom_site_fract_z
Si Si1 0.306490 0.386490 0.717529
Si Si2 0.672465 0.764019 0.854138
Si Si3 0.865300 0.698348 0.320702
Si Si4 0.057176 0.578568 0.080569
Si Si5 0.500184 0.672993 0.315611
Si Si6 0.486469 0.964452 0.698119
Si Si7 0.152897 0.946395 0.656651
Si Si8 0.068833 0.051929 0.557534
O O1 0.500000 0.388958 0.500000
O O2 0.225293 0.323634 0.853144
O O3 0.323530 0.400292 0.511924
O O4 0.175061 0.432299 0.986238
O O5 0.821910 0.739763 0.524370
O O6 0.500000 0.772022 0.000000
O O7 0.631526 0.715696 0.040250
O O8 0.683835 0.686112 0.498795
O O9 0.951989 0.637657 0.246924
O O10 0.000000 0.722999 0.000000
O O11 0.034141 0.532762 0.247484
O O12 0.259936 0.584742 0.753441
O O13 0.000000 0.550620 0.000000
O O14 0.500000 0.682384 0.500000
O O15 0.544608 0.605745 0.220386
O O16 0.500000 0.949388 0.500000
O O17 0.666085 0.950077 0.519275
O O18 0.107086 0.005724 0.632289
O O19 0.000000 0.934411 0.000000
O O20 0.000000 0.023918 0.500000
#
# Coordination Sequence:
#
# PCOD9123814 Si02
#       8
#     4   4   4   4   4   4   4   4
#     4  12  26  49  69  94 135 173 227 283 334 393
#     4  10  24  44  69  93 127 179 223 269 329 395
#     4  10  20  40  64  92 130 174 215 263 327 390
#     4  11  19  41  65  95 139 178 208 269 334 387
#     4  10  21  39  63  94 131 171 216 269 323 387
#     4  12  25  42  70 101 132 178 222 274 336 400
#     4  12  25  42  69 101 134 174 224 273 336 400
#     4  11  22  39  67  98 140 178 214 268 330 395
#
# _framework density 20.509899999999998
#
# number of rings (size 3 to 8) (size 9 to 14) (size 15 to 20)
#    0.000    1.000    5.000    2.250    1.750    4.500 
#    2.250    2.500    0.000    0.000    0.000    0.000 
#    0.000    0.000    0.000    0.000    0.000    0.000 
#
# Total GULP energy -89374.044608 kJ/mol
# GULP energy per Si atom -5585.877788 kJ/mol
# Density = 2.046322 g / cm^3
# Si number density = 20.509900 Si / 1000 Ang^3
#
#
#
# Elastic Constant Matrix: (Units=GPa)
#
#
# Indices 1 2 3 4 5 6 
#
# 1 99.8399 25.5148 28.2532 0.0001 1.3959 0.0000
# 2 25.5148 75.7813 33.5393 0.0000 -7.5288 0.0000
# 3 28.2532 33.5393 113.9150 0.0002 1.9487 0.0002
# 4 0.0001 0.0000 0.0002 33.2149 -0.0002 -0.9016
# 5 1.3959 -7.5288 1.9487 -0.0002 21.6066 -0.0001
# 6 0.0000 0.0000 0.0002 -0.9016 -0.0001 31.5631
#
#
#
# Elastic Compliance Matrix: (Units=1/GPa)
#
#
# Indices 1 2 3 4 5 6 
#
# 1 0.011377 -0.003174 -0.001858 0.000000 -0.001673 0.000000
# 2 -0.003174 0.016793 -0.004267 0.000000 0.006441 0.000000
# 3 -0.001858 -0.004267 0.010535 0.000000 -0.002317 0.000000
# 4 0.000000 0.000000 0.000000 0.030130 0.000000 0.000861
# 5 -0.001673 0.006441 -0.002317 0.000000 0.048844 0.000000
# 6 0.000000 0.000000 0.000000 0.000861 0.000000 0.031707
#
#
# Mechanical properties :
#
#
# Convention : Reuss Voigt Hill
#
# Bulk Modulus (GPa) = 49.73771 51.57230 50.65501
# Shear Modulus (GPa) = 28.62253 30.75885 29.69069
#
# Velocity S-wave (km/s) = 3.73975 3.87681 3.80890
# Velocity P-wave (km/s) = 6.55369 6.72601 6.64041
#
# Compressibility (1/GPa) = 0.02010547
#
# Stress axis : x y z
#
# Youngs Moduli (GPa) = 87.90046 59.54835 94.91793
#
# Poissons Ratio (x) = 0.18901 0.17640
# Poissons Ratio (y) = 0.27900 0.40504
# Poissons Ratio (z) = 0.16336 0.25411
#
# Static dielectric constant tensor:
#      x y z
#    x 1.740130 0.000000 -0.031380 
#    y 0.000000 1.740400 0.000000 
#    z -0.031380 0.000000 1.756660 
# 
# From -- ./inp_files/25608.got.cif
#   From: 2010.05.17/outbox.cif.g08.bks.cpg/sg5_13_cif.got.tgz:25608.got - 2010.06.03 18:56:24.
