data_PCOD9123128
_publ_section_title
;
Structure prediction by ZEFSAII (Michael W. Deem and Ramdas Pophale) SiO2 
 PCOD9123128
Probable space group: C 2
;
_chemical_formula_sum "Si O2"
_cell_formula_units_Z 26
_cell_length_a 21.734607
_cell_length_b 13.099319
_cell_length_c 5.163505
_cell_angle_alpha 90.000000
_cell_angle_beta 121.808248
_cell_angle_gamma 90.000000
_cell_volume 1249.310638
_symmetry_space_group_name_H-M "C 2"
_symmetry_group_IT_number 5
_symmetry_cell_setting 'monoclinic'
loop_
_space_group_symop_operation_xyz
x,y,z
-x,y,-z
1/2+x,1/2+y,z
1/2-x,1/2+y,-z
loop_
_atom_site_type_symbol
_atom_site_label
_atom_site_fract_x
_atom_site_fract_y
_atom_site_fract_z
Si Si1 0.000000 0.760260 0.500000
Si Si2 0.550828 0.891954 0.361806
Si Si3 0.449400 0.668879 0.636627
Si Si4 0.805813 0.655625 0.766647
Si Si5 0.670909 0.504542 0.527956
Si Si6 0.108303 0.610667 0.540269
Si Si7 0.150767 0.869831 0.976250
O O1 0.962799 0.682463 0.622738
O O2 0.932076 0.828046 0.249709
O O3 0.500000 0.902508 0.500000
O O4 0.587792 0.780925 0.458399
O O5 0.597655 0.993061 0.447272
O O6 0.500000 0.890131 0.000000
O O7 0.500000 0.659728 0.500000
O O8 0.394525 0.576992 0.532106
O O9 0.500000 0.666808 0.000000
O O10 0.738428 0.580369 0.642294
O O11 0.835168 0.654962 0.539519
O O12 0.864721 0.614685 0.104144
O O13 0.799220 0.773025 0.839547
O O14 0.678364 0.422585 0.774904
O O15 0.653671 0.447990 0.221007
#
# Coordination Sequence:
#
# PCOD9123128 Si02
#       7
#     2   4   4   4   4   4   4
#     4  10  24  42  70 108 138 174 226 298 338 408
#     4  10  20  37  62  95 126 160 212 262 334 389
#     4  10  23  41  62  94 128 167 221 277 329 400
#     4  11  26  45  63  98 135 176 230 268 333 417
#     4  12  26  45  68  94 137 182 224 280 339 414
#     4  11  22  41  70  99 136 173 215 285 342 392
#     4  11  26  44  70 102 133 181 230 280 349 401
#
# _framework density 20.811475000000002
#
# number of rings (size 3 to 8) (size 9 to 14) (size 15 to 20)
#    0.000    1.231    0.769    4.615    5.385    4.923 
#    0.000    0.000    0.000    0.000    0.000    0.000 
#    0.000    0.000    0.000    0.000    0.000    0.000 
#
# Total GULP energy -72637.651007 kJ/mol
# GULP energy per Si atom -5587.511616 kJ/mol
# Density = 2.076411 g / cm^3
# Si number density = 20.811475 Si / 1000 Ang^3
#
#
#
# Elastic Constant Matrix: (Units=GPa)
#
#
# Indices 1 2 3 4 5 6 
#
# 1 95.2858 43.6068 32.4219 0.0000 -6.7477 0.0000
# 2 43.6068 131.4242 30.6519 0.0000 10.0159 0.0000
# 3 32.4219 30.6519 73.7093 0.0000 -14.8064 0.0000
# 4 0.0000 0.0000 0.0000 36.5015 0.0000 6.1199
# 5 -6.7477 10.0159 -14.8064 0.0000 31.3750 0.0000
# 6 0.0000 0.0000 0.0000 6.1199 0.0000 35.0889
#
#
#
# Elastic Compliance Matrix: (Units=1/GPa)
#
#
# Indices 1 2 3 4 5 6 
#
# 1 0.013763 -0.003804 -0.004014 0.000000 0.002280 0.000000
# 2 -0.003804 0.010187 -0.003734 0.000000 -0.005832 0.000000
# 3 -0.004014 -0.003734 0.018726 0.000000 0.009166 0.000000
# 4 0.000000 0.000000 0.000000 0.028221 0.000000 -0.004922
# 5 0.002280 -0.005832 0.009166 0.000000 0.038550 0.000000
# 6 0.000000 0.000000 0.000000 -0.004922 0.000000 0.029357
#
#
# Mechanical properties :
#
#
# Convention : Reuss Voigt Hill
#
# Bulk Modulus (GPa) = 51.09496 57.08673 54.09084
# Shear Modulus (GPa) = 29.68526 33.50901 31.59713
#
# Velocity S-wave (km/s) = 3.78085 4.01699 3.90071
# Velocity P-wave (km/s) = 6.60791 7.00035 6.80696
#
# Compressibility (1/GPa) = 0.01957140
#
# Stress axis : x y z
#
# Youngs Moduli (GPa) = 72.65910 98.16781 53.40029
#
# Poissons Ratio (x) = 0.37345 0.21434
# Poissons Ratio (y) = 0.27641 0.19942
# Poissons Ratio (z) = 0.29164 0.36659
#
# Static dielectric constant tensor:
#      x y z
#    x 1.713250 0.000000 0.024630 
#    y 0.000000 1.778150 0.000000 
#    z 0.024630 0.000000 1.735820 
# 
# From -- ./inp_files/9635.got.cif
#   From: 2010.05.17/outbox.cif.g08.bks.cpg/sg5_5_cif.got.tgz:9635.got - 2010.06.03 18:56:24.
