data_PCOD9123382
_publ_section_title
;
Structure prediction by ZEFSAII (Michael W. Deem and Ramdas Pophale) SiO2 
 PCOD9123382
Probable space group: C 2
;
_chemical_formula_sum "Si O2"
_cell_formula_units_Z 24
_cell_length_a 8.409933
_cell_length_b 11.239452
_cell_length_c 16.199554
_cell_angle_alpha 90.000000
_cell_angle_beta 141.046011
_cell_angle_gamma 90.000000
_cell_volume 962.679007
_symmetry_space_group_name_H-M "C 2"
_symmetry_group_IT_number 5
_symmetry_cell_setting 'monoclinic'
loop_
_space_group_symop_operation_xyz
x,y,z
-x,y,-z
1/2+x,1/2+y,z
1/2-x,1/2+y,-z
loop_
_atom_site_type_symbol
_atom_site_label
_atom_site_fract_x
_atom_site_fract_y
_atom_site_fract_z
Si Si1 0.350406 0.897870 0.063685
Si Si2 0.337487 0.544786 0.557307
Si Si3 0.890817 0.886250 0.198498
Si Si4 0.500000 0.242845 0.500000
Si Si5 0.795055 0.690026 0.751495
Si Si6 0.949806 0.396130 0.693714
Si Si7 0.000000 0.695536 0.000000
O O1 0.619202 0.870401 0.131256
O O2 0.408525 0.962828 0.174298
O O3 0.168242 0.942517 0.916661
O O4 0.212030 0.779558 0.043537
O O5 0.419199 0.465132 0.669629
O O6 0.600496 0.600255 0.631497
O O7 0.172763 0.471023 0.427975
O O8 0.167322 0.657090 0.512315
O O9 0.008835 0.756257 0.227732
O O10 0.705075 0.323875 0.629461
O O11 0.636744 0.801493 0.726205
O O12 0.897141 0.629127 0.877667
#
# Coordination Sequence:
#
# PCOD9123382 Si02
#       7
#     4   4   4   2   4   4   2
#     4   9  19  37  63  89 124 164 201 257 313 359
#     4  11  22  38  67  94 124 168 208 253 312 367
#     4  10  20  38  63  92 124 161 207 258 308 367
#     4  10  22  40  62  92 128 166 208 254 308 366
#     4   9  20  37  63  92 123 163 210 255 308 369
#     4  10  20  40  63  89 126 164 207 258 306 366
#     4   8  16  36  64  92 122 164 206 252 310 368
#
# _framework density 24.930429
#
# number of rings (size 3 to 8) (size 9 to 14) (size 15 to 20)
#    0.000    2.333    0.000    2.000    0.000    1.333 
#    0.000   15.000    0.000   18.000    0.000    0.000 
#    0.000    0.000    0.000    0.000    0.000    0.000 
#
# Total GULP energy -67088.781125 kJ/mol
# GULP energy per Si atom -5590.731760 kJ/mol
# Density = 2.487369 g / cm^3
# Si number density = 24.930429 Si / 1000 Ang^3
#
#
#
# Elastic Constant Matrix: (Units=GPa)
#
#
# Indices 1 2 3 4 5 6 
#
# 1 73.1949 33.7358 42.1703 0.0000 -5.2012 0.0000
# 2 33.7358 79.0226 46.4836 -0.0001 -14.1661 -0.0001
# 3 42.1703 46.4836 145.0997 0.0000 -50.8978 0.0000
# 4 0.0000 -0.0001 0.0000 39.7700 0.0000 2.3512
# 5 -5.2012 -14.1661 -50.8978 0.0000 62.6575 0.0000
# 6 0.0000 -0.0001 0.0000 2.3512 0.0000 31.8951
#
#
#
# Elastic Compliance Matrix: (Units=1/GPa)
#
#
# Indices 1 2 3 4 5 6 
#
# 1 0.018946 -0.005849 -0.004957 0.000000 -0.003776 0.000000
# 2 -0.005849 0.017424 -0.003734 0.000000 0.000420 0.000000
# 3 -0.004957 -0.003734 0.012710 0.000000 0.009069 0.000000
# 4 0.000000 0.000000 0.000000 0.025255 0.000000 -0.001862
# 5 -0.003776 0.000420 0.009069 0.000000 0.023108 0.000000
# 6 0.000000 0.000000 0.000000 -0.001862 0.000000 0.031490
#
#
# Mechanical properties :
#
#
# Convention : Reuss Voigt Hill
#
# Bulk Modulus (GPa) = 50.00526 60.23296 55.11911
# Shear Modulus (GPa) = 30.36200 38.52635 34.44417
#
# Velocity S-wave (km/s) = 3.49358 3.93536 3.72104
# Velocity P-wave (km/s) = 6.03117 6.69793 6.37328
#
# Compressibility (1/GPa) = 0.01999790
#
# Stress axis : x y z
#
# Youngs Moduli (GPa) = 52.78244 57.39276 78.67867
#
# Poissons Ratio (x) = 0.33571 0.39001
# Poissons Ratio (y) = 0.30874 0.29382
# Poissons Ratio (z) = 0.26164 0.21433
#
# Static dielectric constant tensor:
#      x y z
#    x 2.003980 0.000000 -0.008650 
#    y 0.000000 1.987650 0.000000 
#    z -0.008650 0.000000 2.051520 
# 
# From -- ./inp_files/50589.got.cif
#   From: 2010.05.17/outbox.cif.g08.bks.cpg/sg5_26_cif.got.tgz:50589.got - 2010.06.03 18:56:24.
