data_PCOD9123453
_publ_section_title
;
Structure prediction by ZEFSAII (Michael W. Deem and Ramdas Pophale) SiO2 
 PCOD9123453
Probable space group: C 2
;
_chemical_formula_sum "Si O2"
_cell_formula_units_Z 24
_cell_length_a 10.540676
_cell_length_b 8.393894
_cell_length_c 20.773702
_cell_angle_alpha 90.000000
_cell_angle_beta 151.450215
_cell_angle_gamma 90.000000
_cell_volume 878.421672
_symmetry_space_group_name_H-M "C 2"
_symmetry_group_IT_number 5
_symmetry_cell_setting 'monoclinic'
loop_
_space_group_symop_operation_xyz
x,y,z
-x,y,-z
1/2+x,1/2+y,z
1/2-x,1/2+y,-z
loop_
_atom_site_type_symbol
_atom_site_label
_atom_site_fract_x
_atom_site_fract_y
_atom_site_fract_z
Si Si1 0.000000 0.611730 0.500000
Si Si2 0.117360 0.417360 0.942093
Si Si3 0.499333 0.565513 0.784628
Si Si4 0.290835 0.311313 0.526687
Si Si5 0.000000 0.913082 0.000000
Si Si6 0.650121 0.624767 0.713205
Si Si7 0.720485 0.169979 0.787481
O O1 0.239926 0.503163 0.630947
O O2 0.114741 0.728976 0.497566
O O3 0.303429 0.343111 0.967999
O O4 0.949542 0.562774 0.834378
O O5 0.886471 0.326005 0.878370
O O6 0.316887 0.463638 0.087675
O O7 0.646288 0.647662 0.789580
O O8 0.344065 0.662565 0.770432
O O9 0.448538 0.479463 0.601936
O O10 0.413985 0.204386 0.639399
O O11 0.975473 0.281095 0.376273
O O12 0.809959 0.026555 0.871472
#
# Coordination Sequence:
#
# PCOD9123453 Si02
#       7
#     2   4   4   4   2   4   4
#     4   8  16  36  60  82 126 172 208 256 320 388
#     4  10  21  39  65  94 124 174 213 267 330 382
#     4   9  18  36  62  90 121 165 215 257 323 388
#     4   9  19  37  61  91 123 170 212 260 327 385
#     4  10  22  42  58  96 130 160 226 268 322 394
#     4  10  20  38  65  96 127 170 216 265 325 395
#     4   9  20  39  63  87 127 170 210 271 325 384
#
# _framework density 27.321729000000001
#
# number of rings (size 3 to 8) (size 9 to 14) (size 15 to 20)
#    0.000    2.667    0.000    0.500    4.667    0.000 
#   18.000   10.000    7.333    0.000    0.000    0.000 
#    0.000    0.000    0.000    0.000    0.000    0.000 
#
# Total GULP energy -66836.846817 kJ/mol
# GULP energy per Si atom -5569.737235 kJ/mol
# Density = 2.725954 g / cm^3
# Si number density = 27.321729 Si / 1000 Ang^3
#
#
#
# Elastic Constant Matrix: (Units=GPa)
#
#
# Indices 1 2 3 4 5 6 
#
# 1 130.0076 33.8495 27.5341 0.0018 -11.2995 0.0009
# 2 33.8495 53.4723 24.8736 0.0011 -8.5911 0.0003
# 3 27.5341 24.8736 172.3916 0.0125 -1.7876 0.0026
# 4 0.0018 0.0011 0.0125 42.7965 0.0017 0.9313
# 5 -11.2995 -8.5911 -1.7876 0.0017 24.9217 0.0004
# 6 0.0009 0.0003 0.0026 0.9313 0.0004 51.8716
#
#
#
# Elastic Compliance Matrix: (Units=1/GPa)
#
#
# Indices 1 2 3 4 5 6 
#
# 1 0.009419 -0.005238 -0.000724 0.000000 0.002413 0.000000
# 2 -0.005238 0.024147 -0.002588 0.000000 0.005763 0.000000
# 3 -0.000724 -0.002588 0.006282 -0.000002 -0.000769 0.000000
# 4 0.000000 0.000000 -0.000002 0.023376 -0.000002 -0.000420
# 5 0.002413 0.005763 -0.000769 -0.000002 0.043151 0.000000
# 6 0.000000 0.000000 0.000000 -0.000420 0.000000 0.019286
#
#
# Mechanical properties :
#
#
# Convention : Reuss Voigt Hill
#
# Bulk Modulus (GPa) = 43.95867 58.70954 51.33410
# Shear Modulus (GPa) = 33.25773 41.89225 37.57499
#
# Velocity S-wave (km/s) = 3.49271 3.91998 3.71250
# Velocity P-wave (km/s) = 5.69119 6.48253 6.09970
#
# Compressibility (1/GPa) = 0.02274864
#
# Stress axis : x y z
#
# Youngs Moduli (GPa) = 106.17289 41.41343 159.19286
#
# Poissons Ratio (x) = 0.21692 0.11518
# Poissons Ratio (y) = 0.55614 0.41194
# Poissons Ratio (z) = 0.07682 0.10716
#
# Static dielectric constant tensor:
#      x y z
#    x 2.135230 0.000000 -0.008660 
#    y 0.000000 2.382780 -0.000010 
#    z -0.008660 -0.000010 2.288840 
# 
# From -- ./inp_files/65259.got.cif
#   From: 2010.05.17/outbox.cif.g08.bks.cpg/sg5_33_cif.got.tgz:65259.got - 2010.06.03 18:56:24.
