data_PCOD9123487
_publ_section_title
;
Structure prediction by ZEFSAII (Michael W. Deem and Ramdas Pophale) SiO2 
 PCOD9123487
Probable space group: C 2
;
_chemical_formula_sum "Si O2"
_cell_formula_units_Z 26
_cell_length_a 11.416180
_cell_length_b 21.305960
_cell_length_c 8.008323
_cell_angle_alpha 90.000000
_cell_angle_beta 34.454367
_cell_angle_gamma 90.000000
_cell_volume 1102.015790
_symmetry_space_group_name_H-M "C 2"
_symmetry_group_IT_number 5
_symmetry_cell_setting 'monoclinic'
loop_
_space_group_symop_operation_xyz
x,y,z
-x,y,-z
1/2+x,1/2+y,z
1/2-x,1/2+y,-z
loop_
_atom_site_type_symbol
_atom_site_label
_atom_site_fract_x
_atom_site_fract_y
_atom_site_fract_z
Si Si1 0.747521 0.599080 0.198524
Si Si2 0.262330 0.511109 0.478242
Si Si3 0.643851 0.382787 0.490613
Si Si4 0.500000 0.210178 0.000000
Si Si5 0.720694 0.861970 0.136603
Si Si6 0.858920 0.299460 0.434140
Si Si7 0.763691 0.505094 0.876280
O O1 0.500000 0.611310 0.500000
O O2 0.790984 0.565051 0.325868
O O3 0.874556 0.662917 0.027448
O O4 0.801678 0.552954 0.982616
O O5 0.230004 0.444475 0.608013
O O6 0.176889 0.516952 0.389084
O O7 0.511940 0.508069 0.166548
O O8 0.500000 0.394193 0.500000
O O9 0.798592 0.324742 0.324229
O O10 0.465901 0.360124 0.827076
O O11 0.306702 0.246888 0.314457
O O12 0.607905 0.803678 0.173468
O O13 0.678876 0.853617 0.381184
O O14 0.674748 0.934230 0.143817
#
# Coordination Sequence:
#
# PCOD9123487 Si02
#       7
#     4   4   4   2   4   4   4
#     4  10  23  41  63  96 130 177 220 273 333 400
#     4   9  17  35  63  98 133 162 206 273 349 396
#     4  11  20  36  63  99 142 165 205 279 347 410
#     4  12  26  44  64  88 134 184 240 264 308 412
#     4  10  20  38  66  97 126 165 222 280 343 404
#     4  11  23  39  63  92 121 182 226 266 325 391
#     4   9  17  36  66  99 130 160 208 277 349 403
#
# _framework density 23.593128
#
# number of rings (size 3 to 8) (size 9 to 14) (size 15 to 20)
#    0.000    1.846    3.077    2.308    2.154    1.846 
#    0.000    1.538    0.000    1.846    0.000    0.000 
#    0.000    0.000    0.000    0.000    0.000    0.000 
#
# Total GULP energy -72383.121744 kJ/mol
# GULP energy per Si atom -5567.932442 kJ/mol
# Density = 2.353943 g / cm^3
# Si number density = 23.593128 Si / 1000 Ang^3
#
#
#
# Elastic Constant Matrix: (Units=GPa)
#
#
# Indices 1 2 3 4 5 6 
#
# 1 171.7141 56.8547 22.7376 0.0000 -5.9348 0.0000
# 2 56.8547 124.3142 32.8363 0.0000 -10.0514 0.0000
# 3 22.7376 32.8363 92.6580 0.0000 -5.7201 0.0000
# 4 0.0000 0.0000 0.0000 21.8618 0.0000 -4.3636
# 5 -5.9348 -10.0514 -5.7201 0.0000 39.4627 0.0000
# 6 0.0000 0.0000 0.0000 -4.3636 0.0000 37.3458
#
#
#
# Elastic Compliance Matrix: (Units=1/GPa)
#
#
# Indices 1 2 3 4 5 6 
#
# 1 0.006898 -0.002974 -0.000627 0.000000 0.000189 0.000000
# 2 -0.002974 0.010289 -0.002807 0.000000 0.001766 0.000000
# 3 -0.000627 -0.002807 0.011999 0.000000 0.000930 0.000000
# 4 0.000000 0.000000 0.000000 0.046834 0.000000 0.005472
# 5 0.000189 0.001766 0.000930 0.000000 0.025954 0.000000
# 6 0.000000 0.000000 0.000000 0.005472 0.000000 0.027416
#
#
# Mechanical properties :
#
#
# Convention : Reuss Voigt Hill
#
# Bulk Modulus (GPa) = 61.09305 68.17148 64.63227
# Shear Modulus (GPa) = 33.86130 38.15123 36.00627
#
# Velocity S-wave (km/s) = 3.79254 4.02562 3.91081
# Velocity P-wave (km/s) = 6.71777 7.11089 6.91713
#
# Compressibility (1/GPa) = 0.01636847
#
# Stress axis : x y z
#
# Youngs Moduli (GPa) = 144.97321 97.19583 83.34356
#
# Poissons Ratio (x) = 0.28904 0.05227
# Poissons Ratio (y) = 0.43111 0.23397
# Poissons Ratio (z) = 0.09092 0.27286
#
# Static dielectric constant tensor:
#      x y z
#    x 2.014980 0.000000 -0.086760 
#    y 0.000000 1.877050 0.000000 
#    z -0.086760 0.000000 2.034200 
# 
# From -- ./inp_files/21888.got.cif
#   From: 2010.05.17/outbox.cif.g08.bks.cpg/sg5_11_cif.got.tgz:21888.got - 2010.06.03 18:56:24.
