data_PCOD9123467
_publ_section_title
;
Structure prediction by ZEFSAII (Michael W. Deem and Ramdas Pophale) SiO2 
 PCOD9123467
Probable space group: C 2
;
_chemical_formula_sum "Si O2"
_cell_formula_units_Z 28
_cell_length_a 6.397949
_cell_length_b 12.910235
_cell_length_c 15.226570
_cell_angle_alpha 90.000000
_cell_angle_beta 66.768390
_cell_angle_gamma 90.000000
_cell_volume 1155.722846
_symmetry_space_group_name_H-M "C 2"
_symmetry_group_IT_number 5
_symmetry_cell_setting 'monoclinic'
loop_
_space_group_symop_operation_xyz
x,y,z
-x,y,-z
1/2+x,1/2+y,z
1/2-x,1/2+y,-z
loop_
_atom_site_type_symbol
_atom_site_label
_atom_site_fract_x
_atom_site_fract_y
_atom_site_fract_z
Si Si1 0.835153 0.634460 0.098174
Si Si2 0.670961 0.370060 0.902258
Si Si3 0.970538 0.753718 0.778871
Si Si4 0.360644 0.875539 0.254470
Si Si5 0.516421 0.543350 0.727646
Si Si6 0.519124 0.976730 0.599985
Si Si7 0.834445 0.170007 0.601460
O O1 0.782149 0.751187 0.072305
O O2 0.603854 0.578293 0.162293
O O3 0.975080 0.656586 0.166165
O O4 0.000000 0.582883 0.000000
O O5 0.535582 0.346581 0.834576
O O6 0.916574 0.412778 0.835685
O O7 0.500000 0.420529 0.000000
O O8 0.726774 0.770453 0.776203
O O9 0.144839 0.746808 0.669677
O O10 0.414587 0.880416 0.348527
O O11 0.147671 0.951450 0.278456
O O12 0.778905 0.515693 0.678823
O O13 0.474943 0.633379 0.662946
O O14 0.500000 0.956334 0.500000
O O15 0.701105 0.069342 0.584836
O O16 0.000000 0.210654 0.500000
#
# Coordination Sequence:
#
# PCOD9123467 Si02
#       7
#     4   4   4   4   4   4   4
#     4   8  18  41  64  92 125 163 208 259 308 373
#     4   9  20  41  63  88 125 166 209 249 320 379
#     4   9  20  38  63  92 127 155 211 259 311 378
#     4  11  23  39  63  92 125 173 200 262 324 368
#     4  10  21  40  63  90 127 160 213 259 310 380
#     4  11  23  40  66  86 127 172 210 258 317 383
#     4  10  20  38  66  91 116 166 214 258 320 367
#
# _framework density 24.227262
#
# number of rings (size 3 to 8) (size 9 to 14) (size 15 to 20)
#    0.857    1.429    1.429    0.857    2.000    0.571 
#    5.143    4.286    0.000    0.000    0.000    0.000 
#    0.000    0.000    0.000    0.000    0.000    0.000 
#
# Total GULP energy -78176.968545 kJ/mol
# GULP energy per Si atom -5584.069182 kJ/mol
# Density = 2.417212 g / cm^3
# Si number density = 24.227262 Si / 1000 Ang^3
#
#
#
# Elastic Constant Matrix: (Units=GPa)
#
#
# Indices 1 2 3 4 5 6 
#
# 1 102.1605 24.0801 58.1732 0.0000 -8.6162 0.0000
# 2 24.0801 55.5731 21.8199 0.0000 -0.5078 0.0000
# 3 58.1732 21.8199 205.2688 0.0000 -20.5894 0.0000
# 4 0.0000 0.0000 0.0000 29.4925 0.0000 -0.1625
# 5 -8.6162 -0.5078 -20.5894 0.0000 27.4032 0.0000
# 6 0.0000 0.0000 0.0000 -0.1625 0.0000 16.3416
#
#
#
# Elastic Compliance Matrix: (Units=1/GPa)
#
#
# Indices 1 2 3 4 5 6 
#
# 1 0.012624 -0.004295 -0.002953 0.000000 0.001671 0.000000
# 2 -0.004295 0.020279 -0.001121 0.000000 -0.001817 0.000000
# 3 -0.002953 -0.001121 0.006200 0.000000 0.003709 0.000000
# 4 0.000000 0.000000 0.000000 0.033909 0.000000 0.000337
# 5 0.001671 -0.001817 0.003709 0.000000 0.039770 0.000000
# 6 0.000000 0.000000 0.000000 0.000337 0.000000 0.061197
#
#
# Mechanical properties :
#
#
# Convention : Reuss Voigt Hill
#
# Bulk Modulus (GPa) = 44.71462 63.46099 54.08781
# Shear Modulus (GPa) = 25.23080 31.90942 28.57011
#
# Velocity S-wave (km/s) = 3.23061 3.63311 3.43775
# Velocity P-wave (km/s) = 5.69317 6.62195 6.17504
#
# Compressibility (1/GPa) = 0.02236405
#
# Stress axis : x y z
#
# Youngs Moduli (GPa) = 79.21721 49.31269 161.29580
#
# Poissons Ratio (x) = 0.21180 0.47637
# Poissons Ratio (y) = 0.34024 0.18076
# Poissons Ratio (z) = 0.23396 0.05526
#
# Static dielectric constant tensor:
#      x y z
#    x 1.919520 0.000000 0.018880 
#    y 0.000000 2.036510 0.000000 
#    z 0.018880 0.000000 1.889590 
# 
# From -- ./inp_files/49278.got.cif
#   From: 2010.05.17/outbox.cif.g08.bks.cpg/sg5_25_cif.got.tgz:49278.got - 2010.06.03 18:56:24.
