data_PCOD9123772
_publ_section_title
;
Structure prediction by ZEFSAII (Michael W. Deem and Ramdas Pophale) SiO2 
 PCOD9123772
Probable space group: C 2
;
_chemical_formula_sum "Si O2"
_cell_formula_units_Z 26
_cell_length_a 26.209296
_cell_length_b 7.596744
_cell_length_c 17.136173
_cell_angle_alpha 90.000000
_cell_angle_beta 20.131575
_cell_angle_gamma 90.000000
_cell_volume 1174.299130
_symmetry_space_group_name_H-M "C 2"
_symmetry_group_IT_number 5
_symmetry_cell_setting 'monoclinic'
loop_
_space_group_symop_operation_xyz
x,y,z
-x,y,-z
1/2+x,1/2+y,z
1/2-x,1/2+y,-z
loop_
_atom_site_type_symbol
_atom_site_label
_atom_site_fract_x
_atom_site_fract_y
_atom_site_fract_z
Si Si1 0.142344 0.273710 0.241109
Si Si2 0.108484 0.564575 0.733302
Si Si3 0.500000 0.625868 0.000000
Si Si4 0.669948 0.413521 0.279427
Si Si5 0.139234 0.109389 0.076601
Si Si6 0.679621 0.932773 0.787032
Si Si7 0.929126 0.945513 0.254429
O O1 0.252529 0.438526 0.072146
O O2 0.000000 0.321542 0.500000
O O3 0.213722 0.105095 0.182717
O O4 0.101457 0.195660 0.214537
O O5 0.160406 0.585303 0.750331
O O6 0.255946 0.482190 0.487013
O O7 0.060912 0.737307 0.756843
O O8 0.961243 0.448798 0.952475
O O9 0.485868 0.512169 0.943526
O O10 0.643580 0.754207 0.792255
O O11 0.500000 0.383927 0.500000
O O12 0.770437 0.258327 0.100827
O O13 0.682683 0.421824 0.354821
O O14 0.997902 0.044121 0.229651
#
# Coordination Sequence:
#
# PCOD9123772 Si02
#       7
#     4   4   2   4   4   4   4
#     4  11  26  47  72 108 144 195 247 300 368 436
#     4  10  23  40  66  96 140 175 237 278 363 419
#     4  10  20  40  62  94 132 170 230 272 346 412
#     4  11  24  45  75 106 141 190 242 300 369 435
#     4  12  25  48  73 104 149 192 247 306 363 442
#     4  10  21  43  67  97 137 177 217 301 343 419
#     4  12  24  42  65 103 131 189 230 295 355 432
#
# _framework density 22.140867
#
# number of rings (size 3 to 8) (size 9 to 14) (size 15 to 20)
#    0.000    1.231    3.077    4.154    4.308    0.000 
#    0.000    0.000    0.000    0.000    0.000    0.000 
#    0.000    0.000    0.000    0.000    0.000    0.000 
#
# Total GULP energy -72565.236045 kJ/mol
# GULP energy per Si atom -5581.941234 kJ/mol
# Density = 2.209047 g / cm^3
# Si number density = 22.140867 Si / 1000 Ang^3
#
#
#
# Elastic Constant Matrix: (Units=GPa)
#
#
# Indices 1 2 3 4 5 6 
#
# 1 101.8080 -5.5056 18.9554 0.0000 -5.1779 0.0000
# 2 -5.5056 64.3292 25.3381 0.0000 2.0179 0.0000
# 3 18.9554 25.3381 76.2216 0.0000 -1.8475 0.0000
# 4 0.0000 0.0000 0.0000 25.3428 0.0000 0.4707
# 5 -5.1779 2.0179 -1.8475 0.0000 36.9803 0.0000
# 6 0.0000 0.0000 0.0000 0.4707 0.0000 32.5872
#
#
#
# Elastic Compliance Matrix: (Units=1/GPa)
#
#
# Indices 1 2 3 4 5 6 
#
# 1 0.010624 0.002187 -0.003340 0.000000 0.001201 0.000000
# 2 0.002187 0.018398 -0.006685 0.000000 -0.001032 0.000000
# 3 -0.003340 -0.006685 0.016190 0.000000 0.000706 0.000000
# 4 0.000000 0.000000 0.000000 0.039470 0.000000 -0.000570
# 5 0.001201 -0.001032 0.000706 0.000000 0.027301 0.000000
# 6 0.000000 0.000000 0.000000 -0.000570 0.000000 0.030695
#
#
# Mechanical properties :
#
#
# Convention : Reuss Voigt Hill
#
# Bulk Modulus (GPa) = 33.85744 35.54827 34.70286
# Shear Modulus (GPa) = 29.72705 32.55345 31.14025
#
# Velocity S-wave (km/s) = 3.66817 3.83859 3.75435
# Velocity P-wave (km/s) = 5.76764 5.97802 5.87377
#
# Compressibility (1/GPa) = 0.02953560
#
# Stress axis : x y z
#
# Youngs Moduli (GPa) = 94.12982 54.35493 61.76832
#
# Poissons Ratio (x) = -0.11888 0.20630
# Poissons Ratio (y) = -0.20587 0.41291
# Poissons Ratio (z) = 0.31438 0.36335
#
# Static dielectric constant tensor:
#      x y z
#    x 1.825800 0.000000 0.018750 
#    y 0.000000 1.805640 0.000000 
#    z 0.018750 0.000000 1.860650 
# 
# From -- ./inp_files/47863.got.cif
#   From: 2010.05.17/outbox.cif.g08.bks.cpg/sg5_24_cif.got.tgz:47863.got - 2010.06.03 18:56:24.
