data_PCOD9123721
_publ_section_title
;
Structure prediction by ZEFSAII (Michael W. Deem and Ramdas Pophale) SiO2 
 PCOD9123721
Probable space group: C 2
;
_chemical_formula_sum "Si O2"
_cell_formula_units_Z 28
_cell_length_a 7.720309
_cell_length_b 32.734776
_cell_length_c 5.244642
_cell_angle_alpha 90.000000
_cell_angle_beta 64.948197
_cell_angle_gamma 90.000000
_cell_volume 1200.749183
_symmetry_space_group_name_H-M "C 2"
_symmetry_group_IT_number 5
_symmetry_cell_setting 'monoclinic'
loop_
_space_group_symop_operation_xyz
x,y,z
-x,y,-z
1/2+x,1/2+y,z
1/2-x,1/2+y,-z
loop_
_atom_site_type_symbol
_atom_site_label
_atom_site_fract_x
_atom_site_fract_y
_atom_site_fract_z
Si Si1 0.500000 0.484340 0.000000
Si Si2 0.231865 0.843682 0.336679
Si Si3 0.713122 0.047158 0.244442
Si Si4 0.230059 0.795389 0.839060
Si Si5 0.877577 0.632417 0.830064
Si Si6 0.619166 0.705679 0.182482
Si Si7 0.285469 0.437002 0.741489
Si Si8 0.000000 0.497827 0.000000
O O1 0.379756 0.517695 0.244734
O O2 0.662606 0.453494 0.007011
O O3 0.293145 0.822051 0.558223
O O4 0.280012 0.890851 0.258504
O O5 0.000000 0.843503 0.500000
O O6 0.293782 0.817041 0.057997
O O7 0.500000 0.045586 0.500000
O O8 0.755668 0.094777 0.179128
O O9 0.664296 0.026848 0.004099
O O10 0.294345 0.748737 0.782664
O O11 0.000000 0.795362 0.000000
O O12 0.000000 0.642751 0.500000
O O13 0.770802 0.671955 0.001170
O O14 0.000000 0.617637 0.000000
O O15 0.500000 0.689741 0.500000
O O16 0.500000 0.713708 0.000000
O O17 0.500000 0.441308 0.500000
O O18 0.118001 0.466523 0.748079
#
# Coordination Sequence:
#
# PCOD9123721 Si02
#       8
#     2   4   4   4   4   4   4   2
#     4  10  22  36  64  94 130 184 220 290 334 408
#     4   9  20  36  65  92 126 168 226 275 326 400
#     4  10  21  40  63  91 136 175 233 275 344 400
#     4  10  21  42  67  91 126 177 222 269 337 411
#     4  11  24  45  72  99 135 185 235 281 338 420
#     4  12  26  44  68 104 141 171 224 292 353 416
#     4  10  21  36  61  90 132 170 228 272 340 389
#     4  10  20  40  58  94 124 176 226 274 332 406
#
# _framework density 23.318776
#
# number of rings (size 3 to 8) (size 9 to 14) (size 15 to 20)
#    0.000    1.714    0.714    3.000    6.000    1.714 
#    3.857    0.714    0.000    0.000    0.000    0.000 
#    0.000    0.000    0.000    0.000    0.000    0.000 
#
# Total GULP energy -78096.211463 kJ/mol
# GULP energy per Si atom -5578.300819 kJ/mol
# Density = 2.326570 g / cm^3
# Si number density = 23.318776 Si / 1000 Ang^3
#
#
#
# Elastic Constant Matrix: (Units=GPa)
#
#
# Indices 1 2 3 4 5 6 
#
# 1 85.1140 30.3194 27.2293 0.0000 -6.7907 0.0000
# 2 30.3194 189.9383 65.2996 0.0000 -14.2840 0.0000
# 3 27.2293 65.2996 146.2477 0.0000 -1.0024 0.0000
# 4 0.0000 0.0000 0.0000 31.5446 0.0000 5.5978
# 5 -6.7907 -14.2840 -1.0024 0.0000 27.0188 0.0000
# 6 0.0000 0.0000 0.0000 5.5978 0.0000 8.5616
#
#
#
# Elastic Compliance Matrix: (Units=1/GPa)
#
#
# Indices 1 2 3 4 5 6 
#
# 1 0.012986 -0.001249 -0.001843 0.000000 0.002535 0.000000
# 2 -0.001249 0.006626 -0.002705 0.000000 0.003089 0.000000
# 3 -0.001843 -0.002705 0.008378 0.000000 -0.001582 0.000000
# 4 0.000000 0.000000 0.000000 0.035862 0.000000 -0.023447
# 5 0.002535 0.003089 -0.001582 0.000000 0.039223 0.000000
# 6 0.000000 0.000000 0.000000 -0.023447 0.000000 0.132130
#
#
# Mechanical properties :
#
#
# Convention : Reuss Voigt Hill
#
# Bulk Modulus (GPa) = 60.98774 74.11072 67.54923
# Shear Modulus (GPa) = 19.82052 33.32179 26.57116
#
# Velocity S-wave (km/s) = 2.91861 3.78427 3.37927
# Velocity P-wave (km/s) = 6.12931 7.13756 6.65256
#
# Compressibility (1/GPa) = 0.01639674
#
# Stress axis : x y z
#
# Youngs Moduli (GPa) = 77.00859 150.90974 119.36313
#
# Poissons Ratio (x) = 0.18843 0.21997
# Poissons Ratio (y) = 0.09616 0.32289
# Poissons Ratio (z) = 0.14191 0.40822
#
# Static dielectric constant tensor:
#      x y z
#    x 1.879450 0.000000 0.051040 
#    y 0.000000 1.839580 0.000000 
#    z 0.051040 0.000000 1.953350 
# 
# From -- ./inp_files/3908.got.cif
#   From: 2010.05.17/outbox.cif.g08.bks.cpg/sg5_2_cif.got.tgz:3908.got - 2010.06.03 18:56:24.
