data_PCOD9123248
_publ_section_title
;
Structure prediction by ZEFSAII (Michael W. Deem and Ramdas Pophale) SiO2 
 PCOD9123248
Probable space group: C 2
;
_chemical_formula_sum "Si O2"
_cell_formula_units_Z 28
_cell_length_a 6.848205
_cell_length_b 12.842640
_cell_length_c 17.243051
_cell_angle_alpha 90.000000
_cell_angle_beta 67.668450
_cell_angle_gamma 90.000000
_cell_volume 1402.772368
_symmetry_space_group_name_H-M "C 2"
_symmetry_group_IT_number 5
_symmetry_cell_setting 'monoclinic'
loop_
_space_group_symop_operation_xyz
x,y,z
-x,y,-z
1/2+x,1/2+y,z
1/2-x,1/2+y,-z
loop_
_atom_site_type_symbol
_atom_site_label
_atom_site_fract_x
_atom_site_fract_y
_atom_site_fract_z
Si Si1 0.867899 0.175850 0.768055
Si Si2 0.699400 0.338363 0.917375
Si Si3 0.010943 0.430864 0.409880
Si Si4 0.737206 0.277784 0.374106
Si Si5 0.081292 0.962069 0.152899
Si Si6 0.408747 0.302868 0.293671
Si Si7 0.000000 0.631449 0.500000
Si Si8 0.500000 0.925657 0.000000
O O1 0.774908 0.246223 0.851053
O O2 0.695193 0.198646 0.726581
O O3 0.081374 0.227205 0.704749
O O4 0.922685 0.061422 0.790248
O O5 0.610566 0.435634 0.878494
O O6 0.889893 0.365180 0.945909
O O7 0.500000 0.306750 0.000000
O O8 0.219269 0.385465 0.337640
O O9 0.000201 0.553620 0.426760
O O10 0.000000 0.388220 0.500000
O O11 0.814838 0.389337 0.390971
O O12 0.528072 0.284059 0.355216
O O13 0.696731 0.205723 0.454788
O O14 0.069140 0.858877 0.209061
O O15 0.295482 0.977899 0.070882
#
# Coordination Sequence:
#
# PCOD9123248 Si02
#       8
#     4   4   4   4   4   4   2   2
#     4  10  22  37  58  87 117 153 196 243 290 352
#     4   9  20  39  57  82 121 154 192 251 289 339
#     4   9  21  39  56  82 120 149 189 253 285 345
#     4  11  21  38  61  85 115 157 199 238 300 352
#     4  10  21  37  57  85 119 155 196 241 296 349
#     4  10  21  38  59  84 119 152 195 249 288 343
#     4  10  22  38  60  88 118 154 198 240 294 358
#     4  10  20  38  58  82 112 156 196 240 298 340
#
# _framework density 19.960474000000001
#
# number of rings (size 3 to 8) (size 9 to 14) (size 15 to 20)
#    0.429    1.714    0.000    2.571    1.000    2.286 
#    3.857    4.286    0.000    0.000    0.000    0.000 
#    0.000    0.000    0.000    0.000    0.000    0.000 
#
# Total GULP energy -77952.683912 kJ/mol
# GULP energy per Si atom -5568.048851 kJ/mol
# Density = 1.991504 g / cm^3
# Si number density = 19.960474 Si / 1000 Ang^3
#
#
#
# Elastic Constant Matrix: (Units=GPa)
#
#
# Indices 1 2 3 4 5 6 
#
# 1 105.3084 29.3992 11.3633 0.0000 19.3641 0.0000
# 2 29.3992 62.0077 5.5881 0.0000 -6.3259 0.0000
# 3 11.3633 5.5881 65.7051 0.0000 -7.4727 0.0000
# 4 0.0000 0.0000 0.0000 36.8637 0.0000 6.4658
# 5 19.3641 -6.3259 -7.4727 0.0000 29.0946 0.0000
# 6 0.0000 0.0000 0.0000 6.4658 0.0000 17.7275
#
#
#
# Elastic Compliance Matrix: (Units=1/GPa)
#
#
# Indices 1 2 3 4 5 6 
#
# 1 0.014156 -0.007641 -0.003151 0.000000 -0.011892 0.000000
# 2 -0.007641 0.020684 0.000672 0.000000 0.009755 0.000000
# 3 -0.003151 0.000672 0.016443 0.000000 0.006466 0.000000
# 4 0.000000 0.000000 0.000000 0.028981 0.000000 -0.010570
# 5 -0.011892 0.009755 0.006466 0.000000 0.046067 0.000000
# 6 0.000000 0.000000 0.000000 -0.010570 0.000000 0.060265
#
#
# Mechanical properties :
#
#
# Convention : Reuss Voigt Hill
#
# Bulk Modulus (GPa) = 32.21327 36.19135 34.20231
# Shear Modulus (GPa) = 23.02201 29.18185 26.10193
#
# Velocity S-wave (km/s) = 3.39983 3.82774 3.62011
# Velocity P-wave (km/s) = 5.62008 6.14054 5.88607
#
# Compressibility (1/GPa) = 0.03104311
#
# Stress axis : x y z
#
# Youngs Moduli (GPa) = 70.64295 48.34574 60.81717
#
# Poissons Ratio (x) = 0.36940 0.19162
# Poissons Ratio (y) = 0.53977 -0.04085
# Poissons Ratio (z) = 0.22258 -0.03248
#
# Static dielectric constant tensor:
#      x y z
#    x 1.698390 0.000000 0.015730 
#    y 0.000000 1.683320 0.000000 
#    z 0.015730 0.000000 1.742150 
# 
# From -- ./inp_files/58770.got.cif
#   From: 2010.05.17/outbox.cif.g08.bks.cpg/sg5_30_cif.got.tgz:58770.got - 2010.06.03 18:56:24.
