data_PCOD9123716
_publ_section_title
;
Structure prediction by ZEFSAII (Michael W. Deem and Ramdas Pophale) SiO2 
 PCOD9123716
Probable space group: C 2
;
_chemical_formula_sum "Si O2"
_cell_formula_units_Z 30
_cell_length_a 15.567431
_cell_length_b 11.839481
_cell_length_c 15.336429
_cell_angle_alpha 90.000000
_cell_angle_beta 143.024971
_cell_angle_gamma 90.000000
_cell_volume 1700.143560
_symmetry_space_group_name_H-M "C 2"
_symmetry_group_IT_number 5
_symmetry_cell_setting 'monoclinic'
loop_
_space_group_symop_operation_xyz
x,y,z
-x,y,-z
1/2+x,1/2+y,z
1/2-x,1/2+y,-z
loop_
_atom_site_type_symbol
_atom_site_label
_atom_site_fract_x
_atom_site_fract_y
_atom_site_fract_z
Si Si1 0.500000 0.390880 0.500000
Si Si2 0.016513 0.600738 0.258091
Si Si3 0.722634 0.534449 0.943655
Si Si4 0.818548 0.100618 0.409826
Si Si5 0.395395 0.705283 0.290251
Si Si6 0.650967 0.599894 0.075903
Si Si7 0.922196 0.465353 0.344327
Si Si8 0.856200 0.801014 0.212642
O O1 0.379130 0.475387 0.439991
O O2 0.433847 0.320184 0.367826
O O3 0.167545 0.600751 0.333984
O O4 0.015300 0.533012 0.348508
O O5 0.958454 0.725614 0.234210
O O6 0.891726 0.543415 0.099239
O O7 0.673759 0.641307 0.846787
O O8 0.680252 0.421035 0.859075
O O9 0.649241 0.542665 0.978936
O O10 0.817332 0.163325 0.315407
O O11 0.941346 0.163029 0.565342
O O12 0.393125 0.839688 0.285481
O O13 0.772681 0.532383 0.227959
O O14 0.715739 0.724798 0.113468
O O15 0.500000 0.599771 0.000000
O O16 0.000000 0.458255 0.500000
#
# Coordination Sequence:
#
# PCOD9123716 Si02
#       8
#     2   4   4   4   4   4   4   4
#     4  10  20  40  62  84 124 156 192 244 294 344
#     4  10  26  34  61  92 118 151 203 241 292 353
#     4  10  21  42  62  82 125 158 191 242 299 346
#     4  10  20  40  55  98 112 151 209 238 286 344
#     4  10  20  40  62  84 124 156 192 244 294 344
#     4  10  26  40  61  92 118 154 200 241 292 353
#     4  10  21  42  62  82 125 158 191 242 299 346
#     4  10  21  42  62  82 125 158 191 242 299 346
#
# _framework density 17.645568000000001
#
# number of rings (size 3 to 8) (size 9 to 14) (size 15 to 20)
#    0.000    2.400    4.000    0.000   11.200    4.800 
#    0.000    0.000    0.000    0.000    0.000    0.000 
#    0.000    0.000    0.000    0.000    0.000    0.000 
#
# Total GULP energy -83691.229408 kJ/mol
# GULP energy per Si atom -5579.415294 kJ/mol
# Density = 1.760541 g / cm^3
# Si number density = 17.645568 Si / 1000 Ang^3
#
#
#
# Elastic Constant Matrix: (Units=GPa)
#
#
# Indices 1 2 3 4 5 6 
#
# 1 124.4933 43.4286 76.0460 0.0000 42.8514 0.0000
# 2 43.4286 97.8768 48.3612 0.0000 -6.1430 0.0000
# 3 76.0460 48.3612 85.8333 0.0000 -0.7371 0.0000
# 4 0.0000 0.0000 0.0000 15.7522 0.0000 -9.6864
# 5 42.8514 -6.1430 -0.7371 0.0000 39.0203 0.0000
# 6 0.0000 0.0000 0.0000 -9.6864 0.0000 8.2805
#
#
#
# Elastic Compliance Matrix: (Units=1/GPa)
#
#
# Indices 1 2 3 4 5 6 
#
# 1 0.126406 -0.012623 -0.106107 0.000000 -0.142809 0.000000
# 2 -0.012623 0.015590 0.002540 0.000000 0.016364 0.000000
# 3 -0.106107 0.002540 0.105248 0.000000 0.118913 0.000000
# 4 0.000000 0.000000 0.000000 0.226181 0.000000 0.264582
# 5 -0.142809 0.016364 0.118913 0.000000 0.187280 -0.000001
# 6 0.000000 0.000000 0.000000 0.264582 -0.000001 0.430268
#
#
# Mechanical properties :
#
#
# Convention : Reuss Voigt Hill
#
# Bulk Modulus (GPa) = 67.27026 71.54166 69.40596
# Shear Modulus (GPa) = 3.76419 21.96845 12.86632
#
# Velocity S-wave (km/s) = 1.46214 3.53226 2.70321
# Velocity P-wave (km/s) = 6.40752 7.56753 7.01155
#
# Compressibility (1/GPa) = 0.01486541
#
# Stress axis : x y z
#
# Youngs Moduli (GPa) = 7.91099 64.14511 9.50133
#
# Poissons Ratio (x) = 0.80968 1.00816
# Poissons Ratio (y) = 0.09986 -0.02413
# Poissons Ratio (z) = 0.83941 -0.16294
#
# Static dielectric constant tensor:
#      x y z
#    x 1.573630 0.000000 -0.020100 
#    y 0.000000 1.608930 0.000000 
#    z -0.020100 0.000000 1.597240 
# 
# From -- ./inp_files/62333.got.cif
#   From: 2010.05.17/outbox.cif.g08.bks.cpg/sg5_32_cif.got.tgz:62333.got - 2010.06.03 18:56:24.
