data_PCOD9123160
_publ_section_title
;
Structure prediction by ZEFSAII (Michael W. Deem and Ramdas Pophale) SiO2 
 PCOD9123160
Probable space group: C 2
;
_chemical_formula_sum "Si O2"
_cell_formula_units_Z 30
_cell_length_a 11.762085
_cell_length_b 15.233769
_cell_length_c 17.793202
_cell_angle_alpha 90.000000
_cell_angle_beta 150.156223
_cell_angle_gamma 90.000000
_cell_volume 1586.566600
_symmetry_space_group_name_H-M "C 2"
_symmetry_group_IT_number 5
_symmetry_cell_setting 'monoclinic'
loop_
_space_group_symop_operation_xyz
x,y,z
-x,y,-z
1/2+x,1/2+y,z
1/2-x,1/2+y,-z
loop_
_atom_site_type_symbol
_atom_site_label
_atom_site_fract_x
_atom_site_fract_y
_atom_site_fract_z
Si Si1 0.607693 0.361070 0.639816
Si Si2 0.060994 0.779394 0.850219
Si Si3 0.365341 0.456959 0.192832
Si Si4 0.184870 0.716438 0.435493
Si Si5 0.480114 0.746496 0.184391
Si Si6 0.000000 0.593858 0.000000
Si Si7 0.298392 0.747721 0.238897
Si Si8 0.771955 0.583628 0.415618
O O1 0.500000 0.394672 0.500000
O O2 0.662124 0.431333 0.735265
O O3 0.432442 0.290134 0.577291
O O4 0.837072 0.310280 0.748284
O O5 0.941088 0.724287 0.715675
O O6 0.871855 0.799943 0.805218
O O7 0.150533 0.868850 0.864253
O O8 0.273451 0.729870 0.009275
O O9 0.615674 0.498586 0.329594
O O10 0.178584 0.528862 0.062599
O O11 0.455101 0.733825 0.582249
O O12 0.165271 0.624206 0.467334
O O13 0.362258 0.783916 0.192835
O O14 0.618424 0.660400 0.289435
O O15 0.159453 0.657473 0.141635
O O16 0.000000 0.569877 0.500000
#
# Coordination Sequence:
#
# PCOD9123160 Si02
#       8
#     4   4   4   4   4   2   4   4
#     4  11  20  40  63  91 121 162 208 249 298 369
#     4  11  23  37  60  98 122 152 208 262 293 356
#     4  11  25  37  60  96 126 153 198 264 312 344
#     4  10  20  37  64  87 119 157 211 245 293 360
#     4  11  19  39  69  87 118 168 207 240 297 379
#     4  12  20  42  60  88 126 162 202 236 318 368
#     4  11  20  38  68  85 119 169 207 237 297 379
#     4  11  20  42  65  86 124 167 201 242 311 375
#
# _framework density 18.908757000000001
#
# number of rings (size 3 to 8) (size 9 to 14) (size 15 to 20)
#    0.000    1.067    8.000    1.200    0.000    3.733 
#    2.400    0.000    0.000    0.000    0.000    0.000 
#    0.000    0.000    0.000    0.000    0.000    0.000 
#
# Total GULP energy -83701.710159 kJ/mol
# GULP energy per Si atom -5580.114011 kJ/mol
# Density = 1.886572 g / cm^3
# Si number density = 18.908757 Si / 1000 Ang^3
#
#
#
# Elastic Constant Matrix: (Units=GPa)
#
#
# Indices 1 2 3 4 5 6 
#
# 1 103.2117 19.0395 53.7160 -0.0009 8.9090 -0.0010
# 2 19.0395 30.5440 18.6745 0.0016 -0.0911 0.0000
# 3 53.7160 18.6745 134.3942 -0.0013 -0.9942 -0.0002
# 4 -0.0009 0.0016 -0.0013 22.5869 -0.0006 14.5671
# 5 8.9090 -0.0911 -0.9942 -0.0006 32.0529 -0.0008
# 6 -0.0010 0.0000 -0.0002 14.5671 -0.0008 25.5757
#
#
#
# Elastic Compliance Matrix: (Units=1/GPa)
#
#
# Indices 1 2 3 4 5 6 
#
# 1 0.013467 -0.005571 -0.004637 0.000000 -0.003903 0.000000
# 2 -0.005571 0.038084 -0.003054 -0.000005 0.001562 0.000002
# 3 -0.004637 -0.003054 0.009730 0.000001 0.001582 -0.000001
# 4 0.000000 -0.000005 0.000001 0.069979 0.000000 -0.039858
# 5 -0.003903 0.001562 0.001582 0.000000 0.032337 0.000001
# 6 0.000000 0.000002 -0.000001 -0.039858 0.000001 0.061801
#
#
# Mechanical properties :
#
#
# Convention : Reuss Voigt Hill
#
# Bulk Modulus (GPa) = 28.77103 50.11221 39.44162
# Shear Modulus (GPa) = 18.97477 27.82443 23.39960
#
# Velocity S-wave (km/s) = 3.17123 3.84019 3.52163
# Velocity P-wave (km/s) = 5.35329 6.79870 6.11883
#
# Compressibility (1/GPa) = 0.03475719
#
# Stress axis : x y z
#
# Youngs Moduli (GPa) = 74.25651 26.25783 102.77169
#
# Poissons Ratio (x) = 0.14628 0.47659
# Poissons Ratio (y) = 0.41368 0.31383
# Poissons Ratio (z) = 0.34435 0.08018
#
# Static dielectric constant tensor:
#      x y z
#    x 1.669870 0.000000 -0.001330 
#    y 0.000000 1.637090 0.000000 
#    z -0.001330 0.000000 1.667730 
# 
# From -- ./inp_files/20685.got.cif
#   From: 2010.05.17/outbox.cif.g08.bks.cpg/sg5_11_cif.got.tgz:20685.got - 2010.06.03 18:56:24.
