data_PCOD9123888
_publ_section_title
;
Structure prediction by ZEFSAII (Michael W. Deem and Ramdas Pophale) SiO2 
 PCOD9123888
Probable space group: C 2
;
_chemical_formula_sum "Si O2"
_cell_formula_units_Z 24
_cell_length_a 10.825069
_cell_length_b 11.756218
_cell_length_c 8.978591
_cell_angle_alpha 90.000000
_cell_angle_beta 94.290278
_cell_angle_gamma 90.000000
_cell_volume 1139.430453
_symmetry_space_group_name_H-M "C 2"
_symmetry_group_IT_number 5
_symmetry_cell_setting 'monoclinic'
loop_
_space_group_symop_operation_xyz
x,y,z
-x,y,-z
1/2+x,1/2+y,z
1/2-x,1/2+y,-z
loop_
_atom_site_type_symbol
_atom_site_label
_atom_site_fract_x
_atom_site_fract_y
_atom_site_fract_z
Si Si1 0.603836 0.768290 0.140664
Si Si2 0.146039 0.473209 0.975000
Si Si3 0.736429 0.610766 0.777282
Si Si4 0.239210 0.873715 0.297790
Si Si5 0.385617 0.936405 0.592320
Si Si6 0.031267 0.026457 0.175794
O O1 0.572674 0.838262 0.287689
O O2 0.620046 0.638382 0.188741
O O3 0.500000 0.756730 0.000000
O O4 0.694261 0.859022 0.067666
O O5 0.175978 0.448660 0.807598
O O6 0.214864 0.579433 0.053387
O O7 0.000000 0.484952 0.000000
O O8 0.744084 0.743149 0.745648
O O9 0.826059 0.539809 0.677537
O O10 0.596066 0.565095 0.757801
O O11 0.282849 0.889084 0.470015
O O12 0.102171 0.922239 0.256708
O O13 0.500000 0.971243 0.500000
O O14 0.000000 0.000128 0.000000
#
# Coordination Sequence:
#
# PCOD9123888 Si02
#       6
#     4   4   4   4   4   4
#     4   9  19  39  72  92 126 177 233 283 342 417
#     4  10  20  40  67  96 130 177 237 289 347 419
#     4  11  24  44  65  97 143 182 227 294 355 410
#     4  12  25  41  71 102 137 185 237 288 349 424
#     4  11  24  44  65  98 137 182 237 288 351 417
#     4  11  22  43  69 104 135 178 242 289 349 421
#
# _framework density 21.063154000000001
#
# number of rings (size 3 to 8) (size 9 to 14) (size 15 to 20)
#    0.000    1.333    1.667    7.000    2.333    1.333 
#    3.000    0.000    0.000    0.000    0.000    0.000 
#    0.000    0.000    0.000    0.000    0.000    0.000 
#
# Total GULP energy -66958.522978 kJ/mol
# GULP energy per Si atom -5579.876915 kJ/mol
# Density = 2.101521 g / cm^3
# Si number density = 21.063154 Si / 1000 Ang^3
#
#
#
# Elastic Constant Matrix: (Units=GPa)
#
#
# Indices 1 2 3 4 5 6 
#
# 1 104.8493 59.3725 32.4662 0.0000 -5.2688 0.0000
# 2 59.3725 96.1363 48.9360 0.0000 9.4599 0.0000
# 3 32.4662 48.9360 118.8688 0.0000 -0.6365 0.0000
# 4 0.0000 0.0000 0.0000 27.5744 0.0000 2.1214
# 5 -5.2688 9.4599 -0.6365 0.0000 35.4125 0.0000
# 6 0.0000 0.0000 0.0000 2.1214 0.0000 25.8962
#
#
#
# Elastic Compliance Matrix: (Units=1/GPa)
#
#
# Indices 1 2 3 4 5 6 
#
# 1 0.015480 -0.010009 -0.000081 0.000000 0.004975 0.000000
# 2 -0.010009 0.020110 -0.005582 0.000000 -0.006961 0.000000
# 3 -0.000081 -0.005582 0.010742 0.000000 0.001672 0.000000
# 4 0.000000 0.000000 0.000000 0.036496 0.000000 -0.002990
# 5 0.004975 -0.006961 0.001672 0.000000 0.030869 0.000000
# 6 0.000000 0.000000 0.000000 -0.002990 0.000000 0.038861
#
#
# Mechanical properties :
#
#
# Convention : Reuss Voigt Hill
#
# Bulk Modulus (GPa) = 66.72210 66.82266 66.77238
# Shear Modulus (GPa) = 26.46950 29.71528 28.09239
#
# Velocity S-wave (km/s) = 3.54880 3.76010 3.65598
# Velocity P-wave (km/s) = 6.96692 7.11652 7.04212
#
# Compressibility (1/GPa) = 0.01498754
#
# Stress axis : x y z
#
# Youngs Moduli (GPa) = 64.59865 49.72707 93.09340
#
# Poissons Ratio (x) = 0.49770 0.00754
# Poissons Ratio (y) = 0.64655 0.51969
# Poissons Ratio (z) = 0.00523 0.27760
#
# Static dielectric constant tensor:
#      x y z
#    x 1.831370 0.000000 -0.012040 
#    y 0.000000 1.777870 0.000000 
#    z -0.012040 0.000000 1.777880 
# 
# From -- ./inp_files/19330.got.cif
#   From: 2010.05.17/outbox.cif.g08.bks.cpg/sg5_10_cif.got.tgz:19330.got - 2010.06.03 18:56:24.
