data_PCOD9123682
_publ_section_title
;
Structure prediction by ZEFSAII (Michael W. Deem and Ramdas Pophale) SiO2 
 PCOD9123682
Probable space group: C 2
;
_chemical_formula_sum "Si O2"
_cell_formula_units_Z 18
_cell_length_a 7.315703
_cell_length_b 17.335515
_cell_length_c 9.069933
_cell_angle_alpha 90.000000
_cell_angle_beta 130.260600
_cell_angle_gamma 90.000000
_cell_volume 877.780037
_symmetry_space_group_name_H-M "C 2"
_symmetry_group_IT_number 5
_symmetry_cell_setting 'monoclinic'
loop_
_space_group_symop_operation_xyz
x,y,z
-x,y,-z
1/2+x,1/2+y,z
1/2-x,1/2+y,-z
loop_
_atom_site_type_symbol
_atom_site_label
_atom_site_fract_x
_atom_site_fract_y
_atom_site_fract_z
Si Si1 0.884094 0.224540 0.595688
Si Si2 0.757019 0.123997 0.049190
Si Si3 0.550754 0.076378 0.365321
Si Si4 0.249533 0.474101 0.207440
Si Si5 0.000000 0.846173 0.500000
O O1 0.719310 0.150463 0.473692
O O2 0.720515 0.292146 0.571975
O O3 0.000000 0.247005 0.500000
O O4 0.078788 0.194158 0.815098
O O5 0.858651 0.043642 0.167734
O O6 0.500000 0.133064 0.000000
O O7 0.684767 0.108701 0.842932
O O8 0.500000 0.044360 0.500000
O O9 0.674930 0.014613 0.322945
O O10 0.417472 0.402485 0.325650
O O11 0.000000 0.451046 0.000000
#
# Coordination Sequence:
#
# PCOD9123682 Si02
#       5
#     4   4   4   4   2
#     4  12  22  40  63  97 134 169 209 270 317 384
#     4   9  19  39  71  91 122 169 220 266 315 368
#     4  10  20  39  68 101 117 163 224 267 319 367
#     4   9  20  42  65  90 130 170 210 266 316 380
#     4  12  26  38  62 100 136 174 202 254 344 382
#
# _framework density 20.506278999999999
#
# number of rings (size 3 to 8) (size 9 to 14) (size 15 to 20)
#    0.000    2.222    5.556    1.333    0.000    3.556 
#    0.000    0.000    0.000    2.667    0.000    0.000 
#    0.000    0.000    0.000    0.000    0.000    0.000 
#
# Total GULP energy -50285.468663 kJ/mol
# GULP energy per Si atom -5587.274296 kJ/mol
# Density = 2.045961 g / cm^3
# Si number density = 20.506279 Si / 1000 Ang^3
#
#
#
# Elastic Constant Matrix: (Units=GPa)
#
#
# Indices 1 2 3 4 5 6 
#
# 1 54.3709 33.9132 35.1135 0.0000 -4.2710 0.0000
# 2 33.9132 94.5886 48.6170 0.0000 27.7565 0.0000
# 3 35.1135 48.6170 133.8761 0.0000 -1.3732 0.0000
# 4 0.0000 0.0000 0.0000 32.5401 0.0000 12.5057
# 5 -4.2710 27.7565 -1.3732 0.0000 33.4401 0.0000
# 6 0.0000 0.0000 0.0000 12.5057 0.0000 6.5625
#
#
#
# Elastic Compliance Matrix: (Units=1/GPa)
#
#
# Indices 1 2 3 4 5 6 
#
# 1 0.029924 -0.013802 -0.002681 0.000000 0.015168 0.000000
# 2 -0.013802 0.025216 -0.005772 0.000000 -0.022930 0.000000
# 3 -0.002681 -0.005772 0.010319 0.000000 0.004873 0.000000
# 4 0.000000 0.000000 0.000000 0.114822 0.000000 -0.218807
# 5 0.015168 -0.022930 0.004873 0.000000 0.051074 0.000000
# 6 0.000000 0.000000 0.000000 -0.218807 0.000000 0.569342
#
#
# Mechanical properties :
#
#
# Convention : Reuss Voigt Hill
#
# Bulk Modulus (GPa) = 47.73527 57.56924 52.65226
# Shear Modulus (GPa) = 5.86724 25.52135 15.69429
#
# Velocity S-wave (km/s) = 1.69334 3.53166 2.76948
# Velocity P-wave (km/s) = 5.21077 6.69067 5.99655
#
# Compressibility (1/GPa) = 0.02094887
#
# Stress axis : x y z
#
# Youngs Moduli (GPa) = 33.41847 39.65727 96.90875
#
# Poissons Ratio (x) = 0.54733 0.25980
# Poissons Ratio (y) = 0.46123 0.55940
# Poissons Ratio (z) = 0.08959 0.22892
#
# Static dielectric constant tensor:
#      x y z
#    x 1.827180 0.000000 -0.001340 
#    y 0.000000 1.685650 0.000000 
#    z -0.001340 0.000000 1.790800 
# 
# From -- ./inp_files/15910.got.cif
#   From: 2010.05.17/outbox.cif.g08.bks.cpg/sg5_8_cif.got.tgz:15910.got - 2010.06.03 18:56:24.
