data_PCOD9123399
_publ_section_title
;
Structure prediction by ZEFSAII (Michael W. Deem and Ramdas Pophale) SiO2 
 PCOD9123399
Probable space group: C 2
;
_chemical_formula_sum "Si O2"
_cell_formula_units_Z 28
_cell_length_a 5.467162
_cell_length_b 32.476459
_cell_length_c 7.899563
_cell_angle_alpha 90.000000
_cell_angle_beta 60.094694
_cell_angle_gamma 90.000000
_cell_volume 1215.844195
_symmetry_space_group_name_H-M "C 2"
_symmetry_group_IT_number 5
_symmetry_cell_setting 'monoclinic'
loop_
_space_group_symop_operation_xyz
x,y,z
-x,y,-z
1/2+x,1/2+y,z
1/2-x,1/2+y,-z
loop_
_atom_site_type_symbol
_atom_site_label
_atom_site_fract_x
_atom_site_fract_y
_atom_site_fract_z
Si Si1 0.828164 0.842660 0.238282
Si Si2 0.830843 0.937354 0.236912
Si Si3 0.954037 0.135693 0.326227
Si Si4 0.172559 0.297176 0.760738
Si Si5 0.000000 0.672303 0.000000
Si Si6 0.166729 0.484725 0.764485
Si Si7 0.272064 0.208026 0.783424
Si Si8 0.000000 0.057219 0.500000
O O1 0.788247 0.890074 0.302633
O O2 0.534215 0.820193 0.297101
O O3 0.035255 0.819803 0.296693
O O4 0.000000 0.842697 0.000000
O O5 0.537966 0.959704 0.291145
O O6 0.042291 0.960996 0.289881
O O7 0.000000 0.936430 0.000000
O O8 0.235308 0.142337 0.118316
O O9 0.896685 0.088013 0.386099
O O10 0.000000 0.152425 0.500000
O O11 0.734044 0.165166 0.312034
O O12 0.239978 0.249823 0.693087
O O13 0.000000 0.296492 0.000000
O O14 0.982402 0.703485 0.164843
O O15 0.255053 0.528163 0.654817
O O16 0.000000 0.489640 0.000000
O O17 0.000000 0.207522 0.000000
#
# Coordination Sequence:
#
# PCOD9123399 Si02
#       8
#     4   4   4   4   2   4   4   2
#     4   9  16  27  48  87 122 162 200 259 297 370
#     4   9  18  35  59  87 128 163 205 247 327 376
#     4   9  22  41  59  91 122 161 216 259 323 384
#     4   9  17  25  49  84 128 158 209 255 300 360
#     4  10  20  38  64  84 124 172 202 264 318 380
#     4  10  21  40  63  92 123 163 202 266 315 388
#     4   9  19  34  56  87 125 171 209 256 316 376
#     4  10  24  42  62  94 118 158 222 262 330 380
#
# _framework density 23.029267000000001
#
# number of rings (size 3 to 8) (size 9 to 14) (size 15 to 20)
#    0.429    2.286    0.000    0.857    8.000    4.571 
#    5.143    2.143    0.000    0.000    7.429    0.000 
#    0.000    0.000    0.000    0.000    0.000    0.000 
#
# Total GULP energy -78153.500929 kJ/mol
# GULP energy per Si atom -5582.392923 kJ/mol
# Density = 2.297685 g / cm^3
# Si number density = 23.029267 Si / 1000 Ang^3
#
#
#
# Elastic Constant Matrix: (Units=GPa)
#
#
# Indices 1 2 3 4 5 6 
#
# 1 155.3724 97.4458 32.3587 0.0000 -5.3568 0.0000
# 2 97.4458 209.8124 27.4131 0.0000 -0.9512 0.0000
# 3 32.3587 27.4131 83.2352 0.0000 -16.9260 0.0000
# 4 0.0000 0.0000 0.0000 -104.3355 0.0000 52.6856
# 5 -5.3568 -0.9512 -16.9260 0.0000 35.5218 0.0000
# 6 0.0000 0.0000 0.0000 52.6856 0.0000 -4.1092
#
#
#
# Elastic Compliance Matrix: (Units=1/GPa)
#
#
# Indices 1 2 3 4 5 6 
#
# 1 0.009500 -0.004112 -0.002292 0.000000 0.000230 0.000000
# 2 -0.004112 0.006777 -0.000800 0.000000 -0.000820 0.000000
# 3 -0.002292 -0.000800 0.014499 0.000000 0.006542 0.000000
# 4 0.000000 0.000000 0.000000 0.001751 0.000000 0.022448
# 5 0.000230 -0.000820 0.006542 0.000000 0.031282 0.000000
# 6 0.000000 0.000000 0.000000 0.022448 0.000000 0.044454
#
#
# Mechanical properties :
#
#
# Convention : Reuss Voigt Hill
#
# Bulk Modulus (GPa) = 61.09609 84.76167 72.92888
# Shear Modulus (GPa) = 39.02378 4.82890 21.92634
#
# Velocity S-wave (km/s) = 4.12093 1.44962 3.08897
# Velocity P-wave (km/s) = 7.01642 6.29983 6.66776
#
# Compressibility (1/GPa) = 0.01636766
#
# Stress axis : x y z
#
# Youngs Moduli (GPa) = 105.25951 147.56496 68.96995
#
# Poissons Ratio (x) = 0.60676 0.15810
# Poissons Ratio (y) = 0.43281 0.05518
# Poissons Ratio (z) = 0.24129 0.11806
#
# Static dielectric constant tensor:
#      x y z
#    x 2.058120 0.000000 0.097210 
#    y 0.000000 1.810150 0.000000 
#    z 0.097210 0.000000 2.064050 
# 
# From -- ./inp_files/13328.got.cif
#   From: 2010.05.17/outbox.cif.g08.bks.cpg/sg5_7_cif.got.tgz:13328.got - 2010.06.03 18:56:24.
