data_PCOD9123496
_publ_section_title
;
Structure prediction by ZEFSAII (Michael W. Deem and Ramdas Pophale) SiO2 
 PCOD9123496
Probable space group: C 2
;
_chemical_formula_sum "Si O2"
_cell_formula_units_Z 22
_cell_length_a 17.510545
_cell_length_b 8.161980
_cell_length_c 8.163252
_cell_angle_alpha 90.000000
_cell_angle_beta 139.103870
_cell_angle_gamma 90.000000
_cell_volume 763.825126
_symmetry_space_group_name_H-M "C 2"
_symmetry_group_IT_number 5
_symmetry_cell_setting 'monoclinic'
loop_
_space_group_symop_operation_xyz
x,y,z
-x,y,-z
1/2+x,1/2+y,z
1/2-x,1/2+y,-z
loop_
_atom_site_type_symbol
_atom_site_label
_atom_site_fract_x
_atom_site_fract_y
_atom_site_fract_z
Si Si1 0.037000 0.498700 0.728240
Si Si2 0.645097 0.445916 0.036000
Si Si3 0.941238 0.139338 0.582777
Si Si4 0.233189 0.928895 0.549550
Si Si5 0.500000 0.003213 0.000000
Si Si6 0.232323 0.776783 0.870641
O O1 0.000000 0.579806 0.500000
O O2 0.955518 0.334336 0.606699
O O3 0.011449 0.597897 0.850501
O O4 0.160098 0.404698 0.934072
O O5 0.688925 0.416563 0.292019
O O6 0.717065 0.597486 0.071569
O O7 0.518482 0.530939 0.831106
O O8 0.661414 0.306053 0.922615
O O9 0.811536 0.097178 0.435262
O O10 0.000000 0.092890 0.500000
O O11 0.374527 0.912067 0.786904
O O12 0.181889 0.811516 0.608324
#
# Coordination Sequence:
#
# PCOD9123496 Si02
#       6
#     4   4   4   4   2   4
#     4   9  19  35  62  94 122 171 231 282 328 395
#     4  11  23  42  73 102 139 187 228 290 348 411
#     4  10  20  38  67 100 130 176 235 288 333 408
#     4  11  23  39  68  99 140 179 231 287 345 411
#     4  10  22  38  62  94 134 170 228 282 344 410
#     4  10  23  40  66 105 137 178 231 286 346 409
#
# _framework density 28.802403000000002
#
# number of rings (size 3 to 8) (size 9 to 14) (size 15 to 20)
#    0.000    1.818    1.818    1.636    7.636    1.455 
#    0.000    0.000   24.000    0.000    0.000    0.000 
#    0.000    0.000    0.000    0.000    0.000    0.000 
#
# Total GULP energy -61457.915414 kJ/mol
# GULP energy per Si atom -5587.083219 kJ/mol
# Density = 2.873685 g / cm^3
# Si number density = 28.802403 Si / 1000 Ang^3
#
#
#
# Elastic Constant Matrix: (Units=GPa)
#
#
# Indices 1 2 3 4 5 6 
#
# 1 238.5822 54.5804 87.1974 0.0000 -64.3646 0.0000
# 2 54.5804 44.0999 40.5903 0.0000 1.1907 0.0000
# 3 87.1974 40.5903 181.9271 0.0000 -58.1571 0.0000
# 4 0.0000 0.0000 0.0000 36.2052 0.0000 6.3051
# 5 -64.3646 1.1907 -58.1571 0.0000 49.0159 0.0000
# 6 0.0000 0.0000 0.0000 6.3051 0.0000 33.6932
#
#
#
# Elastic Compliance Matrix: (Units=1/GPa)
#
#
# Indices 1 2 3 4 5 6 
#
# 1 0.017377 -0.031835 0.010175 0.000000 0.035664 0.000000
# 2 -0.031835 0.093474 -0.031716 0.000000 -0.081705 0.000000
# 3 0.010175 -0.031716 0.019677 0.000000 0.037478 0.000000
# 4 0.000000 0.000000 0.000000 0.028551 0.000000 -0.005343
# 5 0.035664 -0.081705 0.037478 0.000000 0.113686 0.000000
# 6 0.000000 0.000000 0.000000 -0.005343 0.000000 0.030679
#
#
# Mechanical properties :
#
#
# Convention : Reuss Voigt Hill
#
# Bulk Modulus (GPa) = 42.05835 92.14948 67.10392
# Shear Modulus (GPa) = 11.95828 42.59895 27.27861
#
# Velocity S-wave (km/s) = 2.03982 3.84996 3.08083
# Velocity P-wave (km/s) = 4.49242 7.19903 6.00033
#
# Compressibility (1/GPa) = 0.02377649
#
# Stress axis : x y z
#
# Youngs Moduli (GPa) = 57.54722 10.69816 50.82152
#
# Poissons Ratio (x) = 0.34057 -0.51710
# Poissons Ratio (y) = 1.83201 1.61184
# Poissons Ratio (z) = -0.58553 0.33930
#
# Static dielectric constant tensor:
#      x y z
#    x 2.305540 0.000000 0.076050 
#    y 0.000000 2.320630 0.000000 
#    z 0.076050 0.000000 2.416530 
# 
# From -- ./inp_files/27356.got.cif
#   From: 2010.05.17/outbox.cif.g08.bks.cpg/sg5_14_cif.got.tgz:27356.got - 2010.06.03 18:56:24.
