data_PCOD9123504
_publ_section_title
;
Structure prediction by ZEFSAII (Michael W. Deem and Ramdas Pophale) SiO2 
 PCOD9123504
Probable space group: C 2
;
_chemical_formula_sum "Si O2"
_cell_formula_units_Z 26
_cell_length_a 21.338860
_cell_length_b 8.181369
_cell_length_c 13.700834
_cell_angle_alpha 90.000000
_cell_angle_beta 26.625641
_cell_angle_gamma 90.000000
_cell_volume 1071.954892
_symmetry_space_group_name_H-M "C 2"
_symmetry_group_IT_number 5
_symmetry_cell_setting 'monoclinic'
loop_
_space_group_symop_operation_xyz
x,y,z
-x,y,-z
1/2+x,1/2+y,z
1/2-x,1/2+y,-z
loop_
_atom_site_type_symbol
_atom_site_label
_atom_site_fract_x
_atom_site_fract_y
_atom_site_fract_z
Si Si1 0.694067 0.030150 0.376729
Si Si2 0.829287 0.780183 0.051529
Si Si3 0.607956 0.758594 0.202854
Si Si4 0.666958 0.748872 0.692206
Si Si5 0.500000 0.036959 0.500000
Si Si6 0.030319 0.456500 0.140586
Si Si7 0.584224 0.510524 0.632858
O O1 0.830828 0.116724 0.225633
O O2 0.594962 0.004649 0.608728
O O3 0.613057 0.131891 0.405659
O O4 0.732980 0.864621 0.266640
O O5 0.897071 0.617622 0.997231
O O6 0.748373 0.716424 0.066283
O O7 0.946706 0.914516 0.863343
O O8 0.562657 0.914187 0.332061
O O9 0.489223 0.618160 0.352776
O O10 0.626522 0.833929 0.069547
O O11 0.657782 0.641038 0.604073
O O12 0.539742 0.865399 0.849504
O O13 0.800416 0.865015 0.532535
#
# Coordination Sequence:
#
# PCOD9123504 Si02
#       7
#     4   4   4   4   2   4   4
#     4  10  20  38  67  95 130 176 223 274 342 404
#     4  11  21  38  67  99 132 179 225 285 347 397
#     4   9  20  36  67  93 132 169 222 282 338 406
#     4  11  21  40  66  98 129 186 222 269 352 405
#     4   8  18  38  62  94 122 172 220 272 338 394
#     4  10  20  40  67  98 133 176 228 274 342 414
#     4  11  21  37  66  93 135 180 226 275 340 417
#
# _framework density 24.254750999999999
#
# number of rings (size 3 to 8) (size 9 to 14) (size 15 to 20)
#    0.000    1.846    3.077    0.923    0.000    0.615 
#    0.000    0.769   40.615    0.000    0.000    0.000 
#    0.000    0.000    0.000    0.000    0.000    0.000 
#
# Total GULP energy -72469.995140 kJ/mol
# GULP energy per Si atom -5574.615011 kJ/mol
# Density = 2.419955 g / cm^3
# Si number density = 24.254751 Si / 1000 Ang^3
#
#
#
# Elastic Constant Matrix: (Units=GPa)
#
#
# Indices 1 2 3 4 5 6 
#
# 1 170.1023 58.3148 27.0114 0.0000 -21.5863 0.0000
# 2 58.3148 96.7646 18.2948 0.0000 -19.2547 0.0000
# 3 27.0114 18.2948 28.5222 0.0000 -1.6134 0.0000
# 4 0.0000 0.0000 0.0000 41.8726 0.0000 -17.3992
# 5 -21.5863 -19.2547 -1.6134 0.0000 23.4751 0.0000
# 6 0.0000 0.0000 0.0000 -17.3992 0.0000 46.9343
#
#
#
# Elastic Compliance Matrix: (Units=1/GPa)
#
#
# Indices 1 2 3 4 5 6 
#
# 1 0.008458 -0.003028 -0.005790 0.000000 0.004895 0.000000
# 2 -0.003028 0.015202 -0.006360 0.000000 0.009247 0.000000
# 3 -0.005790 -0.006360 0.044199 0.000000 -0.007503 0.000000
# 4 0.000000 0.000000 0.000000 0.028231 0.000000 0.010465
# 5 0.004895 0.009247 -0.007503 0.000000 0.054169 0.000000
# 6 0.000000 0.000000 0.000000 0.010465 0.000000 0.025186
#
#
# Mechanical properties :
#
#
# Convention : Reuss Voigt Hill
#
# Bulk Modulus (GPa) = 26.66563 55.84791 41.25677
# Shear Modulus (GPa) = 22.90411 35.24096 29.07254
#
# Velocity S-wave (km/s) = 3.07630 3.81589 3.46588
# Velocity P-wave (km/s) = 4.86169 6.51846 5.75006
#
# Compressibility (1/GPa) = 0.03750146
#
# Stress axis : x y z
#
# Youngs Moduli (GPa) = 118.23627 65.78213 22.62490
#
# Poissons Ratio (x) = 0.19919 0.13101
# Poissons Ratio (y) = 0.35803 0.14389
# Poissons Ratio (z) = 0.68464 0.41837
#
# Static dielectric constant tensor:
#      x y z
#    x 2.016810 0.000000 -0.054240 
#    y 0.000000 1.974380 0.000000 
#    z -0.054240 0.000000 2.105990 
# 
# From -- ./inp_files/56792.got.cif
#   From: 2010.05.17/outbox.cif.g08.bks.cpg/sg5_29_cif.got.tgz:56792.got - 2010.06.03 18:56:24.
