data_PCOD9123142
_publ_section_title
;
Structure prediction by ZEFSAII (Michael W. Deem and Ramdas Pophale) SiO2 
 PCOD9123142
Probable space group: C 2
;
_chemical_formula_sum "Si O2"
_cell_formula_units_Z 32
_cell_length_a 26.493577
_cell_length_b 13.415553
_cell_length_c 9.745748
_cell_angle_alpha 90.000000
_cell_angle_beta 28.481167
_cell_angle_gamma 90.000000
_cell_volume 1651.825771
_symmetry_space_group_name_H-M "C 2"
_symmetry_group_IT_number 5
_symmetry_cell_setting 'monoclinic'
loop_
_space_group_symop_operation_xyz
x,y,z
-x,y,-z
1/2+x,1/2+y,z
1/2-x,1/2+y,-z
loop_
_atom_site_type_symbol
_atom_site_label
_atom_site_fract_x
_atom_site_fract_y
_atom_site_fract_z
Si Si1 0.113838 0.869030 0.173788
Si Si2 0.804970 0.632100 0.745917
Si Si3 0.288797 0.934518 0.966599
Si Si4 0.967533 0.657354 0.724524
Si Si5 0.652960 0.970375 0.873641
Si Si6 0.228077 0.476095 0.391858
Si Si7 0.401087 0.742767 0.651804
Si Si8 0.037209 0.326549 0.762542
O O1 0.192979 0.882992 0.112684
O O2 0.098770 0.755732 0.156505
O O3 0.000000 0.903106 0.500000
O O4 0.165244 0.931823 0.928170
O O5 0.787891 0.584426 0.637176
O O6 0.919380 0.683832 0.478446
O O7 0.806653 0.537581 0.845085
O O8 0.705406 0.694362 0.036115
O O9 0.279323 0.948682 0.151771
O O10 0.386871 0.860554 0.712480
O O11 0.000000 0.611417 0.500000
O O12 0.905969 0.575504 0.958497
O O13 0.719737 0.975686 0.574746
O O14 0.561861 0.886829 0.066438
O O15 0.132128 0.405268 0.565436
O O16 0.500000 0.702364 0.500000
O O17 0.422272 0.741899 0.438532
O O18 0.000000 0.288437 0.000000
#
# Coordination Sequence:
#
# PCOD9123142 Si02
#       8
#     4   4   4   4   4   4   4   4
#     4  10  22  40  65  88 127 167 210 258 327 384
#     4  11  23  38  65  94 125 165 216 258 311 388
#     4  11  22  39  64  92 119 167 218 261 309 377
#     4  11  20  35  65  97 117 159 216 269 311 370
#     4  11  21  38  67  94 123 161 213 273 317 364
#     4  10  22  41  63  91 129 167 206 257 324 382
#     4  12  22  38  61  97 127 159 213 266 311 376
#     4  10  20  37  63  91 126 161 204 263 327 366
#
# _framework density 19.372503999999999
#
# number of rings (size 3 to 8) (size 9 to 14) (size 15 to 20)
#    0.000    1.250    6.250    1.500    0.000    2.000 
#    2.250    1.875    5.500    0.000    0.000    0.000 
#    0.000    0.000    0.000    0.000    0.000    0.000 
#
# Total GULP energy -89278.314066 kJ/mol
# GULP energy per Si atom -5579.894629 kJ/mol
# Density = 1.932841 g / cm^3
# Si number density = 19.372504 Si / 1000 Ang^3
#
#
#
# Elastic Constant Matrix: (Units=GPa)
#
#
# Indices 1 2 3 4 5 6 
#
# 1 109.9096 22.8620 53.6561 0.0000 16.3183 0.0000
# 2 22.8620 35.2535 16.3353 0.0000 -5.6877 0.0000
# 3 53.6561 16.3353 116.2057 0.0000 14.3388 0.0000
# 4 0.0000 0.0000 0.0000 36.7678 0.0000 2.1444
# 5 16.3183 -5.6877 14.3388 0.0000 46.3169 0.0000
# 6 0.0000 0.0000 0.0000 2.1444 0.0000 22.0313
#
#
#
# Elastic Compliance Matrix: (Units=1/GPa)
#
#
# Indices 1 2 3 4 5 6 
#
# 1 0.013534 -0.007273 -0.004708 0.000000 -0.004204 0.000000
# 2 -0.007273 0.035529 -0.002590 0.000000 0.007727 0.000000
# 3 -0.004708 -0.002590 0.011414 0.000000 -0.002193 0.000000
# 4 0.000000 0.000000 0.000000 0.027353 0.000000 -0.002662
# 5 -0.004204 0.007727 -0.002193 0.000000 0.024699 0.000000
# 6 0.000000 0.000000 0.000000 -0.002662 0.000000 0.045649
#
#
# Mechanical properties :
#
#
# Convention : Reuss Voigt Hill
#
# Bulk Modulus (GPa) = 31.91287 49.67507 40.79397
# Shear Modulus (GPa) = 25.28251 32.25754 28.77002
#
# Velocity S-wave (km/s) = 3.61650 4.08501 3.85787
# Velocity P-wave (km/s) = 5.82647 6.92441 6.39903
#
# Compressibility (1/GPa) = 0.03133532
#
# Stress axis : x y z
#
# Youngs Moduli (GPa) = 73.88933 28.14569 87.61338
#
# Poissons Ratio (x) = 0.20472 0.41247
# Poissons Ratio (y) = 0.53743 0.22688
# Poissons Ratio (z) = 0.34786 0.07288
#
# Static dielectric constant tensor:
#      x y z
#    x 1.724190 0.000000 -0.008870 
#    y 0.000000 1.699730 0.000000 
#    z -0.008870 0.000000 1.690190 
# 
# From -- ./inp_files/31034.got.cif
#   From: 2010.05.17/outbox.cif.g08.bks.cpg/sg5_16_cif.got.tgz:31034.got - 2010.06.03 18:56:24.
