data_PCOD9123677
_publ_section_title
;
Structure prediction by ZEFSAII (Michael W. Deem and Ramdas Pophale) SiO2 
 PCOD9123677
Probable space group: C 2
;
_chemical_formula_sum "Si O2"
_cell_formula_units_Z 18
_cell_length_a 17.430761
_cell_length_b 5.466606
_cell_length_c 17.000916
_cell_angle_alpha 90.000000
_cell_angle_beta 25.878015
_cell_angle_gamma 90.000000
_cell_volume 707.045716
_symmetry_space_group_name_H-M "C 2"
_symmetry_group_IT_number 5
_symmetry_cell_setting 'monoclinic'
loop_
_space_group_symop_operation_xyz
x,y,z
-x,y,-z
1/2+x,1/2+y,z
1/2-x,1/2+y,-z
loop_
_atom_site_type_symbol
_atom_site_label
_atom_site_fract_x
_atom_site_fract_y
_atom_site_fract_z
Si Si1 0.500000 0.453171 0.000000
Si Si2 0.980555 0.698431 0.769222
Si Si3 0.331454 0.650492 0.710643
Si Si4 0.055903 0.641409 0.356644
Si Si5 0.438257 0.696043 0.889649
O O1 0.658883 0.267541 0.833283
O O2 0.474243 0.620819 0.947219
O O3 0.071046 0.692537 0.599171
O O4 0.011004 0.461185 0.795647
O O5 0.018653 0.959923 0.771399
O O6 0.768904 0.694828 0.945194
O O7 0.500000 0.629080 0.500000
O O8 0.319793 0.380833 0.754893
O O9 0.376458 0.869984 0.728542
O O10 0.000000 0.616971 0.500000
#
# Coordination Sequence:
#
# PCOD9123677 Si02
#       5
#     2   4   4   4   4
#     4  12  24  42  70 108 134 186 234 286 340 420
#     4  10  20  40  58  97 133 177 219 284 333 407
#     4  10  23  39  64 101 136 175 228 286 337 409
#     4  10  20  39  67  95 131 184 226 272 345 418
#     4  10  23  34  62  96 137 165 232 277 334 401
#
# _framework density 25.45804
#
# number of rings (size 3 to 8) (size 9 to 14) (size 15 to 20)
#    0.000    1.778    2.222    1.333    6.222    3.556 
#    0.000    0.000    0.000   21.333    0.000    0.000 
#    0.000    0.000    0.000    0.000    0.000    0.000 
#
# Total GULP energy -50139.847659 kJ/mol
# GULP energy per Si atom -5571.094184 kJ/mol
# Density = 2.540010 g / cm^3
# Si number density = 25.458040 Si / 1000 Ang^3
#
#
#
# Elastic Constant Matrix: (Units=GPa)
#
#
# Indices 1 2 3 4 5 6 
#
# 1 123.0652 47.3090 35.4172 -0.0010 32.0215 -0.0002
# 2 47.3090 193.8344 31.9456 -0.0044 11.9593 0.0017
# 3 35.4172 31.9456 75.9984 0.0000 0.4356 0.0013
# 4 -0.0010 -0.0044 0.0000 35.6225 0.0006 2.8414
# 5 32.0215 11.9593 0.4356 0.0006 35.9164 -0.0003
# 6 -0.0002 0.0017 0.0013 2.8414 -0.0003 54.8292
#
#
#
# Elastic Compliance Matrix: (Units=1/GPa)
#
#
# Indices 1 2 3 4 5 6 
#
# 1 0.013222 -0.001647 -0.005406 0.000000 -0.011174 0.000000
# 2 -0.001647 0.005869 -0.001697 0.000001 -0.000466 0.000000
# 3 -0.005406 -0.001697 0.016361 0.000000 0.005186 0.000000
# 4 0.000000 0.000001 0.000000 0.028189 -0.000001 -0.001461
# 5 -0.011174 -0.000466 0.005186 -0.000001 0.037897 0.000000
# 6 0.000000 0.000000 0.000000 -0.001461 0.000000 0.018314
#
#
# Mechanical properties :
#
#
# Convention : Reuss Voigt Hill
#
# Bulk Modulus (GPa) = 55.69917 69.13795 62.41856
# Shear Modulus (GPa) = 34.88318 43.82204 39.35261
#
# Velocity S-wave (km/s) = 3.70567 4.15341 3.93591
# Velocity P-wave (km/s) = 6.34315 7.08644 6.72507
#
# Compressibility (1/GPa) = 0.01795359
#
# Stress axis : x y z
#
# Youngs Moduli (GPa) = 75.63122 170.37558 61.12129
#
# Poissons Ratio (x) = 0.28057 0.33039
# Poissons Ratio (y) = 0.12455 0.10373
# Poissons Ratio (z) = 0.40883 0.28914
#
# Static dielectric constant tensor:
#      x y z
#    x 1.996050 0.000000 -0.018060 
#    y 0.000000 1.991050 0.000000 
#    z -0.018060 0.000000 2.200020 
# 
# From -- ./inp_files/25874.got.cif
#   From: 2010.05.17/outbox.cif.g08.bks.cpg/sg5_13_cif.got.tgz:25874.got - 2010.06.03 18:56:24.
