data_PCOD9123311
_publ_section_title
;
Structure prediction by ZEFSAII (Michael W. Deem and Ramdas Pophale) SiO2 
 PCOD9123311
Probable space group: C 2
;
_chemical_formula_sum "Si O2"
_cell_formula_units_Z 26
_cell_length_a 13.719275
_cell_length_b 7.549586
_cell_length_c 12.644952
_cell_angle_alpha 90.000000
_cell_angle_beta 59.415548
_cell_angle_gamma 90.000000
_cell_volume 1127.493814
_symmetry_space_group_name_H-M "C 2"
_symmetry_group_IT_number 5
_symmetry_cell_setting 'monoclinic'
loop_
_space_group_symop_operation_xyz
x,y,z
-x,y,-z
1/2+x,1/2+y,z
1/2-x,1/2+y,-z
loop_
_atom_site_type_symbol
_atom_site_label
_atom_site_fract_x
_atom_site_fract_y
_atom_site_fract_z
Si Si1 0.864649 0.248310 0.084173
Si Si2 0.470710 0.088146 0.732492
Si Si3 0.785542 0.426590 0.347756
Si Si4 0.000000 0.560611 0.500000
Si Si5 0.253392 0.892757 0.813905
Si Si6 0.384831 0.112853 0.993995
Si Si7 0.206465 0.297150 0.429140
O O1 0.811873 0.320695 0.225177
O O2 0.847016 0.408326 0.011988
O O3 0.805881 0.061619 0.101060
O O4 0.000000 0.218853 0.000000
O O5 0.593790 0.025053 0.699269
O O6 0.472047 0.178579 0.617453
O O7 0.387256 0.923007 0.752818
O O8 0.416217 0.185337 0.861727
O O9 0.758120 0.308108 0.467005
O O10 0.697845 0.591528 0.398960
O O11 0.901798 0.426018 0.517861
O O12 0.209277 0.719918 0.893958
O O13 0.220157 0.880594 0.707679
O O14 0.500000 0.117345 0.000000
#
# Coordination Sequence:
#
# PCOD9123311 Si02
#       7
#     4   4   4   2   4   4   4
#     4  11  22  38  61  89 121 159 200 248 298 355
#     4  10  21  38  62  88 122 164 192 254 305 348
#     4  11  20  39  63  85 125 161 201 248 303 355
#     4   8  20  38  60  88 120 158 204 246 306 350
#     4  11  23  38  62  92 120 159 204 245 303 361
#     4  11  21  40  60  89 123 160 200 248 300 355
#     4  10  20  38  61  88 119 161 202 249 299 360
#
# _framework density 23.059992999999999
#
# number of rings (size 3 to 8) (size 9 to 14) (size 15 to 20)
#    0.000    1.538    4.615    1.385    2.154    0.000 
#    0.000    1.538    3.385    0.000    0.000    0.000 
#    0.000    0.000    0.000    0.000    0.000    0.000 
#
# Total GULP energy -72483.763189 kJ/mol
# GULP energy per Si atom -5575.674091 kJ/mol
# Density = 2.300751 g / cm^3
# Si number density = 23.059993 Si / 1000 Ang^3
#
#
#
# Elastic Constant Matrix: (Units=GPa)
#
#
# Indices 1 2 3 4 5 6 
#
# 1 33.5410 2.8005 6.6725 0.0000 -2.4261 0.0000
# 2 2.8005 55.4803 -0.8789 0.0000 -10.5715 0.0000
# 3 6.6725 -0.8789 145.8136 0.0000 21.5337 0.0000
# 4 0.0000 0.0000 0.0000 23.6594 0.0000 -12.8231
# 5 -2.4261 -10.5715 21.5337 0.0000 34.7872 0.0000
# 6 0.0000 0.0000 0.0000 -12.8231 0.0000 5.2870
#
#
#
# Elastic Compliance Matrix: (Units=1/GPa)
#
#
# Indices 1 2 3 4 5 6 
#
# 1 0.030478 -0.001004 -0.001838 0.000000 0.002958 0.000000
# 2 -0.001004 0.019254 -0.000761 0.000000 0.006253 0.000000
# 3 -0.001838 -0.000761 0.007694 0.000000 -0.005122 0.000000
# 4 0.000000 0.000000 0.000000 -0.134380 0.000000 -0.325924
# 5 0.002958 0.006253 -0.005122 0.000000 0.034023 0.000000
# 6 0.000000 0.000000 0.000000 -0.325924 0.000000 -0.601350
#
#
# Mechanical properties :
#
#
# Convention : Reuss Voigt Hill
#
# Bulk Modulus (GPa) = 19.91223 28.00256 23.95740
# Shear Modulus (GPa) = -8.06016 27.82945 9.88465
#
# Velocity S-wave (km/s) = -1.87160 3.47771 2.07263
# Velocity P-wave (km/s) = 1.99579 5.31937 4.01739
#
# Compressibility (1/GPa) = 0.05022039
#
# Stress axis : x y z
#
# Youngs Moduli (GPa) = 32.81096 51.93617 129.97108
#
# Poissons Ratio (x) = 0.05214 0.23883
# Poissons Ratio (y) = 0.03294 0.09896
# Poissons Ratio (z) = 0.06029 0.03954
#
# Static dielectric constant tensor:
#      x y z
#    x 1.936570 0.000000 0.027870 
#    y 0.000000 1.830030 0.000000 
#    z 0.027870 0.000000 1.960850 
# 
# From -- ./inp_files/41638.got.cif
#   From: 2010.05.17/outbox.cif.g08.bks.cpg/sg5_21_cif.got.tgz:41638.got - 2010.06.03 18:56:24.
