data_PCOD9123485
_publ_section_title
;
Structure prediction by ZEFSAII (Michael W. Deem and Ramdas Pophale) SiO2 
 PCOD9123485
Probable space group: C 2
;
_chemical_formula_sum "Si O2"
_cell_formula_units_Z 20
_cell_length_a 22.315075
_cell_length_b 4.995624
_cell_length_c 10.376213
_cell_angle_alpha 90.000000
_cell_angle_beta 130.172518
_cell_angle_gamma 90.000000
_cell_volume 883.853566
_symmetry_space_group_name_H-M "C 2"
_symmetry_group_IT_number 5
_symmetry_cell_setting 'monoclinic'
loop_
_space_group_symop_operation_xyz
x,y,z
-x,y,-z
1/2+x,1/2+y,z
1/2-x,1/2+y,-z
loop_
_atom_site_type_symbol
_atom_site_label
_atom_site_fract_x
_atom_site_fract_y
_atom_site_fract_z
Si Si1 0.000000 0.428290 0.000000
Si Si2 0.401971 0.448988 0.165797
Si Si3 0.056721 0.753137 0.322219
Si Si4 0.649867 0.911022 0.052477
Si Si5 0.000000 0.713965 0.500000
Si Si6 0.729843 0.475038 0.553139
O O1 0.959969 0.604172 0.832656
O O2 0.922625 0.304606 0.958741
O O3 0.491873 0.487315 0.242071
O O4 0.423767 0.378617 0.343356
O O5 0.345940 0.692559 0.055064
O O6 0.371873 0.190455 0.045548
O O7 0.142268 0.869497 0.447355
O O8 0.031123 0.578262 0.412800
O O9 0.722292 0.947620 0.248044
O O10 0.732324 0.774876 0.500790
#
# Coordination Sequence:
#
# PCOD9123485 Si02
#       6
#     2   4   4   4   2   4
#     4  10  20  38  66  96 120 172 212 274 304 388
#     4   9  22  40  64  86 123 166 215 254 308 383
#     4   9  21  42  64  95 126 170 211 267 318 378
#     4  11  22  37  61  93 125 162 211 262 317 368
#     4   8  20  44  68  92 128 170 224 256 318 382
#     4  12  25  39  60  97 134 165 206 271 327 375
#
# _framework density 22.628183
#
# number of rings (size 3 to 8) (size 9 to 14) (size 15 to 20)
#    1.200    0.800    2.000    1.200    5.600    1.600 
#    0.000    2.000    0.000    0.000    0.000    0.000 
#    0.000    0.000    0.000    0.000    0.000    0.000 
#
# Total GULP energy -55696.641513 kJ/mol
# GULP energy per Si atom -5569.664151 kJ/mol
# Density = 2.257668 g / cm^3
# Si number density = 22.628183 Si / 1000 Ang^3
#
#
#
# Elastic Constant Matrix: (Units=GPa)
#
#
# Indices 1 2 3 4 5 6 
#
# 1 41.5667 -3.9101 16.5708 0.0000 -15.6818 0.0000
# 2 -3.9101 72.4356 40.6797 0.0000 -3.2774 0.0000
# 3 16.5708 40.6797 214.0473 0.0000 -8.6766 0.0000
# 4 0.0000 0.0000 0.0000 -36.7827 0.0000 20.7296
# 5 -15.6818 -3.2774 -8.6766 0.0000 32.0598 0.0000
# 6 0.0000 0.0000 0.0000 20.7296 0.0000 -0.2410
#
#
#
# Elastic Compliance Matrix: (Units=1/GPa)
#
#
# Indices 1 2 3 4 5 6 
#
# 1 0.031027 0.003760 -0.002513 0.000000 0.014881 0.000000
# 2 0.003760 0.015930 -0.003213 0.000000 0.002598 0.000000
# 3 -0.002513 -0.003213 0.005474 0.000000 -0.000076 0.000000
# 4 0.000000 0.000000 0.000000 0.000573 0.000000 0.049257
# 5 0.014881 0.002598 -0.000076 0.000000 0.038716 0.000000
# 6 0.000000 0.000000 0.000000 0.049257 0.000000 0.087401
#
#
# Mechanical properties :
#
#
# Convention : Reuss Voigt Hill
#
# Bulk Modulus (GPa) = 20.61948 48.30338 34.46143
# Shear Modulus (GPa) = 25.09773 17.32116 21.20944
#
# Velocity S-wave (km/s) = 3.33398 2.76971 3.06486
# Velocity P-wave (km/s) = 4.89415 5.62328 5.27134
#
# Compressibility (1/GPa) = 0.04849783
#
# Stress axis : x y z
#
# Youngs Moduli (GPa) = 32.22959 62.77279 182.68051
#
# Poissons Ratio (x) = -0.23600 0.45914
# Poissons Ratio (y) = -0.12117 0.58701
# Poissons Ratio (z) = 0.08100 0.20171
#
# Static dielectric constant tensor:
#      x y z
#    x 1.918630 0.000000 -0.038850 
#    y 0.000000 1.862460 0.000000 
#    z -0.038850 0.000000 1.839380 
# 
# From -- ./inp_files/25978.got.cif
#   From: 2010.05.17/outbox.cif.g08.bks.cpg/sg5_13_cif.got.tgz:25978.got - 2010.06.03 18:56:24.
