data_PCOD9123100
_publ_section_title
;
Structure prediction by ZEFSAII (Michael W. Deem and Ramdas Pophale) SiO2 
 PCOD9123100
Probable space group: C 2
;
_chemical_formula_sum "Si O2"
_cell_formula_units_Z 30
_cell_length_a 8.501375
_cell_length_b 12.807687
_cell_length_c 11.966444
_cell_angle_alpha 90.000000
_cell_angle_beta 115.055064
_cell_angle_gamma 90.000000
_cell_volume 1180.336488
_symmetry_space_group_name_H-M "C 2"
_symmetry_group_IT_number 5
_symmetry_cell_setting 'monoclinic'
loop_
_space_group_symop_operation_xyz
x,y,z
-x,y,-z
1/2+x,1/2+y,z
1/2-x,1/2+y,-z
loop_
_atom_site_type_symbol
_atom_site_label
_atom_site_fract_x
_atom_site_fract_y
_atom_site_fract_z
Si Si1 0.258264 0.320180 0.145474
Si Si2 0.405061 0.417705 0.854610
Si Si3 0.597751 0.553033 0.359192
Si Si4 0.731853 0.029706 0.202348
Si Si5 0.146777 0.291131 0.367981
Si Si6 0.574235 0.021325 0.379848
Si Si7 0.500000 0.206413 0.500000
Si Si8 0.210453 0.729656 0.064249
O O1 0.461124 0.344088 0.176542
O O2 0.183511 0.436307 0.106693
O O3 0.198342 0.295976 0.251976
O O4 0.210173 0.241287 0.034108
O O5 0.355854 0.507166 0.751350
O O6 0.261843 0.337153 0.858946
O O7 0.500000 0.452947 0.000000
O O8 0.409210 0.501585 0.322652
O O9 0.566654 0.677452 0.362352
O O10 0.748745 0.529222 0.492969
O O11 0.776960 0.128943 0.144593
O O12 0.593336 0.046519 0.255627
O O13 0.046401 0.395442 0.376088
O O14 0.336819 0.277211 0.482040
O O15 0.464608 0.120130 0.392659
O O16 0.000000 0.716604 0.000000
#
# Coordination Sequence:
#
# PCOD9123100 Si02
#       8
#     4   4   4   4   4   4   2   4
#     4   8  18  34  55  81 113 150 202 236 296 378
#     4   8  17  33  56  82 112 150 205 241 289 370
#     4  10  21  38  57  90 115 160 201 246 314 365
#     4  10  20  37  62  85 121 157 199 256 303 374
#     4  10  22  38  60  85 121 165 196 260 314 365
#     4  10  23  41  59  92 123 155 214 254 305 383
#     4  10  24  40  62  88 120 168 208 252 320 364
#     4   9  19  35  57  89 113 157 200 249 307 362
#
# _framework density 25.416482999999999
#
# number of rings (size 3 to 8) (size 9 to 14) (size 15 to 20)
#    0.000    2.933    0.000    0.400    9.333    4.267 
#    9.600    2.667    0.000    0.000    0.000    0.000 
#    0.000    0.000    0.000    0.000    0.000    0.000 
#
# Total GULP energy -83580.458760 kJ/mol
# GULP energy per Si atom -5572.030584 kJ/mol
# Density = 2.535863 g / cm^3
# Si number density = 25.416483 Si / 1000 Ang^3
#
#
#
# Elastic Constant Matrix: (Units=GPa)
#
#
# Indices 1 2 3 4 5 6 
#
# 1 20.1704 -20.1131 -1.9826 0.0000 4.7950 0.0000
# 2 -20.1131 99.8450 32.0522 0.0000 3.9933 0.0000
# 3 -1.9826 32.0522 75.3601 0.0000 -9.5826 0.0000
# 4 0.0000 0.0000 0.0000 36.3669 0.0000 -0.0104
# 5 4.7950 3.9933 -9.5826 0.0000 50.5218 0.0000
# 6 0.0000 0.0000 0.0000 -0.0104 0.0000 19.0040
#
#
#
# Elastic Compliance Matrix: (Units=1/GPa)
#
#
# Indices 1 2 3 4 5 6 
#
# 1 0.066749 0.015736 -0.006046 0.000000 -0.008726 0.000000
# 2 0.015736 0.015489 -0.006681 0.000000 -0.003985 0.000000
# 3 -0.006046 -0.006681 0.016490 0.000000 0.004230 0.000000
# 4 0.000000 0.000000 0.000000 0.027498 0.000000 0.000015
# 5 -0.008726 -0.003985 0.004230 0.000000 0.021739 0.000000
# 6 0.000000 0.000000 0.000000 0.000015 0.000000 0.052621
#
#
# Mechanical properties :
#
#
# Convention : Reuss Voigt Hill
#
# Bulk Modulus (GPa) = 9.54688 23.92096 16.73392
# Shear Modulus (GPa) = 21.78816 33.53982 27.66399
#
# Velocity S-wave (km/s) = 2.93105 3.63658 3.30271
# Velocity P-wave (km/s) = 3.90116 5.20240 4.59805
#
# Compressibility (1/GPa) = 0.10474626
#
# Stress axis : x y z
#
# Youngs Moduli (GPa) = 14.98151 64.55990 60.64348
#
# Poissons Ratio (x) = -1.01592 0.36668
# Poissons Ratio (y) = -0.23575 0.40514
# Poissons Ratio (z) = 0.09058 0.43131
#
# Static dielectric constant tensor:
#      x y z
#    x 2.140490 0.000000 0.015140 
#    y 0.000000 2.045620 0.000000 
#    z 0.015140 0.000000 2.066720 
# 
# From -- ./inp_files/39254.got.cif
#   From: 2010.05.17/outbox.cif.g08.bks.cpg/sg5_20_cif.got.tgz:39254.got - 2010.06.03 18:56:24.
