data_PCOD9123459
_publ_section_title
;
Structure prediction by ZEFSAII (Michael W. Deem and Ramdas Pophale) SiO2 
 PCOD9123459
Probable space group: C 2
;
_chemical_formula_sum "Si O2"
_cell_formula_units_Z 26
_cell_length_a 8.519611
_cell_length_b 18.028336
_cell_length_c 10.358634
_cell_angle_alpha 90.000000
_cell_angle_beta 43.192407
_cell_angle_gamma 90.000000
_cell_volume 1088.980090
_symmetry_space_group_name_H-M "C 2"
_symmetry_group_IT_number 5
_symmetry_cell_setting 'monoclinic'
loop_
_space_group_symop_operation_xyz
x,y,z
-x,y,-z
1/2+x,1/2+y,z
1/2-x,1/2+y,-z
loop_
_atom_site_type_symbol
_atom_site_label
_atom_site_fract_x
_atom_site_fract_y
_atom_site_fract_z
Si Si1 0.002826 0.222310 0.804160
Si Si2 0.495943 0.550975 0.753268
Si Si3 0.296594 0.287164 0.215555
Si Si4 0.000000 0.566718 0.000000
Si Si5 0.894761 0.740952 0.745513
Si Si6 0.413661 0.086085 0.326264
Si Si7 0.184868 0.455047 0.274246
O O1 0.923238 0.242317 0.706404
O O2 0.000332 0.132922 0.812218
O O3 0.244059 0.258396 0.706610
O O4 0.807450 0.244070 0.025035
O O5 0.669206 0.561413 0.528570
O O6 0.596688 0.493726 0.793992
O O7 0.240516 0.525646 0.872500
O O8 0.395650 0.281523 0.302657
O O9 0.239340 0.371400 0.208134
O O10 0.500000 0.262020 0.000000
O O11 0.936066 0.611955 0.165777
O O12 0.986898 0.657620 0.661971
O O13 0.573604 0.013678 0.243104
O O14 0.000000 0.451497 0.500000
#
# Coordination Sequence:
#
# PCOD9123459 Si02
#       7
#     4   4   4   2   4   4   4
#     4  10  20  38  65  99 135 179 229 278 333 408
#     4  11  23  41  67 100 134 172 228 279 333 406
#     4  10  23  39  63  96 139 180 228 274 338 407
#     4  12  24  38  64  98 132 172 216 276 346 382
#     4  10  20  38  65  99 135 179 229 278 333 408
#     4  11  23  41  67 100 134 172 228 279 333 406
#     4  10  24  45  65  94 135 179 223 276 337 408
#
# _framework density 23.875551999999999
#
# number of rings (size 3 to 8) (size 9 to 14) (size 15 to 20)
#    0.000    1.538    3.077    1.385    4.308    1.231 
#    2.769    0.000    0.000    0.000    0.000    0.000 
#    0.000    0.000    0.000    0.000    0.000    0.000 
#
# Total GULP energy -72523.419712 kJ/mol
# GULP energy per Si atom -5578.724593 kJ/mol
# Density = 2.382121 g / cm^3
# Si number density = 23.875552 Si / 1000 Ang^3
#
#
#
# Elastic Constant Matrix: (Units=GPa)
#
#
# Indices 1 2 3 4 5 6 
#
# 1 155.9514 22.6179 42.3286 0.0000 -19.3666 0.0000
# 2 22.6179 79.2004 -6.3178 0.0000 -5.5163 0.0000
# 3 42.3286 -6.3178 106.0367 0.0000 -15.6452 0.0000
# 4 0.0000 0.0000 0.0000 -7.0537 0.0000 25.6838
# 5 -19.3666 -5.5163 -15.6452 0.0000 47.1540 0.0000
# 6 0.0000 0.0000 0.0000 25.6838 0.0000 4.3505
#
#
#
# Elastic Compliance Matrix: (Units=1/GPa)
#
#
# Indices 1 2 3 4 5 6 
#
# 1 0.007796 -0.002327 -0.002963 0.000000 0.001946 0.000000
# 2 -0.002327 0.013532 0.001922 0.000000 0.001265 0.000000
# 3 -0.002963 0.001922 0.011126 0.000000 0.002699 0.000000
# 4 0.000000 0.000000 0.000000 -0.006302 0.000000 0.037204
# 5 0.001946 0.001265 0.002699 0.000000 0.023050 0.000000
# 6 0.000000 0.000000 0.000000 0.037204 0.000000 0.010218
#
#
# Mechanical properties :
#
#
# Convention : Reuss Voigt Hill
#
# Bulk Modulus (GPa) = 38.88486 50.93845 44.91165
# Shear Modulus (GPa) = 66.90745 27.72749 47.31747
#
# Velocity S-wave (km/s) = 5.29946 3.41153 4.45661
# Velocity P-wave (km/s) = 7.33263 6.07448 6.73301
#
# Compressibility (1/GPa) = 0.02571695
#
# Stress axis : x y z
#
# Youngs Moduli (GPa) = 128.27386 73.89781 89.87579
#
# Poissons Ratio (x) = 0.17197 0.26635
# Poissons Ratio (y) = 0.29851 -0.17273
# Poissons Ratio (z) = 0.38014 -0.14202
#
# Static dielectric constant tensor:
#      x y z
#    x 2.157200 0.000000 -0.024660 
#    y 0.000000 1.927700 0.000000 
#    z -0.024660 0.000000 1.943160 
# 
# From -- ./inp_files/37276.got.cif
#   From: 2010.05.17/outbox.cif.g08.bks.cpg/sg5_19_cif.got.tgz:37276.got - 2010.06.03 18:56:24.
