data_PCOD9123723
_publ_section_title
;
Structure prediction by ZEFSAII (Michael W. Deem and Ramdas Pophale) SiO2 
 PCOD9123723
Probable space group: C 2
;
_chemical_formula_sum "Si O2"
_cell_formula_units_Z 30
_cell_length_a 5.659762
_cell_length_b 20.567931
_cell_length_c 10.421684
_cell_angle_alpha 90.000000
_cell_angle_beta 83.064149
_cell_angle_gamma 90.000000
_cell_volume 1204.305896
_symmetry_space_group_name_H-M "C 2"
_symmetry_group_IT_number 5
_symmetry_cell_setting 'monoclinic'
loop_
_space_group_symop_operation_xyz
x,y,z
-x,y,-z
1/2+x,1/2+y,z
1/2-x,1/2+y,-z
loop_
_atom_site_type_symbol
_atom_site_label
_atom_site_fract_x
_atom_site_fract_y
_atom_site_fract_z
Si Si1 0.469189 0.139130 0.131735
Si Si2 0.320789 0.293084 0.397423
Si Si3 0.787897 0.062558 0.280351
Si Si4 0.705936 0.921571 0.292702
Si Si5 0.208601 0.765533 0.168662
Si Si6 0.000000 0.009134 0.000000
Si Si7 0.450928 0.686150 0.681304
Si Si8 0.253777 0.407990 0.862081
O O1 0.549490 0.096897 0.246550
O O2 0.655006 0.198924 0.098637
O O3 0.218504 0.167090 0.187940
O O4 0.500000 0.099316 0.000000
O O5 0.500000 0.304996 0.500000
O O6 0.174280 0.358501 0.383543
O O7 0.465538 0.281685 0.257319
O O8 0.198708 0.222681 0.418027
O O9 0.918379 0.118307 0.352567
O O10 0.729125 0.994030 0.348474
O O11 0.927980 0.047612 0.134861
O O12 0.471972 0.921520 0.215539
O O13 0.979588 0.913400 0.219424
O O14 0.385795 0.743280 0.269743
O O15 0.273017 0.832261 0.094361
O O16 0.214292 0.960477 0.027742
#
# Coordination Sequence:
#
# PCOD9123723 Si02
#       8
#     4   4   4   4   4   2   4   4
#     4  10  21  33  57  84 123 168 216 251 308 381
#     4  10  21  41  70  93 117 163 220 271 339 399
#     4  10  22  35  58  84 125 169 211 257 318 378
#     4  10  22  39  62  89 126 162 202 275 324 376
#     4   9  20  38  56  91 122 160 202 275 323 370
#     4  10  22  36  60  90 120 182 218 252 304 396
#     4  10  20  40  59  86 126 164 212 272 323 375
#     4  10  21  38  58  89 126 161 215 258 317 372
#
# _framework density 24.910613999999999
#
# number of rings (size 3 to 8) (size 9 to 14) (size 15 to 20)
#    0.000    2.133    1.333    0.800    6.533    3.733 
#    0.000    2.667    8.800    0.000    0.000    0.000 
#    0.000    0.000    0.000    0.000    0.000    0.000 
#
# Total GULP energy -83639.696905 kJ/mol
# GULP energy per Si atom -5575.979794 kJ/mol
# Density = 2.485392 g / cm^3
# Si number density = 24.910614 Si / 1000 Ang^3
#
#
#
# Elastic Constant Matrix: (Units=GPa)
#
#
# Indices 1 2 3 4 5 6 
#
# 1 107.9599 46.5596 23.2120 0.0000 13.8670 0.0000
# 2 46.5596 219.1917 24.3142 0.0000 32.2728 0.0000
# 3 23.2120 24.3142 47.5359 0.0000 11.8586 0.0000
# 4 0.0000 0.0000 0.0000 5.9919 0.0000 20.6574
# 5 13.8670 32.2728 11.8586 0.0000 53.8205 0.0000
# 6 0.0000 0.0000 0.0000 20.6574 0.0000 2.8196
#
#
#
# Elastic Compliance Matrix: (Units=1/GPa)
#
#
# Indices 1 2 3 4 5 6 
#
# 1 0.011047 -0.001745 -0.004289 0.000000 -0.000855 0.000000
# 2 -0.001745 0.005450 -0.001304 0.000000 -0.002531 0.000000
# 3 -0.004289 -0.001304 0.024684 0.000000 -0.003552 0.000000
# 4 0.000000 0.000000 0.000000 -0.006880 0.000000 0.050404
# 5 -0.000855 -0.002531 -0.003552 0.000000 0.021101 0.000000
# 6 0.000000 0.000000 0.000000 0.050404 0.000000 -0.014620
#
#
# Mechanical properties :
#
#
# Convention : Reuss Voigt Hill
#
# Bulk Modulus (GPa) = 37.72740 62.53989 50.13365
# Shear Modulus (GPa) = 77.76900 31.23317 54.50108
#
# Velocity S-wave (km/s) = 5.59348 3.54476 4.68254
# Velocity P-wave (km/s) = 7.54281 6.47410 7.02880
#
# Compressibility (1/GPa) = 0.02650593
#
# Stress axis : x y z
#
# Youngs Moduli (GPa) = 90.52118 183.47852 40.51206
#
# Poissons Ratio (x) = 0.32016 0.17374
# Poissons Ratio (y) = 0.15796 0.05284
# Poissons Ratio (z) = 0.38820 0.23930
#
# Static dielectric constant tensor:
#      x y z
#    x 2.099320 0.000000 0.006030 
#    y 0.000000 2.004440 0.000000 
#    z 0.006030 0.000000 2.040100 
# 
# From -- ./inp_files/33958.got.cif
#   From: 2010.05.17/outbox.cif.g08.bks.cpg/sg5_17_cif.got.tgz:33958.got - 2010.06.03 18:56:24.
