data_PCOD9123525
_publ_section_title
;
Structure prediction by ZEFSAII (Michael W. Deem and Ramdas Pophale) SiO2 
 PCOD9123525
Probable space group: C 2
;
_chemical_formula_sum "Si O2"
_cell_formula_units_Z 28
_cell_length_a 6.974776
_cell_length_b 12.691733
_cell_length_c 14.512249
_cell_angle_alpha 90.000000
_cell_angle_beta 63.024224
_cell_angle_gamma 90.000000
_cell_volume 1144.880885
_symmetry_space_group_name_H-M "C 2"
_symmetry_group_IT_number 5
_symmetry_cell_setting 'monoclinic'
loop_
_space_group_symop_operation_xyz
x,y,z
-x,y,-z
1/2+x,1/2+y,z
1/2-x,1/2+y,-z
loop_
_atom_site_type_symbol
_atom_site_label
_atom_site_fract_x
_atom_site_fract_y
_atom_site_fract_z
Si Si1 0.142618 0.311580 0.735030
Si Si2 0.050117 0.963282 0.096093
Si Si3 0.735930 0.601511 0.492451
Si Si4 0.000000 0.790507 0.500000
Si Si5 0.099814 0.731272 0.149941
Si Si6 0.541722 0.582420 0.715603
Si Si7 0.000000 0.579926 0.000000
Si Si8 0.597974 0.030057 0.719822
O O1 0.342189 0.333661 0.617791
O O2 0.213708 0.275226 0.822052
O O3 0.021572 0.208680 0.723402
O O4 0.003984 0.418108 0.770906
O O5 0.010860 0.842748 0.133348
O O6 0.295017 0.004088 0.061530
O O7 0.911336 0.036666 0.194661
O O8 0.000000 0.979298 0.000000
O O9 0.500000 0.609884 0.500000
O O10 0.715611 0.558760 0.599829
O O11 0.865502 0.527728 0.396669
O O12 0.840601 0.715351 0.477723
O O13 0.988898 0.646388 0.241250
O O14 0.094243 0.657388 0.059331
O O15 0.324504 0.532558 0.724859
#
# Coordination Sequence:
#
# PCOD9123525 Si02
#       8
#     4   4   4   2   4   4   2   4
#     4  11  23  40  70 101 138 192 232 290 354 422
#     4  12  26  50  75 105 140 192 237 300 363 420
#     4   9  20  38  69  99 141 184 231 289 344 427
#     4  10  20  38  68  98 140 190 238 280 352 418
#     4  12  23  47  70 102 138 181 236 294 356 423
#     4  10  22  44  66 103 138 179 239 285 350 421
#     4  12  26  50  74 104 144 180 242 304 358 424
#     4  11  22  44  69  99 143 183 229 288 359 422
#
# _framework density 24.456695
#
# number of rings (size 3 to 8) (size 9 to 14) (size 15 to 20)
#    0.000    1.143    5.000    0.857    3.000    0.000 
#   14.143    0.000    6.286    0.000    0.000    0.000 
#    0.000    0.000    0.000    0.000    0.000    0.000 
#
# Total GULP energy -78041.748948 kJ/mol
# GULP energy per Si atom -5574.410639 kJ/mol
# Density = 2.440103 g / cm^3
# Si number density = 24.456695 Si / 1000 Ang^3
#
#
#
# Elastic Constant Matrix: (Units=GPa)
#
#
# Indices 1 2 3 4 5 6 
#
# 1 89.8921 37.1329 25.9289 0.0000 19.6935 0.0000
# 2 37.1329 188.5300 61.0600 0.0000 1.1975 0.0000
# 3 25.9289 61.0600 138.6500 0.0000 26.1918 0.0000
# 4 0.0000 0.0000 0.0000 32.4311 0.0000 11.1484
# 5 19.6935 1.1975 26.1918 0.0000 23.3415 0.0000
# 6 0.0000 0.0000 0.0000 11.1484 0.0000 35.9790
#
#
#
# Elastic Compliance Matrix: (Units=1/GPa)
#
#
# Indices 1 2 3 4 5 6 
#
# 1 0.015218 -0.003323 0.001283 0.000000 -0.014109 0.000000
# 2 -0.003323 0.007143 -0.003787 0.000000 0.006687 0.000000
# 3 0.001283 -0.003787 0.011178 0.000000 -0.013430 0.000000
# 4 0.000000 0.000000 0.000000 0.034510 0.000000 -0.010693
# 5 -0.014109 0.006687 -0.013430 0.000000 0.069473 0.000000
# 6 0.000000 0.000000 0.000000 -0.010693 0.000000 0.031107
#
#
# Mechanical properties :
#
#
# Convention : Reuss Voigt Hill
#
# Bulk Modulus (GPa) = 45.69800 73.92395 59.81098
# Shear Modulus (GPa) = 26.65533 37.88035 32.26784
#
# Velocity S-wave (km/s) = 3.30494 3.93984 3.63628
# Velocity P-wave (km/s) = 5.76969 7.14063 6.49145
#
# Compressibility (1/GPa) = 0.02188280
#
# Stress axis : x y z
#
# Youngs Moduli (GPa) = 65.71121 139.99876 89.46487
#
# Poissons Ratio (x) = 0.46524 -0.11476
# Poissons Ratio (y) = 0.21837 0.33885
# Poissons Ratio (z) = -0.08429 0.53024
#
# Static dielectric constant tensor:
#      x y z
#    x 1.983690 0.000000 -0.059700 
#    y 0.000000 1.875100 0.000000 
#    z -0.059700 0.000000 2.044540 
# 
# From -- ./inp_files/50286.got.cif
#   From: 2010.05.17/outbox.cif.g08.bks.cpg/sg5_26_cif.got.tgz:50286.got - 2010.06.03 18:56:24.
