data_PCOD9123692
_publ_section_title
;
Structure prediction by ZEFSAII (Michael W. Deem and Ramdas Pophale) SiO2 
 PCOD9123692
Probable space group: C 2
;
_chemical_formula_sum "Si O2"
_cell_formula_units_Z 30
_cell_length_a 14.131955
_cell_length_b 8.729576
_cell_length_c 16.465273
_cell_angle_alpha 90.000000
_cell_angle_beta 37.926035
_cell_angle_gamma 90.000000
_cell_volume 1248.497744
_symmetry_space_group_name_H-M "C 2"
_symmetry_group_IT_number 5
_symmetry_cell_setting 'monoclinic'
loop_
_space_group_symop_operation_xyz
x,y,z
-x,y,-z
1/2+x,1/2+y,z
1/2-x,1/2+y,-z
loop_
_atom_site_type_symbol
_atom_site_label
_atom_site_fract_x
_atom_site_fract_y
_atom_site_fract_z
Si Si1 0.356864 0.876990 0.155149
Si Si2 0.748367 0.372556 0.574911
Si Si3 0.063962 0.382548 0.291479
Si Si4 0.108081 0.882473 0.187750
Si Si5 0.159576 0.635628 0.364922
Si Si6 0.798562 0.710248 0.233268
Si Si7 0.000000 0.951444 0.000000
Si Si8 0.247200 0.562160 0.050763
O O1 0.205131 0.888255 0.203012
O O2 0.305641 0.741900 0.248835
O O3 0.376116 0.045619 0.178309
O O4 0.500000 0.848312 0.000000
O O5 0.571407 0.379976 0.670637
O O6 0.791033 0.524232 0.596229
O O7 0.758823 0.242835 0.637331
O O8 0.882457 0.354737 0.418728
O O9 0.111373 0.524432 0.321254
O O10 0.157546 0.240566 0.266518
O O11 0.125518 0.432848 0.162353
O O12 0.160371 0.723195 0.109362
O O13 0.166856 0.016810 0.089319
O O14 0.000000 0.716143 0.500000
O O15 0.918809 0.840123 0.121032
O O16 0.875933 0.048658 0.034492
#
# Coordination Sequence:
#
# PCOD9123692 Si02
#       8
#     4   4   4   4   4   4   2   4
#     4  12  27  41  63 102 139 169 220 276 331 382
#     4  10  22  45  71  94 123 175 226 266 328 400
#     4   9  20  43  71  91 125 179 219 259 331 405
#     4  12  28  41  66 102 135 172 217 280 327 389
#     4   9  20  43  71  94 124 174 224 262 325 404
#     4  10  20  39  68  96 128 171 216 268 315 393
#     4  10  20  42  70  90 126 180 216 254 332 398
#     4  11  25  44  70  98 133 171 223 270 331 394
#
# _framework density 24.028877999999999
#
# number of rings (size 3 to 8) (size 9 to 14) (size 15 to 20)
#    0.000    1.600    3.333    1.200    8.400    1.067 
#    2.400    1.333    0.000    0.000    0.000    0.000 
#    0.000    0.000    0.000    0.000    0.000    0.000 
#
# Total GULP energy -83947.575351 kJ/mol
# GULP energy per Si atom -5596.505023 kJ/mol
# Density = 2.397419 g / cm^3
# Si number density = 24.028878 Si / 1000 Ang^3
#
#
#
# Elastic Constant Matrix: (Units=GPa)
#
#
# Indices 1 2 3 4 5 6 
#
# 1 40.0665 -14.3593 8.4870 0.0000 -17.4080 0.0000
# 2 -14.3593 82.1343 33.6112 0.0000 -10.3885 0.0000
# 3 8.4870 33.6112 156.3133 0.0000 -36.8353 0.0000
# 4 0.0000 0.0000 0.0000 25.7909 0.0000 -4.9204
# 5 -17.4080 -10.3885 -36.8353 0.0000 36.1846 0.0000
# 6 0.0000 0.0000 0.0000 -4.9204 0.0000 12.9906
#
#
#
# Elastic Compliance Matrix: (Units=1/GPa)
#
#
# Indices 1 2 3 4 5 6 
#
# 1 0.037255 0.008763 0.001196 0.000000 0.021657 0.000000
# 2 0.008763 0.015451 -0.002315 0.000000 0.006295 0.000000
# 3 0.001196 -0.002315 0.008958 0.000000 0.009030 0.000000
# 4 0.000000 0.000000 0.000000 0.041793 0.000000 0.015830
# 5 0.021657 0.006295 0.009030 0.000000 0.049055 0.000000
# 6 0.000000 0.000000 0.000000 0.015830 0.000000 0.082975
#
#
# Mechanical properties :
#
#
# Convention : Reuss Voigt Hill
#
# Bulk Modulus (GPa) = 12.99500 37.11021 25.05261
# Shear Modulus (GPa) = 20.33774 31.71155 26.02465
#
# Velocity S-wave (km/s) = 2.91243 3.63675 3.29455
# Velocity P-wave (km/s) = 4.09017 5.75431 4.99207
#
# Compressibility (1/GPa) = 0.07695266
#
# Stress axis : x y z
#
# Youngs Moduli (GPa) = 26.84219 64.72265 111.63044
#
# Poissons Ratio (x) = -0.56715 -0.13356
# Poissons Ratio (y) = -0.23521 0.25837
# Poissons Ratio (z) = -0.03211 0.14980
#
# Static dielectric constant tensor:
#      x y z
#    x 1.915540 0.000000 0.024060 
#    y 0.000000 1.987330 0.000000 
#    z 0.024060 0.000000 2.029700 
# 
# From -- ./inp_files/66600.got.cif
#   From: 2010.05.17/outbox.cif.g08.bks.cpg/sg5_34_cif.got.tgz:66600.got - 2010.06.03 18:56:24.
