data_PCOD9123202
_publ_section_title
;
Structure prediction by ZEFSAII (Michael W. Deem and Ramdas Pophale) SiO2 
 PCOD9123202
Probable space group: C 2
;
_chemical_formula_sum "Si O2"
_cell_formula_units_Z 24
_cell_length_a 13.842782
_cell_length_b 16.558433
_cell_length_c 8.809710
_cell_angle_alpha 90.000000
_cell_angle_beta 39.972869
_cell_angle_gamma 90.000000
_cell_volume 1297.258493
_symmetry_space_group_name_H-M "C 2"
_symmetry_group_IT_number 5
_symmetry_cell_setting 'monoclinic'
loop_
_space_group_symop_operation_xyz
x,y,z
-x,y,-z
1/2+x,1/2+y,z
1/2-x,1/2+y,-z
loop_
_atom_site_type_symbol
_atom_site_label
_atom_site_fract_x
_atom_site_fract_y
_atom_site_fract_z
Si Si1 0.454891 0.554690 0.885342
Si Si2 0.393147 0.713687 0.767075
Si Si3 0.367125 0.116236 0.048683
Si Si4 0.131453 0.355797 0.966002
Si Si5 0.645533 0.473948 0.431509
Si Si6 0.384194 0.999706 0.773429
O O1 0.456603 0.631441 0.768828
O O2 0.578740 0.490800 0.677232
O O3 0.500000 0.579641 0.000000
O O4 0.287464 0.516666 0.073619
O O5 0.500000 0.741958 0.500000
O O6 0.239267 0.688892 0.870291
O O7 0.363660 0.775092 0.939989
O O8 0.264228 0.044860 0.246914
O O9 0.500000 0.138029 0.000000
O O10 0.429641 0.077113 0.819075
O O11 0.107709 0.424882 0.121430
O O12 0.276439 0.388795 0.699270
O O13 0.000000 0.351965 0.000000
O O14 0.500000 0.482389 0.500000
O O15 0.500000 0.987660 0.500000
#
# Coordination Sequence:
#
# PCOD9123202 Si02
#       6
#     4   4   4   4   4   4
#     4  11  22  36  67  92 119 168 214 252 311 370
#     4  11  21  43  62  90 129 169 205 260 317 378
#     4  10  20  37  66  90 121 163 211 257 317 360
#     4  11  24  39  62  90 125 167 210 253 320 366
#     4  11  18  42  64  88 124 168 206 265 302 373
#     4  10  21  36  58  93 124 156 209 263 301 368
#
# _framework density 18.500553
#
# number of rings (size 3 to 8) (size 9 to 14) (size 15 to 20)
#    0.000    1.333    6.667    3.000    4.667    0.000 
#    0.000    5.833    0.000    0.000    0.000    0.000 
#    0.000    0.000    0.000    0.000    0.000    0.000 
#
# Total GULP energy -66919.109754 kJ/mol
# GULP energy per Si atom -5576.592479 kJ/mol
# Density = 1.845844 g / cm^3
# Si number density = 18.500553 Si / 1000 Ang^3
#
#
#
# Elastic Constant Matrix: (Units=GPa)
#
#
# Indices 1 2 3 4 5 6 
#
# 1 144.6159 36.5130 29.8364 0.0001 -2.0786 0.0000
# 2 36.5130 72.6275 30.9456 0.0001 -11.8239 0.0000
# 3 29.8364 30.9456 96.2145 0.0001 2.6239 0.0000
# 4 0.0001 0.0001 0.0001 25.7223 -0.0001 3.9470
# 5 -2.0786 -11.8239 2.6239 -0.0001 13.8214 0.0000
# 6 0.0000 0.0000 0.0000 3.9470 0.0000 4.2033
#
#
#
# Elastic Compliance Matrix: (Units=1/GPa)
#
#
# Indices 1 2 3 4 5 6 
#
# 1 0.008115 -0.003859 -0.001225 0.000000 -0.001848 0.000000
# 2 -0.003859 0.021441 -0.006216 0.000000 0.018943 0.000000
# 3 -0.001225 -0.006216 0.012990 0.000000 -0.007968 0.000000
# 4 0.000000 0.000000 0.000000 0.045422 0.000000 -0.042652
# 5 -0.001848 0.018943 -0.007968 0.000000 0.089792 -0.000001
# 6 0.000000 0.000000 0.000000 -0.042652 -0.000001 0.277959
#
#
# Mechanical properties :
#
#
# Convention : Reuss Voigt Hill
#
# Bulk Modulus (GPa) = 50.13400 56.44976 53.29188
# Shear Modulus (GPa) = 10.30997 23.16025 16.73511
#
# Velocity S-wave (km/s) = 2.36324 3.54201 3.01088
# Velocity P-wave (km/s) = 5.88252 6.87797 6.39963
#
# Compressibility (1/GPa) = 0.01994654
#
# Stress axis : x y z
#
# Youngs Moduli (GPa) = 123.22337 46.63876 76.98248
#
# Poissons Ratio (x) = 0.17997 0.09431
# Poissons Ratio (y) = 0.47550 0.47854
# Poissons Ratio (z) = 0.15096 0.28992
#
# Static dielectric constant tensor:
#      x y z
#    x 1.631760 0.000000 0.008050 
#    y 0.000000 1.657010 0.000000 
#    z 0.008050 0.000000 1.680470 
# 
# From -- ./inp_files/21168.got.cif
#   From: 2010.05.17/outbox.cif.g08.bks.cpg/sg5_11_cif.got.tgz:21168.got - 2010.06.03 18:56:24.
