data_PCOD9123225
_publ_section_title
;
Structure prediction by ZEFSAII (Michael W. Deem and Ramdas Pophale) SiO2 
 PCOD9123225
Probable space group: C 2
;
_chemical_formula_sum "Si O2"
_cell_formula_units_Z 26
_cell_length_a 19.103095
_cell_length_b 11.500135
_cell_length_c 8.295681
_cell_angle_alpha 90.000000
_cell_angle_beta 43.755365
_cell_angle_gamma 90.000000
_cell_volume 1260.380217
_symmetry_space_group_name_H-M "C 2"
_symmetry_group_IT_number 5
_symmetry_cell_setting 'monoclinic'
loop_
_space_group_symop_operation_xyz
x,y,z
-x,y,-z
1/2+x,1/2+y,z
1/2-x,1/2+y,-z
loop_
_atom_site_type_symbol
_atom_site_label
_atom_site_fract_x
_atom_site_fract_y
_atom_site_fract_z
Si Si1 0.136463 0.288860 0.164566
Si Si2 0.160848 0.714131 0.287672
Si Si3 0.443993 0.468660 0.936750
Si Si4 0.507659 0.953272 0.806447
Si Si5 0.972903 0.721013 0.801486
Si Si6 0.290229 0.968590 0.707735
Si Si7 0.000000 0.079001 0.500000
O O1 0.192731 0.355469 0.214381
O O2 0.050020 0.368680 0.224611
O O3 0.091700 0.169905 0.313202
O O4 0.227767 0.266018 0.888740
O O5 0.095868 0.747097 0.240603
O O6 0.171086 0.576291 0.251593
O O7 0.090297 0.737015 0.557378
O O8 0.443371 0.329028 0.958543
O O9 0.495006 0.505359 0.677663
O O10 0.500000 0.520807 0.000000
O O11 0.325126 0.497560 0.138382
O O12 0.627072 0.960331 0.569800
O O13 0.463903 0.086074 0.868457
O O14 0.500000 0.908255 0.000000
#
# Coordination Sequence:
#
# PCOD9123225 Si02
#       7
#     4   4   4   4   4   4   2
#     4  12  22  42  70  97 132 176 227 274 341 407
#     4  10  20  37  68  96 129 178 224 270 333 408
#     4  12  27  46  67 100 141 177 228 282 339 407
#     4  11  24  42  67 100 136 173 227 284 336 400
#     4  10  21  41  67  97 133 173 227 281 331 399
#     4  11  22  43  65  96 132 175 223 278 333 403
#     4  12  26  46  68 100 138 184 222 278 344 408
#
# _framework density 20.628695
#
# number of rings (size 3 to 8) (size 9 to 14) (size 15 to 20)
#    0.000    0.923    6.154    1.385    0.000    1.846 
#    2.769    1.538    0.000    0.000    0.000    0.000 
#    0.000    0.000    0.000    0.000    0.000    0.000 
#
# Total GULP energy -72400.364173 kJ/mol
# GULP energy per Si atom -5569.258783 kJ/mol
# Density = 2.058174 g / cm^3
# Si number density = 20.628695 Si / 1000 Ang^3
#
#
#
# Elastic Constant Matrix: (Units=GPa)
#
#
# Indices 1 2 3 4 5 6 
#
# 1 98.0975 7.6553 49.2706 0.0000 3.2367 0.0000
# 2 7.6553 64.4187 6.7157 0.0000 -0.1716 0.0000
# 3 49.2706 6.7157 91.6772 0.0000 -17.8550 0.0000
# 4 0.0000 0.0000 0.0000 25.1631 0.0000 -8.7160
# 5 3.2367 -0.1716 -17.8550 0.0000 34.2182 0.0000
# 6 0.0000 0.0000 0.0000 -8.7160 0.0000 4.1810
#
#
#
# Elastic Compliance Matrix: (Units=1/GPa)
#
#
# Indices 1 2 3 4 5 6 
#
# 1 0.015137 -0.000846 -0.009298 0.000000 -0.006288 0.000000
# 2 -0.000846 0.015701 -0.000740 0.000000 -0.000227 0.000000
# 3 -0.009298 -0.000740 0.017954 0.000000 0.010244 0.000000
# 4 0.000000 0.000000 0.000000 0.142997 0.000000 0.298101
# 5 -0.006288 -0.000227 0.010244 0.000000 0.035163 0.000000
# 6 0.000000 0.000000 0.000000 0.298101 0.000000 0.860618
#
#
# Mechanical properties :
#
#
# Convention : Reuss Voigt Hill
#
# Bulk Modulus (GPa) = 37.00341 42.38632 39.69486
# Shear Modulus (GPa) = 4.47089 25.41590 14.94339
#
# Velocity S-wave (km/s) = 1.47378 3.51389 2.69438
# Velocity P-wave (km/s) = 4.56868 6.08729 5.38182
#
# Compressibility (1/GPa) = 0.02702454
#
# Stress axis : x y z
#
# Youngs Moduli (GPa) = 66.06113 63.69222 55.69702
#
# Poissons Ratio (x) = 0.05390 0.51787
# Poissons Ratio (y) = 0.05591 0.04119
# Poissons Ratio (z) = 0.61424 0.04710
#
# Static dielectric constant tensor:
#      x y z
#    x 1.736300 0.000000 0.015050 
#    y 0.000000 1.776280 0.000000 
#    z 0.015050 0.000000 1.808320 
# 
# From -- ./inp_files/29580.got.cif
#   From: 2010.05.17/outbox.cif.g08.bks.cpg/sg5_15_cif.got.tgz:29580.got - 2010.06.03 18:56:24.
