data_PCOD9123419
_publ_section_title
;
Structure prediction by ZEFSAII (Michael W. Deem and Ramdas Pophale) SiO2 
 PCOD9123419
Probable space group: C 2
;
_chemical_formula_sum "Si O2"
_cell_formula_units_Z 30
_cell_length_a 12.933597
_cell_length_b 10.332477
_cell_length_c 22.240634
_cell_angle_alpha 90.000000
_cell_angle_beta 26.274034
_cell_angle_gamma 90.000000
_cell_volume 1315.667017
_symmetry_space_group_name_H-M "C 2"
_symmetry_group_IT_number 5
_symmetry_cell_setting 'monoclinic'
loop_
_space_group_symop_operation_xyz
x,y,z
-x,y,-z
1/2+x,1/2+y,z
1/2-x,1/2+y,-z
loop_
_atom_site_type_symbol
_atom_site_label
_atom_site_fract_x
_atom_site_fract_y
_atom_site_fract_z
Si Si1 0.483977 0.135800 0.580069
Si Si2 0.025665 0.573196 0.780847
Si Si3 0.948266 0.540460 0.089483
Si Si4 0.717612 0.304041 0.068880
Si Si5 0.046996 0.279776 0.787463
Si Si6 0.500000 0.707167 0.500000
Si Si7 0.799646 0.368525 0.708801
Si Si8 0.512088 0.657930 0.303882
O O1 0.500000 0.101560 0.500000
O O2 0.312540 0.259521 0.671414
O O3 0.747235 0.157066 0.464889
O O4 0.367853 0.017922 0.676618
O O5 0.017392 0.583596 0.858828
O O6 0.000970 0.421336 0.783969
O O7 0.270912 0.618997 0.625536
O O8 0.836470 0.680895 0.860629
O O9 0.665884 0.531453 0.236849
O O10 0.000000 0.618679 0.000000
O O11 0.120960 0.419482 0.991763
O O12 0.463815 0.356362 0.179592
O O13 0.868039 0.257920 0.933729
O O14 0.009238 0.175486 0.755873
O O15 0.475518 0.801384 0.569508
O O16 0.843600 0.278687 0.743693
#
# Coordination Sequence:
#
# PCOD9123419 Si02
#       8
#     4   4   4   4   4   2   4   4
#     4  10  24  41  65  96 132 178 224 269 334 399
#     4  10  22  42  69  96 132 182 215 273 349 395
#     4  11  23  40  70 102 130 168 233 280 329 402
#     4  10  23  42  69  98 129 180 222 270 352 394
#     4  10  24  42  69  97 136 173 223 285 331 406
#     4  10  20  38  64  92 138 176 220 266 338 406
#     4  11  23  40  65  97 133 178 222 277 332 405
#     4  11  24  40  64 104 129 177 226 281 333 385
#
# _framework density 22.802123000000002
#
# number of rings (size 3 to 8) (size 9 to 14) (size 15 to 20)
#    0.000    1.600    3.333    0.800   10.267    3.200 
#    0.000    2.667    0.000    0.000    0.000    0.000 
#    0.000    0.000    0.000    0.000    0.000    0.000 
#
# Total GULP energy -83605.781300 kJ/mol
# GULP energy per Si atom -5573.718753 kJ/mol
# Density = 2.275022 g / cm^3
# Si number density = 22.802123 Si / 1000 Ang^3
#
#
#
# Elastic Constant Matrix: (Units=GPa)
#
#
# Indices 1 2 3 4 5 6 
#
# 1 59.0755 1.8502 28.5499 -0.0021 -6.2051 0.0002
# 2 1.8502 97.5397 63.1546 -0.0078 -27.7554 0.0009
# 3 28.5499 63.1546 146.3926 -0.0365 -20.2329 0.0022
# 4 -0.0021 -0.0078 -0.0365 36.5636 -0.0047 1.2607
# 5 -6.2051 -27.7554 -20.2329 -0.0047 46.2512 0.0012
# 6 0.0002 0.0009 0.0022 1.2607 0.0012 17.7126
#
#
#
# Elastic Compliance Matrix: (Units=1/GPa)
#
#
# Indices 1 2 3 4 5 6 
#
# 1 0.019504 0.003606 -0.005001 -0.000003 0.002593 0.000000
# 2 0.003606 0.016805 -0.006910 -0.000002 0.007546 0.000000
# 3 -0.005001 -0.006910 0.010773 0.000009 -0.000105 -0.000002
# 4 -0.000003 -0.000002 0.000009 0.027417 0.000005 -0.001951
# 5 0.002593 0.007546 -0.000105 0.000005 0.026451 -0.000003
# 6 0.000000 0.000000 -0.000002 -0.001951 -0.000003 0.056596
#
#
# Mechanical properties :
#
#
# Convention : Reuss Voigt Hill
#
# Bulk Modulus (GPa) = 32.81792 54.45747 43.63769
# Shear Modulus (GPa) = 27.12773 34.06901 30.59837
#
# Velocity S-wave (km/s) = 3.45295 3.86957 3.66718
# Velocity P-wave (km/s) = 5.50644 6.62565 6.09180
#
# Compressibility (1/GPa) = 0.03047116
#
# Stress axis : x y z
#
# Youngs Moduli (GPa) = 51.27227 59.50548 92.82640
#
# Poissons Ratio (x) = -0.21456 0.46421
# Poissons Ratio (y) = -0.18488 0.64145
# Poissons Ratio (z) = 0.25641 0.41119
#
# Static dielectric constant tensor:
#      x y z
#    x 1.904190 0.000000 -0.011330 
#    y 0.000000 1.942980 0.000000 
#    z -0.011330 0.000000 1.851860 
# 
# From -- ./inp_files/70693.got.cif
#   From: 2010.05.17/outbox.cif.g08.bks.cpg/sg5_36_cif.got.tgz:70693.got - 2010.06.03 18:56:24.
