data_PCOD9123770
_publ_section_title
;
Structure prediction by ZEFSAII (Michael W. Deem and Ramdas Pophale) SiO2 
 PCOD9123770
Probable space group: C 2
;
_chemical_formula_sum "Si O2"
_cell_formula_units_Z 20
_cell_length_a 12.437697
_cell_length_b 11.640932
_cell_length_c 6.617644
_cell_angle_alpha 90.000000
_cell_angle_beta 74.358484
_cell_angle_gamma 90.000000
_cell_volume 922.662215
_symmetry_space_group_name_H-M "C 2"
_symmetry_group_IT_number 5
_symmetry_cell_setting 'monoclinic'
loop_
_space_group_symop_operation_xyz
x,y,z
-x,y,-z
1/2+x,1/2+y,z
1/2-x,1/2+y,-z
loop_
_atom_site_type_symbol
_atom_site_label
_atom_site_fract_x
_atom_site_fract_y
_atom_site_fract_z
Si Si1 0.500000 0.580420 0.500000
Si Si2 0.100743 0.444500 0.564802
Si Si3 0.388471 0.572759 0.934777
Si Si4 0.665766 0.152747 0.233037
Si Si5 0.000000 0.569281 0.000000
Si Si6 0.671430 0.399523 0.369927
O O1 0.439855 0.641621 0.715573
O O2 0.593180 0.488429 0.531788
O O3 0.134228 0.550185 0.400961
O O4 0.054379 0.493207 0.798135
O O5 0.213693 0.382999 0.569540
O O6 0.000000 0.382663 0.500000
O O7 0.327229 0.466020 0.849376
O O8 0.500000 0.539395 0.000000
O O9 0.296452 0.640624 0.108794
O O10 0.630932 0.272130 0.350218
O O11 0.596013 0.140494 0.062246
#
# Coordination Sequence:
#
# PCOD9123770 Si02
#       6
#     2   4   4   4   2   4
#     4   8  20  36  66  84 128 156 206 260 294 376
#     4  10  22  42  63  87 130 164 203 259 310 371
#     4  10  21  40  63  90 128 165 203 259 314 367
#     4  11  23  39  67  93 125 163 212 258 310 372
#     4  10  20  40  62  92 122 162 204 266 308 364
#     4  10  22  42  62  93 125 161 217 250 313 371
#
# _framework density 21.676406
#
# number of rings (size 3 to 8) (size 9 to 14) (size 15 to 20)
#    1.200    0.800    2.000    1.200    5.600    0.000 
#    5.400    2.000    0.000    0.000    0.000    0.000 
#    0.000    0.000    0.000    0.000    0.000    0.000 
#
# Total GULP energy -55679.661114 kJ/mol
# GULP energy per Si atom -5567.966111 kJ/mol
# Density = 2.162707 g / cm^3
# Si number density = 21.676406 Si / 1000 Ang^3
#
#
#
# Elastic Constant Matrix: (Units=GPa)
#
#
# Indices 1 2 3 4 5 6 
#
# 1 131.9252 -2.3102 36.1317 0.0000 20.2823 0.0000
# 2 -2.3102 41.0338 12.6141 0.0000 4.9966 0.0000
# 3 36.1317 12.6141 108.2283 0.0000 -6.4395 0.0000
# 4 0.0000 0.0000 0.0000 10.5001 0.0000 1.6103
# 5 20.2823 4.9966 -6.4395 0.0000 56.7077 0.0000
# 6 0.0000 0.0000 0.0000 1.6103 0.0000 -7.2632
#
#
#
# Elastic Compliance Matrix: (Units=1/GPa)
#
#
# Indices 1 2 3 4 5 6 
#
# 1 0.009180 0.002075 -0.003537 0.000000 -0.003868 0.000000
# 2 0.002075 0.026125 -0.003945 0.000000 -0.003492 0.000000
# 3 -0.003537 -0.003945 0.011051 0.000000 0.002867 0.000000
# 4 0.000000 0.000000 0.000000 0.092106 0.000000 0.020420
# 5 -0.003868 -0.003492 0.002867 0.000000 0.019651 0.000000
# 6 0.000000 0.000000 0.000000 0.020420 0.000000 -0.133154
#
#
# Mechanical properties :
#
#
# Convention : Reuss Voigt Hill
#
# Bulk Modulus (GPa) = 28.13617 41.56206 34.84912
# Shear Modulus (GPa) = 104.99891 27.63905 66.31898
#
# Velocity S-wave (km/s) = 6.96738 3.57469 5.53728
# Velocity P-wave (km/s) = 8.81670 6.02108 7.54942
#
# Compressibility (1/GPa) = 0.03554144
#
# Stress axis : x y z
#
# Youngs Moduli (GPa) = 108.93739 38.27751 90.49086
#
# Poissons Ratio (x) = -0.07942 0.32002
# Poissons Ratio (y) = -0.22604 0.35702
# Poissons Ratio (z) = 0.38526 0.15102
#
# Static dielectric constant tensor:
#      x y z
#    x 1.871490 0.000000 0.007880 
#    y 0.000000 1.742040 0.000000 
#    z 0.007880 0.000000 1.815030 
# 
# From -- ./inp_files/4685.got.cif
#   From: 2010.05.17/outbox.cif.g08.bks.cpg/sg5_3_cif.got.tgz:4685.got - 2010.06.03 18:56:24.
