data_PCOD9123282
_publ_section_title
;
Structure prediction by ZEFSAII (Michael W. Deem and Ramdas Pophale) SiO2 
 PCOD9123282
Probable space group: C 2
;
_chemical_formula_sum "Si O2"
_cell_formula_units_Z 24
_cell_length_a 24.220061
_cell_length_b 8.123267
_cell_length_c 17.049634
_cell_angle_alpha 90.000000
_cell_angle_beta 161.625831
_cell_angle_gamma 90.000000
_cell_volume 1057.393078
_symmetry_space_group_name_H-M "C 2"
_symmetry_group_IT_number 5
_symmetry_cell_setting 'monoclinic'
loop_
_space_group_symop_operation_xyz
x,y,z
-x,y,-z
1/2+x,1/2+y,z
1/2-x,1/2+y,-z
loop_
_atom_site_type_symbol
_atom_site_label
_atom_site_fract_x
_atom_site_fract_y
_atom_site_fract_z
Si Si1 0.189543 0.331150 0.754688
Si Si2 0.900669 0.500397 0.790735
Si Si3 0.687046 0.356194 0.255347
Si Si4 0.897817 0.980642 0.287594
Si Si5 0.479503 0.880876 0.205396
Si Si6 0.979254 0.998802 0.719940
O O1 0.248588 0.307501 0.744503
O O2 0.150337 0.163202 0.747972
O O3 0.000000 0.422018 0.500000
O O4 0.352620 0.413633 0.017002
O O5 0.859339 0.689830 0.758474
O O6 0.018787 0.476245 0.874247
O O7 0.710222 0.425520 0.514178
O O8 0.000000 0.428543 0.000000
O O9 0.854100 0.442361 0.520111
O O10 0.500000 0.448723 0.000000
O O11 0.009958 0.991437 0.359999
O O12 0.000000 0.903363 0.500000
O O13 0.712443 0.898563 0.017070
O O14 0.510126 0.686824 0.236923
#
# Coordination Sequence:
#
# PCOD9123282 Si02
#       6
#     4   4   4   4   4   4
#     4  11  22  40  63  87 119 162 198 236 294 363
#     4  10  20  38  60  84 115 156 198 239 289 355
#     4  10  20  38  60  85 116 157 198 236 288 357
#     4  11  21  39  64  89 118 162 200 235 290 362
#     4  11  22  38  62  91 119 151 199 253 293 339
#     4  11  23  39  59  92 123 152 197 251 296 340
#
# _framework density 22.697330000000001
#
# number of rings (size 3 to 8) (size 9 to 14) (size 15 to 20)
#    0.000    1.333    0.000   10.000    0.000    2.000 
#    0.000    9.167    0.000    0.000    0.000    0.000 
#    0.000    0.000    0.000    0.000    0.000    0.000 
#
# Total GULP energy -67047.448048 kJ/mol
# GULP energy per Si atom -5587.287337 kJ/mol
# Density = 2.264567 g / cm^3
# Si number density = 22.697330 Si / 1000 Ang^3
#
#
#
# Elastic Constant Matrix: (Units=GPa)
#
#
# Indices 1 2 3 4 5 6 
#
# 1 103.3658 -2.9384 -22.1764 0.0000 -0.6154 0.0000
# 2 -2.9384 14.7185 9.4600 0.0000 -4.6566 0.0000
# 3 -22.1764 9.4600 161.3546 0.0001 -0.4818 0.0000
# 4 0.0000 0.0000 0.0001 46.8224 0.0001 7.5580
# 5 -0.6154 -4.6566 -0.4818 0.0001 44.7220 0.0000
# 6 0.0000 0.0000 0.0000 7.5580 0.0000 15.4214
#
#
#
# Elastic Compliance Matrix: (Units=1/GPa)
#
#
# Indices 1 2 3 4 5 6 
#
# 1 0.009991 0.001247 0.001301 0.000000 0.000281 0.000000
# 2 0.001247 0.073229 -0.004099 0.000000 0.007598 0.000000
# 3 0.001301 -0.004099 0.006616 0.000000 -0.000338 0.000000
# 4 0.000000 0.000000 0.000000 0.023192 0.000000 -0.011366
# 5 0.000281 0.007598 -0.000338 0.000000 0.023152 0.000000
# 6 0.000000 0.000000 0.000000 -0.011366 0.000000 0.070416
#
#
# Mechanical properties :
#
#
# Convention : Reuss Voigt Hill
#
# Bulk Modulus (GPa) = 11.52953 27.56991 19.54972
# Shear Modulus (GPa) = 20.95484 41.06605 31.01045
#
# Velocity S-wave (km/s) = 3.04177 4.25819 3.70030
# Velocity P-wave (km/s) = 4.17459 6.02904 5.18539
#
# Compressibility (1/GPa) = 0.08673380
#
# Stress axis : x y z
#
# Youngs Moduli (GPa) = 100.09412 13.65572 151.15717
#
# Poissons Ratio (x) = -0.01704 -0.19663
# Poissons Ratio (y) = -0.12487 0.61962
# Poissons Ratio (z) = -0.13020 0.05598
#
# Static dielectric constant tensor:
#      x y z
#    x 1.806180 0.000000 -0.008500 
#    y 0.000000 1.852670 0.000000 
#    z -0.008500 0.000000 1.972540 
# 
# From -- ./inp_files/22865.got.cif
#   From: 2010.05.17/outbox.cif.g08.bks.cpg/sg5_12_cif.got.tgz:22865.got - 2010.06.03 18:56:24.
