data_PCOD9123614
_publ_section_title
;
Structure prediction by ZEFSAII (Michael W. Deem and Ramdas Pophale) SiO2 
 PCOD9123614
Probable space group: C 2
;
_chemical_formula_sum "Si O2"
_cell_formula_units_Z 28
_cell_length_a 7.964532
_cell_length_b 11.676254
_cell_length_c 14.047259
_cell_angle_alpha 90.000000
_cell_angle_beta 69.862394
_cell_angle_gamma 90.000000
_cell_volume 1226.479091
_symmetry_space_group_name_H-M "C 2"
_symmetry_group_IT_number 5
_symmetry_cell_setting 'monoclinic'
loop_
_space_group_symop_operation_xyz
x,y,z
-x,y,-z
1/2+x,1/2+y,z
1/2-x,1/2+y,-z
loop_
_atom_site_type_symbol
_atom_site_label
_atom_site_fract_x
_atom_site_fract_y
_atom_site_fract_z
Si Si1 0.269818 0.950120 0.795689
Si Si2 0.120858 0.026013 0.629897
Si Si3 0.500000 0.455756 0.000000
Si Si4 0.977812 0.252632 0.274899
Si Si5 0.291874 0.651199 0.928941
Si Si6 0.060660 0.791024 0.332649
Si Si7 0.538526 0.165372 0.144639
Si Si8 0.500000 0.104681 0.500000
O O1 0.396154 0.857293 0.722246
O O2 0.158944 0.010160 0.734826
O O3 0.385790 0.049242 0.822680
O O4 0.138981 0.896517 0.901385
O O5 0.017287 0.147143 0.651462
O O6 0.314700 0.036389 0.543762
O O7 0.015562 0.913268 0.621495
O O8 0.619920 0.537064 0.044580
O O9 0.773548 0.289420 0.304152
O O10 0.052229 0.218155 0.155835
O O11 0.139778 0.633168 0.878570
O O12 0.188408 0.705676 0.039276
O O13 0.988527 0.688498 0.411777
O O14 0.014488 0.757133 0.233143
#
# Coordination Sequence:
#
# PCOD9123614 Si02
#       8
#     4   4   2   4   4   4   4   2
#     4  11  22  40  70  97 142 187 228 280 336 398
#     4  11  24  47  71  98 137 174 226 288 346 415
#     4  10  20  40  64  96 148 192 224 284 322 400
#     4  11  23  40  66 104 139 183 224 276 335 408
#     4  10  20  39  64 102 144 184 238 268 332 400
#     4  11  24  47  73  98 140 178 226 288 349 401
#     4  10  21  41  67 102 138 189 235 277 331 412
#     4  10  24  48  70 104 132 172 230 290 356 408
#
# _framework density 22.82958
#
# number of rings (size 3 to 8) (size 9 to 14) (size 15 to 20)
#    0.000    1.429    4.286    1.714    2.000    4.571 
#    0.000    2.857    0.000    0.000    0.000    0.000 
#    0.000    0.000    0.000    0.000    0.000    0.000 
#
# Total GULP energy -78314.900952 kJ/mol
# GULP energy per Si atom -5593.921497 kJ/mol
# Density = 2.277762 g / cm^3
# Si number density = 22.829580 Si / 1000 Ang^3
#
#
#
# Elastic Constant Matrix: (Units=GPa)
#
#
# Indices 1 2 3 4 5 6 
#
# 1 66.7854 33.2939 27.1853 0.0000 -18.5309 0.0000
# 2 33.2939 87.2963 18.5558 0.0000 -30.3510 0.0000
# 3 27.1853 18.5558 97.4964 0.0000 -37.5174 0.0000
# 4 0.0000 0.0000 0.0000 34.7477 0.0000 -13.3899
# 5 -18.5309 -30.3510 -37.5174 0.0000 44.7833 0.0000
# 6 0.0000 0.0000 0.0000 -13.3899 0.0000 39.9235
#
#
#
# Elastic Compliance Matrix: (Units=1/GPa)
#
#
# Indices 1 2 3 4 5 6 
#
# 1 0.020096 -0.006681 -0.004242 0.000000 0.000234 0.000000
# 2 -0.006681 0.017370 0.002986 0.000000 0.011509 0.000000
# 3 -0.004242 0.002986 0.016196 0.000000 0.013836 0.000000
# 4 0.000000 0.000000 0.000000 0.033050 0.000000 0.011085
# 5 0.000234 0.011509 0.013836 0.000000 0.041818 0.000000
# 6 0.000000 0.000000 0.000000 0.011085 0.000000 0.028766
#
#
# Mechanical properties :
#
#
# Convention : Reuss Voigt Hill
#
# Bulk Modulus (GPa) = 26.46448 45.51647 35.99047
# Shear Modulus (GPa) = 26.91566 35.39377 31.15472
#
# Velocity S-wave (km/s) = 3.43736 3.94172 3.69814
# Velocity P-wave (km/s) = 5.23175 6.37942 5.83387
#
# Compressibility (1/GPa) = 0.03778650
#
# Stress axis : x y z
#
# Youngs Moduli (GPa) = 49.76207 57.56986 61.74530
#
# Poissons Ratio (x) = 0.38465 0.26191
# Poissons Ratio (y) = 0.33248 -0.18436
# Poissons Ratio (z) = 0.21108 -0.17189
#
# Static dielectric constant tensor:
#      x y z
#    x 1.848520 0.000000 -0.015900 
#    y 0.000000 1.884640 0.000000 
#    z -0.015900 0.000000 1.855380 
# 
# From -- ./inp_files/50457.got.cif
#   From: 2010.05.17/outbox.cif.g08.bks.cpg/sg5_26_cif.got.tgz:50457.got - 2010.06.03 18:56:24.
