data_PCOD9123657
_publ_section_title
;
Structure prediction by ZEFSAII (Michael W. Deem and Ramdas Pophale) SiO2 
 PCOD9123657
Probable space group: C 2
;
_chemical_formula_sum "Si O2"
_cell_formula_units_Z 32
_cell_length_a 10.454336
_cell_length_b 19.966774
_cell_length_c 13.379678
_cell_angle_alpha 90.000000
_cell_angle_beta 147.554311
_cell_angle_gamma 90.000000
_cell_volume 1498.372082
_symmetry_space_group_name_H-M "C 2"
_symmetry_group_IT_number 5
_symmetry_cell_setting 'monoclinic'
loop_
_space_group_symop_operation_xyz
x,y,z
-x,y,-z
1/2+x,1/2+y,z
1/2-x,1/2+y,-z
loop_
_atom_site_type_symbol
_atom_site_label
_atom_site_fract_x
_atom_site_fract_y
_atom_site_fract_z
Si Si1 0.431964 0.078780 0.674901
Si Si2 0.215391 0.085161 0.904824
Si Si3 0.462226 0.332315 0.617911
Si Si4 0.645878 0.779970 0.241767
Si Si5 0.331966 0.234249 0.973199
Si Si6 0.019521 0.982846 0.391796
Si Si7 0.328366 0.633902 0.793998
Si Si8 0.241422 0.215333 0.598958
O O1 0.614360 0.097418 0.707327
O O2 0.248399 0.141504 0.556704
O O3 0.279904 0.014351 0.548362
O O4 0.573140 0.071556 0.874303
O O5 0.240179 0.160948 0.876722
O O6 0.981261 0.088422 0.820940
O O7 0.171927 0.031330 0.789321
O O8 0.294593 0.329924 0.409109
O O9 0.731233 0.302191 0.782227
O O10 0.492990 0.409393 0.664577
O O11 0.302118 0.280582 0.575038
O O12 0.379920 0.774703 0.112221
O O13 0.730834 0.702482 0.302056
O O14 0.500000 0.268003 0.000000
O O15 0.521114 0.213312 0.179570
O O16 0.000000 0.980733 0.500000
O O17 0.500000 0.655795 0.000000
O O18 0.000000 0.224897 0.500000
#
# Coordination Sequence:
#
# PCOD9123657 Si02
#       8
#     4   4   4   4   4   4   4   4
#     4  10  22  40  69  96 130 176 222 282 342 398
#     4   9  23  40  63  99 135 164 226 277 332 406
#     4  11  24  43  61  95 133 177 228 271 336 412
#     4  10  20  39  66  90 135 160 214 284 325 402
#     4  10  22  38  67 103 125 166 220 284 347 388
#     4  12  26  43  62  94 135 183 221 270 343 406
#     4   9  18  38  66 100 126 163 219 285 341 394
#     4  11  23  41  68  97 133 172 222 285 344 396
#
# _framework density 21.356511999999999
#
# number of rings (size 3 to 8) (size 9 to 14) (size 15 to 20)
#    0.000    1.750    2.500    1.875    8.750    0.500 
#    4.500    1.250    0.000    0.000    0.000    0.000 
#    0.000    0.000    0.000    0.000    0.000    0.000 
#
# Total GULP energy -89136.609514 kJ/mol
# GULP energy per Si atom -5571.038095 kJ/mol
# Density = 2.130790 g / cm^3
# Si number density = 21.356512 Si / 1000 Ang^3
#
#
#
# Elastic Constant Matrix: (Units=GPa)
#
#
# Indices 1 2 3 4 5 6 
#
# 1 134.0772 45.4508 28.1168 -0.0011 42.5298 -0.0007
# 2 45.4508 108.2948 24.9639 0.0014 15.8358 -0.0007
# 3 28.1168 24.9639 77.2153 0.0012 20.1380 -0.0014
# 4 -0.0011 0.0014 0.0012 -24.0327 0.0007 1.9120
# 5 42.5298 15.8358 20.1380 0.0007 49.1650 -0.0014
# 6 -0.0007 -0.0007 -0.0014 1.9120 -0.0014 16.8376
#
#
#
# Elastic Compliance Matrix: (Units=1/GPa)
#
#
# Indices 1 2 3 4 5 6 
#
# 1 0.011476 -0.003374 -0.000876 -0.000001 -0.008482 0.000000
# 2 -0.003374 0.011171 -0.002470 0.000001 0.000332 0.000000
# 3 -0.000876 -0.002470 0.015297 0.000001 -0.004713 0.000001
# 4 -0.000001 0.000001 0.000001 -0.041237 0.000001 0.004683
# 5 -0.008482 0.000332 -0.004713 0.000001 0.029500 0.000002
# 6 0.000000 0.000000 0.000001 0.004683 0.000002 0.058859
#
#
# Mechanical properties :
#
#
# Convention : Reuss Voigt Hill
#
# Bulk Modulus (GPa) = 40.80805 57.40556 49.10680
# Shear Modulus (GPa) = 46.87145 23.13102 35.00123
#
# Velocity S-wave (km/s) = 4.68986 3.29460 4.05273
# Velocity P-wave (km/s) = 6.96246 6.43510 6.70397
#
# Compressibility (1/GPa) = 0.02450497
#
# Stress axis : x y z
#
# Youngs Moduli (GPa) = 87.13474 89.51801 65.37126
#
# Poissons Ratio (x) = 0.30207 0.05726
# Poissons Ratio (y) = 0.29403 0.16144
# Poissons Ratio (z) = 0.07632 0.22107
#
# Static dielectric constant tensor:
#      x y z
#    x 1.803510 0.000000 0.021020 
#    y 0.000000 1.738530 0.000000 
#    z 0.021020 0.000000 1.894660 
# 
# From -- ./inp_files/53479.got.cif
#   From: 2010.05.17/outbox.cif.g08.bks.cpg/sg5_27_cif.got.tgz:53479.got - 2010.06.03 18:56:24.
