data_PCOD9123755
_publ_section_title
;
Structure prediction by ZEFSAII (Michael W. Deem and Ramdas Pophale) SiO2 
 PCOD9123755
Probable space group: C 2
;
_chemical_formula_sum "Si O2"
_cell_formula_units_Z 32
_cell_length_a 11.493007
_cell_length_b 8.317996
_cell_length_c 19.718196
_cell_angle_alpha 90.000000
_cell_angle_beta 136.384453
_cell_angle_gamma 90.000000
_cell_volume 1300.327758
_symmetry_space_group_name_H-M "C 2"
_symmetry_group_IT_number 5
_symmetry_cell_setting 'monoclinic'
loop_
_space_group_symop_operation_xyz
x,y,z
-x,y,-z
1/2+x,1/2+y,z
1/2-x,1/2+y,-z
loop_
_atom_site_type_symbol
_atom_site_label
_atom_site_fract_x
_atom_site_fract_y
_atom_site_fract_z
Si Si1 0.837849 0.592970 0.384678
Si Si2 0.305442 0.382822 0.277657
Si Si3 0.543008 0.183940 0.783552
Si Si4 0.339070 0.802867 0.979612
Si Si5 0.066869 0.448891 0.369118
Si Si6 0.870192 0.077374 0.580366
Si Si7 0.748545 0.168522 0.071071
Si Si8 0.615189 0.182152 0.152054
O O1 0.764908 0.749823 0.316497
O O2 0.708228 0.511310 0.381878
O O3 0.000000 0.639779 0.500000
O O4 0.914877 0.486262 0.357170
O O5 0.396909 0.292247 0.253749
O O6 0.453639 0.500282 0.366218
O O7 0.159364 0.496636 0.187378
O O8 0.716030 0.164506 0.898650
O O9 0.476065 0.021931 0.721661
O O10 0.412161 0.252507 0.784410
O O11 0.243821 0.974387 0.931439
O O12 0.500000 0.810141 0.000000
O O13 0.372374 0.755012 0.071267
O O14 0.108242 0.263809 0.394625
O O15 0.229349 0.546621 0.464698
O O16 0.750251 0.223476 0.150294
O O17 0.562788 0.204332 0.961086
#
# Coordination Sequence:
#
# PCOD9123755 Si02
#       8
#     4   4   4   4   4   4   4   4
#     4   9  20  38  58  84 123 162 203 255 306 358
#     4  11  21  38  61  90 121 164 210 256 308 365
#     4  10  21  39  65  90 127 166 207 261 310 366
#     4  11  21  44  65  92 125 165 207 257 314 369
#     4  10  21  40  61  93 123 164 211 251 310 371
#     4  11  22  40  64  88 125 167 206 254 310 367
#     4  10  21  42  66  87 126 168 203 254 317 371
#     4  10  20  40  61  89 126 164 203 256 310 368
#
# _framework density 24.609179999999999
#
# number of rings (size 3 to 8) (size 9 to 14) (size 15 to 20)
#    0.000    1.750    2.500    3.000    0.000    1.000 
#   15.750    6.875    0.000    0.000    0.000    0.000 
#    0.000    0.000    0.000    0.000    0.000    0.000 
#
# Total GULP energy -89420.587101 kJ/mol
# GULP energy per Si atom -5588.786694 kJ/mol
# Density = 2.455317 g / cm^3
# Si number density = 24.609180 Si / 1000 Ang^3
#
#
#
# Elastic Constant Matrix: (Units=GPa)
#
#
# Indices 1 2 3 4 5 6 
#
# 1 110.4235 21.0692 22.7782 0.0000 -21.2689 0.0000
# 2 21.0692 28.6442 16.7546 0.0000 -1.9775 0.0000
# 3 22.7782 16.7546 54.6165 0.0000 -6.8922 0.0000
# 4 0.0000 0.0000 0.0000 30.6111 0.0000 2.3716
# 5 -21.2689 -1.9775 -6.8922 0.0000 35.3050 0.0000
# 6 0.0000 0.0000 0.0000 2.3716 0.0000 32.3220
#
#
#
# Elastic Compliance Matrix: (Units=1/GPa)
#
#
# Indices 1 2 3 4 5 6 
#
# 1 0.012110 -0.007293 -0.001993 0.000000 0.006498 0.000000
# 2 -0.007293 0.046938 -0.011873 0.000000 -0.004082 0.000000
# 3 -0.001993 -0.011873 0.023117 0.000000 0.002647 0.000000
# 4 0.000000 0.000000 0.000000 0.032855 0.000000 -0.002411
# 5 0.006498 -0.004082 0.002647 0.000000 0.032527 0.000000
# 6 0.000000 0.000000 0.000000 -0.002411 0.000000 0.031116
#
#
# Mechanical properties :
#
#
# Convention : Reuss Voigt Hill
#
# Bulk Modulus (GPa) = 25.09586 34.98759 30.04173
# Shear Modulus (GPa) = 21.34343 28.51977 24.93160
#
# Velocity S-wave (km/s) = 2.94818 3.40797 3.18638
# Velocity P-wave (km/s) = 4.67000 5.45287 5.07655
#
# Compressibility (1/GPa) = 0.03984721
#
# Stress axis : x y z
#
# Youngs Moduli (GPa) = 82.57356 21.30458 43.25816
#
# Poissons Ratio (x) = 0.15538 0.08623
# Poissons Ratio (y) = 0.60222 0.51359
# Poissons Ratio (z) = 0.16460 0.25294
#
# Static dielectric constant tensor:
#      x y z
#    x 2.009260 0.000000 0.026370 
#    y 0.000000 1.927080 0.000000 
#    z 0.026370 0.000000 2.019440 
# 
# From -- ./inp_files/65140.got.cif
#   From: 2010.05.17/outbox.cif.g08.bks.cpg/sg5_33_cif.got.tgz:65140.got - 2010.06.03 18:56:24.
