data_PCOD9123337
_publ_section_title
;
Structure prediction by ZEFSAII (Michael W. Deem and Ramdas Pophale) SiO2 
 PCOD9123337
Probable space group: C 2
;
_chemical_formula_sum "Si O2"
_cell_formula_units_Z 18
_cell_length_a 17.173794
_cell_length_b 8.774514
_cell_length_c 13.214204
_cell_angle_alpha 90.000000
_cell_angle_beta 156.007209
_cell_angle_gamma 90.000000
_cell_volume 809.693916
_symmetry_space_group_name_H-M "C 2"
_symmetry_group_IT_number 5
_symmetry_cell_setting 'monoclinic'
loop_
_space_group_symop_operation_xyz
x,y,z
-x,y,-z
1/2+x,1/2+y,z
1/2-x,1/2+y,-z
loop_
_atom_site_type_symbol
_atom_site_label
_atom_site_fract_x
_atom_site_fract_y
_atom_site_fract_z
Si Si1 0.063097 0.490970 0.771355
Si Si2 0.861638 0.965750 0.748681
Si Si3 0.430670 0.788139 0.020687
Si Si4 0.000000 0.830778 0.500000
Si Si5 0.450894 0.351151 0.218189
O O1 0.079254 0.671079 0.806954
O O2 0.857676 0.462211 0.477832
O O3 0.056544 0.398463 0.869133
O O4 0.255198 0.429240 0.948107
O O5 0.889090 0.881452 0.674861
O O6 0.000000 0.902835 0.000000
O O7 0.938062 0.137837 0.817792
O O8 0.204993 0.746079 0.742379
O O9 0.500000 0.867896 0.000000
O O10 0.002968 0.912988 0.613547
#
# Coordination Sequence:
#
# PCOD9123337 Si02
#       5
#     4   4   4   2   4
#     4  11  23  39  61  90 122 159 202 248 298 357
#     4  11  23  40  64  91 122 160 200 248 300 357
#     4  10  21  39  64  89 121 161 200 246 300 360
#     4  10  20  38  62  86 116 160 202 242 294 354
#     4  11  23  40  62  90 123 159 201 248 300 357
#
# _framework density 22.230623000000001
#
# number of rings (size 3 to 8) (size 9 to 14) (size 15 to 20)
#    0.000    1.333    0.000    8.000    0.000    1.778 
#    0.000   13.333    0.000    1.333    0.000    0.000 
#    0.000    0.000    0.000    0.000    0.000    0.000 
#
# Total GULP energy -50251.089093 kJ/mol
# GULP energy per Si atom -5583.454344 kJ/mol
# Density = 2.218003 g / cm^3
# Si number density = 22.230623 Si / 1000 Ang^3
#
#
#
# Elastic Constant Matrix: (Units=GPa)
#
#
# Indices 1 2 3 4 5 6 
#
# 1 71.9101 -4.3746 12.4464 0.0000 -8.8795 0.0000
# 2 -4.3746 27.3179 22.9879 0.0000 3.6033 0.0000
# 3 12.4464 22.9879 151.8958 0.0000 21.9399 0.0000
# 4 0.0000 0.0000 0.0000 21.2921 0.0000 0.5567
# 5 -8.8795 3.6033 21.9399 0.0000 42.1360 0.0000
# 6 0.0000 0.0000 0.0000 0.5567 0.0000 37.6362
#
#
#
# Elastic Compliance Matrix: (Units=1/GPa)
#
#
# Indices 1 2 3 4 5 6 
#
# 1 0.015069 0.003907 -0.002418 0.000000 0.004101 0.000000
# 2 0.003907 0.042965 -0.006932 0.000000 0.000759 0.000000
# 3 -0.002418 -0.006932 0.008455 0.000000 -0.004319 0.000000
# 4 0.000000 0.000000 0.000000 0.046984 0.000000 -0.000695
# 5 0.004101 0.000759 -0.004319 0.000000 0.026781 0.000000
# 6 0.000000 0.000000 0.000000 -0.000695 0.000000 0.026580
#
#
# Mechanical properties :
#
#
# Convention : Reuss Voigt Hill
#
# Bulk Modulus (GPa) = 17.98497 34.80481 26.39489
# Shear Modulus (GPa) = 25.47718 34.88379 30.18049
#
# Velocity S-wave (km/s) = 3.38899 3.96558 3.68857
# Velocity P-wave (km/s) = 4.83957 6.05459 5.48085
#
# Compressibility (1/GPa) = 0.05560200
#
# Stress axis : x y z
#
# Youngs Moduli (GPa) = 66.36196 23.27478 118.27921
#
# Poissons Ratio (x) = -0.09094 0.28604
# Poissons Ratio (y) = -0.25929 0.81992
# Poissons Ratio (z) = 0.16049 0.16134
#
# Static dielectric constant tensor:
#      x y z
#    x 1.875420 0.000000 -0.002030 
#    y 0.000000 1.786020 0.000000 
#    z -0.002030 0.000000 1.887220 
# 
# From -- ./inp_files/18027.got.cif
#   From: 2010.05.17/outbox.cif.g08.bks.cpg/sg5_10_cif.got.tgz:18027.got - 2010.06.03 18:56:24.
