data_PCOD9123037
_publ_section_title
;
Structure prediction by ZEFSAII (Michael W. Deem and Ramdas Pophale) SiO2 
 PCOD9123037
Probable space group: C 2
;
_chemical_formula_sum "Si O2"
_cell_formula_units_Z 24
_cell_length_a 8.369372
_cell_length_b 28.748480
_cell_length_c 7.929717
_cell_angle_alpha 90.000000
_cell_angle_beta 144.041819
_cell_angle_gamma 90.000000
_cell_volume 1120.333981
_symmetry_space_group_name_H-M "C 2"
_symmetry_group_IT_number 5
_symmetry_cell_setting 'monoclinic'
loop_
_space_group_symop_operation_xyz
x,y,z
-x,y,-z
1/2+x,1/2+y,z
1/2-x,1/2+y,-z
loop_
_atom_site_type_symbol
_atom_site_label
_atom_site_fract_x
_atom_site_fract_y
_atom_site_fract_z
Si Si1 0.569262 0.365200 0.359595
Si Si2 0.699581 0.036088 0.319292
Si Si3 0.566374 0.808733 0.855235
Si Si4 0.211237 0.218344 0.328022
Si Si5 0.301393 0.141894 0.680658
Si Si6 0.208161 0.960226 0.318910
O O1 0.500000 0.367548 0.500000
O O2 0.554986 0.416493 0.272110
O O3 0.872299 0.346045 0.604091
O O4 0.370034 0.327666 0.102865
O O5 0.617488 0.088893 0.297140
O O6 0.000000 0.038537 0.500000
O O7 0.715009 0.000441 0.484556
O O8 0.500000 0.019813 0.000000
O O9 0.459201 0.757625 0.715516
O O10 0.500000 0.808770 0.000000
O O11 0.500000 0.237722 0.500000
O O12 0.297902 0.176067 0.519987
O O13 0.000000 0.203867 0.000000
O O14 0.000000 0.141006 0.500000
O O15 0.500000 0.157872 0.000000
O O16 0.500000 0.943784 0.500000
O O17 0.000000 0.978543 0.000000
#
# Coordination Sequence:
#
# PCOD9123037 Si02
#       6
#     4   4   4   4   4   4
#     4  10  20  37  60  80 110 158 204 239 285 355
#     4  10  22  42  65  87 118 165 211 242 287 368
#     4   9  18  34  57  84 110 149 204 247 278 341
#     4  11  21  36  62  93 122 157 204 252 300 352
#     4  10  22  40  61  90 126 161 201 248 299 360
#     4  12  25  39  59  92 126 152 194 258 317 356
#
# _framework density 21.422184999999999
#
# number of rings (size 3 to 8) (size 9 to 14) (size 15 to 20)
#    0.000    1.667    0.000    6.000    0.000    3.333 
#    0.000    3.333    0.000    0.000    0.000    0.000 
#    0.000    0.000    0.000    0.000    0.000    0.000 
#
# Total GULP energy -67037.995045 kJ/mol
# GULP energy per Si atom -5586.499587 kJ/mol
# Density = 2.137343 g / cm^3
# Si number density = 21.422185 Si / 1000 Ang^3
#
#
#
# Elastic Constant Matrix: (Units=GPa)
#
#
# Indices 1 2 3 4 5 6 
#
# 1 39.9817 33.3025 31.7186 0.0000 -3.0768 0.0000
# 2 33.3025 110.8425 46.5498 0.0000 -34.4313 0.0000
# 3 31.7186 46.5498 178.8237 0.0000 -15.5103 0.0000
# 4 0.0000 0.0000 0.0000 36.6344 0.0000 2.3154
# 5 -3.0768 -34.4313 -15.5103 0.0000 31.9260 0.0000
# 6 0.0000 0.0000 0.0000 2.3154 0.0000 20.7372
#
#
#
# Elastic Compliance Matrix: (Units=1/GPa)
#
#
# Indices 1 2 3 4 5 6 
#
# 1 0.039321 -0.014188 -0.004468 0.000000 -0.013682 0.000000
# 2 -0.014188 0.019714 -0.000929 0.000000 0.019442 0.000000
# 3 -0.004468 -0.000929 0.006788 0.000000 0.001865 0.000000
# 4 0.000000 0.000000 0.000000 0.027491 0.000000 -0.003069
# 5 -0.013682 0.019442 0.001865 0.000000 0.051878 0.000000
# 6 0.000000 0.000000 0.000000 -0.003069 0.000000 0.048565
#
#
# Mechanical properties :
#
#
# Convention : Reuss Voigt Hill
#
# Bulk Modulus (GPa) = 37.51802 61.42109 49.46955
# Shear Modulus (GPa) = 20.67734 32.39799 26.53766
#
# Velocity S-wave (km/s) = 3.11019 3.89312 3.52347
# Velocity P-wave (km/s) = 5.51809 6.99589 6.30047
#
# Compressibility (1/GPa) = 0.02665386
#
# Stress axis : x y z
#
# Youngs Moduli (GPa) = 25.43202 50.72525 147.31421
#
# Poissons Ratio (x) = 0.71967 0.65819
# Poissons Ratio (y) = 0.36082 0.13685
# Poissons Ratio (z) = 0.11363 0.04712
#
# Static dielectric constant tensor:
#      x y z
#    x 1.792800 0.000000 -0.005220 
#    y 0.000000 1.799800 0.000000 
#    z -0.005220 0.000000 1.753000 
# 
# From -- ./inp_files/17648.got.cif
#   From: 2010.05.17/outbox.cif.g08.bks.cpg/sg5_9_cif.got.tgz:17648.got - 2010.06.03 18:56:24.
