data_PCOD9123426
_publ_section_title
;
Structure prediction by ZEFSAII (Michael W. Deem and Ramdas Pophale) SiO2 
 PCOD9123426
Probable space group: C 2
;
_chemical_formula_sum "Si O2"
_cell_formula_units_Z 32
_cell_length_a 26.306030
_cell_length_b 10.651496
_cell_length_c 5.516696
_cell_angle_alpha 90.000000
_cell_angle_beta 108.135550
_cell_angle_gamma 90.000000
_cell_volume 1468.980783
_symmetry_space_group_name_H-M "C 2"
_symmetry_group_IT_number 5
_symmetry_cell_setting 'monoclinic'
loop_
_space_group_symop_operation_xyz
x,y,z
-x,y,-z
1/2+x,1/2+y,z
1/2-x,1/2+y,-z
loop_
_atom_site_type_symbol
_atom_site_label
_atom_site_fract_x
_atom_site_fract_y
_atom_site_fract_z
Si Si1 0.633995 0.496320 0.383838
Si Si2 0.519305 0.583101 0.276943
Si Si3 0.322848 0.137525 0.785601
Si Si4 0.348218 0.360685 0.102993
Si Si5 0.763082 0.479459 0.074605
Si Si6 0.220225 0.185184 0.378935
Si Si7 0.852804 0.402194 0.577127
Si Si8 0.478034 0.870672 0.716172
O O1 0.582638 0.581497 0.350718
O O2 0.630674 0.397789 0.601142
O O3 0.686108 0.583887 0.485141
O O4 0.633707 0.441545 0.108271
O O5 0.500000 0.524099 0.500000
O O6 0.499263 0.727002 0.248659
O O7 0.500000 0.520063 0.000000
O O8 0.278110 0.220512 0.578488
O O9 0.357205 0.047205 0.669497
O O10 0.355384 0.219373 0.023897
O O11 0.287731 0.036124 0.873096
O O12 0.284697 0.383530 0.034932
O O13 0.737566 0.599895 0.176735
O O14 0.810739 0.414039 0.294286
O O15 0.178728 0.300879 0.297978
O O16 0.913642 0.364073 0.616707
O O17 0.500000 0.929526 0.500000
O O18 0.500000 0.927959 0.000000
#
# Coordination Sequence:
#
# PCOD9123426 Si02
#       8
#     4   4   4   4   4   4   4   4
#     4  11  22  41  62  93 123 170 197 261 327 379
#     4  10  20  38  64  95 125 152 205 271 330 388
#     4  11  24  38  58  93 130 176 220 258 311 404
#     4  11  24  39  61  90 134 165 211 252 312 392
#     4  10  23  35  59  91 126 175 207 262 311 391
#     4  10  21  37  58  92 133 165 214 253 323 393
#     4  11  23  40  64  91 133 180 210 275 334 387
#     4  10  23  42  64  97 130 163 216 278 330 388
#
# _framework density 21.783809000000002
#
# number of rings (size 3 to 8) (size 9 to 14) (size 15 to 20)
#    0.000    1.500    3.750    0.750    7.000    0.000 
#    0.000    0.000    0.000    3.000    0.000    0.000 
#    0.000    0.000    0.000    0.000    0.000    0.000 
#
# Total GULP energy -89178.469307 kJ/mol
# GULP energy per Si atom -5573.654332 kJ/mol
# Density = 2.173423 g / cm^3
# Si number density = 21.783809 Si / 1000 Ang^3
#
#
#
# Elastic Constant Matrix: (Units=GPa)
#
#
# Indices 1 2 3 4 5 6 
#
# 1 85.0128 9.5777 31.8328 0.0000 -4.8426 0.0000
# 2 9.5777 45.0710 1.4277 0.0000 -3.1196 0.0000
# 3 31.8328 1.4277 88.2834 0.0000 -19.3491 0.0000
# 4 0.0000 0.0000 0.0000 9.4226 0.0000 -7.8392
# 5 -4.8426 -3.1196 -19.3491 0.0000 22.1311 0.0000
# 6 0.0000 0.0000 0.0000 -7.8392 0.0000 12.7045
#
#
#
# Elastic Compliance Matrix: (Units=1/GPa)
#
#
# Indices 1 2 3 4 5 6 
#
# 1 0.014025 -0.002955 -0.005478 0.000000 -0.002137 0.000000
# 2 -0.002955 0.023040 0.001562 0.000000 0.003967 0.000000
# 3 -0.005478 0.001562 0.016159 0.000000 0.013149 0.000000
# 4 0.000000 0.000000 0.000000 0.218079 0.000000 0.134563
# 5 -0.002137 0.003967 0.013149 0.000000 0.056773 0.000000
# 6 0.000000 0.000000 0.000000 0.134563 0.000000 0.161743
#
#
# Mechanical properties :
#
#
# Convention : Reuss Voigt Hill
#
# Bulk Modulus (GPa) = 25.32664 33.78263 29.55463
# Shear Modulus (GPa) = 9.67639 20.55357 15.11498
#
# Velocity S-wave (km/s) = 2.10989 3.07502 2.63699
# Velocity P-wave (km/s) = 4.19370 5.30561 4.78208
#
# Compressibility (1/GPa) = 0.03948411
#
# Stress axis : x y z
#
# Youngs Moduli (GPa) = 71.30014 43.40239 61.88515
#
# Poissons Ratio (x) = 0.12824 0.33899
# Poissons Ratio (y) = 0.21068 -0.09668
# Poissons Ratio (z) = 0.39056 -0.06781
#
# Static dielectric constant tensor:
#      x y z
#    x 1.804420 0.000000 -0.035290 
#    y 0.000000 1.872550 0.000000 
#    z -0.035290 0.000000 1.939080 
# 
# From -- ./inp_files/10334.got.cif
#   From: 2010.05.17/outbox.cif.g08.bks.cpg/sg5_6_cif.got.tgz:10334.got - 2010.06.03 18:56:24.
