data_PCOD9123555
_publ_section_title
;
Structure prediction by ZEFSAII (Michael W. Deem and Ramdas Pophale) SiO2 
 PCOD9123555
Probable space group: C 2
;
_chemical_formula_sum "Si O2"
_cell_formula_units_Z 20
_cell_length_a 18.937047
_cell_length_b 9.174704
_cell_length_c 12.525003
_cell_angle_alpha 90.000000
_cell_angle_beta 21.162045
_cell_angle_gamma 90.000000
_cell_volume 785.593061
_symmetry_space_group_name_H-M "C 2"
_symmetry_group_IT_number 5
_symmetry_cell_setting 'monoclinic'
loop_
_space_group_symop_operation_xyz
x,y,z
-x,y,-z
1/2+x,1/2+y,z
1/2-x,1/2+y,-z
loop_
_atom_site_type_symbol
_atom_site_label
_atom_site_fract_x
_atom_site_fract_y
_atom_site_fract_z
Si Si1 0.277793 0.511730 0.541792
Si Si2 0.733961 0.672168 0.647663
Si Si3 0.169802 0.346790 0.136417
Si Si4 0.319298 0.660309 0.694432
Si Si5 0.224002 0.129057 0.897086
O O1 0.187997 0.570039 0.557664
O O2 0.054014 0.291710 0.537610
O O3 0.264097 0.339099 0.570659
O O4 0.811273 0.509630 0.853685
O O5 0.810119 0.635590 0.658001
O O6 0.500000 0.654469 0.000000
O O7 0.501279 0.573444 0.782115
O O8 0.284459 0.245929 0.063183
O O9 0.714985 0.076810 0.746293
O O10 0.235274 0.290871 0.929915
O O11 0.500000 0.575731 0.500000
#
# Coordination Sequence:
#
# PCOD9123555 Si02
#       5
#     4   4   4   4   4
#     4  10  21  41  57  85 116 157 197 243 285 349
#     4  10  24  41  61  82 121 156 202 242 290 341
#     4   8  18  34  57  83 115 150 181 240 294 343
#     4   7  17  35  57  74 118 149 178 241 290 332
#     4  10  20  39  59  89 120 150 191 244 295 347
#
# _framework density 25.458473999999999
#
# number of rings (size 3 to 8) (size 9 to 14) (size 15 to 20)
#    1.200    1.600    0.000    0.000    5.600    0.000 
#   10.800    0.000    0.000    0.000    0.000    0.000 
#    0.000    0.000    0.000    0.000    0.000    0.000 
#
# Total GULP energy -55765.396418 kJ/mol
# GULP energy per Si atom -5576.539642 kJ/mol
# Density = 2.540053 g / cm^3
# Si number density = 25.458474 Si / 1000 Ang^3
#
#
#
# Elastic Constant Matrix: (Units=GPa)
#
#
# Indices 1 2 3 4 5 6 
#
# 1 165.1358 75.0876 36.8995 -0.0002 37.4567 0.0000
# 2 75.0876 118.0699 5.0321 -0.0004 22.1698 0.0000
# 3 36.8995 5.0321 51.3096 -0.0006 15.1404 0.0002
# 4 -0.0002 -0.0004 -0.0006 24.7325 0.0002 1.7878
# 5 37.4567 22.1698 15.1404 0.0002 25.2997 0.0000
# 6 0.0000 0.0000 0.0002 1.7878 0.0000 44.7091
#
#
#
# Elastic Compliance Matrix: (Units=1/GPa)
#
#
# Indices 1 2 3 4 5 6 
#
# 1 0.011938 -0.005547 -0.005174 0.000000 -0.009718 0.000000
# 2 -0.005547 0.012883 0.004413 0.000000 -0.005717 0.000000
# 3 -0.005174 0.004413 0.026303 0.000001 -0.011948 0.000000
# 4 0.000000 0.000000 0.000001 0.040550 -0.000001 -0.001621
# 5 -0.009718 -0.005717 -0.011948 -0.000001 0.066073 0.000000
# 6 0.000000 0.000000 0.000000 -0.001621 0.000000 0.022432
#
#
# Mechanical properties :
#
#
# Convention : Reuss Voigt Hill
#
# Bulk Modulus (GPa) = 25.96885 63.17262 44.57074
# Shear Modulus (GPa) = 24.31541 33.44798 28.88170
#
# Velocity S-wave (km/s) = 3.09382 3.62860 3.37183
# Velocity P-wave (km/s) = 4.79426 6.51334 5.71876
#
# Compressibility (1/GPa) = 0.03850767
#
# Stress axis : x y z
#
# Youngs Moduli (GPa) = 83.76508 77.62362 38.01829
#
# Poissons Ratio (x) = 0.43058 0.19670
# Poissons Ratio (y) = 0.46465 -0.16777
# Poissons Ratio (z) = 0.43339 -0.34253
#
# Static dielectric constant tensor:
#      x y z
#    x 2.159100 0.000000 -0.067220 
#    y 0.000000 1.931040 0.000000 
#    z -0.067220 0.000000 2.096160 
# 
# From -- ./inp_files/42626.got.cif
#   From: 2010.05.17/outbox.cif.g08.bks.cpg/sg5_22_cif.got.tgz:42626.got - 2010.06.03 18:56:24.
