data_PCOD9123893
_publ_section_title
;
Structure prediction by ZEFSAII (Michael W. Deem and Ramdas Pophale) SiO2 
 PCOD9123893
Probable space group: C 2
;
_chemical_formula_sum "Si O2"
_cell_formula_units_Z 18
_cell_length_a 10.652643
_cell_length_b 14.205345
_cell_length_c 9.937502
_cell_angle_alpha 90.000000
_cell_angle_beta 147.581139
_cell_angle_gamma 90.000000
_cell_volume 806.187404
_symmetry_space_group_name_H-M "C 2"
_symmetry_group_IT_number 5
_symmetry_cell_setting 'monoclinic'
loop_
_space_group_symop_operation_xyz
x,y,z
-x,y,-z
1/2+x,1/2+y,z
1/2-x,1/2+y,-z
loop_
_atom_site_type_symbol
_atom_site_label
_atom_site_fract_x
_atom_site_fract_y
_atom_site_fract_z
Si Si1 0.156545 0.270390 0.512511
Si Si2 0.000000 0.655303 0.000000
Si Si3 0.628709 0.592886 0.854326
Si Si4 0.524106 0.397299 0.361310
Si Si5 0.268943 0.223512 0.193687
O O1 0.383602 0.223102 0.785750
O O2 0.240353 0.347491 0.480926
O O3 0.000000 0.301651 0.500000
O O4 0.033902 0.182276 0.327999
O O5 0.806807 0.590464 0.891719
O O6 0.506375 0.493168 0.747964
O O7 0.767160 0.626245 0.110434
O O8 0.500000 0.417818 0.500000
O O9 0.323845 0.318046 0.158224
O O10 0.500000 0.220684 0.500000
O O11 0.000000 0.231987 0.000000
#
# Coordination Sequence:
#
# PCOD9123893 Si02
#       5
#     4   2   4   4   4
#     4  10  22  45  71 102 149 193 240 307 367 447
#     4  10  20  40  68 100 138 192 230 302 364 440
#     4  11  23  44  73 101 147 189 248 300 370 445
#     4  11  23  45  75 109 139 194 250 304 372 432
#     4  11  25  48  73 107 155 193 241 310 376 441
#
# _framework density 22.327314999999999
#
# number of rings (size 3 to 8) (size 9 to 14) (size 15 to 20)
#    0.000    1.333    2.222    4.667    1.556    0.000 
#    6.000    4.444    0.000    0.000    0.000    0.000 
#    0.000    0.000    0.000    0.000    0.000    0.000 
#
# Total GULP energy -50197.824397 kJ/mol
# GULP energy per Si atom -5577.536044 kJ/mol
# Density = 2.227650 g / cm^3
# Si number density = 22.327315 Si / 1000 Ang^3
#
#
#
# Elastic Constant Matrix: (Units=GPa)
#
#
# Indices 1 2 3 4 5 6 
#
# 1 106.6909 56.9637 35.0591 0.0000 27.9086 0.0000
# 2 56.9637 138.9403 47.7912 0.0000 14.5119 0.0000
# 3 35.0591 47.7912 108.0143 0.0000 2.1042 0.0000
# 4 0.0000 0.0000 0.0000 23.3712 0.0000 -3.9640
# 5 27.9086 14.5119 2.1042 0.0000 29.6790 0.0000
# 6 0.0000 0.0000 0.0000 -3.9640 0.0000 28.1650
#
#
#
# Elastic Compliance Matrix: (Units=1/GPa)
#
#
# Indices 1 2 3 4 5 6 
#
# 1 0.015930 -0.004137 -0.003092 0.000000 -0.012737 0.000000
# 2 -0.004137 0.010037 -0.003083 0.000000 -0.000799 0.000000
# 3 -0.003092 -0.003083 0.011555 0.000000 0.003595 0.000000
# 4 0.000000 0.000000 0.000000 0.043834 0.000000 0.006169
# 5 -0.012737 -0.000799 0.003595 0.000000 0.045807 0.000000
# 6 0.000000 0.000000 0.000000 0.006169 0.000000 0.036373
#
#
# Mechanical properties :
#
#
# Convention : Reuss Voigt Hill
#
# Bulk Modulus (GPa) = 59.17421 70.36370 64.76896
# Shear Modulus (GPa) = 26.34449 30.49847 28.42148
#
# Velocity S-wave (km/s) = 3.43873 3.69991 3.57171
# Velocity P-wave (km/s) = 6.50592 7.05943 6.78832
#
# Compressibility (1/GPa) = 0.01689925
#
# Stress axis : x y z
#
# Youngs Moduli (GPa) = 62.77644 99.62870 86.53919
#
# Poissons Ratio (x) = 0.41217 0.26756
# Poissons Ratio (y) = 0.25971 0.26677
# Poissons Ratio (z) = 0.19409 0.30712
#
# Static dielectric constant tensor:
#      x y z
#    x 1.955570 0.000000 -0.045880 
#    y 0.000000 1.790010 0.000000 
#    z -0.045880 0.000000 1.870730 
# 
# From -- ./inp_files/4591.got.cif
#   From: 2010.05.17/outbox.cif.g08.bks.cpg/sg5_3_cif.got.tgz:4591.got - 2010.06.03 18:56:24.
