data_PCOD9123095
_publ_section_title
;
Structure prediction by ZEFSAII (Michael W. Deem and Ramdas Pophale) SiO2 
 PCOD9123095
Probable space group: C 2
;
_chemical_formula_sum "Si O2"
_cell_formula_units_Z 28
_cell_length_a 10.172651
_cell_length_b 14.737223
_cell_length_c 18.857539
_cell_angle_alpha 90.000000
_cell_angle_beta 150.269412
_cell_angle_gamma 90.000000
_cell_volume 1402.001492
_symmetry_space_group_name_H-M "C 2"
_symmetry_group_IT_number 5
_symmetry_cell_setting 'monoclinic'
loop_
_space_group_symop_operation_xyz
x,y,z
-x,y,-z
1/2+x,1/2+y,z
1/2-x,1/2+y,-z
loop_
_atom_site_type_symbol
_atom_site_label
_atom_site_fract_x
_atom_site_fract_y
_atom_site_fract_z
Si Si1 0.988445 0.222470 0.170453
Si Si2 0.306463 0.578285 0.634213
Si Si3 0.982742 0.713948 0.297618
Si Si4 0.483743 0.596471 0.568867
Si Si5 0.585446 0.405146 0.792322
Si Si6 0.904975 0.619273 0.120032
Si Si7 0.928000 0.414595 0.088018
O O1 0.027375 0.165232 0.260698
O O2 0.267861 0.213515 0.259398
O O3 0.945597 0.331101 0.151140
O O4 0.757308 0.173973 0.015700
O O5 0.363226 0.548178 0.580350
O O6 0.400089 0.490424 0.720792
O O7 0.000000 0.597956 0.500000
O O8 0.263296 0.672394 0.450424
O O9 0.040467 0.813975 0.295823
O O10 0.842485 0.657457 0.168655
O O11 0.500000 0.546481 0.500000
O O12 0.773864 0.629254 0.728873
O O13 0.805825 0.428674 0.835091
O O14 0.726541 0.383797 0.932499
O O15 0.856902 0.511761 0.087570
#
# Coordination Sequence:
#
# PCOD9123095 Si02
#       7
#     4   4   4   4   4   4   4
#     4  11  22  38  66  91 127 162 217 268 312 375
#     4  12  23  40  66  99 130 166 218 274 318 370
#     4  10  21  41  63  91 126 173 208 259 323 391
#     4  10  23  41  62  91 129 171 208 255 333 383
#     4  10  20  37  64  91 124 163 220 255 315 386
#     4  11  20  37  67  88 126 164 217 252 319 380
#     4  10  20  37  61  97 119 167 212 261 317 385
#
# _framework density 19.971447000000001
#
# number of rings (size 3 to 8) (size 9 to 14) (size 15 to 20)
#    0.000    1.429    5.714    0.429    0.000    2.286 
#    0.000    5.000   12.571    0.000    0.000    0.000 
#    0.000    0.000    0.000    0.000    0.000    0.000 
#
# Total GULP energy -78008.687517 kJ/mol
# GULP energy per Si atom -5572.049108 kJ/mol
# Density = 1.992599 g / cm^3
# Si number density = 19.971447 Si / 1000 Ang^3
#
#
#
# Elastic Constant Matrix: (Units=GPa)
#
#
# Indices 1 2 3 4 5 6 
#
# 1 45.8253 -5.4634 1.6960 0.0016 -13.0160 -0.0022
# 2 -5.4634 98.0841 13.4791 0.0002 -8.6635 -0.0028
# 3 1.6960 13.4791 92.0777 0.0025 6.5037 -0.0067
# 4 0.0016 0.0002 0.0025 26.3220 0.0010 3.0116
# 5 -13.0160 -8.6635 6.5037 0.0010 17.1849 -0.0002
# 6 -0.0022 -0.0028 -0.0067 3.0116 -0.0002 13.9961
#
#
#
# Elastic Compliance Matrix: (Units=1/GPa)
#
#
# Indices 1 2 3 4 5 6 
#
# 1 0.029819 0.004366 -0.003020 -0.000003 0.025929 0.000005
# 2 0.004366 0.011679 -0.002507 -0.000001 0.010143 0.000002
# 3 -0.003020 -0.002507 0.011851 -0.000001 -0.008036 0.000005
# 4 -0.000003 -0.000001 -0.000001 0.038950 -0.000005 -0.008381
# 5 0.025929 0.010143 -0.008036 -0.000005 0.085985 0.000005
# 6 0.000005 0.000002 0.000005 -0.008381 0.000005 0.073252
#
#
# Mechanical properties :
#
#
# Convention : Reuss Voigt Hill
#
# Bulk Modulus (GPa) = 19.59699 28.37894 23.98796
# Shear Modulus (GPa) = 18.45939 26.58562 22.52250
#
# Velocity S-wave (km/s) = 3.04351 3.65249 3.36182
# Velocity P-wave (km/s) = 4.71003 5.65935 5.20637
#
# Compressibility (1/GPa) = 0.05102824
#
# Stress axis : x y z
#
# Youngs Moduli (GPa) = 33.53551 85.62433 84.38435
#
# Poissons Ratio (x) = -0.37385 0.25483
# Poissons Ratio (y) = -0.14642 0.21151
# Poissons Ratio (z) = 0.10127 0.21462
#
# Static dielectric constant tensor:
#      x y z
#    x 1.753760 0.000000 -0.016310 
#    y 0.000000 1.691760 0.000000 
#    z -0.016310 0.000000 1.721840 
# 
# From -- ./inp_files/65315.got.cif
#   From: 2010.05.17/outbox.cif.g08.bks.cpg/sg5_33_cif.got.tgz:65315.got - 2010.06.03 18:56:24.
