data_PCOD9123964
_publ_section_title
;
Structure prediction by ZEFSAII (Michael W. Deem and Ramdas Pophale) SiO2 
 PCOD9123964
Probable space group: C 2
;
_chemical_formula_sum "Si O2"
_cell_formula_units_Z 28
_cell_length_a 17.430981
_cell_length_b 5.785516
_cell_length_c 14.529198
_cell_angle_alpha 90.000000
_cell_angle_beta 67.668660
_cell_angle_gamma 90.000000
_cell_volume 1355.339992
_symmetry_space_group_name_H-M "C 2"
_symmetry_group_IT_number 5
_symmetry_cell_setting 'monoclinic'
loop_
_space_group_symop_operation_xyz
x,y,z
-x,y,-z
1/2+x,1/2+y,z
1/2-x,1/2+y,-z
loop_
_atom_site_type_symbol
_atom_site_label
_atom_site_fract_x
_atom_site_fract_y
_atom_site_fract_z
Si Si1 0.146219 0.729620 0.489562
Si Si2 0.535771 0.885381 0.641715
Si Si3 0.750480 0.840802 0.221718
Si Si4 0.891866 0.670127 0.799869
Si Si5 0.209530 0.645964 0.989005
Si Si6 0.670629 0.567471 0.650073
Si Si7 0.605579 0.546628 0.343993
O O1 0.092775 0.508527 0.540583
O O2 0.239670 0.670964 0.417471
O O3 0.149029 0.886420 0.579410
O O4 0.103660 0.858606 0.424162
O O5 0.599266 0.756985 0.679869
O O6 0.473837 0.706920 0.621962
O O7 0.475887 0.056610 0.724741
O O8 0.787983 0.694835 0.120695
O O9 0.690826 0.687691 0.313776
O O10 0.686455 0.030162 0.208574
O O11 0.818471 0.953838 0.255641
O O12 0.889854 0.924481 0.757853
O O13 0.876477 0.655314 0.915407
O O14 0.245298 0.384303 0.991631
#
# Coordination Sequence:
#
# PCOD9123964 Si02
#       7
#     4   4   4   4   4   4   4
#     4  12  25  43  65  93 135 180 230 274 339 410
#     4  11  27  43  64  97 137 182 222 283 345 407
#     4  10  22  40  70 105 131 172 230 283 343 409
#     4  10  21  42  68 102 133 170 227 287 343 406
#     4  10  20  40  73 110 137 176 231 297 348 412
#     4  12  24  43  64  95 136 181 226 277 339 418
#     4  11  23  44  66  96 134 172 232 284 335 405
#
# _framework density 20.659023000000001
#
# number of rings (size 3 to 8) (size 9 to 14) (size 15 to 20)
#    0.000    1.143    4.286    1.714    0.000    3.429 
#    0.000    0.000    0.000    5.143    0.000    0.000 
#    0.000    0.000    0.000    0.000    0.000    0.000 
#
# Total GULP energy -78264.655948 kJ/mol
# GULP energy per Si atom -5590.332568 kJ/mol
# Density = 2.061200 g / cm^3
# Si number density = 20.659023 Si / 1000 Ang^3
#
#
#
# Elastic Constant Matrix: (Units=GPa)
#
#
# Indices 1 2 3 4 5 6 
#
# 1 73.1497 20.4013 35.6477 0.0000 -9.7410 0.0001
# 2 20.4013 58.2388 0.1078 -0.0001 -3.2362 0.0001
# 3 35.6477 0.1078 68.5191 0.0001 7.1850 0.0002
# 4 0.0000 -0.0001 0.0001 34.3643 0.0000 0.3188
# 5 -9.7410 -3.2362 7.1850 0.0000 8.7263 -0.0001
# 6 0.0001 0.0001 0.0002 0.3188 -0.0001 34.1423
#
#
#
# Elastic Compliance Matrix: (Units=1/GPa)
#
#
# Indices 1 2 3 4 5 6 
#
# 1 0.035793 -0.009342 -0.024553 0.000000 0.056707 0.000000
# 2 -0.009342 0.020008 0.005630 0.000000 -0.007644 0.000000
# 3 -0.024553 0.005630 0.032851 0.000000 -0.052369 0.000000
# 4 0.000000 0.000000 0.000000 0.029102 0.000000 -0.000272
# 5 0.056707 -0.007644 -0.052369 0.000000 0.218182 0.000001
# 6 0.000000 0.000000 0.000000 -0.000272 0.000001 0.029292
#
#
# Mechanical properties :
#
#
# Convention : Reuss Voigt Hill
#
# Bulk Modulus (GPa) = 31.13097 34.69125 32.91111
# Shear Modulus (GPa) = 11.56164 25.02995 18.29579
#
# Velocity S-wave (km/s) = 2.36824 3.48454 2.97914
# Velocity P-wave (km/s) = 4.75181 5.74614 5.27247
#
# Compressibility (1/GPa) = 0.03212235
#
# Stress axis : x y z
#
# Youngs Moduli (GPa) = 27.93863 49.97996 30.44038
#
# Poissons Ratio (x) = 0.46690 0.74741
# Poissons Ratio (y) = 0.26100 -0.17139
# Poissons Ratio (z) = 0.68598 -0.28140
#
# Static dielectric constant tensor:
#      x y z
#    x 1.704700 0.000000 0.004610 
#    y 0.000000 1.799960 0.000000 
#    z 0.004610 0.000000 1.737430 
# 
# From -- ./inp_files/55277.got.cif
#   From: 2010.05.17/outbox.cif.g08.bks.cpg/sg5_28_cif.got.tgz:55277.got - 2010.06.03 18:56:24.
