data_PCOD9123819
_publ_section_title
;
Structure prediction by ZEFSAII (Michael W. Deem and Ramdas Pophale) SiO2 
 PCOD9123819
Probable space group: C 2
;
_chemical_formula_sum "Si O2"
_cell_formula_units_Z 26
_cell_length_a 20.987404
_cell_length_b 9.726415
_cell_length_c 8.539323
_cell_angle_alpha 90.000000
_cell_angle_beta 139.356780
_cell_angle_gamma 90.000000
_cell_volume 1135.395650
_symmetry_space_group_name_H-M "C 2"
_symmetry_group_IT_number 5
_symmetry_cell_setting 'monoclinic'
loop_
_space_group_symop_operation_xyz
x,y,z
-x,y,-z
1/2+x,1/2+y,z
1/2-x,1/2+y,-z
loop_
_atom_site_type_symbol
_atom_site_label
_atom_site_fract_x
_atom_site_fract_y
_atom_site_fract_z
Si Si1 0.207550 0.200510 0.267368
Si Si2 0.221481 0.910616 0.389531
Si Si3 0.033919 0.928512 0.814063
Si Si4 0.711093 0.072053 0.898200
Si Si5 0.500000 0.198601 0.500000
Si Si6 0.000000 0.143048 0.500000
Si Si7 0.500000 0.626128 0.000000
Si Si8 0.684452 0.780924 0.715963
O O1 0.268618 0.332753 0.429976
O O2 0.236581 0.151818 0.148444
O O3 0.090633 0.206097 0.088689
O O4 0.242077 0.071306 0.436819
O O5 0.303355 0.836828 0.435117
O O6 0.124913 0.895037 0.098651
O O7 0.999894 0.796085 0.654881
O O8 0.057076 0.038240 0.720431
O O9 0.963733 0.019414 0.796015
O O10 0.596834 0.107943 0.678902
O O11 0.721182 0.908795 0.892326
O O12 0.753553 0.144741 0.131001
O O13 0.925300 0.239043 0.451062
#
# Coordination Sequence:
#
# PCOD9123819 Si02
#       8
#     4   4   4   4   2   2   2   4
#     4  10  23  39  65  90 131 163 218 264 319 381
#     4  10  21  41  59  95 122 167 210 265 311 385
#     4  10  22  38  65  96 123 165 221 260 323 384
#     4  11  25  41  63  96 132 169 217 264 319 388
#     4  11  23  42  62  92 132 170 214 270 318 376
#     4  11  21  38  68  94 126 172 212 268 326 380
#     4  10  20  40  64  94 126 166 216 262 318 390
#     4  11  22  40  63  92 130 165 216 266 319 382
#
# _framework density 22.899505000000001
#
# number of rings (size 3 to 8) (size 9 to 14) (size 15 to 20)
#    0.000    1.538    1.538    4.154    6.462    1.231 
#    0.000    0.000    0.000    0.000    0.000    0.000 
#    0.000    0.000    0.000    0.000    0.000    0.000 
#
# Total GULP energy -72565.919359 kJ/mol
# GULP energy per Si atom -5581.993797 kJ/mol
# Density = 2.284738 g / cm^3
# Si number density = 22.899505 Si / 1000 Ang^3
#
#
#
# Elastic Constant Matrix: (Units=GPa)
#
#
# Indices 1 2 3 4 5 6 
#
# 1 79.0491 -13.1245 12.5399 0.0000 19.6271 0.0000
# 2 -13.1245 66.9700 11.8405 0.0000 -9.6735 0.0000
# 3 12.5399 11.8405 61.3895 0.0000 10.0693 0.0000
# 4 0.0000 0.0000 0.0000 40.7385 0.0000 -9.7781
# 5 19.6271 -9.6735 10.0693 0.0000 31.3870 0.0000
# 6 0.0000 0.0000 0.0000 -9.7781 0.0000 31.6776
#
#
#
# Elastic Compliance Matrix: (Units=1/GPa)
#
#
# Indices 1 2 3 4 5 6 
#
# 1 0.015419 0.002225 -0.002227 0.000000 -0.008242 0.000000
# 2 0.002225 0.016947 -0.004593 0.000000 0.005305 0.000000
# 3 -0.002227 -0.004593 0.018613 0.000000 -0.005994 0.000000
# 4 0.000000 0.000000 0.000000 0.026511 0.000000 0.008183
# 5 -0.008242 0.005305 -0.005994 0.000000 0.040572 0.000000
# 6 0.000000 0.000000 0.000000 0.008183 0.000000 0.034094
#
#
# Mechanical properties :
#
#
# Convention : Reuss Voigt Hill
#
# Bulk Modulus (GPa) = 23.92965 25.54671 24.73818
# Shear Modulus (GPa) = 28.52630 33.83747 31.18189
#
# Velocity S-wave (km/s) = 3.53330 3.84819 3.69410
# Velocity P-wave (km/s) = 5.20751 5.56103 5.38717
#
# Compressibility (1/GPa) = 0.04178916
#
# Stress axis : x y z
#
# Youngs Moduli (GPa) = 64.85313 59.00915 53.72447
#
# Poissons Ratio (x) = -0.13130 0.11964
# Poissons Ratio (y) = -0.14430 0.24677
# Poissons Ratio (z) = 0.14443 0.27104
#
# Static dielectric constant tensor:
#      x y z
#    x 1.941860 0.000000 -0.000900 
#    y 0.000000 1.831600 0.000000 
#    z -0.000900 0.000000 1.904310 
# 
# From -- ./inp_files/26725.got.cif
#   From: 2010.05.17/outbox.cif.g08.bks.cpg/sg5_14_cif.got.tgz:26725.got - 2010.06.03 18:56:24.
