data_PCOD9123967
_publ_section_title
;
Structure prediction by ZEFSAII (Michael W. Deem and Ramdas Pophale) SiO2 
 PCOD9123967
Probable space group: C 2
;
_chemical_formula_sum "Si O2"
_cell_formula_units_Z 22
_cell_length_a 17.734086
_cell_length_b 10.464692
_cell_length_c 4.955914
_cell_angle_alpha 90.000000
_cell_angle_beta 77.752390
_cell_angle_gamma 90.000000
_cell_volume 898.794152
_symmetry_space_group_name_H-M "C 2"
_symmetry_group_IT_number 5
_symmetry_cell_setting 'monoclinic'
loop_
_space_group_symop_operation_xyz
x,y,z
-x,y,-z
1/2+x,1/2+y,z
1/2-x,1/2+y,-z
loop_
_atom_site_type_symbol
_atom_site_label
_atom_site_fract_x
_atom_site_fract_y
_atom_site_fract_z
Si Si1 0.239355 0.882790 0.018827
Si Si2 0.118250 0.470778 0.300335
Si Si3 0.347004 0.738487 0.324218
Si Si4 0.851711 0.949767 0.405759
Si Si5 0.000000 0.671161 0.500000
Si Si6 0.000000 0.325856 0.000000
Si Si7 0.500000 0.351012 0.000000
O O1 0.292310 0.775474 0.116502
O O2 0.169451 0.906851 0.278289
O O3 0.304355 0.995661 0.932199
O O4 0.200048 0.866630 0.760246
O O5 0.147320 0.357635 0.474311
O O6 0.076431 0.584428 0.490307
O O7 0.049872 0.414005 0.164170
O O8 0.326430 0.597508 0.429790
O O9 0.436482 0.735515 0.175656
O O10 0.935528 0.933041 0.208095
O O11 0.977200 0.754878 0.775238
#
# Coordination Sequence:
#
# PCOD9123967 Si02
#       7
#     4   4   4   4   2   2   2
#     4  11  27  46  72 112 145 191 253 299 385 427
#     4  11  23  46  74 118 140 200 248 309 373 424
#     4  11  24  46  77 106 148 194 249 312 363 438
#     4  12  28  51  72 108 150 195 253 307 374 455
#     4  12  26  48  78 108 160 188 252 304 362 468
#     4  10  20  40  74 116 140 176 262 294 366 426
#     4  12  30  52  72 110 146 212 238 304 392 436
#
# _framework density 24.477239999999998
#
# number of rings (size 3 to 8) (size 9 to 14) (size 15 to 20)
#    0.000    0.727    3.636    2.182    7.636    4.364 
#    6.545    0.000    0.000    0.000    0.000    0.000 
#    0.000    0.000    0.000    0.000    0.000    0.000 
#
# Total GULP energy -61391.002318 kJ/mol
# GULP energy per Si atom -5581.000211 kJ/mol
# Density = 2.442153 g / cm^3
# Si number density = 24.477240 Si / 1000 Ang^3
#
#
#
# Elastic Constant Matrix: (Units=GPa)
#
#
# Indices 1 2 3 4 5 6 
#
# 1 67.3213 28.1354 12.2540 0.0000 -16.9559 0.0000
# 2 28.1354 82.6208 34.3410 0.0000 -0.4619 0.0000
# 3 12.2540 34.3410 111.5230 0.0000 -18.6100 0.0000
# 4 0.0000 0.0000 0.0000 17.4797 0.0000 0.6702
# 5 -16.9559 -0.4619 -18.6100 0.0000 58.2258 0.0000
# 6 0.0000 0.0000 0.0000 0.6702 0.0000 17.8405
#
#
#
# Elastic Compliance Matrix: (Units=1/GPa)
#
#
# Indices 1 2 3 4 5 6 
#
# 1 0.018995 -0.006847 0.000988 0.000000 0.005793 0.000000
# 2 -0.006847 0.016445 -0.004883 0.000000 -0.003424 0.000000
# 3 0.000988 -0.004883 0.010990 0.000000 0.003761 0.000000
# 4 0.000000 0.000000 0.000000 0.057292 0.000000 -0.002152
# 5 0.005793 -0.003424 0.003761 0.000000 0.020036 0.000000
# 6 0.000000 0.000000 0.000000 -0.002152 0.000000 0.056133
#
#
# Mechanical properties :
#
#
# Convention : Reuss Voigt Hill
#
# Bulk Modulus (GPa) = 40.08664 45.65843 42.87254
# Shear Modulus (GPa) = 23.84472 31.15819 27.50145
#
# Velocity S-wave (km/s) = 3.12454 3.57171 3.35558
# Velocity P-wave (km/s) = 5.42491 5.97523 5.70671
#
# Compressibility (1/GPa) = 0.02494597
#
# Stress axis : x y z
#
# Youngs Moduli (GPa) = 52.64629 60.80699 90.99569
#
# Poissons Ratio (x) = 0.41632 -0.08988
# Poissons Ratio (y) = 0.36045 0.44434
# Poissons Ratio (z) = -0.05200 0.29693
#
# Static dielectric constant tensor:
#      x y z
#    x 1.984100 0.000000 -0.086180 
#    y 0.000000 1.979790 0.000000 
#    z -0.086180 0.000000 2.066080 
# 
# From -- ./inp_files/8225.got.cif
#   From: 2010.05.17/outbox.cif.g08.bks.cpg/sg5_5_cif.got.tgz:8225.got - 2010.06.03 18:56:24.
