data_PCOD9123707
_publ_section_title
;
Structure prediction by ZEFSAII (Michael W. Deem and Ramdas Pophale) SiO2 
 PCOD9123707
Probable space group: C 2
;
_chemical_formula_sum "Si O2"
_cell_formula_units_Z 32
_cell_length_a 11.971482
_cell_length_b 14.374806
_cell_length_c 18.192942
_cell_angle_alpha 90.000000
_cell_angle_beta 150.144908
_cell_angle_gamma 90.000000
_cell_volume 1558.528757
_symmetry_space_group_name_H-M "C 2"
_symmetry_group_IT_number 5
_symmetry_cell_setting 'monoclinic'
loop_
_space_group_symop_operation_xyz
x,y,z
-x,y,-z
1/2+x,1/2+y,z
1/2-x,1/2+y,-z
loop_
_atom_site_type_symbol
_atom_site_label
_atom_site_fract_x
_atom_site_fract_y
_atom_site_fract_z
Si Si1 0.360702 0.129020 0.519787
Si Si2 0.545492 0.598924 0.607072
Si Si3 0.160896 0.935189 0.759711
Si Si4 0.129000 0.314644 0.648404
Si Si5 0.149456 0.107582 0.241052
Si Si6 0.248680 0.342729 0.447906
Si Si7 0.955971 0.325049 0.822452
Si Si8 0.588877 0.423535 0.892613
O O1 0.238191 0.092835 0.375770
O O2 0.617703 0.097619 0.671221
O O3 0.361520 0.240620 0.513004
O O4 0.197718 0.107973 0.493651
O O5 0.500000 0.560433 0.500000
O O6 0.701648 0.536996 0.748770
O O7 0.645376 0.702588 0.656664
O O8 0.342897 0.864725 0.831327
O O9 0.136901 0.929087 0.832675
O O10 0.924009 0.908712 0.587356
O O11 0.366654 0.364311 0.782429
O O12 0.000000 0.342609 0.500000
O O13 0.975718 0.339609 0.630918
O O14 0.054577 0.212647 0.183012
O O15 0.970377 0.029150 0.118138
O O16 0.189743 0.360293 0.330004
O O17 0.199739 0.370356 0.952937
#
# Coordination Sequence:
#
# PCOD9123707 Si02
#       8
#     4   4   4   4   4   4   4   4
#     4   9  18  36  65 103 123 164 224 277 319 378
#     4  10  21  35  61 101 135 163 210 279 336 377
#     4  12  22  42  67 100 126 176 222 276 323 394
#     4  10  22  40  64 100 133 169 215 278 328 384
#     4  10  21  40  68  93 131 174 222 270 325 397
#     4  10  20  39  70  94 130 164 221 275 323 379
#     4  11  25  43  64  97 135 176 218 269 335 395
#     4  12  26  41  68  98 132 177 221 269 334 397
#
# _framework density 20.532184000000001
#
# number of rings (size 3 to 8) (size 9 to 14) (size 15 to 20)
#    0.000    1.500    3.750    1.500    3.500    1.500 
#    0.000    0.000    5.500    0.000    0.000    0.000 
#    0.000    0.000    0.000    0.000    0.000    0.000 
#
# Total GULP energy -89408.526369 kJ/mol
# GULP energy per Si atom -5588.032898 kJ/mol
# Density = 2.048545 g / cm^3
# Si number density = 20.532184 Si / 1000 Ang^3
#
#
#
# Elastic Constant Matrix: (Units=GPa)
#
#
# Indices 1 2 3 4 5 6 
#
# 1 80.5420 14.8742 3.0719 0.0016 3.4571 -0.0003
# 2 14.8742 86.3592 41.0045 0.0070 16.6890 0.0012
# 3 3.0719 41.0045 66.4738 0.0128 17.9715 0.0014
# 4 0.0016 0.0070 0.0128 18.1584 0.0017 1.4153
# 5 3.4571 16.6890 17.9715 0.0017 22.8999 -0.0005
# 6 -0.0003 0.0012 0.0014 1.4153 -0.0005 22.9009
#
#
#
# Elastic Compliance Matrix: (Units=1/GPa)
#
#
# Indices 1 2 3 4 5 6 
#
# 1 0.012899 -0.002645 0.001321 -0.000001 -0.001057 0.000000
# 2 -0.002645 0.017398 -0.009253 0.000001 -0.005019 -0.000001
# 3 0.001321 -0.009253 0.024017 -0.000012 -0.012304 0.000000
# 4 -0.000001 0.000001 -0.000012 0.055337 0.000005 -0.003420
# 5 -0.001057 -0.005019 -0.012304 0.000005 0.057141 0.000002
# 6 0.000000 -0.000001 0.000000 -0.003420 0.000002 0.043878
#
#
# Mechanical properties :
#
#
# Convention : Reuss Voigt Hill
#
# Bulk Modulus (GPa) = 30.15641 39.03069 34.59355
# Shear Modulus (GPa) = 20.58643 24.42015 22.50329
#
# Velocity S-wave (km/s) = 3.16989 3.45245 3.31418
# Velocity P-wave (km/s) = 5.30253 5.91129 5.61517
#
# Compressibility (1/GPa) = 0.03316045
#
# Stress axis : x y z
#
# Youngs Moduli (GPa) = 77.52373 57.47624 41.63750
#
# Poissons Ratio (x) = 0.15201 -0.05500
# Poissons Ratio (y) = 0.20503 0.38528
# Poissons Ratio (z) = -0.10241 0.53184
#
# Static dielectric constant tensor:
#      x y z
#    x 1.731390 0.000000 0.007570 
#    y 0.000000 1.798220 0.000000 
#    z 0.007570 0.000000 1.709640 
# 
# From -- ./inp_files/60715.got.cif
#   From: 2010.05.17/outbox.cif.g08.bks.cpg/sg5_31_cif.got.tgz:60715.got - 2010.06.03 18:56:24.
