data_PCOD9123782
_publ_section_title
;
Structure prediction by ZEFSAII (Michael W. Deem and Ramdas Pophale) SiO2 
 PCOD9123782
Probable space group: C 2
;
_chemical_formula_sum "Si O2"
_cell_formula_units_Z 26
_cell_length_a 23.262335
_cell_length_b 10.439028
_cell_length_c 11.644045
_cell_angle_alpha 90.000000
_cell_angle_beta 156.326253
_cell_angle_gamma 90.000000
_cell_volume 1135.359165
_symmetry_space_group_name_H-M "C 2"
_symmetry_group_IT_number 5
_symmetry_cell_setting 'monoclinic'
loop_
_space_group_symop_operation_xyz
x,y,z
-x,y,-z
1/2+x,1/2+y,z
1/2-x,1/2+y,-z
loop_
_atom_site_type_symbol
_atom_site_label
_atom_site_fract_x
_atom_site_fract_y
_atom_site_fract_z
Si Si1 0.424012 0.621750 0.513618
Si Si2 0.000000 0.071616 0.000000
Si Si3 0.722014 0.302091 0.248268
Si Si4 0.337654 0.955287 0.242565
Si Si5 0.163278 0.319723 0.293674
Si Si6 0.793535 0.217593 0.034729
Si Si7 0.935480 0.891193 0.668356
O O1 0.307183 0.669795 0.390184
O O2 0.355486 0.657387 0.267041
O O3 0.568810 0.703557 0.795961
O O4 0.455739 0.473415 0.590738
O O5 0.132763 0.168303 0.229240
O O6 0.017595 0.987941 0.144640
O O7 0.792842 0.398586 0.284465
O O8 0.752975 0.346977 0.434194
O O9 0.557103 0.284540 0.908586
O O10 0.500000 0.930811 0.500000
O O11 0.254608 0.862200 0.998509
O O12 0.315331 0.107844 0.202358
O O13 0.271657 0.355840 0.390653
O O14 0.000000 0.374954 0.000000
#
# Coordination Sequence:
#
# PCOD9123782 Si02
#       7
#     4   2   4   4   4   4   4
#     4  10  20  40  63  88 125 168 203 263 319 372
#     4  10  22  40  60  86 128 160 206 262 316 358
#     4  11  20  38  69  89 120 170 213 255 320 374
#     4  11  22  41  65  93 128 170 212 264 321 383
#     4  10  23  40  59  94 124 160 212 259 308 380
#     4  10  21  41  65  91 129 168 212 265 319 379
#     4  12  21  41  65  88 124 169 207 259 319 376
#
# _framework density 22.900241999999999
#
# number of rings (size 3 to 8) (size 9 to 14) (size 15 to 20)
#    0.462    0.923    7.692    0.000    0.000    1.231 
#    8.308    3.077    0.000    0.000    0.000    0.000 
#    0.000    0.000    0.000    0.000    0.000    0.000 
#
# Total GULP energy -72459.849580 kJ/mol
# GULP energy per Si atom -5573.834583 kJ/mol
# Density = 2.284812 g / cm^3
# Si number density = 22.900242 Si / 1000 Ang^3
#
#
#
# Elastic Constant Matrix: (Units=GPa)
#
#
# Indices 1 2 3 4 5 6 
#
# 1 26.9066 -8.2242 12.2131 0.0000 11.7970 0.0000
# 2 -8.2242 57.4298 11.5986 0.0000 6.5364 0.0000
# 3 12.2131 11.5986 87.8654 0.0000 17.6196 0.0000
# 4 0.0000 0.0000 0.0000 42.2836 0.0000 3.2523
# 5 11.7970 6.5364 17.6196 0.0000 34.3561 0.0000
# 6 0.0000 0.0000 0.0000 3.2523 0.0000 29.9587
#
#
#
# Elastic Compliance Matrix: (Units=1/GPa)
#
#
# Indices 1 2 3 4 5 6 
#
# 1 0.049649 0.009973 -0.004925 0.000000 -0.016420 0.000000
# 2 0.009973 0.020079 -0.002880 0.000000 -0.005768 0.000000
# 3 -0.004925 -0.002880 0.013372 0.000000 -0.004619 0.000000
# 4 0.000000 0.000000 0.000000 0.023849 0.000000 -0.002589
# 5 -0.016420 -0.005768 -0.004619 0.000000 0.038211 0.000000
# 6 0.000000 0.000000 0.000000 -0.002589 0.000000 0.033660
#
#
# Mechanical properties :
#
#
# Convention : Reuss Voigt Hill
#
# Bulk Modulus (GPa) = 11.43694 22.59742 17.01718
# Shear Modulus (GPa) = 24.55448 31.76062 28.15755
#
# Velocity S-wave (km/s) = 3.27806 3.72817 3.51033
# Velocity P-wave (km/s) = 4.39689 5.33118 4.88641
#
# Compressibility (1/GPa) = 0.08743596
#
# Stress axis : x y z
#
# Youngs Moduli (GPa) = 20.14157 49.80351 74.78319
#
# Poissons Ratio (x) = -0.49671 0.36830
# Poissons Ratio (y) = -0.20088 0.21539
# Poissons Ratio (z) = 0.09919 0.14344
#
# Static dielectric constant tensor:
#      x y z
#    x 1.925560 0.000000 0.016270 
#    y 0.000000 1.885350 0.000000 
#    z 0.016270 0.000000 1.892670 
# 
# From -- ./inp_files/58162.got.cif
#   From: 2010.05.17/outbox.cif.g08.bks.cpg/sg5_30_cif.got.tgz:58162.got - 2010.06.03 18:56:24.
