data_PCOD9123880
_publ_section_title
;
Structure prediction by ZEFSAII (Michael W. Deem and Ramdas Pophale) SiO2 
 PCOD9123880
Probable space group: C 2
;
_chemical_formula_sum "Si O2"
_cell_formula_units_Z 30
_cell_length_a 11.877639
_cell_length_b 8.156078
_cell_length_c 24.353082
_cell_angle_alpha 90.000000
_cell_angle_beta 31.795893
_cell_angle_gamma 90.000000
_cell_volume 1243.052284
_symmetry_space_group_name_H-M "C 2"
_symmetry_group_IT_number 5
_symmetry_cell_setting 'monoclinic'
loop_
_space_group_symop_operation_xyz
x,y,z
-x,y,-z
1/2+x,1/2+y,z
1/2-x,1/2+y,-z
loop_
_atom_site_type_symbol
_atom_site_label
_atom_site_fract_x
_atom_site_fract_y
_atom_site_fract_z
Si Si1 0.758055 0.399770 0.124697
Si Si2 0.689292 0.612232 0.530692
Si Si3 0.943591 0.257529 0.803584
Si Si4 0.364513 0.906868 0.374411
Si Si5 0.884453 0.975641 0.993571
Si Si6 0.787161 0.908890 0.732031
Si Si7 0.033252 0.710207 0.124069
Si Si8 0.500000 0.631044 0.500000
O O1 0.645870 0.577430 0.168754
O O2 0.746141 0.341234 0.192546
O O3 0.611202 0.284133 0.148872
O O4 0.000000 0.413175 0.000000
O O5 0.730960 0.738651 0.561432
O O6 0.301545 0.510577 0.592956
O O7 0.526822 0.468636 0.618273
O O8 0.565377 0.706177 0.531275
O O9 0.783927 0.354283 0.908543
O O10 0.954495 0.351089 0.741101
O O11 0.173959 0.283373 0.737085
O O12 0.387262 0.027280 0.417287
O O13 0.744743 0.107085 0.018252
O O14 0.007533 0.858399 0.900639
O O15 0.000000 0.046853 0.000000
O O16 0.653661 0.080390 0.789771
#
# Coordination Sequence:
#
# PCOD9123880 Si02
#       8
#     4   4   4   4   4   4   4   2
#     4  12  24  40  64  95 131 170 215 265 313 376
#     4  10  20  42  66  91 126 166 209 265 321 376
#     4  11  20  38  65  91 124 169 210 258 319 379
#     4  10  20  40  67  91 124 167 210 259 328 375
#     4  11  23  39  62  90 127 168 209 257 311 370
#     4  11  22  42  64  92 131 167 209 265 317 373
#     4  11  25  41  62  94 127 170 215 254 316 378
#     4   8  20  40  62  86 130 154 200 266 320 354
#
# _framework density 24.134142000000001
#
# number of rings (size 3 to 8) (size 9 to 14) (size 15 to 20)
#    0.800    0.533    2.667    4.800    0.000    1.067 
#    7.200    3.333    2.933    0.000    0.000    0.000 
#    0.000    0.000    0.000    0.000    0.000    0.000 
#
# Total GULP energy -83731.486095 kJ/mol
# GULP energy per Si atom -5582.099073 kJ/mol
# Density = 2.407921 g / cm^3
# Si number density = 24.134142 Si / 1000 Ang^3
#
#
#
# Elastic Constant Matrix: (Units=GPa)
#
#
# Indices 1 2 3 4 5 6 
#
# 1 80.8800 37.8892 45.5932 0.0000 14.2495 0.0000
# 2 37.8892 48.5766 4.5887 0.0000 -4.8945 0.0000
# 3 45.5932 4.5887 74.7688 0.0000 19.2086 0.0000
# 4 0.0000 0.0000 0.0000 22.0991 0.0000 1.0464
# 5 14.2495 -4.8945 19.2086 0.0000 30.5267 0.0000
# 6 0.0000 0.0000 0.0000 1.0464 0.0000 32.5542
#
#
#
# Elastic Compliance Matrix: (Units=1/GPa)
#
#
# Indices 1 2 3 4 5 6 
#
# 1 0.039008 -0.029716 -0.019158 0.000000 -0.010918 0.000000
# 2 -0.029716 0.043981 0.011983 0.000000 0.013382 0.000000
# 3 -0.019158 0.011983 0.025682 0.000000 -0.005296 0.000000
# 4 0.000000 0.000000 0.000000 0.045320 0.000000 -0.001457
# 5 -0.010918 0.013382 -0.005296 0.000000 0.043333 0.000000
# 6 0.000000 0.000000 0.000000 -0.001457 0.000000 0.030765
#
#
# Mechanical properties :
#
#
# Convention : Reuss Voigt Hill
#
# Bulk Modulus (GPa) = 28.66212 42.26307 35.46260
# Shear Modulus (GPa) = 15.94894 24.77962 20.36428
#
# Velocity S-wave (km/s) = 2.57348 3.20776 2.90797
# Velocity P-wave (km/s) = 4.55328 5.59191 5.09911
#
# Compressibility (1/GPa) = 0.03488925
#
# Stress axis : x y z
#
# Youngs Moduli (GPa) = 25.63559 22.73712 38.93765
#
# Poissons Ratio (x) = 0.67567 0.74597
# Poissons Ratio (y) = 0.76180 -0.46661
# Poissons Ratio (z) = 0.49113 -0.27247
#
# Static dielectric constant tensor:
#      x y z
#    x 1.982690 0.000000 -0.028930 
#    y 0.000000 1.926970 0.000000 
#    z -0.028930 0.000000 1.933830 
# 
# From -- ./inp_files/68204.got.cif
#   From: 2010.05.17/outbox.cif.g08.bks.cpg/sg5_35_cif.got.tgz:68204.got - 2010.06.03 18:56:24.
