data_PCOD9123898
_publ_section_title
;
Structure prediction by ZEFSAII (Michael W. Deem and Ramdas Pophale) SiO2 
 PCOD9123898
Probable space group: C 2
;
_chemical_formula_sum "Si O2"
_cell_formula_units_Z 28
_cell_length_a 14.582693
_cell_length_b 17.042614
_cell_length_c 8.826210
_cell_angle_alpha 90.000000
_cell_angle_beta 39.298412
_cell_angle_gamma 90.000000
_cell_volume 1389.307674
_symmetry_space_group_name_H-M "C 2"
_symmetry_group_IT_number 5
_symmetry_cell_setting 'monoclinic'
loop_
_space_group_symop_operation_xyz
x,y,z
-x,y,-z
1/2+x,1/2+y,z
1/2-x,1/2+y,-z
loop_
_atom_site_type_symbol
_atom_site_label
_atom_site_fract_x
_atom_site_fract_y
_atom_site_fract_z
Si Si1 0.000000 0.036220 0.500000
Si Si2 0.032020 0.433333 0.282905
Si Si3 0.466311 0.099610 0.219327
Si Si4 0.000000 0.003045 0.000000
Si Si5 0.459700 0.272059 0.233522
Si Si6 0.609978 0.792865 0.713735
Si Si7 0.132530 0.120866 0.590008
Si Si8 0.858872 0.918077 0.917762
O O1 0.886662 0.090205 0.555486
O O2 0.923631 0.981323 0.719636
O O3 0.000000 0.435746 0.500000
O O4 0.015524 0.521541 0.240717
O O5 0.930990 0.371031 0.326272
O O6 0.197362 0.404876 0.067338
O O7 0.517136 0.185632 0.208201
O O8 0.294981 0.112632 0.439380
O O9 0.500000 0.088833 0.000000
O O10 0.053490 0.060867 0.801891
O O11 0.880491 0.950791 0.063461
O O12 0.288222 0.287589 0.491673
O O13 0.548510 0.339478 0.202128
O O14 0.500000 0.276016 0.000000
O O15 0.576447 0.709437 0.676630
O O16 0.500000 0.795025 0.000000
#
# Coordination Sequence:
#
# PCOD9123898 Si02
#       8
#     2   4   4   2   4   4   4   4
#     4  10  24  36  66  96 128 166 214 278 324 384
#     4  12  26  41  63 101 133 170 218 281 331 387
#     4  10  22  42  67  89 129 173 220 263 329 399
#     4  10  20  40  68  84 126 170 220 260 318 410
#     4  10  22  44  71  94 127 180 224 264 327 401
#     4  11  25  43  69  96 133 178 222 272 334 393
#     4  10  21  42  63  95 125 171 216 267 329 392
#     4  11  23  41  65  95 129 172 219 269 331 390
#
# _framework density 20.153924
#
# number of rings (size 3 to 8) (size 9 to 14) (size 15 to 20)
#    0.000    1.429    1.429    3.000    7.000    0.000 
#    6.429    0.000    0.000    0.000    0.000    0.000 
#    0.000    0.000    0.000    0.000    0.000    0.000 
#
# Total GULP energy -78022.292285 kJ/mol
# GULP energy per Si atom -5573.020877 kJ/mol
# Density = 2.010805 g / cm^3
# Si number density = 20.153924 Si / 1000 Ang^3
#
#
#
# Elastic Constant Matrix: (Units=GPa)
#
#
# Indices 1 2 3 4 5 6 
#
# 1 71.3940 70.0434 24.9055 0.0000 -2.4407 0.0000
# 2 70.0434 180.9011 46.0956 0.0000 3.7429 0.0000
# 3 24.9055 46.0956 91.5373 0.0000 0.8191 0.0000
# 4 0.0000 0.0000 0.0000 25.3439 0.0000 1.1174
# 5 -2.4407 3.7429 0.8191 0.0000 32.1398 0.0000
# 6 0.0000 0.0000 0.0000 1.1174 0.0000 52.3114
#
#
#
# Elastic Compliance Matrix: (Units=1/GPa)
#
#
# Indices 1 2 3 4 5 6 
#
# 1 0.023159 -0.008504 -0.002044 0.000000 0.002801 0.000000
# 2 -0.008504 0.009478 -0.002444 0.000000 -0.001687 0.000000
# 3 -0.002044 -0.002444 0.012713 0.000000 -0.000195 0.000000
# 4 0.000000 0.000000 0.000000 0.039494 0.000000 -0.000844
# 5 0.002801 -0.001687 -0.000195 0.000000 0.031528 0.000000
# 6 0.000000 0.000000 0.000000 -0.000844 0.000000 0.019134
#
#
# Mechanical properties :
#
#
# Convention : Reuss Voigt Hill
#
# Bulk Modulus (GPa) = 51.63603 69.54683 60.59143
# Shear Modulus (GPa) = 29.77147 35.47820 32.62484
#
# Velocity S-wave (km/s) = 3.84761 4.20022 4.02778
# Velocity P-wave (km/s) = 6.73909 7.62268 7.19446
#
# Compressibility (1/GPa) = 0.01936632
#
# Stress axis : x y z
#
# Youngs Moduli (GPa) = 43.18053 105.50458 78.65912
#
# Poissons Ratio (x) = 0.89721 0.16075
# Poissons Ratio (y) = 0.36721 0.19225
# Poissons Ratio (z) = 0.08825 0.25787
#
# Static dielectric constant tensor:
#      x y z
#    x 1.708650 0.000000 0.004220 
#    y 0.000000 1.735370 0.000000 
#    z 0.004220 0.000000 1.701300 
# 
# From -- ./inp_files/25190.got.cif
#   From: 2010.05.17/outbox.cif.g08.bks.cpg/sg5_13_cif.got.tgz:25190.got - 2010.06.03 18:56:24.
