data_PCOD9123877
_publ_section_title
;
Structure prediction by ZEFSAII (Michael W. Deem and Ramdas Pophale) SiO2 
 PCOD9123877
Probable space group: C 2
;
_chemical_formula_sum "Si O2"
_cell_formula_units_Z 24
_cell_length_a 26.909555
_cell_length_b 4.971892
_cell_length_c 26.339776
_cell_angle_alpha 90.000000
_cell_angle_beta 15.139083
_cell_angle_gamma 90.000000
_cell_volume 920.347774
_symmetry_space_group_name_H-M "C 2"
_symmetry_group_IT_number 5
_symmetry_cell_setting 'monoclinic'
loop_
_space_group_symop_operation_xyz
x,y,z
-x,y,-z
1/2+x,1/2+y,z
1/2-x,1/2+y,-z
loop_
_atom_site_type_symbol
_atom_site_label
_atom_site_fract_x
_atom_site_fract_y
_atom_site_fract_z
Si Si1 0.062416 0.204350 0.815064
Si Si2 0.109348 0.586964 0.936706
Si Si3 0.808676 0.720427 0.663195
Si Si4 0.478148 0.617327 0.616281
Si Si5 0.638418 0.091022 0.206850
Si Si6 0.815189 0.775395 0.465931
O O1 0.189963 0.074389 0.735234
O O2 0.203365 0.266793 0.629945
O O3 0.993173 0.476880 0.912192
O O4 0.868781 0.063936 0.984421
O O5 0.183961 0.323562 0.832736
O O6 0.296779 0.742145 0.766665
O O7 0.000000 0.736224 0.000000
O O8 0.000000 0.606176 0.500000
O O9 0.875730 0.000562 0.568594
O O10 0.407587 0.340284 0.711049
O O11 0.490177 0.835454 0.648883
O O12 0.535479 0.187384 0.256588
O O13 0.710278 0.565678 0.532947
#
# Coordination Sequence:
#
# PCOD9123877 Si02
#       6
#     4   4   4   4   4   4
#     4  10  22  43  73 107 150 197 238 322 361 448
#     4   8  17  36  64 104 144 188 242 281 355 437
#     4   9  17  38  73 108 153 198 243 288 366 444
#     4  10  20  40  67 101 145 190 231 292 354 433
#     4  11  24  45  72 103 141 190 242 302 377 439
#     4  12  28  48  76 107 139 193 253 316 392 449
#
# _framework density 26.077096000000001
#
# number of rings (size 3 to 8) (size 9 to 14) (size 15 to 20)
#    0.000    2.000    1.667    1.000    0.000    4.000 
#    3.000   20.833    0.000    0.000    0.000    0.000 
#    0.000    0.000    0.000    0.000    0.000    0.000 
#
# Total GULP energy -66946.401721 kJ/mol
# GULP energy per Si atom -5578.866810 kJ/mol
# Density = 2.601774 g / cm^3
# Si number density = 26.077096 Si / 1000 Ang^3
#
#
#
# Elastic Constant Matrix: (Units=GPa)
#
#
# Indices 1 2 3 4 5 6 
#
# 1 130.3893 4.9241 42.7747 -0.0090 -19.9707 -0.1700
# 2 4.9241 71.7654 5.1959 -0.1538 13.6804 -0.4068
# 3 42.7747 5.1959 113.3499 -0.3221 -19.2469 0.0372
# 4 -0.0090 -0.1538 -0.3221 20.7951 -0.2141 13.7410
# 5 -19.9707 13.6804 -19.2469 -0.2141 58.8168 0.2516
# 6 -0.1700 -0.4068 0.0372 13.7410 0.2516 43.2710
#
#
#
# Elastic Compliance Matrix: (Units=1/GPa)
#
#
# Indices 1 2 3 4 5 6 
#
# 1 0.009029 -0.000839 -0.002981 -0.000046 0.002285 0.000031
# 2 -0.000839 0.014848 -0.001058 -0.000070 -0.004086 0.000183
# 3 -0.002981 -0.001058 0.010447 0.000266 0.002654 -0.000131
# 4 -0.000046 -0.000070 0.000266 0.060871 0.000392 -0.019333
# 5 0.002285 -0.004086 0.002654 0.000392 0.019599 -0.000270
# 6 0.000031 0.000183 -0.000131 -0.019333 -0.000270 0.029253
#
#
# Mechanical properties :
#
#
# Convention : Reuss Voigt Hill
#
# Bulk Modulus (GPa) = 40.70315 46.81044 43.75680
# Shear Modulus (GPa) = 30.86553 42.08391 36.47472
#
# Velocity S-wave (km/s) = 3.44412 4.02160 3.74401
# Velocity P-wave (km/s) = 5.60880 6.28921 5.95872
#
# Compressibility (1/GPa) = 0.02456812
#
# Stress axis : x y z
#
# Youngs Moduli (GPa) = 110.75470 67.34810 95.72032
#
# Poissons Ratio (x) = 0.05652 0.28533
# Poissons Ratio (y) = 0.09295 0.10127
# Poissons Ratio (z) = 0.33015 0.07125
#
# Static dielectric constant tensor:
#      x y z
#    x 2.126290 -0.000180 -0.128820 
#    y -0.000180 2.001950 0.001470 
#    z -0.128820 0.001470 2.168160 
# 
# From -- ./inp_files/69549.got.cif
#   From: 2010.05.17/outbox.cif.g08.bks.cpg/sg5_35_cif.got.tgz:69549.got - 2010.06.03 18:56:24.
