data_PCOD9123968
_publ_section_title
;
Structure prediction by ZEFSAII (Michael W. Deem and Ramdas Pophale) SiO2 
 PCOD9123968
Probable space group: C 2
;
_chemical_formula_sum "Si O2"
_cell_formula_units_Z 22
_cell_length_a 16.376134
_cell_length_b 8.642983
_cell_length_c 14.978168
_cell_angle_alpha 90.000000
_cell_angle_beta 151.590565
_cell_angle_gamma 90.000000
_cell_volume 1008.625472
_symmetry_space_group_name_H-M "C 2"
_symmetry_group_IT_number 5
_symmetry_cell_setting 'monoclinic'
loop_
_space_group_symop_operation_xyz
x,y,z
-x,y,-z
1/2+x,1/2+y,z
1/2-x,1/2+y,-z
loop_
_atom_site_type_symbol
_atom_site_label
_atom_site_fract_x
_atom_site_fract_y
_atom_site_fract_z
Si Si1 0.000000 0.846141 0.000000
Si Si2 0.723299 0.657584 0.792224
Si Si3 0.125002 0.722039 0.872020
Si Si4 0.170664 0.641362 0.539921
Si Si5 0.000000 0.892504 0.500000
Si Si6 0.000000 0.398826 0.500000
Si Si7 0.448108 0.549322 0.122548
O O1 0.845360 0.727052 0.832295
O O2 0.054680 0.958682 0.973626
O O3 0.632627 0.500049 0.680717
O O4 0.576489 0.788810 0.650456
O O5 0.831329 0.661374 0.986513
O O6 0.964924 0.638234 0.671553
O O7 0.085928 0.905698 0.842292
O O8 0.296537 0.674025 0.983488
O O9 0.134402 0.506907 0.577660
O O10 0.364246 0.626099 0.691043
O O11 0.113238 0.791554 0.540906
#
# Coordination Sequence:
#
# PCOD9123968 Si02
#       7
#     2   4   4   4   2   2   4
#     4  10  20  44  74  96 128 190 234 258 346 414
#     4  10  21  44  67  98 135 179 226 281 327 409
#     4  11  25  44  70 101 143 171 232 281 344 397
#     4  11  23  44  69 102 139 179 223 283 349 397
#     4  10  24  42  66 108 134 170 230 294 330 396
#     4  10  20  40  74  96 138 180 232 274 328 426
#     4  11  25  46  70 102 136 187 225 282 339 411
#
# _framework density 21.811861
#
# number of rings (size 3 to 8) (size 9 to 14) (size 15 to 20)
#    0.000    1.455    1.818    3.273    2.545    2.909 
#   19.636    0.000    0.000    0.000    0.000    0.000 
#    0.000    0.000    0.000    0.000    0.000    0.000 
#
# Total GULP energy -61397.041613 kJ/mol
# GULP energy per Si atom -5581.549238 kJ/mol
# Density = 2.176222 g / cm^3
# Si number density = 21.811861 Si / 1000 Ang^3
#
#
#
# Elastic Constant Matrix: (Units=GPa)
#
#
# Indices 1 2 3 4 5 6 
#
# 1 109.8070 60.3985 57.2111 0.0000 22.5466 0.0000
# 2 60.3985 124.6957 65.4677 0.0000 14.3223 0.0000
# 3 57.2111 65.4677 160.1407 0.0000 12.5801 0.0000
# 4 0.0000 0.0000 0.0000 26.9102 0.0000 13.1978
# 5 22.5466 14.3223 12.5801 0.0000 53.8318 0.0000
# 6 0.0000 0.0000 0.0000 13.1978 0.0000 26.6361
#
#
#
# Elastic Compliance Matrix: (Units=1/GPa)
#
#
# Indices 1 2 3 4 5 6 
#
# 1 0.014027 -0.004932 -0.002686 0.000000 -0.003935 0.000000
# 2 -0.004932 0.012114 -0.003158 0.000000 -0.000419 0.000000
# 3 -0.002686 -0.003158 0.008496 0.000000 -0.000021 0.000000
# 4 0.000000 0.000000 0.000000 0.049090 0.000000 -0.024323
# 5 -0.003935 -0.000419 -0.000021 0.000000 0.020341 0.000000
# 6 0.000000 0.000000 0.000000 -0.024323 0.000000 0.049595
#
#
# Mechanical properties :
#
#
# Convention : Reuss Voigt Hill
#
# Bulk Modulus (GPa) = 76.41166 84.53313 80.47239
# Shear Modulus (GPa) = 27.84323 35.58003 31.71163
#
# Velocity S-wave (km/s) = 3.57672 4.04322 3.81710
# Velocity P-wave (km/s) = 7.22256 7.78695 7.51006
#
# Compressibility (1/GPa) = 0.01308701
#
# Stress axis : x y z
#
# Youngs Moduli (GPa) = 71.29033 82.54583 117.69574
#
# Poissons Ratio (x) = 0.40713 0.31610
# Poissons Ratio (y) = 0.35162 0.37163
# Poissons Ratio (z) = 0.19147 0.26064
#
# Static dielectric constant tensor:
#      x y z
#    x 1.858050 0.000000 0.005130 
#    y 0.000000 1.798230 0.000000 
#    z 0.005130 0.000000 1.855900 
# 
# From -- ./inp_files/22811.got.cif
#   From: 2010.05.17/outbox.cif.g08.bks.cpg/sg5_12_cif.got.tgz:22811.got - 2010.06.03 18:56:24.
