data_PCOD9123820
_publ_section_title
;
Structure prediction by ZEFSAII (Michael W. Deem and Ramdas Pophale) SiO2 
 PCOD9123820
Probable space group: C 2
;
_chemical_formula_sum "Si O2"
_cell_formula_units_Z 30
_cell_length_a 12.157008
_cell_length_b 15.676584
_cell_length_c 8.421647
_cell_angle_alpha 90.000000
_cell_angle_beta 65.408426
_cell_angle_gamma 90.000000
_cell_volume 1459.422643
_symmetry_space_group_name_H-M "C 2"
_symmetry_group_IT_number 5
_symmetry_cell_setting 'monoclinic'
loop_
_space_group_symop_operation_xyz
x,y,z
-x,y,-z
1/2+x,1/2+y,z
1/2-x,1/2+y,-z
loop_
_atom_site_type_symbol
_atom_site_label
_atom_site_fract_x
_atom_site_fract_y
_atom_site_fract_z
Si Si1 0.046247 0.208400 0.146760
Si Si2 0.878835 0.559677 0.680760
Si Si3 0.671416 0.202091 0.039058
Si Si4 0.471107 0.365572 0.825472
Si Si5 0.096410 0.369426 0.301091
Si Si6 0.667702 0.606631 0.568062
Si Si7 0.500000 0.483068 0.500000
Si Si8 0.188512 0.750830 0.699103
O O1 0.040513 0.306286 0.205616
O O2 0.958228 0.149398 0.301322
O O3 0.186113 0.183515 0.061613
O O4 0.000000 0.200019 0.000000
O O5 0.881911 0.635533 0.805857
O O6 0.875439 0.466077 0.762579
O O7 0.755875 0.568113 0.649769
O O8 0.000000 0.565395 0.500000
O O9 0.642436 0.300301 0.105457
O O10 0.630917 0.199543 0.881085
O O11 0.466835 0.435594 0.688194
O O12 0.581027 0.306605 0.697063
O O13 0.500000 0.387969 0.000000
O O14 0.212900 0.318440 0.295764
O O15 0.000000 0.374521 0.500000
O O16 0.620222 0.536902 0.472803
O O17 0.745401 0.683762 0.450005
#
# Coordination Sequence:
#
# PCOD9123820 Si02
#       8
#     4   4   4   4   4   4   2   4
#     4  11  22  42  68  94 129 175 223 277 333 404
#     4  11  24  42  67 100 139 176 225 287 340 404
#     4  10  22  42  65  98 128 179 224 271 341 409
#     4  10  24  45  68  99 141 180 231 282 349 415
#     4  10  20  40  64  94 133 170 218 276 334 401
#     4  12  24  44  70 100 135 175 237 277 346 410
#     4  12  26  42  70 110 136 184 226 294 348 406
#     4  10  21  43  70  90 133 181 219 279 337 412
#
# _framework density 20.556073999999999
#
# number of rings (size 3 to 8) (size 9 to 14) (size 15 to 20)
#    0.000    1.333    2.667    3.200    2.800    0.533 
#   21.600    2.000    0.000    0.000    0.000    0.000 
#    0.000    0.000    0.000    0.000    0.000    0.000 
#
# Total GULP energy -83637.788819 kJ/mol
# GULP energy per Si atom -5575.852588 kJ/mol
# Density = 2.050929 g / cm^3
# Si number density = 20.556074 Si / 1000 Ang^3
#
#
#
# Elastic Constant Matrix: (Units=GPa)
#
#
# Indices 1 2 3 4 5 6 
#
# 1 81.0442 27.8789 17.5337 0.0000 -12.7708 0.0000
# 2 27.8789 102.8655 49.9622 0.0000 10.0549 0.0000
# 3 17.5337 49.9622 81.5050 0.0000 -6.6072 0.0000
# 4 0.0000 0.0000 0.0000 14.6639 0.0000 -1.7790
# 5 -12.7708 10.0549 -6.6072 0.0000 33.6029 0.0000
# 6 0.0000 0.0000 0.0000 -1.7790 0.0000 -3.2433
#
#
#
# Elastic Compliance Matrix: (Units=1/GPa)
#
#
# Indices 1 2 3 4 5 6 
#
# 1 0.015132 -0.005021 0.000417 0.000000 0.007335 0.000000
# 2 -0.005021 0.016766 -0.009917 0.000000 -0.008875 0.000000
# 3 0.000417 -0.009917 0.018812 0.000000 0.006825 0.000000
# 4 0.000000 0.000000 0.000000 0.063939 0.000000 -0.035073
# 5 0.007335 -0.008875 0.006825 0.000000 0.036545 0.000000
# 6 0.000000 0.000000 0.000000 -0.035073 0.000000 -0.289093
#
#
# Mechanical properties :
#
#
# Convention : Reuss Voigt Hill
#
# Bulk Modulus (GPa) = 46.14979 50.68493 48.41736
# Shear Modulus (GPa) = -49.19563 20.34072 -14.42745
#
# Velocity S-wave (km/s) = -4.89738 3.14908 -2.65214
# Velocity P-wave (km/s) = 3.07892 6.15896 3.77180
#
# Compressibility (1/GPa) = 0.02166857
#
# Stress axis : x y z
#
# Youngs Moduli (GPa) = 66.08684 59.64296 53.15780
#
# Poissons Ratio (x) = 0.29944 -0.02217
# Poissons Ratio (y) = 0.33179 0.52717
# Poissons Ratio (z) = -0.02756 0.59149
#
# Static dielectric constant tensor:
#      x y z
#    x 1.705650 0.000000 0.000850 
#    y 0.000000 1.758330 0.000000 
#    z 0.000850 0.000000 1.755190 
# 
# From -- ./inp_files/20593.got.cif
#   From: 2010.05.17/outbox.cif.g08.bks.cpg/sg5_11_cif.got.tgz:20593.got - 2010.06.03 18:56:24.
