data_PCOD9123408
_publ_section_title
;
Structure prediction by ZEFSAII (Michael W. Deem and Ramdas Pophale) SiO2 
 PCOD9123408
Probable space group: C 2
;
_chemical_formula_sum "Si O2"
_cell_formula_units_Z 24
_cell_length_a 14.102654
_cell_length_b 7.522373
_cell_length_c 10.051320
_cell_angle_alpha 90.000000
_cell_angle_beta 90.035744
_cell_angle_gamma 90.000000
_cell_volume 1066.298333
_symmetry_space_group_name_H-M "C 2"
_symmetry_group_IT_number 5
_symmetry_cell_setting 'monoclinic'
loop_
_space_group_symop_operation_xyz
x,y,z
-x,y,-z
1/2+x,1/2+y,z
1/2-x,1/2+y,-z
loop_
_atom_site_type_symbol
_atom_site_label
_atom_site_fract_x
_atom_site_fract_y
_atom_site_fract_z
Si Si1 0.000000 0.373040 0.500000
Si Si2 0.197614 0.762275 0.664233
Si Si3 0.004511 0.614164 0.262015
Si Si4 0.000000 0.376400 0.000000
Si Si5 0.814696 0.755604 0.828371
Si Si6 0.202029 0.346416 0.076590
Si Si7 0.814964 0.174748 0.405918
O O1 0.045095 0.492568 0.381847
O O2 0.917519 0.256490 0.434384
O O3 0.095082 0.679392 0.683524
O O4 0.258099 0.739064 0.798655
O O5 0.253573 0.686004 0.539482
O O6 0.181463 0.971563 0.639715
O O7 0.985410 0.498503 0.130181
O O8 0.078188 0.770753 0.225057
O O9 0.099843 0.277946 0.024803
O O10 0.812990 0.547271 0.872177
O O11 0.740425 0.780905 0.709585
O O12 0.778729 0.853122 0.959169
#
# Coordination Sequence:
#
# PCOD9123408 Si02
#       7
#     2   4   4   2   4   4   4
#     4  12  24  42  64  90 122 164 212 258 308 368
#     4  11  23  41  63  92 127 164 207 255 307 367
#     4  11  22  41  65  89 122 165 207 254 309 367
#     4  10  20  38  64  90 120 164 204 250 308 362
#     4  10  22  40  62  89 121 159 203 254 309 363
#     4  10  21  39  62  90 121 157 205 250 305 370
#     4  11  24  40  62  93 126 162 206 256 310 367
#
# _framework density 22.507774000000001
#
# number of rings (size 3 to 8) (size 9 to 14) (size 15 to 20)
#    0.000    1.333    0.000    8.000    0.000    3.333 
#    0.000    6.667    0.000    1.000    0.000    0.000 
#    0.000    0.000    0.000    0.000    0.000    0.000 
#
# Total GULP energy -67169.354308 kJ/mol
# GULP energy per Si atom -5597.446192 kJ/mol
# Density = 2.245654 g / cm^3
# Si number density = 22.507774 Si / 1000 Ang^3
#
#
#
# Elastic Constant Matrix: (Units=GPa)
#
#
# Indices 1 2 3 4 5 6 
#
# 1 142.8453 9.2370 42.2940 0.0000 6.8773 0.0000
# 2 9.2370 23.8756 11.3383 0.0000 3.2602 0.0000
# 3 42.2940 11.3383 150.8580 0.0000 6.6628 0.0000
# 4 0.0000 0.0000 0.0000 29.7825 0.0000 -3.7237
# 5 6.8773 3.2602 6.6628 0.0000 47.2649 0.0000
# 6 0.0000 0.0000 0.0000 -3.7237 0.0000 18.9746
#
#
#
# Elastic Compliance Matrix: (Units=1/GPa)
#
#
# Indices 1 2 3 4 5 6 
#
# 1 0.007752 -0.001954 -0.001995 0.000000 -0.000712 0.000000
# 2 -0.001954 0.044235 -0.002671 0.000000 -0.002390 0.000000
# 3 -0.001995 -0.002671 0.007414 0.000000 -0.000571 0.000000
# 4 0.000000 0.000000 0.000000 0.034421 0.000000 0.006755
# 5 -0.000712 -0.002390 -0.000571 0.000000 0.021506 0.000000
# 6 0.000000 0.000000 0.000000 0.006755 0.000000 0.054028
#
#
# Mechanical properties :
#
#
# Convention : Reuss Voigt Hill
#
# Bulk Modulus (GPa) = 21.66398 49.25751 35.46074
# Shear Modulus (GPa) = 25.25461 36.18503 30.71982
#
# Velocity S-wave (km/s) = 3.35332 4.01392 3.69840
# Velocity P-wave (km/s) = 4.96377 6.58895 5.83324
#
# Compressibility (1/GPa) = 0.04615958
#
# Stress axis : x y z
#
# Youngs Moduli (GPa) = 129.00044 22.60666 134.87976
#
# Poissons Ratio (x) = 0.04418 0.26908
# Poissons Ratio (y) = 0.25213 0.36028
# Poissons Ratio (z) = 0.25735 0.06039
#
# Static dielectric constant tensor:
#      x y z
#    x 1.851770 0.000000 -0.001270 
#    y 0.000000 1.849750 0.000000 
#    z -0.001270 0.000000 1.828560 
# 
# From -- ./inp_files/22828.got.cif
#   From: 2010.05.17/outbox.cif.g08.bks.cpg/sg5_12_cif.got.tgz:22828.got - 2010.06.03 18:56:24.
