data_PCOD9123093
_publ_section_title
;
Structure prediction by ZEFSAII (Michael W. Deem and Ramdas Pophale) SiO2 
 PCOD9123093
Probable space group: C 2
;
_chemical_formula_sum "Si O2"
_cell_formula_units_Z 30
_cell_length_a 4.934575
_cell_length_b 20.562882
_cell_length_c 15.180883
_cell_angle_alpha 90.000000
_cell_angle_beta 108.325365
_cell_angle_gamma 90.000000
_cell_volume 1462.271515
_symmetry_space_group_name_H-M "C 2"
_symmetry_group_IT_number 5
_symmetry_cell_setting 'monoclinic'
loop_
_space_group_symop_operation_xyz
x,y,z
-x,y,-z
1/2+x,1/2+y,z
1/2-x,1/2+y,-z
loop_
_atom_site_type_symbol
_atom_site_label
_atom_site_fract_x
_atom_site_fract_y
_atom_site_fract_z
Si Si1 0.500000 0.681840 0.500000
Si Si2 0.680438 0.468436 0.686950
Si Si3 0.122444 0.254547 0.676860
Si Si4 0.659218 0.003214 0.103464
Si Si5 0.645177 0.176422 0.727327
Si Si6 0.654560 0.592726 0.100016
Si Si7 0.389288 0.896934 0.388678
Si Si8 0.710117 0.075341 0.591855
O O1 0.670330 0.728864 0.581726
O O2 0.324182 0.634485 0.543992
O O3 0.796896 0.466918 0.798994
O O4 0.444170 0.413846 0.644027
O O5 0.484767 0.532922 0.649429
O O6 0.938231 0.453857 0.645899
O O7 0.393969 0.218136 0.746290
O O8 0.088032 0.331138 0.665708
O O9 0.840149 0.224275 0.690029
O O10 0.466101 0.065973 0.107734
O O11 0.968325 0.029373 0.106629
O O12 0.500000 0.973915 0.000000
O O13 0.833620 0.143174 0.821082
O O14 0.562986 0.112756 0.658976
O O15 0.500000 0.621766 0.000000
O O16 0.500000 0.888513 0.500000
O O17 0.500000 0.040448 0.500000
#
# Coordination Sequence:
#
# PCOD9123093 Si02
#       8
#     2   4   4   4   4   4   4   4
#     4  10  22  36  56  84 118 160 194 250 298 366
#     4  12  26  40  64  90 130 163 209 272 313 381
#     4  11  23  42  62  82 121 167 220 244 292 364
#     4  10  21  39  63  91 126 165 204 253 322 396
#     4  11  22  37  64  91 120 159 202 263 302 374
#     4  10  20  37  61  95 131 159 194 253 331 394
#     4  12  27  45  61  87 126 179 221 254 302 371
#     4  11  23  35  58  93 131 154 203 245 337 365
#
# _framework density 20.516026
#
# number of rings (size 3 to 8) (size 9 to 14) (size 15 to 20)
#    0.000    1.067    3.333    3.200    5.600    0.000 
#    0.000    0.000    0.000    4.800    0.000    0.000 
#    0.000    0.000    0.000    0.000    0.000    0.000 
#
# Total GULP energy -83689.037807 kJ/mol
# GULP energy per Si atom -5579.269187 kJ/mol
# Density = 2.046933 g / cm^3
# Si number density = 20.516026 Si / 1000 Ang^3
#
#
#
# Elastic Constant Matrix: (Units=GPa)
#
#
# Indices 1 2 3 4 5 6 
#
# 1 72.2634 1.1241 0.0852 0.0000 4.1831 0.0000
# 2 1.1241 55.2315 13.4889 0.0000 2.5897 0.0000
# 3 0.0852 13.4889 130.9649 0.0000 5.1732 0.0000
# 4 0.0000 0.0000 0.0000 11.8832 0.0000 -5.3978
# 5 4.1831 2.5897 5.1732 0.0000 25.8949 0.0000
# 6 0.0000 0.0000 0.0000 -5.3978 0.0000 26.2378
#
#
#
# Elastic Compliance Matrix: (Units=1/GPa)
#
#
# Indices 1 2 3 4 5 6 
#
# 1 0.013972 -0.000203 0.000101 0.000000 -0.002257 0.000000
# 2 -0.000203 0.018633 -0.001861 0.000000 -0.001459 0.000000
# 3 0.000101 -0.001861 0.007883 0.000000 -0.001405 0.000000
# 4 0.000000 0.000000 0.000000 0.092827 0.000000 0.019097
# 5 -0.002257 -0.001459 -0.001405 0.000000 0.039409 0.000000
# 6 0.000000 0.000000 0.000000 0.019097 0.000000 0.042042
#
#
# Mechanical properties :
#
#
# Convention : Reuss Voigt Hill
#
# Bulk Modulus (GPa) = 27.35204 31.98400 29.66802
# Shear Modulus (GPa) = 21.65641 29.05397 25.35519
#
# Velocity S-wave (km/s) = 3.25250 3.76727 3.51931
# Velocity P-wave (km/s) = 5.24080 5.87765 5.56834
#
# Compressibility (1/GPa) = 0.03656034
#
# Stress axis : x y z
#
# Youngs Moduli (GPa) = 71.57198 53.66902 126.85883
#
# Poissons Ratio (x) = 0.01091 -0.01281
# Poissons Ratio (y) = 0.01454 0.23613
# Poissons Ratio (z) = -0.00723 0.09990
#
# Static dielectric constant tensor:
#      x y z
#    x 1.773080 0.000000 0.035270 
#    y 0.000000 1.746530 0.000000 
#    z 0.035270 0.000000 1.817590 
# 
# From -- ./inp_files/49555.got.cif
#   From: 2010.05.17/outbox.cif.g08.bks.cpg/sg5_25_cif.got.tgz:49555.got - 2010.06.03 18:56:24.
