data_PCOD9123962
_publ_section_title
;
Structure prediction by ZEFSAII (Michael W. Deem and Ramdas Pophale) SiO2 
 PCOD9123962
Probable space group: C 2
;
_chemical_formula_sum "Si O2"
_cell_formula_units_Z 22
_cell_length_a 12.095228
_cell_length_b 14.896543
_cell_length_c 8.734868
_cell_angle_alpha 90.000000
_cell_angle_beta 34.334323
_cell_angle_gamma 90.000000
_cell_volume 887.668967
_symmetry_space_group_name_H-M "C 2"
_symmetry_group_IT_number 5
_symmetry_cell_setting 'monoclinic'
loop_
_space_group_symop_operation_xyz
x,y,z
-x,y,-z
1/2+x,1/2+y,z
1/2-x,1/2+y,-z
loop_
_atom_site_type_symbol
_atom_site_label
_atom_site_fract_x
_atom_site_fract_y
_atom_site_fract_z
Si Si1 0.869812 0.427320 0.921275
Si Si2 0.500000 0.813964 0.500000
Si Si3 0.880551 0.065821 0.314880
Si Si4 0.705902 0.086431 0.202929
Si Si5 0.332253 0.228270 0.316765
Si Si6 0.803606 0.892220 0.564842
O O1 0.867256 0.372285 0.766472
O O2 0.841575 0.528210 0.892100
O O3 0.085840 0.412769 0.745239
O O4 0.723895 0.394102 0.221070
O O5 0.639350 0.757934 0.447747
O O6 0.788924 0.032788 0.257691
O O7 0.714421 0.129198 0.572542
O O8 0.922567 0.978165 0.366672
O O9 0.078628 0.128242 0.077725
O O10 0.500000 0.127574 0.500000
O O11 0.367004 0.298816 0.415151
O O12 0.500000 0.230587 0.000000
#
# Coordination Sequence:
#
# PCOD9123962 Si02
#       6
#     4   2   4   4   4   4
#     4  10  20  40  73 103 144 189 239 289 361 421
#     4  10  22  44  68  98 144 194 234 290 362 428
#     4  11  26  42  71 109 139 188 246 294 357 433
#     4  11  22  42  72  99 145 187 233 292 370 417
#     4  11  27  47  72 103 149 192 239 300 363 424
#     4  10  23  43  73 104 146 186 245 295 351 432
#
# _framework density 24.784015
#
# number of rings (size 3 to 8) (size 9 to 14) (size 15 to 20)
#    0.000    1.455    2.727    1.091    7.636    9.455 
#    0.000    0.000    0.000    0.000    0.000    0.000 
#    0.000    0.000    0.000    0.000    0.000    0.000 
#
# Total GULP energy -61404.269303 kJ/mol
# GULP energy per Si atom -5582.206300 kJ/mol
# Density = 2.472761 g / cm^3
# Si number density = 24.784015 Si / 1000 Ang^3
#
#
#
# Elastic Constant Matrix: (Units=GPa)
#
#
# Indices 1 2 3 4 5 6 
#
# 1 138.7436 45.6997 35.4432 -0.0016 25.8540 0.0015
# 2 45.6997 74.1136 27.6855 -0.0010 11.5222 0.0015
# 3 35.4432 27.6855 145.1264 -0.0042 17.0774 0.0035
# 4 -0.0016 -0.0010 -0.0042 25.4951 0.0018 -5.0061
# 5 25.8540 11.5222 17.0774 0.0018 49.9097 -0.0005
# 6 0.0015 0.0015 0.0035 -5.0061 -0.0005 16.4769
#
#
#
# Elastic Compliance Matrix: (Units=1/GPa)
#
#
# Indices 1 2 3 4 5 6 
#
# 1 0.009814 -0.005125 -0.001000 0.000000 -0.003558 0.000000
# 2 -0.005125 0.017511 -0.002007 0.000000 -0.000702 -0.000001
# 3 -0.001000 -0.002007 0.007713 0.000001 -0.001658 -0.000001
# 4 0.000000 0.000000 0.000001 0.041712 -0.000002 0.012673
# 5 -0.003558 -0.000702 -0.001658 -0.000002 0.022609 0.000001
# 6 0.000000 -0.000001 -0.000001 0.012673 0.000001 0.064542
#
#
# Mechanical properties :
#
#
# Convention : Reuss Voigt Hill
#
# Bulk Modulus (GPa) = 53.26238 63.96004 58.61121
# Shear Modulus (GPa) = 26.82089 34.98668 30.90379
#
# Velocity S-wave (km/s) = 3.29323 3.76129 3.53501
# Velocity P-wave (km/s) = 5.99981 6.68775 6.35310
#
# Compressibility (1/GPa) = 0.01877498
#
# Stress axis : x y z
#
# Youngs Moduli (GPa) = 101.89337 57.10589 129.65610
#
# Poissons Ratio (x) = 0.29265 0.12972
# Poissons Ratio (y) = 0.52216 0.26016
# Poissons Ratio (z) = 0.10194 0.11458
#
# Static dielectric constant tensor:
#      x y z
#    x 2.015260 0.000000 0.058670 
#    y 0.000000 1.964830 0.000000 
#    z 0.058670 0.000000 2.162350 
# 
# From -- ./inp_files/56102.got.cif
#   From: 2010.05.17/outbox.cif.g08.bks.cpg/sg5_29_cif.got.tgz:56102.got - 2010.06.03 18:56:24.
