data_PCOD9123119
_publ_section_title
;
Structure prediction by ZEFSAII (Michael W. Deem and Ramdas Pophale) SiO2 
 PCOD9123119
Probable space group: C 2
;
_chemical_formula_sum "Si O2"
_cell_formula_units_Z 30
_cell_length_a 8.364383
_cell_length_b 10.581034
_cell_length_c 22.074716
_cell_angle_alpha 90.000000
_cell_angle_beta 44.408899
_cell_angle_gamma 90.000000
_cell_volume 1367.146752
_symmetry_space_group_name_H-M "C 2"
_symmetry_group_IT_number 5
_symmetry_cell_setting 'monoclinic'
loop_
_space_group_symop_operation_xyz
x,y,z
-x,y,-z
1/2+x,1/2+y,z
1/2-x,1/2+y,-z
loop_
_atom_site_type_symbol
_atom_site_label
_atom_site_fract_x
_atom_site_fract_y
_atom_site_fract_z
Si Si1 0.695500 0.831360 0.879669
Si Si2 0.979986 0.606170 0.836472
Si Si3 0.666422 0.603364 0.151771
Si Si4 0.265784 0.857520 0.932796
Si Si5 0.745806 0.154567 0.643584
Si Si6 0.959557 0.911559 0.443147
Si Si7 0.197094 0.726815 0.285564
Si Si8 0.000000 0.363357 0.500000
O O1 0.772461 0.705049 0.892463
O O2 0.426227 0.865523 0.949149
O O3 0.759920 0.797258 0.791176
O O4 0.833659 0.955069 0.863451
O O5 0.885078 0.463104 0.856900
O O6 0.129799 0.615806 0.855777
O O7 0.150682 0.648135 0.737097
O O8 0.715587 0.709259 0.088384
O O9 0.421560 0.649596 0.242541
O O10 0.000000 0.889552 0.000000
O O11 0.516039 0.133352 0.666846
O O12 0.857344 0.281357 0.587731
O O13 0.933214 0.049301 0.584919
O O14 0.703696 0.922876 0.485262
O O15 0.000000 0.858833 0.500000
O O16 0.113460 0.827836 0.356499
#
# Coordination Sequence:
#
# PCOD9123119 Si02
#       8
#     4   4   4   4   4   4   4   2
#     4   9  20  39  58  87 120 156 201 256 300 361
#     4  10  22  39  65  89 121 162 208 250 307 373
#     4  10  20  37  62  92 112 158 210 244 311 370
#     4  10  22  40  59  88 129 161 195 253 312 368
#     4  10  20  43  59  84 124 158 204 264 307 363
#     4  11  22  40  60  84 122 166 207 257 327 374
#     4   9  21  39  58  84 121 152 203 262 304 367
#     4  10  24  42  54  90 128 156 212 274 306 370
#
# _framework density 21.943511999999998
#
# number of rings (size 3 to 8) (size 9 to 14) (size 15 to 20)
#    0.000    2.133    0.667    2.400    1.867    6.400 
#    8.400    0.667    0.000    0.000    0.000    0.000 
#    0.000    0.000    0.000    0.000    0.000    0.000 
#
# Total GULP energy -83631.374253 kJ/mol
# GULP energy per Si atom -5575.424950 kJ/mol
# Density = 2.189357 g / cm^3
# Si number density = 21.943512 Si / 1000 Ang^3
#
#
#
# Elastic Constant Matrix: (Units=GPa)
#
#
# Indices 1 2 3 4 5 6 
#
# 1 107.6788 43.1946 33.7350 -0.0001 -39.7924 0.0001
# 2 43.1946 103.4855 15.1479 -0.0001 -11.6193 0.0001
# 3 33.7350 15.1479 76.4484 -0.0001 -21.9927 0.0001
# 4 -0.0001 -0.0001 -0.0001 23.0463 0.0000 -5.9136
# 5 -39.7924 -11.6193 -21.9927 0.0000 44.9111 0.0000
# 6 0.0001 0.0001 0.0001 -5.9136 0.0000 35.0987
#
#
#
# Elastic Compliance Matrix: (Units=1/GPa)
#
#
# Indices 1 2 3 4 5 6 
#
# 1 0.016742 -0.005211 -0.002882 0.000000 0.012075 0.000000
# 2 -0.005211 0.011711 -0.000556 0.000000 -0.001859 0.000000
# 3 -0.002882 -0.000556 0.015931 0.000000 0.005104 0.000000
# 4 0.000000 0.000000 0.000000 0.045352 0.000000 0.007641
# 5 0.012075 -0.001859 0.005104 0.000000 0.034983 0.000000
# 6 0.000000 0.000000 0.000000 0.007641 0.000000 0.029778
#
#
# Mechanical properties :
#
#
# Convention : Reuss Voigt Hill
#
# Bulk Modulus (GPa) = 36.91810 52.41863 44.66837
# Shear Modulus (GPa) = 27.65142 33.64688 30.64915
#
# Velocity S-wave (km/s) = 3.55367 3.92004 3.74134
# Velocity P-wave (km/s) = 5.80506 6.66549 6.25010
#
# Compressibility (1/GPa) = 0.02708698
#
# Stress axis : x y z
#
# Youngs Moduli (GPa) = 59.72980 85.39208 62.77107
#
# Poissons Ratio (x) = 0.44494 0.18090
# Poissons Ratio (y) = 0.31122 0.03490
# Poissons Ratio (z) = 0.17213 0.04748
#
# Static dielectric constant tensor:
#      x y z
#    x 1.870010 0.000000 0.034000 
#    y 0.000000 1.801900 0.000000 
#    z 0.034000 0.000000 1.890120 
# 
# From -- ./inp_files/67959.got.cif
#   From: 2010.05.17/outbox.cif.g08.bks.cpg/sg5_34_cif.got.tgz:67959.got - 2010.06.03 18:56:24.
