data_PCOD9123394
_publ_section_title
;
Structure prediction by ZEFSAII (Michael W. Deem and Ramdas Pophale) SiO2 
 PCOD9123394
Probable space group: C 2
;
_chemical_formula_sum "Si O2"
_cell_formula_units_Z 24
_cell_length_a 26.174438
_cell_length_b 4.991916
_cell_length_c 20.871392
_cell_angle_alpha 90.000000
_cell_angle_beta 160.331521
_cell_angle_gamma 90.000000
_cell_volume 917.869254
_symmetry_space_group_name_H-M "C 2"
_symmetry_group_IT_number 5
_symmetry_cell_setting 'monoclinic'
loop_
_space_group_symop_operation_xyz
x,y,z
-x,y,-z
1/2+x,1/2+y,z
1/2-x,1/2+y,-z
loop_
_atom_site_type_symbol
_atom_site_label
_atom_site_fract_x
_atom_site_fract_y
_atom_site_fract_z
Si Si1 0.991874 0.621790 0.336020
Si Si2 0.000000 0.122493 0.500000
Si Si3 0.312175 0.664646 0.160439
Si Si4 0.744980 0.697096 0.454559
Si Si5 0.268827 0.204817 0.284547
Si Si6 0.500000 0.022590 0.000000
Si Si7 0.059133 0.881827 0.944852
O O1 0.108266 0.699893 0.417755
O O2 0.119606 0.531929 0.540038
O O3 0.877699 0.376893 0.186403
O O4 0.882867 0.871606 0.228438
O O5 0.899610 0.260241 0.328322
O O6 0.877832 0.936419 0.389728
O O7 0.140742 0.724627 0.981813
O O8 0.710565 0.000849 0.433839
O O9 0.591245 0.547965 0.250043
O O10 0.179383 0.088230 0.118853
O O11 0.142946 0.334725 0.180714
O O12 0.472073 0.192729 0.030683
#
# Coordination Sequence:
#
# PCOD9123394 Si02
#       7
#     4   2   4   4   4   2   4
#     4  11  25  46  74 110 146 187 243 288 382 433
#     4  10  20  38  64 106 152 184 228 264 390 436
#     4  11  23  42  72 106 151 191 231 301 351 461
#     4  12  30  51  77 104 143 197 262 319 369 434
#     4  11  23  40  68 108 151 186 224 297 360 465
#     4  12  24  38  68 108 150 182 236 294 364 446
#     4  12  26  45  71 111 148 197 249 300 378 432
#
# _framework density 26.147513
#
# number of rings (size 3 to 8) (size 9 to 14) (size 15 to 20)
#    0.000    0.667    1.667    6.500   11.667    0.667 
#    0.000    3.333    0.000    0.000    0.000    0.000 
#    0.000    0.000    0.000    0.000    0.000    0.000 
#
# Total GULP energy -67097.689053 kJ/mol
# GULP energy per Si atom -5591.474088 kJ/mol
# Density = 2.608800 g / cm^3
# Si number density = 26.147513 Si / 1000 Ang^3
#
#
#
# Elastic Constant Matrix: (Units=GPa)
#
#
# Indices 1 2 3 4 5 6 
#
# 1 50.0920 -11.9887 41.2212 0.0009 24.5747 0.0001
# 2 -11.9887 72.9228 31.2052 0.0061 11.0711 0.0001
# 3 41.2212 31.2052 171.4456 0.0012 9.9268 -0.0003
# 4 0.0009 0.0061 0.0012 26.9264 0.0001 -3.2461
# 5 24.5747 11.0711 9.9268 0.0001 56.7787 -0.0003
# 6 0.0001 0.0001 -0.0003 -3.2461 -0.0003 27.8254
#
#
#
# Elastic Compliance Matrix: (Units=1/GPa)
#
#
# Indices 1 2 3 4 5 6 
#
# 1 0.042979 0.015139 -0.011962 -0.000004 -0.019462 -0.000001
# 2 0.015139 0.020550 -0.006838 -0.000005 -0.009364 -0.000001
# 3 -0.011962 -0.006838 0.009674 0.000002 0.004819 0.000000
# 4 -0.000004 -0.000005 0.000002 0.037668 0.000002 0.004394
# 5 -0.019462 -0.009364 0.004819 0.000002 0.027019 0.000001
# 6 -0.000001 -0.000001 0.000000 0.004394 0.000001 0.036451
#
#
# Mechanical properties :
#
#
# Convention : Reuss Voigt Hill
#
# Bulk Modulus (GPa) = 15.17882 46.14842 30.66362
# Shear Modulus (GPa) = 24.55512 37.90761 31.23136
#
# Velocity S-wave (km/s) = 3.06780 3.81170 3.45980
# Velocity P-wave (km/s) = 4.28558 6.08766 5.26431
#
# Compressibility (1/GPa) = 0.06588126
#
# Stress axis : x y z
#
# Youngs Moduli (GPa) = 23.26738 48.66185 103.36498
#
# Poissons Ratio (x) = -0.73672 1.23647
# Poissons Ratio (y) = -0.35226 0.70683
# Poissons Ratio (z) = 0.27833 0.33276
#
# Static dielectric constant tensor:
#      x y z
#    x 2.185600 0.000000 -0.081820 
#    y 0.000000 2.019050 0.000000 
#    z -0.081820 0.000000 2.050850 
# 
# From -- ./inp_files/69886.got.cif
#   From: 2010.05.17/outbox.cif.g08.bks.cpg/sg5_35_cif.got.tgz:69886.got - 2010.06.03 18:56:24.
