data_PCOD9123603
_publ_section_title
;
Structure prediction by ZEFSAII (Michael W. Deem and Ramdas Pophale) SiO2 
 PCOD9123603
Probable space group: C 2
;
_chemical_formula_sum "Si O2"
_cell_formula_units_Z 30
_cell_length_a 10.372890
_cell_length_b 13.021621
_cell_length_c 20.589197
_cell_angle_alpha 90.000000
_cell_angle_beta 150.824163
_cell_angle_gamma 90.000000
_cell_volume 1355.723941
_symmetry_space_group_name_H-M "C 2"
_symmetry_group_IT_number 5
_symmetry_cell_setting 'monoclinic'
loop_
_space_group_symop_operation_xyz
x,y,z
-x,y,-z
1/2+x,1/2+y,z
1/2-x,1/2+y,-z
loop_
_atom_site_type_symbol
_atom_site_label
_atom_site_fract_x
_atom_site_fract_y
_atom_site_fract_z
Si Si1 0.260350 0.391060 0.765056
Si Si2 0.624062 0.566137 0.968746
Si Si3 0.016897 0.484333 0.242893
Si Si4 0.500000 0.760675 0.000000
Si Si5 0.777004 0.660124 0.583833
Si Si6 0.974162 0.047047 0.345993
Si Si7 0.440124 0.190038 0.900309
Si Si8 0.951644 0.861371 0.713984
O O1 0.030535 0.401952 0.719732
O O2 0.454179 0.299513 0.871881
O O3 0.235943 0.367019 0.677753
O O4 0.407604 0.499745 0.837251
O O5 0.761201 0.495842 0.084698
O O6 0.859650 0.597722 0.025663
O O7 0.542963 0.677656 0.960955
O O8 0.037482 0.593580 0.288053
O O9 0.275971 0.487745 0.310234
O O10 0.240369 0.829050 0.870209
O O11 0.500000 0.663801 0.500000
O O12 0.716115 0.595846 0.492631
O O13 0.884719 0.774239 0.631452
O O14 0.043288 0.968049 0.320624
O O15 0.827144 0.142438 0.246997
O O16 0.500000 0.214871 0.000000
#
# Coordination Sequence:
#
# PCOD9123603 Si02
#       8
#     4   4   4   2   4   4   4   4
#     4  12  22  37  66  98 130 176 224 275 340 401
#     4  11  20  37  59  92 130 177 218 268 329 400
#     4  10  20  39  63  91 130 175 221 270 331 400
#     4  12  22  40  64  94 140 172 222 272 334 416
#     4  10  21  45  69  92 131 177 230 274 337 410
#     4  10  25  42  66  94 132 177 221 287 336 405
#     4  11  23  38  57  95 134 171 215 282 338 393
#     4  12  25  41  68 105 127 183 222 281 348 402
#
# _framework density 22.128399000000002
#
# number of rings (size 3 to 8) (size 9 to 14) (size 15 to 20)
#    0.000    1.067    4.000    3.200    4.667    3.200 
#    0.000    1.333    0.000    3.200    0.000    0.000 
#    0.000    0.000    0.000    0.000    0.000    0.000 
#
# Total GULP energy -83618.538226 kJ/mol
# GULP energy per Si atom -5574.569215 kJ/mol
# Density = 2.207803 g / cm^3
# Si number density = 22.128399 Si / 1000 Ang^3
#
#
#
# Elastic Constant Matrix: (Units=GPa)
#
#
# Indices 1 2 3 4 5 6 
#
# 1 74.4428 21.8598 20.0650 0.0005 -25.0566 0.0006
# 2 21.8598 78.5886 15.5899 0.0007 -12.3953 0.0004
# 3 20.0650 15.5899 51.6370 0.0009 -11.0792 -0.0046
# 4 0.0005 0.0007 0.0009 36.5803 0.0003 -11.5709
# 5 -25.0566 -12.3953 -11.0792 0.0003 28.1827 -0.0015
# 6 0.0006 0.0004 -0.0046 -11.5709 -0.0015 65.0287
#
#
#
# Elastic Compliance Matrix: (Units=1/GPa)
#
#
# Indices 1 2 3 4 5 6 
#
# 1 0.020437 -0.002464 -0.003857 0.000000 0.015570 0.000000
# 2 -0.002464 0.014440 -0.002741 0.000000 0.003083 0.000000
# 3 -0.003857 -0.002741 0.022604 0.000000 0.004252 0.000002
# 4 0.000000 0.000000 0.000000 0.028967 0.000000 0.005154
# 5 0.015570 0.003083 0.004252 0.000000 0.052353 0.000001
# 6 0.000000 0.000000 0.000002 0.005154 0.000001 0.016295
#
#
# Mechanical properties :
#
#
# Convention : Reuss Voigt Hill
#
# Bulk Modulus (GPa) = 25.40742 35.52198 30.46470
# Shear Modulus (GPa) = 26.83286 35.76860 31.30073
#
# Velocity S-wave (km/s) = 3.48602 4.02482 3.76507
# Velocity P-wave (km/s) = 5.26401 6.13893 5.71823
#
# Compressibility (1/GPa) = 0.03935858
#
# Stress axis : x y z
#
# Youngs Moduli (GPa) = 48.93117 69.25338 44.23928
#
# Poissons Ratio (x) = 0.17062 0.17062
# Poissons Ratio (y) = 0.12055 0.12125
# Poissons Ratio (z) = 0.18872 0.18980
#
# Static dielectric constant tensor:
#      x y z
#    x 1.894740 -0.000010 0.089280 
#    y -0.000010 1.759640 0.000010 
#    z 0.089280 0.000010 1.799160 
# 
# From -- ./inp_files/65369.got.cif
#   From: 2010.05.17/outbox.cif.g08.bks.cpg/sg5_33_cif.got.tgz:65369.got - 2010.06.03 18:56:24.
