data_PCOD9123056
_publ_section_title
;
Structure prediction by ZEFSAII (Michael W. Deem and Ramdas Pophale) SiO2 
 PCOD9123056
Probable space group: C 2
;
_chemical_formula_sum "Si O2"
_cell_formula_units_Z 24
_cell_length_a 15.893497
_cell_length_b 8.878826
_cell_length_c 13.108696
_cell_angle_alpha 90.000000
_cell_angle_beta 143.926059
_cell_angle_gamma 90.000000
_cell_volume 1089.239927
_symmetry_space_group_name_H-M "C 2"
_symmetry_group_IT_number 5
_symmetry_cell_setting 'monoclinic'
loop_
_space_group_symop_operation_xyz
x,y,z
-x,y,-z
1/2+x,1/2+y,z
1/2-x,1/2+y,-z
loop_
_atom_site_type_symbol
_atom_site_label
_atom_site_fract_x
_atom_site_fract_y
_atom_site_fract_z
Si Si1 0.076502 0.445550 0.333354
Si Si2 0.851329 0.783361 0.022142
Si Si3 0.322908 0.924670 0.962237
Si Si4 0.332711 0.265887 0.611671
Si Si5 0.871561 0.467074 0.314337
Si Si6 0.658015 0.294473 0.621377
O O1 0.185406 0.340154 0.500470
O O2 0.164071 0.586331 0.377005
O O3 0.954921 0.508785 0.290999
O O4 0.981267 0.370520 0.151718
O O5 0.784571 0.841941 0.063898
O O6 0.020305 0.816687 0.191870
O O7 0.824379 0.605611 0.978152
O O8 0.764571 0.871387 0.850154
O O9 0.274122 0.882715 0.801443
O O10 0.333354 0.302652 0.491378
O O11 0.832425 0.619077 0.335017
O O12 0.000000 0.385551 0.500000
O O13 0.500000 0.346747 0.500000
#
# Coordination Sequence:
#
# PCOD9123056 Si02
#       6
#     4   4   4   4   4   4
#     4  10  22  39  59  88 123 156 196 251 309 351
#     4  10  21  37  62  87 121 159 205 247 301 360
#     4  10  20  37  60  90 119 161 204 249 294 366
#     4  11  22  40  61  88 122 162 193 256 306 359
#     4  10  20  41  67  86 116 160 211 247 289 363
#     4  11  19  39  67  86 118 159 212 242 295 357
#
# _framework density 22.033712999999999
#
# number of rings (size 3 to 8) (size 9 to 14) (size 15 to 20)
#    0.000    1.667    5.000    2.000    0.000    5.333 
#    3.000    0.833    0.000    0.000    0.000    0.000 
#    0.000    0.000    0.000    0.000    0.000    0.000 
#
# Total GULP energy -66998.349336 kJ/mol
# GULP energy per Si atom -5583.195778 kJ/mol
# Density = 2.198356 g / cm^3
# Si number density = 22.033713 Si / 1000 Ang^3
#
#
#
# Elastic Constant Matrix: (Units=GPa)
#
#
# Indices 1 2 3 4 5 6 
#
# 1 49.8001 10.9735 19.2975 0.0000 -2.1683 0.0000
# 2 10.9735 62.2737 67.3210 0.0000 14.5766 0.0000
# 3 19.2975 67.3210 209.7083 0.0000 -4.6901 0.0000
# 4 0.0000 0.0000 0.0000 47.2935 0.0000 -3.9024
# 5 -2.1683 14.5766 -4.6901 0.0000 34.4441 0.0000
# 6 0.0000 0.0000 0.0000 -3.9024 0.0000 21.9052
#
#
#
# Elastic Compliance Matrix: (Units=1/GPa)
#
#
# Indices 1 2 3 4 5 6 
#
# 1 0.021280 -0.003592 -0.000743 0.000000 0.002758 0.000000
# 2 -0.003592 0.030790 -0.009880 0.000000 -0.014602 0.000000
# 3 -0.000743 -0.009880 0.008126 0.000000 0.005241 0.000000
# 4 0.000000 0.000000 0.000000 0.021460 0.000000 0.003823
# 5 0.002758 -0.014602 0.005241 0.000000 0.036099 0.000000
# 6 0.000000 0.000000 0.000000 0.003823 0.000000 0.046332
#
#
# Mechanical properties :
#
#
# Convention : Reuss Voigt Hill
#
# Bulk Modulus (GPa) = 31.48138 57.44070 44.46104
# Shear Modulus (GPa) = 24.61759 35.67457 30.14608
#
# Velocity S-wave (km/s) = 3.34618 4.02816 3.70290
# Velocity P-wave (km/s) = 5.40815 6.91092 6.20520
#
# Compressibility (1/GPa) = 0.03176480
#
# Stress axis : x y z
#
# Youngs Moduli (GPa) = 46.99269 32.47803 123.06237
#
# Poissons Ratio (x) = 0.11665 0.09149
# Poissons Ratio (y) = 0.16879 1.21590
# Poissons Ratio (z) = 0.03494 0.32089
#
# Static dielectric constant tensor:
#      x y z
#    x 1.876250 0.000000 -0.016550 
#    y 0.000000 1.791420 0.000000 
#    z -0.016550 0.000000 1.843810 
# 
# From -- ./inp_files/28881.got.cif
#   From: 2010.05.17/outbox.cif.g08.bks.cpg/sg5_15_cif.got.tgz:28881.got - 2010.06.03 18:56:24.
