data_PCOD9123565
_publ_section_title
;
Structure prediction by ZEFSAII (Michael W. Deem and Ramdas Pophale) SiO2 
 PCOD9123565
Probable space group: C 2
;
_chemical_formula_sum "Si O2"
_cell_formula_units_Z 32
_cell_length_a 19.980125
_cell_length_b 11.252010
_cell_length_c 8.600901
_cell_angle_alpha 90.000000
_cell_angle_beta 46.619136
_cell_angle_gamma 90.000000
_cell_volume 1405.366615
_symmetry_space_group_name_H-M "C 2"
_symmetry_group_IT_number 5
_symmetry_cell_setting 'monoclinic'
loop_
_space_group_symop_operation_xyz
x,y,z
-x,y,-z
1/2+x,1/2+y,z
1/2-x,1/2+y,-z
loop_
_atom_site_type_symbol
_atom_site_label
_atom_site_fract_x
_atom_site_fract_y
_atom_site_fract_z
Si Si1 0.283290 0.434390 0.145779
Si Si2 0.291391 0.564725 0.440296
Si Si3 0.848351 0.781592 0.791989
Si Si4 0.904798 0.031309 0.556945
Si Si5 0.155064 0.177323 0.097878
Si Si6 0.599285 0.029455 0.903089
Si Si7 0.093598 0.255723 0.911193
Si Si8 0.596099 0.018502 0.282719
O O1 0.278914 0.458223 0.334925
O O2 0.182945 0.451625 0.223850
O O3 0.337470 0.321749 0.990023
O O4 0.339692 0.547076 0.987539
O O5 0.374665 0.536006 0.426476
O O6 0.193506 0.583032 0.682788
O O7 0.322982 0.680165 0.292727
O O8 0.880214 0.897268 0.649044
O O9 0.898898 0.658603 0.679766
O O10 0.744747 0.750627 0.912250
O O11 0.000000 0.052970 0.500000
O O12 0.847626 0.142891 0.719496
O O13 0.080428 0.247664 0.119707
O O14 0.601475 0.891178 0.848600
O O15 0.500000 0.077811 0.000000
O O16 0.603109 0.024305 0.084734
O O17 0.000000 0.200430 0.000000
O O18 0.500000 0.969505 0.500000
#
# Coordination Sequence:
#
# PCOD9123565 Si02
#       8
#     4   4   4   4   4   4   4   4
#     4   9  20  36  59  86 117 160 203 246 307 373
#     4  11  22  39  64  94 131 168 209 267 322 377
#     4  10  20  39  61  83 117 164 208 250 311 377
#     4  11  22  37  59  89 121 157 208 261 310 371
#     4   9  18  35  57  80 114 158 201 248 302 364
#     4  11  24  42  65  96 130 166 215 266 315 381
#     4  10  21  39  62  90 127 168 210 260 318 379
#     4  11  22  41  64  88 123 163 208 264 315 370
#
# _framework density 22.769860999999999
#
# number of rings (size 3 to 8) (size 9 to 14) (size 15 to 20)
#    0.000    1.750    0.000    5.625    0.000    2.000 
#    0.000    8.750    0.000    0.750    0.000    0.000 
#    0.000    0.000    0.000    0.000    0.000    0.000 
#
# Total GULP energy -89141.746276 kJ/mol
# GULP energy per Si atom -5571.359142 kJ/mol
# Density = 2.271804 g / cm^3
# Si number density = 22.769861 Si / 1000 Ang^3
#
#
#
# Elastic Constant Matrix: (Units=GPa)
#
#
# Indices 1 2 3 4 5 6 
#
# 1 117.1794 -7.3443 22.7455 0.0000 18.0222 0.0000
# 2 -7.3443 47.2528 6.4348 0.0000 -13.4395 0.0000
# 3 22.7455 6.4348 72.4872 0.0000 9.8278 0.0000
# 4 0.0000 0.0000 0.0000 33.7282 0.0000 1.1000
# 5 18.0222 -13.4395 9.8278 0.0000 32.4922 0.0000
# 6 0.0000 0.0000 0.0000 1.1000 0.0000 60.4303
#
#
#
# Elastic Compliance Matrix: (Units=1/GPa)
#
#
# Indices 1 2 3 4 5 6 
#
# 1 0.009735 0.000607 -0.002514 0.000000 -0.004388 0.000000
# 2 0.000607 0.024971 -0.003923 0.000000 0.011178 0.000000
# 3 -0.002514 -0.003923 0.015603 0.000000 -0.004948 0.000000
# 4 0.000000 0.000000 0.000000 0.029666 0.000000 -0.000540
# 5 -0.004388 0.011178 -0.004948 0.000000 0.039331 0.000000
# 6 0.000000 0.000000 0.000000 -0.000540 0.000000 0.016558
#
#
# Mechanical properties :
#
#
# Convention : Reuss Voigt Hill
#
# Bulk Modulus (GPa) = 25.87287 31.17682 28.52484
# Shear Modulus (GPa) = 31.17108 39.66903 35.42005
#
# Velocity S-wave (km/s) = 3.70396 4.17846 3.94835
# Velocity P-wave (km/s) = 5.44793 6.08287 5.77413
#
# Compressibility (1/GPa) = 0.03865053
#
# Stress axis : x y z
#
# Youngs Moduli (GPa) = 102.72445 40.04712 64.08889
#
# Poissons Ratio (x) = -0.02432 0.16109
# Poissons Ratio (y) = -0.06239 0.25141
# Poissons Ratio (z) = 0.25821 0.15710
#
# Static dielectric constant tensor:
#      x y z
#    x 1.256820 0.000000 0.233140 
#    y 0.000000 1.861720 0.000000 
#    z 0.233140 0.000000 1.907090 
# 
# From -- ./inp_files/29606.got.cif
#   From: 2010.05.17/outbox.cif.g08.bks.cpg/sg5_15_cif.got.tgz:29606.got - 2010.06.03 18:56:24.
