data_PCOD9123953
_publ_section_title
;
Structure prediction by ZEFSAII (Michael W. Deem and Ramdas Pophale) SiO2 
 PCOD9123953
Probable space group: C 2
;
_chemical_formula_sum "Si O2"
_cell_formula_units_Z 28
_cell_length_a 21.219948
_cell_length_b 7.647520
_cell_length_c 23.184299
_cell_angle_alpha 90.000000
_cell_angle_beta 19.590273
_cell_angle_gamma 90.000000
_cell_volume 1261.483640
_symmetry_space_group_name_H-M "C 2"
_symmetry_group_IT_number 5
_symmetry_cell_setting 'monoclinic'
loop_
_space_group_symop_operation_xyz
x,y,z
-x,y,-z
1/2+x,1/2+y,z
1/2-x,1/2+y,-z
loop_
_atom_site_type_symbol
_atom_site_label
_atom_site_fract_x
_atom_site_fract_y
_atom_site_fract_z
Si Si1 0.471347 0.273270 0.833766
Si Si2 0.622117 0.693166 0.542888
Si Si3 0.047186 0.173194 0.183990
Si Si4 0.699225 0.106217 0.322450
Si Si5 0.411884 0.038541 0.700751
Si Si6 0.314611 0.326584 0.553789
Si Si7 0.531403 0.338549 0.040312
O O1 0.653376 0.206452 0.643060
O O2 0.482899 0.482939 0.817322
O O3 0.490399 0.215701 0.884894
O O4 0.266307 0.218978 0.988372
O O5 0.513007 0.671849 0.697055
O O6 0.549938 0.870335 0.574937
O O7 0.598021 0.516688 0.527617
O O8 0.899981 0.308118 0.282660
O O9 0.500000 0.006237 0.500000
O O10 0.688276 0.258640 0.378049
O O11 0.692541 0.145049 0.260899
O O12 0.871031 0.982581 0.185300
O O13 0.558737 0.188751 0.592653
O O14 0.229915 0.936004 0.881336
O O15 0.500000 0.276201 0.000000
#
# Coordination Sequence:
#
# PCOD9123953 Si02
#       7
#     4   4   4   4   4   4   4
#     4  12  24  44  69 102 142 188 234 295 352 416
#     4  12  25  44  69 103 141 187 235 291 352 423
#     4  12  25  43  67 104 146 186 238 291 355 420
#     4   9  18  40  67  95 128 176 225 279 348 408
#     4  10  21  43  70  95 142 178 228 294 350 411
#     4  11  23  42  66  98 138 180 237 283 353 419
#     4  10  20  40  72 101 133 185 235 285 354 419
#
# _framework density 22.196089000000001
#
# number of rings (size 3 to 8) (size 9 to 14) (size 15 to 20)
#    0.000    1.143    4.286    2.571    0.000    2.286 
#    2.571   15.000    0.000    6.000    0.000    0.000 
#    0.000    0.000    0.000    0.000    0.000    0.000 
#
# Total GULP energy -77951.927468 kJ/mol
# GULP energy per Si atom -5567.994819 kJ/mol
# Density = 2.214557 g / cm^3
# Si number density = 22.196089 Si / 1000 Ang^3
#
#
#
# Elastic Constant Matrix: (Units=GPa)
#
#
# Indices 1 2 3 4 5 6 
#
# 1 104.3077 17.7685 7.6137 0.0034 3.4901 0.0010
# 2 17.7685 79.7083 11.7731 0.0258 -11.2203 0.0076
# 3 7.6137 11.7731 144.1833 0.0171 -27.4545 0.0037
# 4 0.0034 0.0258 0.0171 11.5793 0.0005 -14.9789
# 5 3.4901 -11.2203 -27.4545 0.0005 33.3059 0.0005
# 6 0.0010 0.0076 0.0037 -14.9789 0.0005 12.7180
#
#
#
# Elastic Compliance Matrix: (Units=1/GPa)
#
#
# Indices 1 2 3 4 5 6 
#
# 1 0.010161 -0.002508 -0.000825 -0.000010 -0.002590 -0.000011
# 2 -0.002508 0.013798 -0.000070 0.000078 0.004853 0.000084
# 3 -0.000825 -0.000070 0.008300 0.000030 0.006904 0.000032
# 4 -0.000010 0.000078 0.000030 -0.164952 0.000057 -0.194276
# 5 -0.002590 0.004853 0.006904 0.000057 0.037622 0.000061
# 6 -0.000011 0.000084 0.000032 -0.194276 0.000061 -0.150184
#
#
# Mechanical properties :
#
#
# Convention : Reuss Voigt Hill
#
# Bulk Modulus (GPa) = 39.28747 44.72331 42.00539
# Shear Modulus (GPa) = -21.74249 30.92357 4.59054
#
# Velocity S-wave (km/s) = -3.13319 3.73661 1.43968
# Velocity P-wave (km/s) = 2.15624 6.22971 4.66147
#
# Compressibility (1/GPa) = 0.02545341
#
# Stress axis : x y z
#
# Youngs Moduli (GPa) = 98.41483 72.47270 120.48826
#
# Poissons Ratio (x) = 0.18175 0.09939
# Poissons Ratio (y) = 0.24680 0.00845
# Poissons Ratio (z) = 0.08118 0.00508
#
# Static dielectric constant tensor:
#      x y z
#    x 2.016860 0.000000 0.030020 
#    y 0.000000 1.813620 0.000000 
#    z 0.030020 0.000000 1.887570 
# 
# From -- ./inp_files/69418.got.cif
#   From: 2010.05.17/outbox.cif.g08.bks.cpg/sg5_35_cif.got.tgz:69418.got - 2010.06.03 18:56:24.
