data_PCOD9123068
_publ_section_title
;
Structure prediction by ZEFSAII (Michael W. Deem and Ramdas Pophale) SiO2 
 PCOD9123068
Probable space group: C 2
;
_chemical_formula_sum "Si O2"
_cell_formula_units_Z 28
_cell_length_a 9.722222
_cell_length_b 31.457030
_cell_length_c 5.038003
_cell_angle_alpha 90.000000
_cell_angle_beta 63.504625
_cell_angle_gamma 90.000000
_cell_volume 1378.955757
_symmetry_space_group_name_H-M "C 2"
_symmetry_group_IT_number 5
_symmetry_cell_setting 'monoclinic'
loop_
_space_group_symop_operation_xyz
x,y,z
-x,y,-z
1/2+x,1/2+y,z
1/2-x,1/2+y,-z
loop_
_atom_site_type_symbol
_atom_site_label
_atom_site_fract_x
_atom_site_fract_y
_atom_site_fract_z
Si Si1 0.184996 0.175190 0.849531
Si Si2 0.823825 0.384821 0.601935
Si Si3 0.680101 0.526149 0.272924
Si Si4 0.892765 0.750097 0.827972
Si Si5 0.834921 0.848066 0.763888
Si Si6 0.313212 0.622420 0.661603
Si Si7 0.321976 0.985568 0.637619
O O1 0.251720 0.217652 0.926802
O O2 0.234796 0.156696 0.519907
O O3 0.233439 0.138614 0.011207
O O4 0.000000 0.178980 0.000000
O O5 0.782389 0.369422 0.342084
O O6 0.811642 0.434824 0.677667
O O7 0.000000 0.371842 0.500000
O O8 0.705857 0.363372 0.907640
O O9 0.500000 0.523815 0.500000
O O10 0.734422 0.573363 0.312937
O O11 0.765396 0.493912 0.390806
O O12 0.721720 0.512180 0.937578
O O13 0.836538 0.796936 0.790029
O O14 0.000000 0.733740 0.500000
O O15 0.000000 0.751853 0.000000
O O16 0.000000 0.860167 0.500000
O O17 0.500000 0.621903 0.500000
O O18 0.500000 0.998290 0.500000
#
# Coordination Sequence:
#
# PCOD9123068 Si02
#       7
#     4   4   4   4   4   4   4
#     4  10  20  37  61  86 114 154 199 241 290 352
#     4  11  24  41  62  88 121 158 199 249 301 355
#     4  11  22  39  64  89 117 159 207 248 291 355
#     4  11  23  41  60  86 123 156 189 243 306 355
#     4  11  23  41  63  88 120 158 198 246 302 358
#     4   9  19  36  58  86 118 150 194 251 296 334
#     4  11  24  41  59  87 126 159 192 248 311 355
#
# _framework density 20.305219000000001
#
# number of rings (size 3 to 8) (size 9 to 14) (size 15 to 20)
#    0.000    1.429    0.000    6.000    0.000    9.143 
#    0.000    8.571    0.000    0.000    0.000    0.000 
#    0.000    0.000    0.000    0.000    0.000    0.000 
#
# Total GULP energy -78079.914256 kJ/mol
# GULP energy per Si atom -5577.136733 kJ/mol
# Density = 2.025900 g / cm^3
# Si number density = 20.305219 Si / 1000 Ang^3
#
#
#
# Elastic Constant Matrix: (Units=GPa)
#
#
# Indices 1 2 3 4 5 6 
#
# 1 62.4914 19.6275 2.7831 0.0000 8.5185 0.0000
# 2 19.6275 49.3479 7.8810 0.0000 -14.5236 0.0000
# 3 2.7831 7.8810 59.1038 0.0000 15.7768 0.0000
# 4 0.0000 0.0000 0.0000 19.4092 0.0000 6.6114
# 5 8.5185 -14.5236 15.7768 0.0000 30.3298 0.0000
# 6 0.0000 0.0000 0.0000 6.6114 0.0000 22.8236
#
#
#
# Elastic Compliance Matrix: (Units=1/GPa)
#
#
# Indices 1 2 3 4 5 6 
#
# 1 0.022468 -0.014422 0.005101 0.000000 -0.015870 0.000000
# 2 -0.014422 0.035774 -0.011316 0.000000 0.027067 0.000000
# 3 0.005101 -0.011316 0.023245 0.000000 -0.018943 0.000000
# 4 0.000000 0.000000 0.000000 0.057162 0.000000 -0.016558
# 5 -0.015870 0.027067 -0.018943 0.000000 0.060243 0.000000
# 6 0.000000 0.000000 0.000000 -0.016558 0.000000 0.048611
#
#
# Mechanical properties :
#
#
# Convention : Reuss Voigt Hill
#
# Bulk Modulus (GPa) = 24.86763 25.72514 25.29639
# Shear Modulus (GPa) = 16.54643 23.88930 20.21786
#
# Velocity S-wave (km/s) = 2.85772 3.43375 3.15889
# Velocity P-wave (km/s) = 4.81272 5.33081 5.07838
#
# Compressibility (1/GPa) = 0.04021291
#
# Stress axis : x y z
#
# Youngs Moduli (GPa) = 44.50794 27.95344 43.02074
#
# Poissons Ratio (x) = 0.40314 -0.21946
# Poissons Ratio (y) = 0.64188 0.48683
# Poissons Ratio (z) = -0.22705 0.31633
#
# Static dielectric constant tensor:
#      x y z
#    x 1.712910 0.000000 -0.006140 
#    y 0.000000 1.696050 0.000000 
#    z -0.006140 0.000000 1.692090 
# 
# From -- ./inp_files/3875.got.cif
#   From: 2010.05.17/outbox.cif.g08.bks.cpg/sg5_2_cif.got.tgz:3875.got - 2010.06.03 18:56:24.
