data_PCOD9123668
_publ_section_title
;
Structure prediction by ZEFSAII (Michael W. Deem and Ramdas Pophale) SiO2 
 PCOD9123668
Probable space group: C 2
;
_chemical_formula_sum "Si O2"
_cell_formula_units_Z 28
_cell_length_a 5.264562
_cell_length_b 30.898909
_cell_length_c 8.383306
_cell_angle_alpha 90.000000
_cell_angle_beta 62.356774
_cell_angle_gamma 90.000000
_cell_volume 1208.044023
_symmetry_space_group_name_H-M "C 2"
_symmetry_group_IT_number 5
_symmetry_cell_setting 'monoclinic'
loop_
_space_group_symop_operation_xyz
x,y,z
-x,y,-z
1/2+x,1/2+y,z
1/2-x,1/2+y,-z
loop_
_atom_site_type_symbol
_atom_site_label
_atom_site_fract_x
_atom_site_fract_y
_atom_site_fract_z
Si Si1 0.245422 0.892070 0.695242
Si Si2 0.500000 0.343284 0.500000
Si Si3 0.330261 0.042888 0.220182
Si Si4 0.500000 0.329747 0.000000
Si Si5 0.232794 0.192075 0.687353
Si Si6 0.268146 0.785534 0.190268
Si Si7 0.167767 0.992449 0.781802
Si Si8 0.845953 0.642117 0.215835
O O1 0.500000 0.880496 0.500000
O O2 0.238022 0.942920 0.723915
O O3 0.990890 0.874959 0.655748
O O4 0.227251 0.865407 0.863794
O O5 0.737781 0.308760 0.368750
O O6 0.261525 0.092702 0.274963
O O7 0.547992 0.020821 0.279167
O O8 0.500000 0.043109 0.000000
O O9 0.048050 0.014327 0.279449
O O10 0.499976 0.296989 0.846627
O O11 0.500000 0.206470 0.500000
O O12 0.168074 0.235529 0.802756
O O13 0.397321 0.156044 0.742447
O O14 0.939507 0.172179 0.701546
O O15 0.500000 0.804479 0.000000
O O16 0.000000 0.992699 0.000000
O O17 0.000000 0.644965 0.000000
#
# Coordination Sequence:
#
# PCOD9123668 Si02
#       8
#     4   2   4   2   4   4   4   4
#     4  11  23  41  64  97 134 178 231 280 348 403
#     4  10  24  44  62  96 136 174 236 288 346 400
#     4   9  20  39  68  98 133 174 230 283 343 406
#     4  10  24  44  66  94 130 180 238 282 346 402
#     4  12  26  44  67 103 144 183 226 292 352 421
#     4  11  23  43  67  96 133 182 235 280 352 406
#     4  10  20  39  66  99 133 178 226 284 339 410
#     4  11  23  45  73 103 133 184 237 287 348 424
#
# _framework density 23.177965
#
# number of rings (size 3 to 8) (size 9 to 14) (size 15 to 20)
#    0.000    1.429    1.429    3.429    5.000    2.286 
#    0.000    4.286    0.000    0.000    0.000    0.000 
#    0.000    0.000    0.000    0.000    0.000    0.000 
#
# Total GULP energy -78026.611579 kJ/mol
# GULP energy per Si atom -5573.329399 kJ/mol
# Density = 2.312521 g / cm^3
# Si number density = 23.177965 Si / 1000 Ang^3
#
#
#
# Elastic Constant Matrix: (Units=GPa)
#
#
# Indices 1 2 3 4 5 6 
#
# 1 87.8128 46.1870 18.7408 0.0000 -7.8329 0.0000
# 2 46.1870 159.5479 30.1016 0.0000 0.5033 0.0000
# 3 18.7408 30.1016 110.0542 0.0000 -14.2468 0.0000
# 4 0.0000 0.0000 0.0000 20.9592 0.0000 -1.7780
# 5 -7.8329 0.5033 -14.2468 0.0000 29.4278 0.0000
# 6 0.0000 0.0000 0.0000 -1.7780 0.0000 33.6370
#
#
#
# Elastic Compliance Matrix: (Units=1/GPa)
#
#
# Indices 1 2 3 4 5 6 
#
# 1 0.013910 -0.003872 -0.000877 0.000000 0.003344 0.000000
# 2 -0.003872 0.007717 -0.001709 0.000000 -0.001990 0.000000
# 3 -0.000877 -0.001709 0.010324 0.000000 0.004794 0.000000
# 4 0.000000 0.000000 0.000000 0.047927 0.000000 0.002533
# 5 0.003344 -0.001990 0.004794 0.000000 0.037227 0.000000
# 6 0.000000 0.000000 0.000000 0.002533 0.000000 0.029863
#
#
# Mechanical properties :
#
#
# Convention : Reuss Voigt Hill
#
# Bulk Modulus (GPa) = 52.53339 60.83043 56.68191
# Shear Modulus (GPa) = 30.07923 34.29714 32.18819
#
# Velocity S-wave (km/s) = 3.60634 3.85090 3.73062
# Velocity P-wave (km/s) = 6.32893 6.78782 6.56239
#
# Compressibility (1/GPa) = 0.01903551
#
# Stress axis : x y z
#
# Youngs Moduli (GPa) = 71.89199 129.57927 96.86377
#
# Poissons Ratio (x) = 0.50171 0.08492
# Poissons Ratio (y) = 0.27835 0.16555
# Poissons Ratio (z) = 0.06303 0.22146
#
# Static dielectric constant tensor:
#      x y z
#    x -53.723490 0.000000 -17.026030 
#    y 0.000000 1.811160 0.000000 
#    z -17.026030 0.000000 -3.516620 
# 
# From -- ./inp_files/13180.got.cif
#   From: 2010.05.17/outbox.cif.g08.bks.cpg/sg5_7_cif.got.tgz:13180.got - 2010.06.03 18:56:24.
