data_PCOD9123744
_publ_section_title
;
Structure prediction by ZEFSAII (Michael W. Deem and Ramdas Pophale) SiO2 
 PCOD9123744
Probable space group: C 2
;
_chemical_formula_sum "Si O2"
_cell_formula_units_Z 28
_cell_length_a 16.242667
_cell_length_b 9.728674
_cell_length_c 9.318927
_cell_angle_alpha 90.000000
_cell_angle_beta 67.910445
_cell_angle_gamma 90.000000
_cell_volume 1364.482233
_symmetry_space_group_name_H-M "C 2"
_symmetry_group_IT_number 5
_symmetry_cell_setting 'monoclinic'
loop_
_space_group_symop_operation_xyz
x,y,z
-x,y,-z
1/2+x,1/2+y,z
1/2-x,1/2+y,-z
loop_
_atom_site_type_symbol
_atom_site_label
_atom_site_fract_x
_atom_site_fract_y
_atom_site_fract_z
Si Si1 0.000000 0.508220 0.000000
Si Si2 0.722404 0.453687 0.347792
Si Si3 0.684562 0.116952 0.969351
Si Si4 0.431347 0.480124 0.734791
Si Si5 0.903727 0.310139 0.288755
Si Si6 0.800888 0.929219 0.064502
Si Si7 0.000000 0.227748 0.500000
Si Si8 0.879887 0.000633 0.305371
O O1 0.080403 0.599358 0.008140
O O2 0.039711 0.410512 0.849497
O O3 0.765048 0.558832 0.205102
O O4 0.636233 0.394138 0.320710
O O5 0.801011 0.351462 0.338306
O O6 0.684469 0.519238 0.517170
O O7 0.711621 0.273081 0.976590
O O8 0.716491 0.020419 0.078366
O O9 0.444220 0.623111 0.638811
O O10 0.530230 0.426390 0.699853
O O11 0.381453 0.493226 0.918314
O O12 0.911145 0.151667 0.235742
O O13 0.939318 0.311960 0.429258
O O14 0.829190 0.928588 0.210314
#
# Coordination Sequence:
#
# PCOD9123744 Si02
#       8
#     2   4   4   4   4   4   2   4
#     4  10  24  44  66  90 140 164 224 264 332 378
#     4  10  21  41  63  91 133 165 215 268 326 374
#     4  10  26  46  65  97 130 179 206 284 319 395
#     4  10  20  40  60  94 123 171 208 272 304 385
#     4  10  23  38  66  96 130 175 214 271 322 387
#     4  11  26  40  69  95 135 166 230 259 338 378
#     4  10  20  40  66  94 130 168 224 256 330 376
#     4  11  23  37  66 100 123 177 218 268 316 399
#
# _framework density 20.520603000000001
#
# number of rings (size 3 to 8) (size 9 to 14) (size 15 to 20)
#    0.000    1.714    2.857    0.429   14.000    3.429 
#    0.000    0.000    0.000    0.000    0.000    0.000 
#    0.000    0.000    0.000    0.000    0.000    0.000 
#
# Total GULP energy -78117.767153 kJ/mol
# GULP energy per Si atom -5579.840511 kJ/mol
# Density = 2.047390 g / cm^3
# Si number density = 20.520603 Si / 1000 Ang^3
#
#
#
# Elastic Constant Matrix: (Units=GPa)
#
#
# Indices 1 2 3 4 5 6 
#
# 1 171.7231 38.6432 28.7381 0.0000 21.7195 0.0000
# 2 38.6432 67.7768 -8.2170 0.0000 18.4610 0.0000
# 3 28.7381 -8.2170 65.4328 0.0000 16.8858 0.0000
# 4 0.0000 0.0000 0.0000 18.3259 0.0000 7.1290
# 5 21.7195 18.4610 16.8858 0.0000 33.7651 0.0000
# 6 0.0000 0.0000 0.0000 7.1290 0.0000 28.9927
#
#
#
# Elastic Compliance Matrix: (Units=1/GPa)
#
#
# Indices 1 2 3 4 5 6 
#
# 1 0.007560 -0.004657 -0.003797 0.000000 -0.000418 0.000000
# 2 -0.004657 0.021974 0.008189 0.000000 -0.013114 0.000000
# 3 -0.003797 0.008189 0.021246 0.000000 -0.012660 0.000000
# 4 0.000000 0.000000 0.000000 0.060339 0.000000 -0.014837
# 5 -0.000418 -0.013114 -0.012660 0.000000 0.043386 0.000000
# 6 0.000000 0.000000 0.000000 -0.014837 0.000000 0.038140
#
#
# Mechanical properties :
#
#
# Convention : Reuss Voigt Hill
#
# Bulk Modulus (GPa) = 19.90050 47.02906 33.46478
# Shear Modulus (GPa) = 23.81810 32.60130 28.20970
#
# Velocity S-wave (km/s) = 3.41059 3.99019 3.71172
# Velocity P-wave (km/s) = 5.02278 6.64805 5.89173
#
# Compressibility (1/GPa) = 0.05024999
#
# Stress axis : x y z
#
# Youngs Moduli (GPa) = 132.28363 45.50808 47.06782
#
# Poissons Ratio (x) = 0.21191 0.17872
# Poissons Ratio (y) = 0.61600 -0.38544
# Poissons Ratio (z) = 0.50230 -0.37266
#
# Static dielectric constant tensor:
#      x y z
#    x 1.789670 0.000000 0.005370 
#    y 0.000000 1.721820 0.000000 
#    z 0.005370 0.000000 1.735300 
# 
# From -- ./inp_files/23624.got.cif
#   From: 2010.05.17/outbox.cif.g08.bks.cpg/sg5_12_cif.got.tgz:23624.got - 2010.06.03 18:56:24.
