data_PCOD9123593
_publ_section_title
;
Structure prediction by ZEFSAII (Michael W. Deem and Ramdas Pophale) SiO2 
 PCOD9123593
Probable space group: C 2
;
_chemical_formula_sum "Si O2"
_cell_formula_units_Z 32
_cell_length_a 20.823629
_cell_length_b 10.674112
_cell_length_c 7.820162
_cell_angle_alpha 90.000000
_cell_angle_beta 42.350280
_cell_angle_gamma 90.000000
_cell_volume 1170.969367
_symmetry_space_group_name_H-M "C 2"
_symmetry_group_IT_number 5
_symmetry_cell_setting 'monoclinic'
loop_
_space_group_symop_operation_xyz
x,y,z
-x,y,-z
1/2+x,1/2+y,z
1/2-x,1/2+y,-z
loop_
_atom_site_type_symbol
_atom_site_label
_atom_site_fract_x
_atom_site_fract_y
_atom_site_fract_z
Si Si1 0.562498 0.518970 0.215582
Si Si2 0.891417 0.439055 0.200352
Si Si3 0.305089 0.706808 0.514590
Si Si4 0.902243 0.277577 0.669418
Si Si5 0.246690 0.977552 0.998940
Si Si6 0.566932 0.181476 0.700253
Si Si7 0.123541 0.630636 0.068727
Si Si8 0.376801 0.458486 0.414690
O O1 0.500000 0.467682 0.500000
O O2 0.581956 0.663063 0.231289
O O3 0.668996 0.466955 0.003170
O O4 0.489578 0.490193 0.209317
O O5 0.822057 0.323380 0.358913
O O6 0.881233 0.547996 0.366764
O O7 0.882960 0.504310 0.033431
O O8 0.000000 0.392558 0.000000
O O9 0.382454 0.731119 0.515391
O O10 0.200633 0.706710 0.804568
O O11 0.329661 0.568510 0.392147
O O12 0.000000 0.354518 0.500000
O O13 0.809910 0.356227 0.887237
O O14 0.180931 0.988436 0.296207
O O15 0.321174 0.093782 0.866003
O O16 0.626562 0.308345 0.589361
O O17 0.500000 0.187116 0.000000
O O18 0.483833 0.181200 0.719607
#
# Coordination Sequence:
#
# PCOD9123593 Si02
#       8
#     4   4   4   4   4   4   4   4
#     4   9  17  36  56  83 115 153 190 239 297 348
#     4   9  22  41  62  84 119 156 201 248 298 351
#     4  11  21  39  65  86 117 160 200 242 298 358
#     4  11  21  37  60  86 122 158 199 242 300 354
#     4  10  21  36  59  86 120 158 195 241 300 357
#     4   9  21  40  60  85 122 156 197 249 301 347
#     4   9  20  38  60  85 122 154 192 250 304 344
#     4  10  20  39  63  86 124 158 195 247 301 350
#
# _framework density 27.327786
#
# number of rings (size 3 to 8) (size 9 to 14) (size 15 to 20)
#    0.000    2.500    5.000    0.000    5.250    4.500 
#    2.250    0.000    0.000    0.000    0.000    0.000 
#    0.000    0.000    0.000    0.000    0.000    0.000 
#
# Total GULP energy -89425.508123 kJ/mol
# GULP energy per Si atom -5589.094258 kJ/mol
# Density = 2.726559 g / cm^3
# Si number density = 27.327786 Si / 1000 Ang^3
#
#
#
# Elastic Constant Matrix: (Units=GPa)
#
#
# Indices 1 2 3 4 5 6 
#
# 1 115.5410 20.3105 62.5434 0.0000 -39.1126 0.0000
# 2 20.3105 159.2022 49.0021 0.0000 -17.4913 0.0000
# 3 62.5434 49.0021 72.4426 0.0000 -36.2907 0.0000
# 4 0.0000 0.0000 0.0000 51.2980 0.0000 -2.4146
# 5 -39.1126 -17.4913 -36.2907 0.0000 60.2612 0.0000
# 6 0.0000 0.0000 0.0000 -2.4146 0.0000 17.1542
#
#
#
# Elastic Compliance Matrix: (Units=1/GPa)
#
#
# Indices 1 2 3 4 5 6 
#
# 1 0.017644 0.002923 -0.015822 0.000000 0.002772 0.000000
# 2 0.002923 0.008493 -0.008711 0.000000 -0.000884 0.000000
# 3 -0.015822 -0.008711 0.038586 0.000000 0.010440 0.000000
# 4 0.000000 0.000000 0.000000 0.019624 0.000000 0.002762
# 5 0.002772 -0.000884 0.010440 0.000000 0.024424 0.000000
# 6 0.000000 0.000000 0.000000 0.002762 0.000000 0.058684
#
#
# Mechanical properties :
#
#
# Convention : Reuss Voigt Hill
#
# Bulk Modulus (GPa) = 46.50339 67.87755 57.19047
# Shear Modulus (GPa) = 22.95249 40.09800 31.52525
#
# Velocity S-wave (km/s) = 2.90124 3.83469 3.40015
# Velocity P-wave (km/s) = 5.31759 6.67073 6.03222
#
# Compressibility (1/GPa) = 0.02150381
#
# Stress axis : x y z
#
# Youngs Moduli (GPa) = 56.67703 117.74985 25.91603
#
# Poissons Ratio (x) = -0.34424 0.41003
# Poissons Ratio (y) = -0.16570 0.22576
# Poissons Ratio (z) = 0.89672 1.02575
#
# Static dielectric constant tensor:
#      x y z
#    x 2.307840 0.000000 -0.011560 
#    y 0.000000 2.266330 0.000000 
#    z -0.011560 0.000000 2.104870 
# 
# From -- ./inp_files/47407.got.cif
#   From: 2010.05.17/outbox.cif.g08.bks.cpg/sg5_24_cif.got.tgz:47407.got - 2010.06.03 18:56:24.
