data_PCOD9123550
_publ_section_title
;
Structure prediction by ZEFSAII (Michael W. Deem and Ramdas Pophale) SiO2 
 PCOD9123550
Probable space group: C 2
;
_chemical_formula_sum "Si O2"
_cell_formula_units_Z 24
_cell_length_a 6.889829
_cell_length_b 9.662396
_cell_length_c 14.819670
_cell_angle_alpha 90.000000
_cell_angle_beta 93.718529
_cell_angle_gamma 90.000000
_cell_volume 984.501820
_symmetry_space_group_name_H-M "C 2"
_symmetry_group_IT_number 5
_symmetry_cell_setting 'monoclinic'
loop_
_space_group_symop_operation_xyz
x,y,z
-x,y,-z
1/2+x,1/2+y,z
1/2-x,1/2+y,-z
loop_
_atom_site_type_symbol
_atom_site_label
_atom_site_fract_x
_atom_site_fract_y
_atom_site_fract_z
Si Si1 0.737338 0.532920 0.080782
Si Si2 0.671170 0.624555 0.715349
Si Si3 0.184989 0.863252 0.623297
Si Si4 0.687456 0.702503 0.913577
Si Si5 0.266999 0.861083 0.425943
Si Si6 0.286630 0.080963 0.282459
O O1 0.529844 0.623549 0.090191
O O2 0.765647 0.365842 0.063098
O O3 0.840867 0.547250 0.181225
O O4 0.797451 0.610126 0.990844
O O5 0.770215 0.484003 0.687326
O O6 0.745810 0.688180 0.810528
O O7 0.686935 0.726149 0.631140
O O8 0.448060 0.583300 0.723668
O O9 0.304226 0.844484 0.533819
O O10 0.161359 0.733667 0.687068
O O11 0.964179 0.889880 0.587042
O O12 0.349037 0.985700 0.368340
#
# Coordination Sequence:
#
# PCOD9123550 Si02
#       6
#     4   4   4   4   4   4
#     4  10  22  43  69 100 137 178 230 285 350 418
#     4  10  21  39  62  87 126 168 219 270 338 406
#     4  10  22  35  59  90 123 168 218 275 339 403
#     4  10  22  43  70  99 137 179 229 285 350 418
#     4  10  20  39  56  87 127 165 216 280 333 404
#     4  10  21  39  62  87 126 168 220 269 338 407
#
# _framework density 24.377813
#
# number of rings (size 3 to 8) (size 9 to 14) (size 15 to 20)
#    0.000    2.000    1.667    1.000    2.333    3.333 
#    0.000    3.333    0.000    0.000    0.000    0.000 
#    0.000    0.000    0.000    0.000    0.000    0.000 
#
# Total GULP energy -66803.923925 kJ/mol
# GULP energy per Si atom -5566.993660 kJ/mol
# Density = 2.432233 g / cm^3
# Si number density = 24.377813 Si / 1000 Ang^3
#
#
#
# Elastic Constant Matrix: (Units=GPa)
#
#
# Indices 1 2 3 4 5 6 
#
# 1 71.3369 -13.5052 2.3545 0.0000 5.7381 0.0000
# 2 -13.5052 241.9048 154.6567 0.0000 -52.1187 0.0000
# 3 2.3545 154.6567 384.7759 0.0000 -158.9198 0.0000
# 4 0.0000 0.0000 0.0000 37.6822 0.0000 24.6373
# 5 5.7381 -52.1187 -158.9198 0.0000 157.6372 0.0000
# 6 0.0000 0.0000 0.0000 24.6373 0.0000 171.5965
#
#
#
# Elastic Compliance Matrix: (Units=1/GPa)
#
#
# Indices 1 2 3 4 5 6 
#
# 1 0.014385 0.001236 -0.001083 0.000000 -0.001207 0.000000
# 2 0.001236 0.005717 -0.002644 0.000000 -0.000821 0.000000
# 3 -0.001083 -0.002644 0.005695 0.000000 0.004906 0.000000
# 4 0.000000 0.000000 0.000000 0.029287 0.000000 -0.004205
# 5 -0.001207 -0.000821 0.004906 0.000000 0.011062 0.000000
# 6 0.000000 0.000000 0.000000 -0.004205 0.000000 0.006431
#
#
# Mechanical properties :
#
#
# Convention : Reuss Voigt Hill
#
# Bulk Modulus (GPa) = 48.04868 109.44774 78.74821
# Shear Modulus (GPa) = 59.17298 110.35064 84.76181
#
# Velocity S-wave (km/s) = 4.93214 6.73536 5.90301
# Velocity P-wave (km/s) = 7.22409 10.27038 8.87886
#
# Compressibility (1/GPa) = 0.02081223
#
# Stress axis : x y z
#
# Youngs Moduli (GPa) = 69.51812 174.93077 175.60052
#
# Poissons Ratio (x) = -0.21613 0.19021
# Poissons Ratio (y) = -0.08589 0.46433
# Poissons Ratio (z) = 0.07530 0.46256
#
# Static dielectric constant tensor:
#      x y z
#    x 1.399760 0.000000 -0.066760 
#    y 0.000000 1.889200 0.000000 
#    z -0.066760 0.000000 1.926300 
# 
# From -- ./inp_files/49917.got.cif
#   From: 2010.05.17/outbox.cif.g08.bks.cpg/sg5_25_cif.got.tgz:49917.got - 2010.06.03 18:56:24.
