data_PCOD9123578
_publ_section_title
;
Structure prediction by ZEFSAII (Michael W. Deem and Ramdas Pophale) SiO2 
 PCOD9123578
Probable space group: C 2
;
_chemical_formula_sum "Si O2"
_cell_formula_units_Z 30
_cell_length_a 24.686525
_cell_length_b 11.003072
_cell_length_c 30.197570
_cell_angle_alpha 90.000000
_cell_angle_beta 168.464643
_cell_angle_gamma 90.000000
_cell_volume 1640.274051
_symmetry_space_group_name_H-M "C 2"
_symmetry_group_IT_number 5
_symmetry_cell_setting 'monoclinic'
loop_
_space_group_symop_operation_xyz
x,y,z
-x,y,-z
1/2+x,1/2+y,z
1/2-x,1/2+y,-z
loop_
_atom_site_type_symbol
_atom_site_label
_atom_site_fract_x
_atom_site_fract_y
_atom_site_fract_z
Si Si1 0.856240 0.379470 0.027158
Si Si2 0.186398 0.578720 0.237915
Si Si3 0.000000 0.452763 0.000000
Si Si4 0.927726 0.823821 0.060880
Si Si5 0.237956 0.975739 0.156546
Si Si6 0.153936 0.960165 0.325865
Si Si7 0.176760 0.756674 0.795873
Si Si8 0.078820 0.240152 0.287215
O O1 0.999909 0.495687 0.120537
O O2 0.039290 0.328287 0.213550
O O3 0.562745 0.406909 0.812950
O O4 0.805152 0.285091 0.946446
O O5 0.500000 0.558240 0.500000
O O6 0.106207 0.717663 0.182305
O O7 0.123168 0.534862 0.137528
O O8 0.784111 0.361477 0.849204
O O9 0.090139 0.901036 0.227497
O O10 0.677990 0.761201 0.886910
O O11 0.817938 0.911788 0.934869
O O12 0.240965 0.121891 0.153248
O O13 0.535379 0.938845 0.411949
O O14 0.000000 0.942521 0.000000
O O15 0.098989 0.104485 0.283858
O O16 0.851778 0.762905 0.533474
#
# Coordination Sequence:
#
# PCOD9123578 Si02
#       8
#     4   4   2   4   4   4   4   4
#     4  10  20  39  62  85 113 148 193 241 285 334
#     4  11  24  39  59  86 118 153 192 232 285 341
#     4  10  22  40  60  86 114 150 192 238 286 338
#     4  11  24  39  59  86 118 153 192 232 285 341
#     4  11  24  39  59  86 118 153 192 232 285 341
#     4  10  22  40  60  86 114 150 192 238 286 338
#     4  10  20  39  62  85 113 148 193 241 285 334
#     4  10  20  39  62  85 113 148 193 241 285 334
#
# _framework density 18.289625000000001
#
# number of rings (size 3 to 8) (size 9 to 14) (size 15 to 20)
#    0.000    1.600    2.000    2.400    2.800    0.000 
#    0.000    0.000    0.000    0.000    0.000    0.000 
#    0.000    0.000    0.000    0.000    0.000    0.000 
#
# Total GULP energy -83758.810667 kJ/mol
# GULP energy per Si atom -5583.920711 kJ/mol
# Density = 1.824800 g / cm^3
# Si number density = 18.289625 Si / 1000 Ang^3
#
#
#
# Elastic Constant Matrix: (Units=GPa)
#
#
# Indices 1 2 3 4 5 6 
#
# 1 117.6440 53.8158 62.8214 0.0515 -15.8159 -0.0687
# 2 53.8158 71.3261 43.4951 -0.8941 -10.8399 0.0445
# 3 62.8214 43.4951 119.2113 -0.7642 -11.1545 0.0251
# 4 0.0515 -0.8941 -0.7642 19.1839 0.3318 -2.8697
# 5 -15.8159 -10.8399 -11.1545 0.3318 21.9143 0.0138
# 6 -0.0687 0.0445 0.0251 -2.8697 0.0138 26.1693
#
#
#
# Elastic Compliance Matrix: (Units=1/GPa)
#
#
# Indices 1 2 3 4 5 6 
#
# 1 0.015292 -0.007952 -0.004721 -0.000684 0.004711 -0.000019
# 2 -0.007952 0.022916 -0.003825 0.000880 0.003636 0.000038
# 3 -0.004721 -0.003825 0.012366 0.000312 0.000991 0.000016
# 4 -0.000684 0.000880 0.000312 0.053065 -0.000707 0.005816
# 5 0.004711 0.003636 0.000991 -0.000707 0.051346 -0.000099
# 6 -0.000019 0.000038 0.000016 0.005816 -0.000099 0.038850
#
#
# Mechanical properties :
#
#
# Convention : Reuss Voigt Hill
#
# Bulk Modulus (GPa) = 56.88443 69.82732 63.35588
# Shear Modulus (GPa) = 21.48778 23.32343 22.40561
#
# Velocity S-wave (km/s) = 3.43134 3.57491 3.50386
# Velocity P-wave (km/s) = 6.84605 7.43650 7.14737
#
# Compressibility (1/GPa) = 0.01757950
#
# Stress axis : x y z
#
# Youngs Moduli (GPa) = 65.39209 43.63804 80.86377
#
# Poissons Ratio (x) = 0.34701 0.38176
# Poissons Ratio (y) = 0.51999 0.30928
# Poissons Ratio (z) = 0.30872 0.16690
#
# Static dielectric constant tensor:
#      x y z
#    x 1.607280 -0.000050 0.011340 
#    y -0.000050 1.615740 -0.000200 
#    z 0.011340 -0.000200 1.608260 
# 
# From -- ./inp_files/72323.got.cif
#   From: 2010.05.17/outbox.cif.g08.bks.cpg/sg5_37_cif.got.tgz:72323.got - 2010.06.03 18:56:24.
