data_PCOD9123641
_publ_section_title
;
Structure prediction by ZEFSAII (Michael W. Deem and Ramdas Pophale) SiO2 
 PCOD9123641
Probable space group: C 2
;
_chemical_formula_sum "Si O2"
_cell_formula_units_Z 26
_cell_length_a 25.423317
_cell_length_b 5.751911
_cell_length_c 15.538345
_cell_angle_alpha 90.000000
_cell_angle_beta 150.712774
_cell_angle_gamma 90.000000
_cell_volume 1111.539593
_symmetry_space_group_name_H-M "C 2"
_symmetry_group_IT_number 5
_symmetry_cell_setting 'monoclinic'
loop_
_space_group_symop_operation_xyz
x,y,z
-x,y,-z
1/2+x,1/2+y,z
1/2-x,1/2+y,-z
loop_
_atom_site_type_symbol
_atom_site_label
_atom_site_fract_x
_atom_site_fract_y
_atom_site_fract_z
Si Si1 0.584176 0.898570 0.935535
Si Si2 0.221516 0.198101 0.749368
Si Si3 0.318732 0.506920 0.042002
Si Si4 0.283524 0.349799 0.655499
Si Si5 0.627331 0.847906 0.266605
Si Si6 0.500000 0.774453 0.500000
Si Si7 0.583040 0.109672 0.767406
O O1 0.495853 0.834338 0.878389
O O2 0.538668 0.085768 0.801329
O O3 0.617199 0.707700 0.913492
O O4 0.694575 0.987162 0.134204
O O5 0.271480 0.368147 0.892581
O O6 0.222219 0.321862 0.658313
O O7 0.103650 0.138775 0.614224
O O8 0.213072 0.563202 0.946696
O O9 0.407050 0.385205 0.228907
O O10 0.342676 0.602651 0.737505
O O11 0.201765 0.346871 0.458636
O O12 0.352662 0.107687 0.744668
O O13 0.530413 0.950390 0.621648
#
# Coordination Sequence:
#
# PCOD9123641 Si02
#       7
#     4   4   4   4   4   2   4
#     4  11  23  41  66 100 133 187 230 287 353 424
#     4  10  24  42  67 100 144 175 240 288 355 419
#     4  10  21  39  63  92 133 183 221 288 342 426
#     4  10  23  48  68 103 139 184 236 301 347 429
#     4  10  24  44  74  98 139 187 239 287 367 415
#     4  10  22  44  70 106 138 184 230 290 358 422
#     4  10  20  39  65  93 137 174 230 279 351 412
#
# _framework density 23.390982000000001
#
# number of rings (size 3 to 8) (size 9 to 14) (size 15 to 20)
#    0.000    1.846    1.538    0.923    6.462    0.615 
#    2.769    6.923    0.000    0.000    0.000    0.000 
#    0.000    0.000    0.000    0.000    0.000    0.000 
#
# Total GULP energy -72501.042089 kJ/mol
# GULP energy per Si atom -5577.003238 kJ/mol
# Density = 2.333774 g / cm^3
# Si number density = 23.390982 Si / 1000 Ang^3
#
#
#
# Elastic Constant Matrix: (Units=GPa)
#
#
# Indices 1 2 3 4 5 6 
#
# 1 137.2755 44.8722 33.3610 0.0000 18.1248 0.0000
# 2 44.8722 98.3050 33.6438 0.0000 19.1083 0.0000
# 3 33.3610 33.6438 74.6675 0.0000 20.5811 0.0000
# 4 0.0000 0.0000 0.0000 17.4459 0.0000 -4.6141
# 5 18.1248 19.1083 20.5811 0.0000 44.7284 0.0000
# 6 0.0000 0.0000 0.0000 -4.6141 0.0000 34.3153
#
#
#
# Elastic Compliance Matrix: (Units=1/GPa)
#
#
# Indices 1 2 3 4 5 6 
#
# 1 0.009018 -0.003084 -0.002285 0.000000 -0.001285 0.000000
# 2 -0.003084 0.013451 -0.003944 0.000000 -0.002682 0.000000
# 3 -0.002285 -0.003944 0.017718 0.000000 -0.005542 0.000000
# 4 0.000000 0.000000 0.000000 0.059434 0.000000 0.007991
# 5 -0.001285 -0.002682 -0.005542 0.000000 0.026574 0.000000
# 6 0.000000 0.000000 0.000000 0.007991 0.000000 0.030216
#
#
# Mechanical properties :
#
#
# Convention : Reuss Voigt Hill
#
# Bulk Modulus (GPa) = 46.37973 59.33356 52.85665
# Shear Modulus (GPa) = 27.43875 32.52264 29.98070
#
# Velocity S-wave (km/s) = 3.42870 3.73284 3.58400
# Velocity P-wave (km/s) = 5.96202 6.63324 6.30657
#
# Compressibility (1/GPa) = 0.02156114
#
# Stress axis : x y z
#
# Youngs Moduli (GPa) = 110.89101 74.34221 56.43922
#
# Poissons Ratio (x) = 0.22930 0.12897
# Poissons Ratio (y) = 0.34204 0.22257
# Poissons Ratio (z) = 0.25340 0.29317
#
# Static dielectric constant tensor:
#      x y z
#    x 1.839090 0.000000 -0.024820 
#    y 0.000000 2.156240 0.000000 
#    z -0.024820 0.000000 1.910350 
# 
# From -- ./inp_files/63536.got.cif
#   From: 2010.05.17/outbox.cif.g08.bks.cpg/sg5_32_cif.got.tgz:63536.got - 2010.06.03 18:56:24.
