data_PCOD9123166
_publ_section_title
;
Structure prediction by ZEFSAII (Michael W. Deem and Ramdas Pophale) SiO2 
 PCOD9123166
Probable space group: C 2
;
_chemical_formula_sum "Si O2"
_cell_formula_units_Z 26
_cell_length_a 16.641652
_cell_length_b 13.618292
_cell_length_c 9.870817
_cell_angle_alpha 90.000000
_cell_angle_beta 143.195511
_cell_angle_gamma 90.000000
_cell_volume 1340.175240
_symmetry_space_group_name_H-M "C 2"
_symmetry_group_IT_number 5
_symmetry_cell_setting 'monoclinic'
loop_
_space_group_symop_operation_xyz
x,y,z
-x,y,-z
1/2+x,1/2+y,z
1/2-x,1/2+y,-z
loop_
_atom_site_type_symbol
_atom_site_label
_atom_site_fract_x
_atom_site_fract_y
_atom_site_fract_z
Si Si1 0.399539 0.566420 0.591586
Si Si2 0.154729 0.369485 0.660666
Si Si3 0.771657 0.654817 0.865860
Si Si4 0.795960 0.411524 0.587995
Si Si5 0.000000 0.563591 0.000000
Si Si6 0.158188 0.202449 0.245927
Si Si7 0.716107 0.571923 0.072901
O O1 0.341719 0.589097 0.364970
O O2 0.345366 0.465410 0.581608
O O3 0.332647 0.649626 0.596846
O O4 0.558426 0.570506 0.821551
O O5 0.224661 0.267121 0.794440
O O6 0.168844 0.382944 0.517818
O O7 0.226950 0.463819 0.823520
O O8 0.000000 0.366136 0.500000
O O9 0.907599 0.630575 0.969812
O O10 0.786729 0.621166 0.040275
O O11 0.796811 0.313970 0.679752
O O12 0.904354 0.490668 0.786135
O O13 0.228095 0.137700 0.224697
O O14 0.000000 0.203618 0.000000
#
# Coordination Sequence:
#
# PCOD9123166 Si02
#       7
#     4   4   4   4   2   4   4
#     4  10  21  40  63  93 126 168 209 259 315 380
#     4  12  25  40  65  92 127 172 220 266 328 376
#     4  11  24  42  67  91 130 168 216 268 322 382
#     4  11  21  39  65  95 125 174 211 263 317 391
#     4  10  24  42  64  96 130 166 218 268 320 382
#     4  10  20  37  64  92 124 167 208 252 317 378
#     4  11  24  42  62  97 131 163 214 270 315 386
#
# _framework density 19.400448000000001
#
# number of rings (size 3 to 8) (size 9 to 14) (size 15 to 20)
#    0.000    1.231    3.846    2.308    2.154    3.692 
#    0.000    0.000    0.000    0.000    0.000    0.000 
#    0.000    0.000    0.000    0.000    0.000    0.000 
#
# Total GULP energy -72640.149293 kJ/mol
# GULP energy per Si atom -5587.703792 kJ/mol
# Density = 1.935629 g / cm^3
# Si number density = 19.400448 Si / 1000 Ang^3
#
#
#
# Elastic Constant Matrix: (Units=GPa)
#
#
# Indices 1 2 3 4 5 6 
#
# 1 121.3228 67.0666 24.7771 0.0000 -0.2392 0.0000
# 2 67.0666 145.8600 18.8855 0.0000 6.6255 0.0000
# 3 24.7771 18.8855 24.5248 0.0000 -2.2804 0.0000
# 4 0.0000 0.0000 0.0000 37.8310 0.0000 -1.6039
# 5 -0.2392 6.6255 -2.2804 0.0000 30.9136 0.0000
# 6 0.0000 0.0000 0.0000 -1.6039 0.0000 22.8933
#
#
#
# Elastic Compliance Matrix: (Units=1/GPa)
#
#
# Indices 1 2 3 4 5 6 
#
# 1 0.012703 -0.004669 -0.009199 0.000000 0.000420 0.000000
# 2 -0.004669 0.009466 -0.002784 0.000000 -0.002270 0.000000
# 3 -0.009199 -0.002784 0.052622 0.000000 0.004407 0.000000
# 4 0.000000 0.000000 0.000000 0.026512 0.000000 0.001857
# 5 0.000420 -0.002270 0.004407 0.000000 0.033163 0.000000
# 6 0.000000 0.000000 0.000000 0.001857 0.000000 0.043811
#
#
# Mechanical properties :
#
#
# Convention : Reuss Voigt Hill
#
# Bulk Modulus (GPa) = 24.10346 57.01845 40.56095
# Shear Modulus (GPa) = 22.18176 30.39282 26.28729
#
# Velocity S-wave (km/s) = 3.38503 3.96233 3.68500
# Velocity P-wave (km/s) = 5.26584 7.09841 6.24966
#
# Compressibility (1/GPa) = 0.04148782
#
# Stress axis : x y z
#
# Youngs Moduli (GPa) = 78.72225 105.63935 19.00334
#
# Poissons Ratio (x) = 0.49321 0.17482
# Poissons Ratio (y) = 0.36754 0.05290
# Poissons Ratio (z) = 0.72418 0.29408
#
# Static dielectric constant tensor:
#      x y z
#    x 1.667700 0.000000 -0.004670 
#    y 0.000000 1.659630 0.000000 
#    z -0.004670 0.000000 1.680100 
# 
# From -- ./inp_files/20488.got.cif
#   From: 2010.05.17/outbox.cif.g08.bks.cpg/sg5_11_cif.got.tgz:20488.got - 2010.06.03 18:56:24.
