data_PCOD9123099
_publ_section_title
;
Structure prediction by ZEFSAII (Michael W. Deem and Ramdas Pophale) SiO2 
 PCOD9123099
Probable space group: C 2
;
_chemical_formula_sum "Si O2"
_cell_formula_units_Z 24
_cell_length_a 8.450818
_cell_length_b 28.312538
_cell_length_c 9.589205
_cell_angle_alpha 90.000000
_cell_angle_beta 148.675227
_cell_angle_gamma 90.000000
_cell_volume 1192.807524
_symmetry_space_group_name_H-M "C 2"
_symmetry_group_IT_number 5
_symmetry_cell_setting 'monoclinic'
loop_
_space_group_symop_operation_xyz
x,y,z
-x,y,-z
1/2+x,1/2+y,z
1/2-x,1/2+y,-z
loop_
_atom_site_type_symbol
_atom_site_label
_atom_site_fract_x
_atom_site_fract_y
_atom_site_fract_z
Si Si1 0.142336 0.820490 0.257589
Si Si2 0.759241 0.460139 0.083840
Si Si3 0.355801 0.215632 0.740946
Si Si4 0.274111 0.116971 0.595495
Si Si5 0.590269 0.411049 0.407906
Si Si6 0.892244 0.070544 0.070813
O O1 0.500000 0.818901 0.500000
O O2 0.024961 0.767755 0.208872
O O3 0.098039 0.859970 0.340828
O O4 0.000000 0.832756 0.000000
O O5 0.092805 0.440461 0.374594
O O6 0.500000 0.444769 0.000000
O O7 0.672300 0.438413 0.870944
O O8 0.704128 0.516027 0.023405
O O9 0.365954 0.171976 0.641533
O O10 0.000000 0.222167 0.500000
O O11 0.500000 0.202206 0.000000
O O12 0.000000 0.116834 0.500000
O O13 0.155273 0.085421 0.376951
O O14 0.582474 0.094964 0.885304
O O15 0.500000 0.407631 0.500000
O O16 0.000000 0.087795 0.000000
#
# Coordination Sequence:
#
# PCOD9123099 Si02
#       6
#     4   4   4   4   4   4
#     4  10  20  37  62  85 113 156 199 232 279 351
#     4  11  24  42  61  80 113 161 203 233 280 356
#     4   9  18  34  58  88 115 148 196 240 277 338
#     4  11  21  37  62  88 116 151 194 242 290 341
#     4  12  24  38  59  90 121 146 188 250 302 338
#     4  11  24  40  58  85 118 154 196 241 290 346
#
# _framework density 20.120598000000001
#
# number of rings (size 3 to 8) (size 9 to 14) (size 15 to 20)
#    0.000    1.333    0.000    7.500    0.000    6.667 
#    0.000    1.667    0.000    0.000    0.000    0.000 
#    0.000    0.000    0.000    0.000    0.000    0.000 
#
# Total GULP energy -66927.263711 kJ/mol
# GULP energy per Si atom -5577.271976 kJ/mol
# Density = 2.007480 g / cm^3
# Si number density = 20.120598 Si / 1000 Ang^3
#
#
#
# Elastic Constant Matrix: (Units=GPa)
#
#
# Indices 1 2 3 4 5 6 
#
# 1 58.7665 19.3579 -0.2545 0.0000 -10.2904 0.0000
# 2 19.3579 121.8081 7.5547 0.0000 -4.5537 0.0000
# 3 -0.2545 7.5547 105.1816 0.0000 -0.9500 0.0000
# 4 0.0000 0.0000 0.0000 33.5973 0.0000 -5.7716
# 5 -10.2904 -4.5537 -0.9500 0.0000 30.8395 0.0000
# 6 0.0000 0.0000 0.0000 -5.7716 0.0000 22.0934
#
#
#
# Elastic Compliance Matrix: (Units=1/GPa)
#
#
# Indices 1 2 3 4 5 6 
#
# 1 0.018983 -0.002814 0.000302 0.000000 0.005928 0.000000
# 2 -0.002814 0.008708 -0.000629 0.000000 0.000328 0.000000
# 3 0.000302 -0.000629 0.009556 0.000000 0.000302 0.000000
# 4 0.000000 0.000000 0.000000 0.031163 0.000000 0.008141
# 5 0.005928 0.000328 0.000302 0.000000 0.034462 0.000000
# 6 0.000000 0.000000 0.000000 0.008141 0.000000 0.047389
#
#
# Mechanical properties :
#
#
# Convention : Reuss Voigt Hill
#
# Bulk Modulus (GPa) = 32.29593 37.67471 34.98532
# Shear Modulus (GPa) = 29.96437 34.57923 32.27180
#
# Velocity S-wave (km/s) = 3.86325 4.15010 4.00924
# Velocity P-wave (km/s) = 5.99880 6.45984 6.23358
#
# Compressibility (1/GPa) = 0.03096366
#
# Stress axis : x y z
#
# Youngs Moduli (GPa) = 52.67956 114.83570 104.64600
#
# Poissons Ratio (x) = 0.32313 -0.03156
# Poissons Ratio (y) = 0.14823 0.06586
# Poissons Ratio (z) = -0.01589 0.07227
#
# Static dielectric constant tensor:
#      x y z
#    x 1.689120 0.000000 0.004890 
#    y 0.000000 1.834490 0.000000 
#    z 0.004890 0.000000 1.583800 
# 
# From -- ./inp_files/17620.got.cif
#   From: 2010.05.17/outbox.cif.g08.bks.cpg/sg5_9_cif.got.tgz:17620.got - 2010.06.03 18:56:24.
