data_PCOD9123378
_publ_section_title
;
Structure prediction by ZEFSAII (Michael W. Deem and Ramdas Pophale) SiO2 
 PCOD9123378
Probable space group: C 2
;
_chemical_formula_sum "Si O2"
_cell_formula_units_Z 26
_cell_length_a 15.613690
_cell_length_b 11.595730
_cell_length_c 10.719360
_cell_angle_alpha 90.000000
_cell_angle_beta 133.959628
_cell_angle_gamma 90.000000
_cell_volume 1397.017672
_symmetry_space_group_name_H-M "C 2"
_symmetry_group_IT_number 5
_symmetry_cell_setting 'monoclinic'
loop_
_space_group_symop_operation_xyz
x,y,z
-x,y,-z
1/2+x,1/2+y,z
1/2-x,1/2+y,-z
loop_
_atom_site_type_symbol
_atom_site_label
_atom_site_fract_x
_atom_site_fract_y
_atom_site_fract_z
Si Si1 0.000000 0.257210 0.000000
Si Si2 0.575236 0.276163 0.695594
Si Si3 0.641840 0.174618 0.133168
Si Si4 0.619623 0.107580 0.376603
Si Si5 0.722444 0.614852 0.228591
Si Si6 0.414185 0.954559 0.086460
Si Si7 0.793971 0.897536 0.953579
O O1 0.893042 0.181620 0.839213
O O2 0.066599 0.339861 0.971287
O O3 0.500000 0.320098 0.500000
O O4 0.481409 0.196282 0.675658
O O5 0.685704 0.197071 0.757391
O O6 0.626020 0.370427 0.843084
O O7 0.683016 0.157096 0.317168
O O8 0.500000 0.200224 0.000000
O O9 0.700844 0.280874 0.121931
O O10 0.646564 0.056162 0.057818
O O11 0.702825 0.076773 0.575550
O O12 0.544066 0.999733 0.252803
O O13 0.675586 0.508793 0.098109
O O14 0.336253 0.927041 0.126968
#
# Coordination Sequence:
#
# PCOD9123378 Si02
#       7
#     2   4   4   4   4   4   4
#     4  12  24  40  58  96 124 162 200 266 318 356
#     4  10  20  38  64  91 124 167 212 249 304 378
#     4  10  20  38  63  91 118 173 210 247 303 375
#     4  10  20  42  62  91 121 167 219 244 300 386
#     4  11  25  37  62  97 130 157 205 267 317 354
#     4  11  21  39  66  87 127 169 210 240 315 379
#     4  12  21  38  62  97 124 163 206 263 304 373
#
# _framework density 18.611073999999999
#
# number of rings (size 3 to 8) (size 9 to 14) (size 15 to 20)
#    0.000    1.231    8.462    0.000    1.077    1.231 
#    0.000    3.077    0.000    1.846    0.000    0.000 
#    0.000    0.000    0.000    0.000    0.000    0.000 
#
# Total GULP energy -72496.968823 kJ/mol
# GULP energy per Si atom -5576.689909 kJ/mol
# Density = 1.856871 g / cm^3
# Si number density = 18.611074 Si / 1000 Ang^3
#
#
#
# Elastic Constant Matrix: (Units=GPa)
#
#
# Indices 1 2 3 4 5 6 
#
# 1 71.6840 26.6597 -2.5634 0.0000 -13.2610 0.0000
# 2 26.6597 72.2554 34.8895 0.0000 -6.3819 0.0000
# 3 -2.5634 34.8895 96.7705 0.0000 -21.8511 0.0000
# 4 0.0000 0.0000 0.0000 -65.5899 0.0000 -61.4092
# 5 -13.2610 -6.3819 -21.8511 0.0000 27.3060 0.0000
# 6 0.0000 0.0000 0.0000 -61.4092 0.0000 -1.4748
#
#
#
# Elastic Compliance Matrix: (Units=1/GPa)
#
#
# Indices 1 2 3 4 5 6 
#
# 1 0.020238 -0.009685 0.007001 0.000000 0.013168 0.000000
# 2 -0.009685 0.021420 -0.009655 0.000000 -0.007424 0.000000
# 3 0.007001 -0.009655 0.017403 0.000000 0.015070 0.000000
# 4 0.000000 0.000000 0.000000 0.000401 0.000000 -0.016713
# 5 0.013168 -0.007424 0.015070 0.000000 0.053341 0.000000
# 6 0.000000 0.000000 0.000000 -0.016713 0.000000 0.017851
#
#
# Mechanical properties :
#
#
# Convention : Reuss Voigt Hill
#
# Bulk Modulus (GPa) = 29.08428 39.85349 34.46889
# Shear Modulus (GPa) = 29.97722 4.16322 17.07022
#
# Velocity S-wave (km/s) = 4.01773 1.49727 3.03183
# Velocity P-wave (km/s) = 6.09789 4.94464 5.55129
#
# Compressibility (1/GPa) = 0.03438283
#
# Stress axis : x y z
#
# Youngs Moduli (GPa) = 49.41164 46.68604 57.46070
#
# Poissons Ratio (x) = 0.45214 -0.40229
# Poissons Ratio (y) = 0.47854 0.55481
# Poissons Ratio (z) = -0.34593 0.45078
#
# Static dielectric constant tensor:
#      x y z
#    x 1.800470 0.000000 -0.005060 
#    y 0.000000 1.644580 0.000000 
#    z -0.005060 0.000000 1.655760 
# 
# From -- ./inp_files/44626.got.cif
#   From: 2010.05.17/outbox.cif.g08.bks.cpg/sg5_23_cif.got.tgz:44626.got - 2010.06.03 18:56:24.
