data_PCOD9123476
_publ_section_title
;
Structure prediction by ZEFSAII (Michael W. Deem and Ramdas Pophale) SiO2 
 PCOD9123476
Probable space group: C 2
;
_chemical_formula_sum "Si O2"
_cell_formula_units_Z 28
_cell_length_a 15.501168
_cell_length_b 8.454467
_cell_length_c 11.069319
_cell_angle_alpha 90.000000
_cell_angle_beta 118.827084
_cell_angle_gamma 90.000000
_cell_volume 1270.909886
_symmetry_space_group_name_H-M "C 2"
_symmetry_group_IT_number 5
_symmetry_cell_setting 'monoclinic'
loop_
_space_group_symop_operation_xyz
x,y,z
-x,y,-z
1/2+x,1/2+y,z
1/2-x,1/2+y,-z
loop_
_atom_site_type_symbol
_atom_site_label
_atom_site_fract_x
_atom_site_fract_y
_atom_site_fract_z
Si Si1 0.454417 0.284110 0.180757
Si Si2 0.656052 0.266957 0.446081
Si Si3 0.000000 0.223710 0.500000
Si Si4 0.804900 0.650174 0.939302
Si Si5 0.155752 0.970323 0.692161
Si Si6 0.786811 0.025662 0.881765
Si Si7 0.000000 0.027270 0.000000
Si Si8 0.182050 0.444742 0.581727
O O1 0.546055 0.247683 0.325532
O O2 0.373471 0.353111 0.218646
O O3 0.414208 0.140864 0.070370
O O4 0.488093 0.420866 0.111475
O O5 0.658344 0.378131 0.566903
O O6 0.725345 0.337266 0.389830
O O7 0.689678 0.092352 0.499433
O O8 0.930550 0.105165 0.374160
O O9 0.917176 0.342016 0.498458
O O10 0.759537 0.550840 0.799190
O O11 0.799354 0.836554 0.908305
O O12 0.738503 0.604111 0.008860
O O13 0.891184 0.101868 0.911203
O O14 0.699718 0.023600 0.724905
#
# Coordination Sequence:
#
# PCOD9123476 Si02
#       8
#     4   4   2   4   4   4   2   4
#     4  11  23  42  71 101 136 188 236 289 362 431
#     4  12  27  46  72 103 146 191 243 299 360 438
#     4  12  26  42  70 104 140 184 240 298 352 436
#     4  11  23  40  70 100 131 179 236 290 354 427
#     4  12  23  44  73 101 143 193 238 294 367 430
#     4  11  23  42  69  95 134 175 237 289 355 426
#     4  10  20  38  66  94 122 178 224 274 344 414
#     4  12  28  43  70 105 143 185 244 297 364 428
#
# _framework density 22.031459999999999
#
# number of rings (size 3 to 8) (size 9 to 14) (size 15 to 20)
#    0.000    0.571    7.143    1.714    4.000    0.000 
#    0.000    0.000    0.000    0.857    0.000    0.000 
#    0.000    0.000    0.000    0.000    0.000    0.000 
#
# Total GULP energy -78099.498559 kJ/mol
# GULP energy per Si atom -5578.535611 kJ/mol
# Density = 2.198132 g / cm^3
# Si number density = 22.031460 Si / 1000 Ang^3
#
#
#
# Elastic Constant Matrix: (Units=GPa)
#
#
# Indices 1 2 3 4 5 6 
#
# 1 63.1895 17.1752 18.4261 0.0000 4.3719 0.0000
# 2 17.1752 68.9753 33.2530 0.0000 16.0540 0.0000
# 3 18.4261 33.2530 125.8995 0.0000 13.1131 0.0000
# 4 0.0000 0.0000 0.0000 24.8106 0.0000 0.0429
# 5 4.3719 16.0540 13.1131 0.0000 37.5157 0.0000
# 6 0.0000 0.0000 0.0000 0.0429 0.0000 18.2732
#
#
#
# Elastic Compliance Matrix: (Units=1/GPa)
#
#
# Indices 1 2 3 4 5 6 
#
# 1 0.017249 -0.003540 -0.001596 0.000000 0.000063 0.000000
# 2 -0.003540 0.018645 -0.003755 0.000000 -0.006254 0.000000
# 3 -0.001596 -0.003755 0.009321 0.000000 -0.001465 0.000000
# 4 0.000000 0.000000 0.000000 0.040306 0.000000 -0.000095
# 5 0.000063 -0.006254 -0.001465 0.000000 0.029836 0.000000
# 6 0.000000 0.000000 0.000000 -0.000095 0.000000 0.054725
#
#
# Mechanical properties :
#
#
# Convention : Reuss Voigt Hill
#
# Bulk Modulus (GPa) = 36.45341 43.97477 40.21409
# Shear Modulus (GPa) = 25.37956 28.73389 27.05673
#
# Velocity S-wave (km/s) = 3.39775 3.61532 3.50822
# Velocity P-wave (km/s) = 5.65464 6.11806 5.89091
#
# Compressibility (1/GPa) = 0.02743227
#
# Stress axis : x y z
#
# Youngs Moduli (GPa) = 57.97544 53.63250 107.28650
#
# Poissons Ratio (x) = 0.18987 0.17122
# Poissons Ratio (y) = 0.20525 0.40288
# Poissons Ratio (z) = 0.09252 0.20140
#
# Static dielectric constant tensor:
#      x y z
#    x 1.824890 0.000000 0.062460 
#    y 0.000000 1.798910 0.000000 
#    z 0.062460 0.000000 1.916350 
# 
# From -- ./inp_files/41848.got.cif
#   From: 2010.05.17/outbox.cif.g08.bks.cpg/sg5_21_cif.got.tgz:41848.got - 2010.06.03 18:56:24.
