data_PCOD9123644
_publ_section_title
;
Structure prediction by ZEFSAII (Michael W. Deem and Ramdas Pophale) SiO2 
 PCOD9123644
Probable space group: C 2
;
_chemical_formula_sum "Si O2"
_cell_formula_units_Z 32
_cell_length_a 23.659004
_cell_length_b 14.329917
_cell_length_c 9.604896
_cell_angle_alpha 90.000000
_cell_angle_beta 28.507257
_cell_angle_gamma 90.000000
_cell_volume 1554.164541
_symmetry_space_group_name_H-M "C 2"
_symmetry_group_IT_number 5
_symmetry_cell_setting 'monoclinic'
loop_
_space_group_symop_operation_xyz
x,y,z
-x,y,-z
1/2+x,1/2+y,z
1/2-x,1/2+y,-z
loop_
_atom_site_type_symbol
_atom_site_label
_atom_site_fract_x
_atom_site_fract_y
_atom_site_fract_z
Si Si1 0.794946 0.313550 0.621966
Si Si2 0.144358 0.079126 0.974427
Si Si3 0.350516 0.146361 0.187464
Si Si4 0.114397 0.673224 0.564029
Si Si5 0.211199 0.870056 0.308304
Si Si6 0.282125 0.466812 0.434908
Si Si7 0.963633 0.282271 0.742251
Si Si8 0.373469 0.410109 0.792440
O O1 0.743738 0.214329 0.681135
O O2 0.778356 0.389676 0.534527
O O3 0.926794 0.306635 0.395728
O O4 0.713345 0.349119 0.925325
O O5 0.285289 0.098287 0.693275
O O6 0.135712 0.029880 0.842549
O O7 0.079263 0.177187 0.129740
O O8 0.102868 0.004866 0.175692
O O9 0.367290 0.184338 0.308816
O O10 0.307152 0.040986 0.302493
O O11 0.478101 0.148306 0.837615
O O12 0.148930 0.770378 0.419916
O O13 0.161588 0.913711 0.557078
O O14 0.183893 0.930042 0.232234
O O15 0.350620 0.847924 0.016846
O O16 0.000000 0.287855 0.500000
O O17 0.500000 0.362113 0.500000
#
# Coordination Sequence:
#
# PCOD9123644 Si02
#       8
#     4   4   4   4   4   4   4   4
#     4  11  23  43  67  98 135 173 228 275 337 411
#     4   9  22  41  65  95 133 172 219 284 333 403
#     4  10  20  39  65  95 128 172 215 273 332 396
#     4   9  19  39  63  89 131 167 211 266 338 385
#     4  11  22  42  65  95 131 174 221 276 333 404
#     4  10  23  42  66 102 131 169 226 278 338 397
#     4  11  23  43  69  94 136 184 225 275 342 403
#     4  11  23  41  66  93 131 178 222 271 342 400
#
# _framework density 20.589841
#
# number of rings (size 3 to 8) (size 9 to 14) (size 15 to 20)
#    0.000    1.750    2.500    1.125    0.000    7.500 
#    0.000    5.000    0.000    0.000    0.000    0.000 
#    0.000    0.000    0.000    0.000    0.000    0.000 
#
# Total GULP energy -89360.795526 kJ/mol
# GULP energy per Si atom -5585.049720 kJ/mol
# Density = 2.054298 g / cm^3
# Si number density = 20.589841 Si / 1000 Ang^3
#
#
#
# Elastic Constant Matrix: (Units=GPa)
#
#
# Indices 1 2 3 4 5 6 
#
# 1 86.7612 19.7702 16.7946 0.0000 6.7507 0.0000
# 2 19.7702 62.6012 19.8582 0.0000 6.8786 0.0000
# 3 16.7946 19.8582 75.1247 0.0000 -2.7527 0.0000
# 4 0.0000 0.0000 0.0000 15.5595 0.0000 1.4167
# 5 6.7507 6.8786 -2.7527 0.0000 32.8325 0.0000
# 6 0.0000 0.0000 0.0000 1.4167 0.0000 6.5511
#
#
#
# Elastic Compliance Matrix: (Units=1/GPa)
#
#
# Indices 1 2 3 4 5 6 
#
# 1 0.012819 -0.003141 -0.002114 0.000000 -0.002155 0.000000
# 2 -0.003141 0.018760 -0.004391 0.000000 -0.003653 0.000000
# 3 -0.002114 -0.004391 0.015040 0.000000 0.002616 0.000000
# 4 0.000000 0.000000 0.000000 0.065560 0.000000 -0.014178
# 5 -0.002155 -0.003653 0.002616 0.000000 0.031885 0.000000
# 6 0.000000 0.000000 0.000000 -0.014178 0.000000 0.155712
#
#
# Mechanical properties :
#
#
# Convention : Reuss Voigt Hill
#
# Bulk Modulus (GPa) = 36.59337 37.48146 37.03742
# Shear Modulus (GPa) = 15.23564 22.19288 18.71426
#
# Velocity S-wave (km/s) = 2.72317 3.28663 3.01808
# Velocity P-wave (km/s) = 5.26295 5.71367 5.49293
#
# Compressibility (1/GPa) = 0.02732735
#
# Stress axis : x y z
#
# Youngs Moduli (GPa) = 78.01210 53.30439 66.48774
#
# Poissons Ratio (x) = 0.16741 0.14058
# Poissons Ratio (y) = 0.24501 0.29193
# Poissons Ratio (z) = 0.16495 0.23404
#
# Static dielectric constant tensor:
#      x y z
#    x 1.725050 0.000000 -0.000980 
#    y 0.000000 1.734220 0.000000 
#    z -0.000980 0.000000 1.743600 
# 
# From -- ./inp_files/31062.got.cif
#   From: 2010.05.17/outbox.cif.g08.bks.cpg/sg5_16_cif.got.tgz:31062.got - 2010.06.03 18:56:24.
