data_PCOD9123411
_publ_section_title
;
Structure prediction by ZEFSAII (Michael W. Deem and Ramdas Pophale) SiO2 
 PCOD9123411
Probable space group: C 2
;
_chemical_formula_sum "Si O2"
_cell_formula_units_Z 28
_cell_length_a 7.381899
_cell_length_b 18.391388
_cell_length_c 12.773581
_cell_angle_alpha 90.000000
_cell_angle_beta 50.584669
_cell_angle_gamma 90.000000
_cell_volume 1339.767918
_symmetry_space_group_name_H-M "C 2"
_symmetry_group_IT_number 5
_symmetry_cell_setting 'monoclinic'
loop_
_space_group_symop_operation_xyz
x,y,z
-x,y,-z
1/2+x,1/2+y,z
1/2-x,1/2+y,-z
loop_
_atom_site_type_symbol
_atom_site_label
_atom_site_fract_x
_atom_site_fract_y
_atom_site_fract_z
Si Si1 0.765779 0.581700 0.014562
Si Si2 0.500000 0.344547 0.000000
Si Si3 0.154081 0.736315 0.106806
Si Si4 0.384492 0.945139 0.839331
Si Si5 0.352470 0.681939 0.650017
Si Si6 0.869494 0.548932 0.391536
Si Si7 0.850404 0.089074 0.318757
Si Si8 0.500000 0.846919 0.000000
O O1 0.552465 0.561558 0.168436
O O2 0.744540 0.659163 0.964994
O O3 0.790959 0.521196 0.917987
O O4 0.000000 0.586181 0.000000
O O5 0.343588 0.289764 0.992836
O O6 0.671564 0.396970 0.872115
O O7 0.313709 0.788180 0.118758
O O8 0.882342 0.725001 0.235827
O O9 0.569169 0.972671 0.685621
O O10 0.460727 0.902414 0.916602
O O11 0.500000 0.714417 0.500000
O O12 0.533345 0.663074 0.677014
O O13 0.254429 0.603916 0.643736
O O14 0.108178 0.589735 0.343097
O O15 0.714327 0.543185 0.553527
#
# Coordination Sequence:
#
# PCOD9123411 Si02
#       8
#     4   2   4   4   4   4   4   2
#     4  12  20  35  67  95 119 161 223 267 315 375
#     4  10  22  36  58  84 132 162 206 260 320 380
#     4  11  21  40  59  97 123 170 211 268 324 377
#     4  11  21  40  60  94 126 170 211 266 317 384
#     4  10  20  38  64  90 128 164 211 266 320 377
#     4  10  21  38  62  95 129 162 208 265 326 373
#     4  10  21  35  59 104 126 155 204 282 317 376
#     4  10  26  36  62  94 142 168 214 268 328 390
#
# _framework density 20.899142000000001
#
# number of rings (size 3 to 8) (size 9 to 14) (size 15 to 20)
#    0.000    1.429    4.286    0.857    2.000    0.571 
#    0.000    0.000    9.429    0.000    3.714    0.000 
#    0.000    0.000    0.000    0.000    0.000    0.000 
#
# Total GULP energy -77987.130822 kJ/mol
# GULP energy per Si atom -5570.509344 kJ/mol
# Density = 2.085157 g / cm^3
# Si number density = 20.899142 Si / 1000 Ang^3
#
#
#
# Elastic Constant Matrix: (Units=GPa)
#
#
# Indices 1 2 3 4 5 6 
#
# 1 88.1053 27.1174 15.6158 0.0000 -12.3607 0.0000
# 2 27.1174 127.4249 36.8430 0.0000 -2.9070 0.0000
# 3 15.6158 36.8430 134.0149 0.0000 -14.1667 0.0000
# 4 0.0000 0.0000 0.0000 22.0539 0.0000 -8.3501
# 5 -12.3607 -2.9070 -14.1667 0.0000 25.1676 0.0000
# 6 0.0000 0.0000 0.0000 -8.3501 0.0000 8.6518
#
#
#
# Elastic Compliance Matrix: (Units=1/GPa)
#
#
# Indices 1 2 3 4 5 6 
#
# 1 0.013017 -0.002584 -0.000173 0.000000 0.005998 0.000000
# 2 -0.002584 0.009041 -0.002348 0.000000 -0.001546 0.000000
# 3 -0.000173 -0.002348 0.008602 0.000000 0.004486 0.000000
# 4 0.000000 0.000000 0.000000 0.071454 0.000000 0.068962
# 5 0.005998 -0.001546 0.004486 0.000000 0.045026 0.000000
# 6 0.000000 0.000000 0.000000 0.068962 0.000000 0.182141
#
#
# Mechanical properties :
#
#
# Convention : Reuss Voigt Hill
#
# Bulk Modulus (GPa) = 48.89489 56.52195 52.70842
# Shear Modulus (GPa) = 14.43809 29.17258 21.80533
#
# Velocity S-wave (km/s) = 2.63125 3.74019 3.23361
# Velocity P-wave (km/s) = 5.71644 6.76431 6.26233
#
# Compressibility (1/GPa) = 0.02045204
#
# Stress axis : x y z
#
# Youngs Moduli (GPa) = 76.82110 110.60520 116.25656
#
# Poissons Ratio (x) = 0.28575 0.02006
# Poissons Ratio (y) = 0.19847 0.27297
# Poissons Ratio (z) = 0.01325 0.25970
#
# Static dielectric constant tensor:
#      x y z
#    x 4.179860 0.000000 -0.523370 
#    y 0.000000 1.710590 0.000000 
#    z -0.523370 0.000000 1.890960 
# 
# From -- ./inp_files/51360.got.cif
#   From: 2010.05.17/outbox.cif.g08.bks.cpg/sg5_26_cif.got.tgz:51360.got - 2010.06.03 18:56:24.
