data_PCOD9123163
_publ_section_title
;
Structure prediction by ZEFSAII (Michael W. Deem and Ramdas Pophale) SiO2 
 PCOD9123163
Probable space group: C 2
;
_chemical_formula_sum "Si O2"
_cell_formula_units_Z 20
_cell_length_a 19.189689
_cell_length_b 9.060937
_cell_length_c 9.992317
_cell_angle_alpha 90.000000
_cell_angle_beta 32.115300
_cell_angle_gamma 90.000000
_cell_volume 923.660688
_symmetry_space_group_name_H-M "C 2"
_symmetry_group_IT_number 5
_symmetry_cell_setting 'monoclinic'
loop_
_space_group_symop_operation_xyz
x,y,z
-x,y,-z
1/2+x,1/2+y,z
1/2-x,1/2+y,-z
loop_
_atom_site_type_symbol
_atom_site_label
_atom_site_fract_x
_atom_site_fract_y
_atom_site_fract_z
Si Si1 0.214024 0.983440 0.998220
Si Si2 0.549813 0.928288 0.065430
Si Si3 0.507112 0.616324 0.826857
Si Si4 0.847288 0.914633 0.606448
Si Si5 0.915860 0.683592 0.784842
O O1 0.156294 0.997966 0.244180
O O2 0.198655 0.806643 0.004238
O O3 0.124243 0.058628 0.032926
O O4 0.353079 0.066029 0.781547
O O5 0.698525 0.866730 0.824757
O O6 0.500000 0.962065 0.000000
O O7 0.468766 0.787615 0.248441
O O8 0.550833 0.076301 0.147697
O O9 0.615268 0.516454 0.579238
O O10 0.500000 0.603444 0.000000
O O11 0.955059 0.785657 0.442778
#
# Coordination Sequence:
#
# PCOD9123163 Si02
#       5
#     4   4   4   4   4
#     4  10  20  39  63  91 124 162 210 258 306 370
#     4  10  23  41  61  92 131 165 208 261 311 372
#     4  10  21  39  62  89 125 165 207 257 309 368
#     4  10  22  42  63  89 126 166 207 261 315 367
#     4  10  20  37  64  89 122 166 207 255 308 365
#
# _framework density 21.652971000000001
#
# number of rings (size 3 to 8) (size 9 to 14) (size 15 to 20)
#    0.000    2.000    0.000    4.800    0.000    6.400 
#    0.000   28.000    0.000    0.000    0.000    0.000 
#    0.000    0.000    0.000    0.000    0.000    0.000 
#
# Total GULP energy -55735.791192 kJ/mol
# GULP energy per Si atom -5573.579119 kJ/mol
# Density = 2.160369 g / cm^3
# Si number density = 21.652971 Si / 1000 Ang^3
#
#
#
# Elastic Constant Matrix: (Units=GPa)
#
#
# Indices 1 2 3 4 5 6 
#
# 1 125.6093 30.2201 16.5994 0.0000 20.1269 0.0000
# 2 30.2201 144.3732 53.3831 0.0000 21.0193 0.0000
# 3 16.5994 53.3831 66.8813 0.0000 0.2720 0.0000
# 4 0.0000 0.0000 0.0000 34.8856 0.0000 -0.2948
# 5 20.1269 21.0193 0.2720 0.0000 34.4796 0.0000
# 6 0.0000 0.0000 0.0000 -0.2948 0.0000 32.5988
#
#
#
# Elastic Compliance Matrix: (Units=1/GPa)
#
#
# Indices 1 2 3 4 5 6 
#
# 1 0.009128 -0.000498 -0.001848 0.000000 -0.005010 0.000000
# 2 -0.000498 0.011236 -0.008819 0.000000 -0.006489 0.000000
# 3 -0.001848 -0.008819 0.022424 0.000000 0.006278 0.000000
# 4 0.000000 0.000000 0.000000 0.028667 0.000000 0.000259
# 5 -0.005010 -0.006489 0.006278 0.000000 0.035834 0.000000
# 6 0.000000 0.000000 0.000000 0.000259 0.000000 0.030678
#
#
# Mechanical properties :
#
#
# Convention : Reuss Voigt Hill
#
# Bulk Modulus (GPa) = 48.87696 59.69656 54.28676
# Shear Modulus (GPa) = 29.91943 36.17021 33.04482
#
# Velocity S-wave (km/s) = 3.72125 4.09155 3.91078
# Velocity P-wave (km/s) = 6.40979 7.06757 6.74670
#
# Compressibility (1/GPa) = 0.02045954
#
# Stress axis : x y z
#
# Youngs Moduli (GPa) = 109.55337 88.99745 44.59579
#
# Poissons Ratio (x) = 0.04433 0.08239
# Poissons Ratio (y) = 0.05457 0.39327
# Poissons Ratio (z) = 0.20241 0.78483
#
# Static dielectric constant tensor:
#      x y z
#    x 1.781350 0.000000 -0.009530 
#    y 0.000000 1.797670 0.000000 
#    z -0.009530 0.000000 1.840600 
# 
# From -- ./inp_files/28841.got.cif
#   From: 2010.05.17/outbox.cif.g08.bks.cpg/sg5_15_cif.got.tgz:28841.got - 2010.06.03 18:56:24.
