data_PCOD9123172
_publ_section_title
;
Structure prediction by ZEFSAII (Michael W. Deem and Ramdas Pophale) SiO2 
 PCOD9123172
Probable space group: C 2
;
_chemical_formula_sum "Si O2"
_cell_formula_units_Z 24
_cell_length_a 15.051603
_cell_length_b 8.521449
_cell_length_c 14.960212
_cell_angle_alpha 90.000000
_cell_angle_beta 148.425271
_cell_angle_gamma 90.000000
_cell_volume 1004.713047
_symmetry_space_group_name_H-M "C 2"
_symmetry_group_IT_number 5
_symmetry_cell_setting 'monoclinic'
loop_
_space_group_symop_operation_xyz
x,y,z
-x,y,-z
1/2+x,1/2+y,z
1/2-x,1/2+y,-z
loop_
_atom_site_type_symbol
_atom_site_label
_atom_site_fract_x
_atom_site_fract_y
_atom_site_fract_z
Si Si1 0.952366 0.516310 0.862351
Si Si2 0.394803 0.760066 0.658548
Si Si3 0.234056 0.758914 0.041921
Si Si4 0.226200 0.117748 0.100754
Si Si5 0.183075 0.262893 0.611599
Si Si6 0.178051 0.087817 0.246143
O O1 0.939038 0.404326 0.763823
O O2 0.770851 0.600529 0.711147
O O3 0.000000 0.444356 0.000000
O O4 0.093192 0.651972 0.967427
O O5 0.577732 0.684574 0.789929
O O6 0.319133 0.789722 0.496873
O O7 0.273303 0.651526 0.614953
O O8 0.254222 0.936906 0.093710
O O9 0.198434 0.739578 0.905405
O O10 0.277862 0.153457 0.246548
O O11 0.021400 0.126130 0.926453
O O12 0.299598 0.403574 0.746146
O O13 0.000000 0.278113 0.500000
#
# Coordination Sequence:
#
# PCOD9123172 Si02
#       6
#     4   4   4   4   4   4
#     4  12  25  42  68 100 134 174 225 279 328 393
#     4  11  25  42  66 101 134 173 218 281 335 394
#     4  11  21  39  66  99 129 167 225 267 332 391
#     4  10  20  37  64  96 122 167 213 276 314 390
#     4  12  25  45  67  92 135 179 225 268 341 398
#     4  10  22  40  64  89 131 167 217 261 329 386
#
# _framework density 23.887418
#
# number of rings (size 3 to 8) (size 9 to 14) (size 15 to 20)
#    0.000    1.000    3.333    4.000    4.667    0.000 
#    0.000    0.833    0.000    0.000    0.000    0.000 
#    0.000    0.000    0.000    0.000    0.000    0.000 
#
# Total GULP energy -66994.061411 kJ/mol
# GULP energy per Si atom -5582.838451 kJ/mol
# Density = 2.383305 g / cm^3
# Si number density = 23.887418 Si / 1000 Ang^3
#
#
#
# Elastic Constant Matrix: (Units=GPa)
#
#
# Indices 1 2 3 4 5 6 
#
# 1 141.6931 40.2276 29.7550 0.0000 -34.6930 0.0000
# 2 40.2276 85.7552 18.0993 0.0000 -1.6429 0.0000
# 3 29.7550 18.0993 49.7642 0.0000 -25.5808 0.0000
# 4 0.0000 0.0000 0.0000 23.3874 0.0000 -4.4974
# 5 -34.6930 -1.6429 -25.5808 0.0000 48.9057 0.0000
# 6 0.0000 0.0000 0.0000 -4.4974 0.0000 29.2146
#
#
#
# Elastic Compliance Matrix: (Units=1/GPa)
#
#
# Indices 1 2 3 4 5 6 
#
# 1 0.010116 -0.004379 -0.001153 0.000000 0.006426 0.000000
# 2 -0.004379 0.014794 -0.005613 0.000000 -0.005545 0.000000
# 3 -0.001153 -0.005613 0.030512 0.000000 0.014953 0.000000
# 4 0.000000 0.000000 0.000000 0.044063 0.000000 0.006783
# 5 0.006426 -0.005545 0.014953 0.000000 0.032642 0.000000
# 6 0.000000 0.000000 0.000000 0.006783 0.000000 0.035274
#
#
# Mechanical properties :
#
#
# Convention : Reuss Voigt Hill
#
# Bulk Modulus (GPa) = 30.18126 50.37515 40.27820
# Shear Modulus (GPa) = 24.90874 32.91025 28.90949
#
# Velocity S-wave (km/s) = 3.23268 3.71580 3.48262
# Velocity P-wave (km/s) = 5.15711 6.28839 5.75064
#
# Compressibility (1/GPa) = 0.03313314
#
# Stress axis : x y z
#
# Youngs Moduli (GPa) = 98.85045 67.59640 32.77409
#
# Poissons Ratio (x) = 0.29601 0.03778
# Poissons Ratio (y) = 0.43288 0.18395
# Poissons Ratio (z) = 0.11394 0.37939
#
# Static dielectric constant tensor:
#      x y z
#    x 1.972780 0.000000 -0.092650 
#    y 0.000000 1.976550 0.000000 
#    z -0.092650 0.000000 1.999670 
# 
# From -- ./inp_files/54069.got.cif
#   From: 2010.05.17/outbox.cif.g08.bks.cpg/sg5_28_cif.got.tgz:54069.got - 2010.06.03 18:56:24.
