data_PCOD9123091
_publ_section_title
;
Structure prediction by ZEFSAII (Michael W. Deem and Ramdas Pophale) SiO2 
 PCOD9123091
Probable space group: C 2
;
_chemical_formula_sum "Si O2"
_cell_formula_units_Z 24
_cell_length_a 16.688089
_cell_length_b 7.026231
_cell_length_c 14.719275
_cell_angle_alpha 90.000000
_cell_angle_beta 143.437644
_cell_angle_gamma 90.000000
_cell_volume 1028.113523
_symmetry_space_group_name_H-M "C 2"
_symmetry_group_IT_number 5
_symmetry_cell_setting 'monoclinic'
loop_
_space_group_symop_operation_xyz
x,y,z
-x,y,-z
1/2+x,1/2+y,z
1/2-x,1/2+y,-z
loop_
_atom_site_type_symbol
_atom_site_label
_atom_site_fract_x
_atom_site_fract_y
_atom_site_fract_z
Si Si1 0.287283 0.698080 0.235323
Si Si2 0.378432 0.938991 0.159605
Si Si3 0.863671 0.586471 0.556004
Si Si4 0.175137 0.873414 0.835024
Si Si5 0.500000 0.002866 0.500000
Si Si6 0.931820 0.941709 0.740314
Si Si7 0.000000 0.831979 0.000000
O O1 0.295197 0.788521 0.141839
O O2 0.336237 0.481406 0.271204
O O3 0.379719 0.851527 0.370513
O O4 0.134843 0.709129 0.126386
O O5 0.537951 0.914885 0.320461
O O6 0.343060 0.148063 0.168358
O O7 0.323439 0.920933 0.008690
O O8 0.884541 0.737183 0.655829
O O9 0.706675 0.556346 0.396677
O O10 0.935622 0.625084 0.523535
O O11 0.061135 0.972430 0.794190
O O12 0.986326 0.945979 0.892920
#
# Coordination Sequence:
#
# PCOD9123091 Si02
#       7
#     4   4   4   4   2   4   2
#     4  11  22  40  66  91 136 173 219 275 335 392
#     4  10  20  37  61  95 124 173 216 264 325 398
#     4  10  23  41  64  98 132 176 226 271 335 402
#     4  11  21  39  65  96 129 174 225 269 331 398
#     4  10  22  42  66  90 134 192 212 272 346 398
#     4  11  24  41  68  99 133 176 226 280 331 402
#     4  12  22  44  66 102 134 176 226 280 338 396
#
# _framework density 23.343727000000001
#
# number of rings (size 3 to 8) (size 9 to 14) (size 15 to 20)
#    0.000    1.333    5.000    1.000    4.667    0.000 
#    0.000   13.333    0.000    0.000    0.000    0.000 
#    0.000    0.000    0.000    0.000    0.000    0.000 
#
# Total GULP energy -66825.525577 kJ/mol
# GULP energy per Si atom -5568.793798 kJ/mol
# Density = 2.329060 g / cm^3
# Si number density = 23.343727 Si / 1000 Ang^3
#
#
#
# Elastic Constant Matrix: (Units=GPa)
#
#
# Indices 1 2 3 4 5 6 
#
# 1 72.9599 12.8112 29.0706 0.0000 31.2302 0.0000
# 2 12.8112 64.4380 2.2346 0.0000 3.4366 0.0000
# 3 29.0706 2.2346 107.5528 0.0000 15.7559 0.0000
# 4 0.0000 0.0000 0.0000 21.7260 0.0000 -2.2530
# 5 31.2302 3.4366 15.7559 0.0000 35.3190 0.0000
# 6 0.0000 0.0000 0.0000 -2.2530 0.0000 29.2973
#
#
#
# Elastic Compliance Matrix: (Units=1/GPa)
#
#
# Indices 1 2 3 4 5 6 
#
# 1 0.024034 -0.003625 -0.003594 0.000000 -0.019296 0.000000
# 2 -0.003625 0.016148 0.000433 0.000000 0.001441 0.000000
# 3 -0.003594 0.000433 0.010486 0.000000 -0.001542 0.000000
# 4 0.000000 0.000000 0.000000 0.046398 0.000000 0.003568
# 5 -0.019296 0.001441 -0.001542 0.000000 0.045923 0.000000
# 6 0.000000 0.000000 0.000000 0.003568 0.000000 0.034407
#
#
# Mechanical properties :
#
#
# Convention : Reuss Voigt Hill
#
# Bulk Modulus (GPa) = 26.95665 37.02038 31.98852
# Shear Modulus (GPa) = 24.59025 30.65741 27.62383
#
# Velocity S-wave (km/s) = 3.24913 3.62789 3.44372
# Velocity P-wave (km/s) = 5.06444 5.78290 5.43556
#
# Compressibility (1/GPa) = 0.03709660
#
# Stress axis : x y z
#
# Youngs Moduli (GPa) = 41.60742 61.92881 95.36402
#
# Poissons Ratio (x) = 0.22447 0.34276
# Poissons Ratio (y) = 0.15081 -0.04131
# Poissons Ratio (z) = 0.14955 -0.02683
#
# Static dielectric constant tensor:
#      x y z
#    x 1.919370 0.000000 -0.020390 
#    y 0.000000 1.966700 0.000000 
#    z -0.020390 0.000000 1.940960 
# 
# From -- ./inp_files/55607.got.cif
#   From: 2010.05.17/outbox.cif.g08.bks.cpg/sg5_28_cif.got.tgz:55607.got - 2010.06.03 18:56:24.
