data_PCOD9123542
_publ_section_title
;
Structure prediction by ZEFSAII (Michael W. Deem and Ramdas Pophale) SiO2 
 PCOD9123542
Probable space group: C 2
;
_chemical_formula_sum "Si O2"
_cell_formula_units_Z 28
_cell_length_a 9.473312
_cell_length_b 15.449712
_cell_length_c 10.054820
_cell_angle_alpha 90.000000
_cell_angle_beta 122.423981
_cell_angle_gamma 90.000000
_cell_volume 1242.202139
_symmetry_space_group_name_H-M "C 2"
_symmetry_group_IT_number 5
_symmetry_cell_setting 'monoclinic'
loop_
_space_group_symop_operation_xyz
x,y,z
-x,y,-z
1/2+x,1/2+y,z
1/2-x,1/2+y,-z
loop_
_atom_site_type_symbol
_atom_site_label
_atom_site_fract_x
_atom_site_fract_y
_atom_site_fract_z
Si Si1 0.401114 0.780700 0.658577
Si Si2 0.243010 0.958060 0.532790
Si Si3 0.629471 0.146997 0.402473
Si Si4 0.866530 0.071641 0.047157
Si Si5 0.887940 0.923835 0.231163
Si Si6 0.627807 0.655225 0.680567
Si Si7 0.712655 0.228196 0.813898
O O1 0.367825 0.877585 0.598672
O O2 0.258771 0.719346 0.520217
O O3 0.579717 0.752191 0.694590
O O4 0.366608 0.755513 0.795017
O O5 0.184397 0.953562 0.660115
O O6 0.086468 0.936893 0.357687
O O7 0.326284 0.049055 0.534950
O O8 0.683776 0.144940 0.272666
O O9 0.443383 0.179108 0.334728
O O10 0.762725 0.154681 0.944655
O O11 0.932898 0.103815 0.222361
O O12 0.000000 0.055814 0.000000
O O13 0.803276 0.978961 0.068880
O O14 0.856677 0.822779 0.184794
O O15 0.500000 0.626709 0.500000
#
# Coordination Sequence:
#
# PCOD9123542 Si02
#       7
#     4   4   4   4   4   4   4
#     4  10  20  41  66  99 130 174 223 272 332 394
#     4  10  20  38  73  93 129 174 228 269 327 400
#     4  11  21  39  67 102 128 168 223 281 323 387
#     4  12  24  44  66  96 134 184 218 270 345 399
#     4  10  21  44  64  97 130 180 223 267 333 411
#     4  10  21  41  69  93 130 171 224 269 325 398
#     4  11  24  42  66  98 139 174 222 281 334 396
#
# _framework density 22.540616
#
# number of rings (size 3 to 8) (size 9 to 14) (size 15 to 20)
#    0.000    1.429    4.286    2.143    2.000    0.571 
#    5.143    4.286    0.000    0.000    0.000    0.000 
#    0.000    0.000    0.000    0.000    0.000    0.000 
#
# Total GULP energy -77967.579284 kJ/mol
# GULP energy per Si atom -5569.112806 kJ/mol
# Density = 2.248931 g / cm^3
# Si number density = 22.540616 Si / 1000 Ang^3
#
#
#
# Elastic Constant Matrix: (Units=GPa)
#
#
# Indices 1 2 3 4 5 6 
#
# 1 40.8988 12.4234 2.7712 0.0000 -5.6977 0.0000
# 2 12.4234 187.2216 31.2245 0.0000 8.0099 0.0000
# 3 2.7712 31.2245 84.2342 0.0000 -9.9877 0.0000
# 4 0.0000 0.0000 0.0000 38.0053 0.0000 5.6889
# 5 -5.6977 8.0099 -9.9877 0.0000 18.6479 0.0000
# 6 0.0000 0.0000 0.0000 5.6889 0.0000 25.8841
#
#
#
# Elastic Compliance Matrix: (Units=1/GPa)
#
#
# Indices 1 2 3 4 5 6 
#
# 1 0.026444 -0.002363 0.001158 0.000000 0.009715 0.000000
# 2 -0.002363 0.006171 -0.002787 0.000000 -0.004865 0.000000
# 3 0.001158 -0.002787 0.013935 0.000000 0.009015 0.000000
# 4 0.000000 0.000000 0.000000 0.027207 0.000000 -0.005980
# 5 0.009715 -0.004865 0.009015 0.000000 0.063512 0.000000
# 6 0.000000 0.000000 0.000000 -0.005980 0.000000 0.039948
#
#
# Mechanical properties :
#
#
# Convention : Reuss Voigt Hill
#
# Bulk Modulus (GPa) = 25.92970 45.02141 35.47556
# Shear Modulus (GPa) = 25.24536 34.23649 29.74092
#
# Velocity S-wave (km/s) = 3.35026 3.90151 3.63635
# Velocity P-wave (km/s) = 5.14725 6.34921 5.77956
#
# Compressibility (1/GPa) = 0.03856581
#
# Stress axis : x y z
#
# Youngs Moduli (GPa) = 37.81645 162.04831 71.75977
#
# Poissons Ratio (x) = 0.38300 -0.08310
# Poissons Ratio (y) = 0.08938 0.19997
# Poissons Ratio (z) = -0.04379 0.45157
#
# Static dielectric constant tensor:
#      x y z
#    x 1.912820 0.000000 -0.059620 
#    y 0.000000 1.948310 0.000000 
#    z -0.059620 0.000000 1.920610 
# 
# From -- ./inp_files/20729.got.cif
#   From: 2010.05.17/outbox.cif.g08.bks.cpg/sg5_11_cif.got.tgz:20729.got - 2010.06.03 18:56:24.
