data_PCOD9123909
_publ_section_title
;
Structure prediction by ZEFSAII (Michael W. Deem and Ramdas Pophale) SiO2 
 PCOD9123909
Probable space group: C 2
;
_chemical_formula_sum "Si O2"
_cell_formula_units_Z 26
_cell_length_a 22.358105
_cell_length_b 7.862088
_cell_length_c 15.136387
_cell_angle_alpha 90.000000
_cell_angle_beta 24.658080
_cell_angle_gamma 90.000000
_cell_volume 1110.048020
_symmetry_space_group_name_H-M "C 2"
_symmetry_group_IT_number 5
_symmetry_cell_setting 'monoclinic'
loop_
_space_group_symop_operation_xyz
x,y,z
-x,y,-z
1/2+x,1/2+y,z
1/2-x,1/2+y,-z
loop_
_atom_site_type_symbol
_atom_site_label
_atom_site_fract_x
_atom_site_fract_y
_atom_site_fract_z
Si Si1 0.852425 0.318160 0.862053
Si Si2 0.630671 0.248373 0.753436
Si Si3 0.479681 0.944402 0.868247
Si Si4 0.000000 0.240548 0.500000
Si Si5 0.552189 0.585800 0.829664
Si Si6 0.559529 0.441811 0.196557
Si Si7 0.800738 0.014993 0.647737
O O1 0.905066 0.427730 0.873737
O O2 0.937986 0.359444 0.658947
O O3 0.896627 0.125855 0.824094
O O4 0.686753 0.324155 0.058518
O O5 0.565284 0.118778 0.769254
O O6 0.673466 0.440653 0.672228
O O7 0.756848 0.153671 0.633894
O O8 0.500000 0.263344 0.000000
O O9 0.571345 0.773775 0.765379
O O10 0.879650 0.115177 0.620820
O O11 0.345990 0.937695 0.117560
O O12 0.500000 0.610249 0.000000
O O13 0.452227 0.482345 0.892520
O O14 0.411362 0.396655 0.445460
#
# Coordination Sequence:
#
# PCOD9123909 Si02
#       7
#     4   4   4   2   4   4   4
#     4  10  22  40  65  91 124 174 213 269 335 384
#     4   9  20  36  66  91 126 173 210 256 330 377
#     4  10  20  40  68  94 129 171 213 268 321 383
#     4  10  22  38  68  94 134 168 222 270 326 404
#     4  10  21  38  60  94 126 167 211 268 314 374
#     4  10  23  40  65  93 130 168 223 269 326 394
#     4  10  20  41  65  98 124 181 219 256 335 396
#
# _framework density 23.422408999999998
#
# number of rings (size 3 to 8) (size 9 to 14) (size 15 to 20)
#    0.000    2.154    0.000    3.231    8.615    0.000 
#   11.077    3.077    6.769    0.000    0.000    0.000 
#    0.000    0.000    0.000    0.000    0.000    0.000 
#
# Total GULP energy -72576.712008 kJ/mol
# GULP energy per Si atom -5582.824001 kJ/mol
# Density = 2.336910 g / cm^3
# Si number density = 23.422409 Si / 1000 Ang^3
#
#
#
# Elastic Constant Matrix: (Units=GPa)
#
#
# Indices 1 2 3 4 5 6 
#
# 1 103.7689 16.3303 36.5727 0.0000 26.5820 0.0000
# 2 16.3303 97.3750 31.6366 -0.0001 6.6564 0.0000
# 3 36.5727 31.6366 88.7106 -0.0001 19.2124 0.0000
# 4 0.0000 -0.0001 -0.0001 26.2187 0.0000 -5.4255
# 5 26.5820 6.6564 19.2124 0.0000 30.4892 0.0000
# 6 0.0000 0.0000 0.0000 -5.4255 0.0000 28.0389
#
#
#
# Elastic Compliance Matrix: (Units=1/GPa)
#
#
# Indices 1 2 3 4 5 6 
#
# 1 0.013275 -0.000528 -0.003246 0.000000 -0.009413 0.000000
# 2 -0.000528 0.011637 -0.004032 0.000000 0.000461 0.000000
# 3 -0.003246 -0.004032 0.015338 0.000000 -0.005955 0.000000
# 4 0.000000 0.000000 0.000000 0.039732 0.000000 0.007688
# 5 -0.009413 0.000461 -0.005955 0.000000 0.044657 0.000000
# 6 0.000000 0.000000 0.000000 0.007688 0.000000 0.037152
#
#
# Mechanical properties :
#
#
# Convention : Reuss Voigt Hill
#
# Bulk Modulus (GPa) = 40.58753 50.99263 45.79008
# Shear Modulus (GPa) = 26.93723 30.63703 28.78713
#
# Velocity S-wave (km/s) = 3.39494 3.62058 3.50957
# Velocity P-wave (km/s) = 5.72133 6.26868 6.00124
#
# Compressibility (1/GPa) = 0.02463811
#
# Stress axis : x y z
#
# Youngs Moduli (GPa) = 75.32780 85.93561 65.19578
#
# Poissons Ratio (x) = 0.04540 0.21162
# Poissons Ratio (y) = 0.03979 0.26286
# Poissons Ratio (z) = 0.24451 0.34649
#
# Static dielectric constant tensor:
#      x y z
#    x 1.919520 0.000000 0.025400 
#    y 0.000000 1.895710 0.000000 
#    z 0.025400 0.000000 1.935140 
# 
# From -- ./inp_files/54095.got.cif
#   From: 2010.05.17/outbox.cif.g08.bks.cpg/sg5_28_cif.got.tgz:54095.got - 2010.06.03 18:56:24.
