data_PCOD9123316
_publ_section_title
;
Structure prediction by ZEFSAII (Michael W. Deem and Ramdas Pophale) SiO2 
 PCOD9123316
Probable space group: C 2
;
_chemical_formula_sum "Si O2"
_cell_formula_units_Z 28
_cell_length_a 14.343889
_cell_length_b 7.940701
_cell_length_c 13.191364
_cell_angle_alpha 90.000000
_cell_angle_beta 120.476066
_cell_angle_gamma 90.000000
_cell_volume 1294.919180
_symmetry_space_group_name_H-M "C 2"
_symmetry_group_IT_number 5
_symmetry_cell_setting 'monoclinic'
loop_
_space_group_symop_operation_xyz
x,y,z
-x,y,-z
1/2+x,1/2+y,z
1/2-x,1/2+y,-z
loop_
_atom_site_type_symbol
_atom_site_label
_atom_site_fract_x
_atom_site_fract_y
_atom_site_fract_z
Si Si1 0.775073 0.787230 0.376168
Si Si2 0.770848 0.672822 0.149286
Si Si3 0.562209 0.553668 0.622701
Si Si4 0.412138 0.863082 0.252414
Si Si5 0.501748 0.355666 0.771119
Si Si6 0.118240 0.557584 0.393368
Si Si7 0.950635 0.172036 0.078247
O O1 0.734121 0.717581 0.244433
O O2 0.874206 0.904524 0.394978
O O3 0.819816 0.647387 0.479099
O O4 0.692389 0.912300 0.386350
O O5 0.814702 0.484771 0.177185
O O6 0.875562 0.785017 0.176132
O O7 0.677057 0.677730 0.015297
O O8 0.500000 0.646633 0.500000
O O9 0.629734 0.695388 0.716149
O O10 0.483718 0.474999 0.663310
O O11 0.468506 0.798141 0.180744
O O12 0.504164 0.970811 0.360950
O O13 0.418841 0.201389 0.709487
O O14 0.505484 0.486162 0.866293
O O15 0.000000 0.228311 0.000000
#
# Coordination Sequence:
#
# PCOD9123316 Si02
#       7
#     4   4   4   4   4   4   4
#     4  11  25  38  63  90 129 165 200 266 302 378
#     4  10  22  42  63  92 124 165 213 247 310 362
#     4  10  20  38  61  90 118 165 204 245 302 366
#     4  10  24  39  67  91 125 165 209 254 302 377
#     4   9  21  41  63  84 126 164 212 251 298 372
#     4  11  24  42  58  94 127 162 208 253 324 357
#     4  11  22  40  65  93 126 161 206 261 310 361
#
# _framework density 21.622973000000002
#
# number of rings (size 3 to 8) (size 9 to 14) (size 15 to 20)
#    0.000    1.714    1.429    1.714    4.000    2.286 
#    0.000    7.143    0.000    0.000    0.000    0.000 
#    0.000    0.000    0.000    0.000    0.000    0.000 
#
# Total GULP energy -78106.117252 kJ/mol
# GULP energy per Si atom -5579.008375 kJ/mol
# Density = 2.157376 g / cm^3
# Si number density = 21.622973 Si / 1000 Ang^3
#
#
#
# Elastic Constant Matrix: (Units=GPa)
#
#
# Indices 1 2 3 4 5 6 
#
# 1 33.1936 9.0158 11.3949 0.0000 -0.0612 0.0000
# 2 9.0158 99.8583 36.1127 0.0000 -4.4247 0.0000
# 3 11.3949 36.1127 90.3562 0.0000 5.6437 0.0000
# 4 0.0000 0.0000 0.0000 39.9730 0.0000 6.0150
# 5 -0.0612 -4.4247 5.6437 0.0000 21.0756 0.0000
# 6 0.0000 0.0000 0.0000 6.0150 0.0000 32.7113
#
#
#
# Elastic Compliance Matrix: (Units=1/GPa)
#
#
# Indices 1 2 3 4 5 6 
#
# 1 0.031731 -0.001605 -0.003402 0.000000 0.000666 0.000000
# 2 -0.001605 0.012090 -0.004869 0.000000 0.003838 0.000000
# 3 -0.003402 -0.004869 0.013737 0.000000 -0.004711 0.000000
# 4 0.000000 0.000000 0.000000 0.025729 0.000000 -0.004731
# 5 0.000666 0.003838 -0.004711 0.000000 0.049517 0.000000
# 6 0.000000 0.000000 0.000000 -0.004731 0.000000 0.031440
#
#
# Mechanical properties :
#
#
# Convention : Reuss Voigt Hill
#
# Bulk Modulus (GPa) = 26.45110 37.38388 31.91749
# Shear Modulus (GPa) = 25.43248 29.87761 27.65505
#
# Velocity S-wave (km/s) = 3.43327 3.72123 3.58014
# Velocity P-wave (km/s) = 5.28922 5.98246 5.64649
#
# Compressibility (1/GPa) = 0.03780561
#
# Stress axis : x y z
#
# Youngs Moduli (GPa) = 31.51461 82.71234 72.79796
#
# Poissons Ratio (x) = 0.13277 0.24764
# Poissons Ratio (y) = 0.05059 0.35448
# Poissons Ratio (z) = 0.10720 0.40275
#
# Static dielectric constant tensor:
#      x y z
#    x 1.810810 0.000000 0.020350 
#    y 0.000000 1.778270 0.000000 
#    z 0.020350 0.000000 1.799330 
# 
# From -- ./inp_files/42014.got.cif
#   From: 2010.05.17/outbox.cif.g08.bks.cpg/sg5_22_cif.got.tgz:42014.got - 2010.06.03 18:56:24.
