data_PCOD9123204
_publ_section_title
;
Structure prediction by ZEFSAII (Michael W. Deem and Ramdas Pophale) SiO2 
 PCOD9123204
Probable space group: C 2
;
_chemical_formula_sum "Si O2"
_cell_formula_units_Z 30
_cell_length_a 15.201477
_cell_length_b 11.851806
_cell_length_c 8.388368
_cell_angle_alpha 90.000000
_cell_angle_beta 113.318233
_cell_angle_gamma 90.000000
_cell_volume 1387.848489
_symmetry_space_group_name_H-M "C 2"
_symmetry_group_IT_number 5
_symmetry_cell_setting 'monoclinic'
loop_
_space_group_symop_operation_xyz
x,y,z
-x,y,-z
1/2+x,1/2+y,z
1/2-x,1/2+y,-z
loop_
_atom_site_type_symbol
_atom_site_label
_atom_site_fract_x
_atom_site_fract_y
_atom_site_fract_z
Si Si1 0.982888 0.435390 0.301493
Si Si2 0.023371 0.176011 0.332127
Si Si3 0.176314 0.680217 0.228152
Si Si4 0.000000 0.575469 0.000000
Si Si5 0.427865 0.483464 0.096408
Si Si6 0.265190 0.911016 0.205217
Si Si7 0.198284 0.018156 0.482629
Si Si8 0.444863 0.319697 0.604703
O O1 0.868191 0.429679 0.205593
O O2 0.000000 0.469229 0.500000
O O3 0.024736 0.309255 0.309785
O O4 0.018527 0.507276 0.176530
O O5 0.123899 0.114308 0.369565
O O6 0.000000 0.156168 0.500000
O O7 0.942957 0.108104 0.177510
O O8 0.246392 0.778332 0.219502
O O9 0.235664 0.575510 0.338336
O O10 0.112774 0.736041 0.323725
O O11 0.096097 0.647551 0.042419
O O12 0.472865 0.391029 0.246638
O O13 0.500000 0.475186 0.000000
O O14 0.321582 0.456913 0.964121
O O15 0.255561 0.970619 0.371606
O O16 0.132722 0.915659 0.499408
O O17 0.500000 0.261723 0.500000
#
# Coordination Sequence:
#
# PCOD9123204 Si02
#       8
#     4   4   4   2   4   4   4   4
#     4  11  26  46  64  96 137 171 214 266 325 392
#     4  10  21  39  64  94 126 167 210 272 319 370
#     4  11  22  41  63  91 128 169 211 266 320 384
#     4  12  28  44  66  90 138 178 206 264 340 386
#     4  11  18  38  66  92 127 159 215 269 314 371
#     4  11  23  40  65  94 124 172 214 269 319 378
#     4  10  20  37  66  91 123 167 217 261 320 378
#     4  10  22  39  64  94 124 166 210 264 322 378
#
# _framework density 21.616192999999999
#
# number of rings (size 3 to 8) (size 9 to 14) (size 15 to 20)
#    0.000    1.333    4.000    4.800    0.933    5.867 
#    0.000    1.333    0.000    0.000    0.000    0.000 
#    0.000    0.000    0.000    0.000    0.000    0.000 
#
# Total GULP energy -83862.104896 kJ/mol
# GULP energy per Si atom -5590.806993 kJ/mol
# Density = 2.156699 g / cm^3
# Si number density = 21.616193 Si / 1000 Ang^3
#
#
#
# Elastic Constant Matrix: (Units=GPa)
#
#
# Indices 1 2 3 4 5 6 
#
# 1 69.2467 9.9587 -2.8930 0.0000 6.4306 0.0000
# 2 9.9587 71.9494 22.7593 0.0000 2.7995 0.0000
# 3 -2.8930 22.7593 60.2674 0.0000 12.7368 0.0000
# 4 0.0000 0.0000 0.0000 29.7078 0.0000 8.1266
# 5 6.4306 2.7995 12.7368 0.0000 40.8150 0.0000
# 6 0.0000 0.0000 0.0000 8.1266 0.0000 0.6715
#
#
#
# Elastic Compliance Matrix: (Units=1/GPa)
#
#
# Indices 1 2 3 4 5 6 
#
# 1 0.015210 -0.002747 0.002392 0.000000 -0.002954 0.000000
# 2 -0.002747 0.016307 -0.006579 0.000000 0.001367 0.000000
# 3 0.002392 -0.006579 0.020530 0.000000 -0.006332 0.000000
# 4 0.000000 0.000000 0.000000 -0.014569 0.000000 0.176310
# 5 -0.002954 0.001367 -0.006332 0.000000 0.026849 0.000000
# 6 0.000000 0.000000 0.000000 0.176310 0.000000 -0.644519
#
#
# Mechanical properties :
#
#
# Convention : Reuss Voigt Hill
#
# Bulk Modulus (GPa) = 26.19205 29.01262 27.60233
# Shear Modulus (GPa) = -9.03184 25.68142 8.32479
#
# Velocity S-wave (km/s) = -2.04630 3.45057 1.96457
# Velocity P-wave (km/s) = 2.56126 5.41536 4.23593
#
# Compressibility (1/GPa) = 0.03817952
#
# Stress axis : x y z
#
# Youngs Moduli (GPa) = 65.74416 61.32437 48.70860
#
# Poissons Ratio (x) = 0.16846 -0.11651
# Poissons Ratio (y) = 0.18060 0.32045
# Poissons Ratio (z) = -0.15725 0.40345
#
# Static dielectric constant tensor:
#      x y z
#    x 1.769370 0.000000 -0.001280 
#    y 0.000000 1.800270 0.000000 
#    z -0.001280 0.000000 1.823430 
# 
# From -- ./inp_files/23919.got.cif
#   From: 2010.05.17/outbox.cif.g08.bks.cpg/sg5_12_cif.got.tgz:23919.got - 2010.06.03 18:56:24.
