data_PCOD9123670
_publ_section_title
;
Structure prediction by ZEFSAII (Michael W. Deem and Ramdas Pophale) SiO2 
 PCOD9123670
Probable space group: C 2
;
_chemical_formula_sum "Si O2"
_cell_formula_units_Z 24
_cell_length_a 12.281891
_cell_length_b 10.552611
_cell_length_c 14.838401
_cell_angle_alpha 90.000000
_cell_angle_beta 152.357765
_cell_angle_gamma 90.000000
_cell_volume 892.242013
_symmetry_space_group_name_H-M "C 2"
_symmetry_group_IT_number 5
_symmetry_cell_setting 'monoclinic'
loop_
_space_group_symop_operation_xyz
x,y,z
-x,y,-z
1/2+x,1/2+y,z
1/2-x,1/2+y,-z
loop_
_atom_site_type_symbol
_atom_site_label
_atom_site_fract_x
_atom_site_fract_y
_atom_site_fract_z
Si Si1 0.369904 0.717420 0.998168
Si Si2 0.264447 0.537962 0.661010
Si Si3 0.360785 0.333546 0.015512
Si Si4 0.004027 0.257931 0.606320
Si Si5 0.888295 0.575409 0.640473
Si Si6 0.124405 0.565482 0.174039
O O1 0.568305 0.659994 0.209363
O O2 0.568697 0.435607 0.166368
O O3 0.500000 0.736672 0.000000
O O4 0.159935 0.615339 0.828105
O O5 0.000000 0.567808 0.500000
O O6 0.221716 0.504418 0.525250
O O7 0.252233 0.709736 0.453894
O O8 0.249940 0.330220 0.033700
O O9 0.473337 0.194192 0.082463
O O10 0.159495 0.335864 0.791433
O O11 0.135601 0.122857 0.687359
O O12 0.000000 0.311004 0.500000
O O13 0.854299 0.507040 0.711835
O O14 0.000000 0.497864 0.000000
#
# Coordination Sequence:
#
# PCOD9123670 Si02
#       6
#     4   4   4   4   4   4
#     4  11  23  44  71 101 147 200 243 291 370 445
#     4  12  25  44  71 111 146 189 252 302 357 435
#     4  10  22  40  69 107 148 187 244 306 360 433
#     4   9  17  36  68 101 135 188 236 295 371 423
#     4  10  20  39  67 100 137 194 234 290 358 432
#     4   8  17  35  65 101 134 182 236 294 359 423
#
# _framework density 26.898534000000001
#
# number of rings (size 3 to 8) (size 9 to 14) (size 15 to 20)
#    0.000    2.000    3.333    0.000    0.000    5.333 
#    9.000    0.000   14.667    0.000    0.000    0.000 
#    0.000    0.000    0.000    0.000    0.000    0.000 
#
# Total GULP energy -67141.002290 kJ/mol
# GULP energy per Si atom -5595.083524 kJ/mol
# Density = 2.683731 g / cm^3
# Si number density = 26.898534 Si / 1000 Ang^3
#
#
#
# Elastic Constant Matrix: (Units=GPa)
#
#
# Indices 1 2 3 4 5 6 
#
# 1 158.9983 6.6830 70.0485 0.0056 -0.5664 0.0013
# 2 6.6830 45.7383 30.7798 0.0060 18.8251 0.0018
# 3 70.0485 30.7798 238.8927 0.0124 -2.8388 0.0067
# 4 0.0056 0.0060 0.0124 37.6068 0.0046 9.0179
# 5 -0.5664 18.8251 -2.8388 0.0046 71.0420 0.0017
# 6 0.0013 0.0018 0.0067 9.0179 0.0017 12.8522
#
#
#
# Elastic Compliance Matrix: (Units=1/GPa)
#
#
# Indices 1 2 3 4 5 6 
#
# 1 0.007231 0.000477 -0.002184 -0.000001 -0.000156 0.000001
# 2 0.000477 0.027364 -0.003754 -0.000002 -0.007397 0.000001
# 3 -0.002184 -0.003754 0.005324 -0.000001 0.001190 -0.000002
# 4 -0.000001 -0.000002 -0.000001 0.031970 -0.000001 -0.022432
# 5 -0.000156 -0.007397 0.001190 -0.000001 0.016083 -0.000001
# 6 0.000001 0.000001 -0.000002 -0.022432 -0.000001 0.093548
#
#
# Mechanical properties :
#
#
# Convention : Reuss Voigt Hill
#
# Bulk Modulus (GPa) = 34.48369 73.18357 53.83363
# Shear Modulus (GPa) = 24.73947 46.70806 35.72377
#
# Velocity S-wave (km/s) = 3.03600 4.17160 3.64826
# Velocity P-wave (km/s) = 5.01373 7.10418 6.14845
#
# Compressibility (1/GPa) = 0.02899922
#
# Stress axis : x y z
#
# Youngs Moduli (GPa) = 138.29829 36.54388 187.82867
#
# Poissons Ratio (x) = -0.01744 0.41013
# Poissons Ratio (y) = -0.06599 0.70502
# Poissons Ratio (z) = 0.30198 0.13717
#
# Static dielectric constant tensor:
#      x y z
#    x 2.165610 0.000000 -0.014220 
#    y 0.000000 2.187020 -0.000010 
#    z -0.014220 -0.000010 2.101770 
# 
# From -- ./inp_files/54713.got.cif
#   From: 2010.05.17/outbox.cif.g08.bks.cpg/sg5_28_cif.got.tgz:54713.got - 2010.06.03 18:56:24.
