data_PCOD9123272
_publ_section_title
;
Structure prediction by ZEFSAII (Michael W. Deem and Ramdas Pophale) SiO2 
 PCOD9123272
Probable space group: C 2
;
_chemical_formula_sum "Si O2"
_cell_formula_units_Z 30
_cell_length_a 22.600286
_cell_length_b 9.064880
_cell_length_c 9.871760
_cell_angle_alpha 90.000000
_cell_angle_beta 131.820504
_cell_angle_gamma 90.000000
_cell_volume 1507.180406
_symmetry_space_group_name_H-M "C 2"
_symmetry_group_IT_number 5
_symmetry_cell_setting 'monoclinic'
loop_
_space_group_symop_operation_xyz
x,y,z
-x,y,-z
1/2+x,1/2+y,z
1/2-x,1/2+y,-z
loop_
_atom_site_type_symbol
_atom_site_label
_atom_site_fract_x
_atom_site_fract_y
_atom_site_fract_z
Si Si1 0.363178 0.428950 0.945330
Si Si2 0.000000 0.817492 0.500000
Si Si3 0.323436 0.943290 0.032889
Si Si4 0.931856 0.392452 0.741118
Si Si5 0.645481 0.516989 0.750639
Si Si6 0.905759 0.241290 0.966537
Si Si7 0.041397 0.662827 0.843662
Si Si8 0.681410 0.840118 0.684732
O O1 0.382751 0.576132 0.891506
O O2 0.274993 0.360344 0.792085
O O3 0.367620 0.487155 0.108419
O O4 0.430655 0.305496 0.030791
O O5 0.926101 0.924258 0.421735
O O6 0.984020 0.718270 0.344033
O O7 0.332097 0.947684 0.207929
O O8 0.377844 0.070296 0.054880
O O9 0.232015 0.951073 0.856413
O O10 0.355413 0.793531 0.017561
O O11 0.890158 0.354341 0.819163
O O12 0.873394 0.376757 0.526286
O O13 0.976103 0.550467 0.802806
O O14 0.003101 0.270629 0.850002
O O15 0.654721 0.681250 0.704444
#
# Coordination Sequence:
#
# PCOD9123272 Si02
#       8
#     4   2   4   4   4   4   4   4
#     4  10  21  39  65  90 126 165 214 249 326 371
#     4  10  22  32  62  98 134 144 210 260 326 356
#     4  10  20  38  65  86 129 162 208 248 328 367
#     4  10  24  41  64  89 130 160 224 255 316 362
#     4  10  21  35  60 100 127 161 201 269 309 375
#     4  10  22  44  61  87 127 178 199 262 314 376
#     4  10  20  38  59  95 123 168 199 268 306 378
#     4  11  21  37  66  97 121 164 213 262 308 382
#
# _framework density 19.904719
#
# number of rings (size 3 to 8) (size 9 to 14) (size 15 to 20)
#    0.000    1.867    2.667    0.800    3.733    2.667 
#    2.400    5.333    0.000    0.000    0.000    0.000 
#    0.000    0.000    0.000    0.000    0.000    0.000 
#
# Total GULP energy -83627.419235 kJ/mol
# GULP energy per Si atom -5575.161282 kJ/mol
# Density = 1.985941 g / cm^3
# Si number density = 19.904719 Si / 1000 Ang^3
#
#
#
# Elastic Constant Matrix: (Units=GPa)
#
#
# Indices 1 2 3 4 5 6 
#
# 1 55.2301 37.6638 42.6484 0.0000 -2.6431 0.0000
# 2 37.6638 113.9924 55.2145 0.0000 11.4041 0.0000
# 3 42.6484 55.2145 116.4415 0.0000 1.5036 0.0000
# 4 0.0000 0.0000 0.0000 16.2928 0.0000 -2.3873
# 5 -2.6431 11.4041 1.5036 0.0000 13.9042 0.0000
# 6 0.0000 0.0000 0.0000 -2.3873 0.0000 17.2961
#
#
#
# Elastic Compliance Matrix: (Units=1/GPa)
#
#
# Indices 1 2 3 4 5 6 
#
# 1 0.029500 -0.007377 -0.007468 0.000000 0.012466 0.000000
# 2 -0.007377 0.014411 -0.003966 0.000000 -0.012793 0.000000
# 3 -0.007468 -0.003966 0.013199 0.000000 0.000406 0.000000
# 4 0.000000 0.000000 0.000000 0.062644 0.000000 0.008646
# 5 0.012466 -0.012793 0.000406 0.000000 0.084739 0.000000
# 6 0.000000 0.000000 0.000000 0.008646 0.000000 0.059010
#
#
# Mechanical properties :
#
#
# Convention : Reuss Voigt Hill
#
# Bulk Modulus (GPa) = 51.31480 61.85748 56.58614
# Shear Modulus (GPa) = 16.25381 19.50776 17.88079
#
# Velocity S-wave (km/s) = 2.86069 3.13398 3.00045
# Velocity P-wave (km/s) = 6.06198 6.65132 6.36347
#
# Compressibility (1/GPa) = 0.01948756
#
# Stress axis : x y z
#
# Youngs Moduli (GPa) = 33.89854 69.39189 75.76531
#
# Poissons Ratio (x) = 0.51190 0.56579
# Poissons Ratio (y) = 0.25007 0.30051
# Poissons Ratio (z) = 0.25314 0.27523
#
# Static dielectric constant tensor:
#      x y z
#    x 1.710400 0.000000 -0.008890 
#    y 0.000000 1.760830 0.000000 
#    z -0.008890 0.000000 1.676080 
# 
# From -- ./inp_files/47296.got.cif
#   From: 2010.05.17/outbox.cif.g08.bks.cpg/sg5_24_cif.got.tgz:47296.got - 2010.06.03 18:56:24.
