data_PCOD9123499
_publ_section_title
;
Structure prediction by ZEFSAII (Michael W. Deem and Ramdas Pophale) SiO2 
 PCOD9123499
Probable space group: C 2
;
_chemical_formula_sum "Si O2"
_cell_formula_units_Z 24
_cell_length_a 7.117672
_cell_length_b 17.681699
_cell_length_c 9.204644
_cell_angle_alpha 90.000000
_cell_angle_beta 122.884530
_cell_angle_gamma 90.000000
_cell_volume 972.808826
_symmetry_space_group_name_H-M "C 2"
_symmetry_group_IT_number 5
_symmetry_cell_setting 'monoclinic'
loop_
_space_group_symop_operation_xyz
x,y,z
-x,y,-z
1/2+x,1/2+y,z
1/2-x,1/2+y,-z
loop_
_atom_site_type_symbol
_atom_site_label
_atom_site_fract_x
_atom_site_fract_y
_atom_site_fract_z
Si Si1 0.021411 0.617640 0.173280
Si Si2 0.358600 0.762569 0.643184
Si Si3 0.754678 0.094351 0.542784
Si Si4 0.484740 0.288014 0.735907
Si Si5 0.711377 0.506245 0.183119
Si Si6 0.333726 0.869321 0.066492
O O1 0.220168 0.583953 0.356613
O O2 0.035057 0.707331 0.193499
O O3 0.801407 0.585381 0.158155
O O4 0.000000 0.592838 0.000000
O O5 0.379972 0.672896 0.624022
O O6 0.173309 0.775229 0.691007
O O7 0.581304 0.797652 0.804529
O O8 0.245907 0.799104 0.451020
O O9 0.500000 0.106877 0.500000
O O10 0.832678 0.022211 0.667072
O O11 0.594390 0.349201 0.890186
O O12 0.865567 0.437982 0.194149
O O13 0.500000 0.489466 0.000000
O O14 0.500000 0.882212 0.000000
#
# Coordination Sequence:
#
# PCOD9123499 Si02
#       6
#     4   4   4   4   4   4
#     4  10  20  38  67  91 126 163 225 276 314 371
#     4   9  15  34  63  91 122 165 220 256 313 386
#     4   9  17  37  65  93 122 168 221 262 322 389
#     4   9  17  34  61  95 124 168 209 268 316 388
#     4  11  23  39  61  92 133 173 216 259 332 391
#     4  10  22  36  63  95 135 170 218 259 329 385
#
# _framework density 24.670829000000001
#
# number of rings (size 3 to 8) (size 9 to 14) (size 15 to 20)
#    0.000    2.333    5.000    0.500    2.333    0.667 
#    9.000    0.833    3.667    0.000    0.000    0.000 
#    0.000    0.000    0.000    0.000    0.000    0.000 
#
# Total GULP energy -67008.171526 kJ/mol
# GULP energy per Si atom -5584.014294 kJ/mol
# Density = 2.461468 g / cm^3
# Si number density = 24.670829 Si / 1000 Ang^3
#
#
#
# Elastic Constant Matrix: (Units=GPa)
#
#
# Indices 1 2 3 4 5 6 
#
# 1 41.1917 13.6220 30.1794 0.0000 -14.8333 0.0000
# 2 13.6220 83.2418 76.3255 0.0000 -4.1767 0.0000
# 3 30.1794 76.3255 204.1915 0.0000 -31.8190 0.0000
# 4 0.0000 0.0000 0.0000 10.7484 0.0000 -4.2672
# 5 -14.8333 -4.1767 -31.8190 0.0000 40.0789 0.0000
# 6 0.0000 0.0000 0.0000 -4.2672 0.0000 22.1532
#
#
#
# Elastic Compliance Matrix: (Units=1/GPa)
#
#
# Indices 1 2 3 4 5 6 
#
# 1 0.029926 -0.002578 -0.002026 0.000000 0.009199 0.000000
# 2 -0.002578 0.019084 -0.007522 0.000000 -0.004937 0.000000
# 3 -0.002026 -0.007522 0.008866 0.000000 0.005505 0.000000
# 4 0.000000 0.000000 0.000000 0.100741 0.000000 0.019405
# 5 0.009199 -0.004937 0.005505 0.000000 0.032211 0.000000
# 6 0.000000 0.000000 0.000000 0.019405 0.000000 0.048878
#
#
# Mechanical properties :
#
#
# Convention : Reuss Voigt Hill
#
# Bulk Modulus (GPa) = 29.73984 63.20875 46.47430
# Shear Modulus (GPa) = 18.17074 28.49595 23.33334
#
# Velocity S-wave (km/s) = 2.71685 3.40228 3.07870
# Velocity P-wave (km/s) = 4.68215 6.41175 5.61396
#
# Compressibility (1/GPa) = 0.03362493
#
# Stress axis : x y z
#
# Youngs Moduli (GPa) = 33.41563 52.39916 112.78610
#
# Poissons Ratio (x) = 0.13508 0.22851
# Poissons Ratio (y) = 0.08614 0.84836
# Poissons Ratio (z) = 0.06770 0.39414
#
# Static dielectric constant tensor:
#      x y z
#    x 2.117970 0.000000 0.005460 
#    y 0.000000 1.890230 0.000000 
#    z 0.005460 0.000000 2.040290 
# 
# From -- ./inp_files/16850.got.cif
#   From: 2010.05.17/outbox.cif.g08.bks.cpg/sg5_9_cif.got.tgz:16850.got - 2010.06.03 18:56:24.
