data_PCOD9123227
_publ_section_title
;
Structure prediction by ZEFSAII (Michael W. Deem and Ramdas Pophale) SiO2 
 PCOD9123227
Probable space group: C 2
;
_chemical_formula_sum "Si O2"
_cell_formula_units_Z 20
_cell_length_a 17.756959
_cell_length_b 7.700357
_cell_length_c 12.035558
_cell_angle_alpha 90.000000
_cell_angle_beta 148.644632
_cell_angle_gamma 90.000000
_cell_volume 856.321240
_symmetry_space_group_name_H-M "C 2"
_symmetry_group_IT_number 5
_symmetry_cell_setting 'monoclinic'
loop_
_space_group_symop_operation_xyz
x,y,z
-x,y,-z
1/2+x,1/2+y,z
1/2-x,1/2+y,-z
loop_
_atom_site_type_symbol
_atom_site_label
_atom_site_fract_x
_atom_site_fract_y
_atom_site_fract_z
Si Si1 0.271256 0.782940 0.410001
Si Si2 0.432319 0.460003 0.689017
Si Si3 0.710836 0.330231 0.953562
Si Si4 0.161498 0.996352 0.662230
Si Si5 0.024949 0.507641 0.657346
O O1 0.362514 0.651556 0.604189
O O2 0.125497 0.844772 0.283949
O O3 0.256105 0.667088 0.279139
O O4 0.374441 0.946818 0.518558
O O5 0.603563 0.459151 0.885868
O O6 0.365605 0.391243 0.486808
O O7 0.726829 0.389211 0.845317
O O8 0.619961 0.152986 0.838493
O O9 0.868242 0.340356 0.204792
O O10 0.000000 0.042060 0.500000
O O11 0.000000 0.564158 0.500000
#
# Coordination Sequence:
#
# PCOD9123227 Si02
#       5
#     4   4   4   4   4
#     4  10  20  37  68  99 144 177 223 288 349 386
#     4   9  19  36  66  97 140 178 221 284 335 405
#     4  11  23  43  68 102 136 181 236 274 347 408
#     4   8  18  37  67  91 139 179 216 283 329 403
#     4  12  26  41  72 105 134 182 232 284 339 416
#
# _framework density 23.355722
#
# number of rings (size 3 to 8) (size 9 to 14) (size 15 to 20)
#    1.200    0.800    0.000    4.800    2.800    0.000 
#    0.000    2.000    4.400    4.800    0.000    0.000 
#    0.000    0.000    0.000    0.000    0.000    0.000 
#
# Total GULP energy -55812.859860 kJ/mol
# GULP energy per Si atom -5581.285986 kJ/mol
# Density = 2.330256 g / cm^3
# Si number density = 23.355722 Si / 1000 Ang^3
#
#
#
# Elastic Constant Matrix: (Units=GPa)
#
#
# Indices 1 2 3 4 5 6 
#
# 1 109.6891 11.9776 -3.0707 0.0000 14.6951 0.0000
# 2 11.9776 66.1957 -10.6484 0.0000 -5.8607 0.0000
# 3 -3.0707 -10.6484 39.4972 0.0000 -0.2662 0.0000
# 4 0.0000 0.0000 0.0000 37.0158 0.0000 -6.3771
# 5 14.6951 -5.8607 -0.2662 0.0000 22.0281 0.0000
# 6 0.0000 0.0000 0.0000 -6.3771 0.0000 44.7240
#
#
#
# Elastic Compliance Matrix: (Units=1/GPa)
#
#
# Indices 1 2 3 4 5 6 
#
# 1 0.010419 -0.002549 0.000071 0.000000 -0.007628 0.000000
# 2 -0.002549 0.016824 0.004380 0.000000 0.006230 0.000000
# 3 0.000071 0.004380 0.026514 0.000000 0.001438 0.000000
# 4 0.000000 0.000000 0.000000 0.027696 0.000000 0.003949
# 5 -0.007628 0.006230 0.001438 0.000000 0.052160 0.000000
# 6 0.000000 0.000000 0.000000 0.003949 0.000000 0.022922
#
#
# Mechanical properties :
#
#
# Convention : Reuss Voigt Hill
#
# Bulk Modulus (GPa) = 17.37292 23.54432 20.45862
# Shear Modulus (GPa) = 29.08353 35.22850 32.15602
#
# Velocity S-wave (km/s) = 3.53263 3.88796 3.71454
# Velocity P-wave (km/s) = 4.90855 5.50069 5.21303
#
# Compressibility (1/GPa) = 0.05756086
#
# Stress axis : x y z
#
# Youngs Moduli (GPa) = 95.97918 59.43882 37.71563
#
# Poissons Ratio (x) = 0.15151 -0.00269
# Poissons Ratio (y) = 0.24466 -0.16518
# Poissons Ratio (z) = -0.00685 -0.26032
#
# Static dielectric constant tensor:
#      x y z
#    x 1.869460 0.000000 -0.023350 
#    y 0.000000 2.047270 0.000000 
#    z -0.023350 0.000000 1.838080 
# 
# From -- ./inp_files/56697.got.cif
#   From: 2010.05.17/outbox.cif.g08.bks.cpg/sg5_29_cif.got.tgz:56697.got - 2010.06.03 18:56:24.
