data_PCOD9123004
_publ_section_title
;
Structure prediction by ZEFSAII (Michael W. Deem and Ramdas Pophale) SiO2 
 PCOD9123004
Probable space group: C 2
;
_chemical_formula_sum "Si O2"
_cell_formula_units_Z 28
_cell_length_a 5.113350
_cell_length_b 31.833758
_cell_length_c 8.455431
_cell_angle_alpha 90.000000
_cell_angle_beta 121.099673
_cell_angle_gamma 90.000000
_cell_volume 1178.528056
_symmetry_space_group_name_H-M "C 2"
_symmetry_group_IT_number 5
_symmetry_cell_setting 'monoclinic'
loop_
_space_group_symop_operation_xyz
x,y,z
-x,y,-z
1/2+x,1/2+y,z
1/2-x,1/2+y,-z
loop_
_atom_site_type_symbol
_atom_site_label
_atom_site_fract_x
_atom_site_fract_y
_atom_site_fract_z
Si Si1 0.087989 0.789020 0.708633
Si Si2 0.667288 0.195164 0.726746
Si Si3 0.844712 0.149118 0.280334
Si Si4 0.773870 0.475695 0.776001
Si Si5 0.361002 0.560915 0.132038
Si Si6 0.723959 0.431684 0.224222
Si Si7 0.180361 0.338291 0.804061
O O1 0.144449 0.741971 0.787404
O O2 0.389515 0.818527 0.801405
O O3 0.000000 0.784734 0.500000
O O4 0.794178 0.808774 0.699598
O O5 0.500000 0.194164 0.500000
O O6 0.503887 0.160867 0.788242
O O7 0.010821 0.183152 0.791545
O O8 0.944768 0.104344 0.241235
O O9 0.000000 0.152481 0.500000
O O10 0.605867 0.520231 0.745158
O O11 0.511722 0.440827 0.709525
O O12 0.009532 0.466162 0.710211
O O13 0.000000 0.472996 0.000000
O O14 0.500000 0.554552 0.000000
O O15 0.000000 0.565051 0.000000
O O16 0.874290 0.385949 0.267869
O O17 0.500000 0.434526 0.000000
O O18 0.500000 0.340249 0.000000
#
# Coordination Sequence:
#
# PCOD9123004 Si02
#       7
#     4   4   4   4   4   4   4
#     4  11  22  39  61  83 112 152 195 234 281 341
#     4   9  19  36  58  79 102 144 195 227 257 331
#     4  10  20  37  58  78 105 144 186 224 270 330
#     4   9  16  29  49  75 105 141 179 216 259 321
#     4  11  21  34  54  84 114 137 175 230 280 323
#     4   9  17  30  51  77 105 141 182 219 262 323
#     4  11  22  37  58  88 118 145 186 242 291 331
#
# _framework density 23.758448999999999
#
# number of rings (size 3 to 8) (size 9 to 14) (size 15 to 20)
#    0.000    2.000    0.000    5.571    0.000    4.571 
#    0.000    7.143    0.000    5.143    0.000    0.000 
#    0.000    0.000    0.000    0.000    0.000    0.000 
#
# Total GULP energy -78175.542789 kJ/mol
# GULP energy per Si atom -5583.967342 kJ/mol
# Density = 2.370437 g / cm^3
# Si number density = 23.758449 Si / 1000 Ang^3
#
#
#
# Elastic Constant Matrix: (Units=GPa)
#
#
# Indices 1 2 3 4 5 6 
#
# 1 150.6328 50.6717 7.4967 0.0000 -10.1045 0.0000
# 2 50.6717 136.6516 -1.7340 0.0000 -11.1443 0.0000
# 3 7.4967 -1.7340 45.8789 0.0000 4.2497 0.0000
# 4 0.0000 0.0000 0.0000 25.0133 0.0000 9.8381
# 5 -10.1045 -11.1443 4.2497 0.0000 20.9552 0.0000
# 6 0.0000 0.0000 0.0000 9.8381 0.0000 47.7506
#
#
#
# Elastic Compliance Matrix: (Units=1/GPa)
#
#
# Indices 1 2 3 4 5 6 
#
# 1 0.007805 -0.002698 -0.001624 0.000000 0.002658 0.000000
# 2 -0.002698 0.008583 0.000472 0.000000 0.003168 0.000000
# 3 -0.001624 0.000472 0.022553 0.000000 -0.005106 0.000000
# 4 0.000000 0.000000 0.000000 0.043504 0.000000 -0.008963
# 5 0.002658 0.003168 -0.005106 0.000000 0.051722 0.000000
# 6 0.000000 0.000000 0.000000 -0.008963 0.000000 0.022789
#
#
# Mechanical properties :
#
#
# Convention : Reuss Voigt Hill
#
# Bulk Modulus (GPa) = 32.00934 49.55911 40.78423
# Shear Modulus (GPa) = 28.56009 37.19242 32.87625
#
# Velocity S-wave (km/s) = 3.47090 3.96086 3.72394
# Velocity P-wave (km/s) = 5.43736 6.46705 5.97443
#
# Compressibility (1/GPa) = 0.03124088
#
# Stress axis : x y z
#
# Youngs Moduli (GPa) = 128.11631 116.51349 44.34082
#
# Poissons Ratio (x) = 0.31437 0.07199
# Poissons Ratio (y) = 0.34568 -0.02092
# Poissons Ratio (z) = 0.20801 -0.05498
#
# Static dielectric constant tensor:
#      x y z
#    x 1.823570 0.000000 -0.000660 
#    y 0.000000 1.951310 0.000000 
#    z -0.000660 0.000000 1.900430 
# 
# From -- ./inp_files/13390.got.cif
#   From: 2010.05.17/outbox.cif.g08.bks.cpg/sg5_7_cif.got.tgz:13390.got - 2010.06.03 18:56:24.
