data_PCOD9123718
_publ_section_title
;
Structure prediction by ZEFSAII (Michael W. Deem and Ramdas Pophale) SiO2 
 PCOD9123718
Probable space group: C 2
;
_chemical_formula_sum "Si O2"
_cell_formula_units_Z 30
_cell_length_a 17.646497
_cell_length_b 5.838591
_cell_length_c 11.366489
_cell_angle_alpha 90.000000
_cell_angle_beta 83.696306
_cell_angle_gamma 90.000000
_cell_volume 1164.016479
_symmetry_space_group_name_H-M "C 2"
_symmetry_group_IT_number 5
_symmetry_cell_setting 'monoclinic'
loop_
_space_group_symop_operation_xyz
x,y,z
-x,y,-z
1/2+x,1/2+y,z
1/2-x,1/2+y,-z
loop_
_atom_site_type_symbol
_atom_site_label
_atom_site_fract_x
_atom_site_fract_y
_atom_site_fract_z
Si Si1 0.641609 0.561170 0.775770
Si Si2 0.591729 0.333819 0.494960
Si Si3 0.694693 0.868876 0.231243
Si Si4 0.093029 0.327892 0.483839
Si Si5 0.088271 0.723309 0.233509
Si Si6 0.116452 0.102399 0.059837
Si Si7 0.500000 0.962022 0.000000
Si Si8 0.572504 0.074498 0.762879
O O1 0.726264 0.464771 0.735188
O O2 0.595380 0.340160 0.733671
O O3 0.615374 0.824139 0.745894
O O4 0.637560 0.563292 0.920638
O O5 0.500000 0.340693 0.500000
O O6 0.618789 0.583481 0.532937
O O7 0.614877 0.325733 0.352953
O O8 0.613067 0.077537 0.537385
O O9 0.637272 0.829611 0.351070
O O10 0.686630 0.668174 0.136104
O O11 0.658385 0.083581 0.170806
O O12 0.000000 0.319266 0.500000
O O13 0.013569 0.572108 0.272682
O O14 0.071918 0.905118 0.136645
O O15 0.053125 0.300157 0.068732
O O16 0.442234 0.089034 0.094029
#
# Coordination Sequence:
#
# PCOD9123718 Si02
#       8
#     4   4   4   4   4   4   2   4
#     4  11  28  38  57  84 134 167 202 250 318 363
#     4   9  18  32  55  91 120 140 186 261 320 347
#     4  11  24  38  60  92 123 158 212 255 314 371
#     4   9  18  35  57  87 119 148 189 256 314 358
#     4  11  21  37  64  87 118 162 221 254 298 367
#     4  11  22  36  59  86 124 167 210 255 304 360
#     4  10  20  40  56  84 116 162 214 256 292 344
#     4  11  23  42  57  84 120 173 207 254 300 369
#
# _framework density 25.772829999999999
#
# number of rings (size 3 to 8) (size 9 to 14) (size 15 to 20)
#    0.000    1.600    2.667    2.400    5.600    0.533 
#    0.000    0.000    0.000    0.000    0.000   44.800 
#    0.000    0.000    0.000    0.000    0.000    0.000 
#
# Total GULP energy -83546.539559 kJ/mol
# GULP energy per Si atom -5569.769304 kJ/mol
# Density = 2.571417 g / cm^3
# Si number density = 25.772830 Si / 1000 Ang^3
#
#
#
# Elastic Constant Matrix: (Units=GPa)
#
#
# Indices 1 2 3 4 5 6 
#
# 1 86.4200 36.1313 -12.8549 0.0000 -10.5838 0.0000
# 2 36.1313 214.0904 67.5254 0.0000 13.5752 0.0000
# 3 -12.8549 67.5254 70.7116 0.0000 -8.9807 0.0000
# 4 0.0000 0.0000 0.0000 58.1182 0.0000 19.4796
# 5 -10.5838 13.5752 -8.9807 0.0000 20.2300 0.0000
# 6 0.0000 0.0000 0.0000 19.4796 0.0000 33.4756
#
#
#
# Elastic Compliance Matrix: (Units=1/GPa)
#
#
# Indices 1 2 3 4 5 6 
#
# 1 0.022394 -0.011311 0.018360 0.000000 0.027457 0.000000
# 2 -0.011311 0.013784 -0.018170 0.000000 -0.023234 0.000000
# 3 0.018360 -0.018170 0.039846 0.000000 0.039487 0.000000
# 4 0.000000 0.000000 0.000000 0.021375 0.000000 -0.012438
# 5 0.027457 -0.023234 0.039487 0.000000 0.096916 0.000000
# 6 0.000000 0.000000 0.000000 -0.012438 0.000000 0.037110
#
#
# Mechanical properties :
#
#
# Convention : Reuss Voigt Hill
#
# Bulk Modulus (GPa) = 18.59388 61.42506 40.00947
# Shear Modulus (GPa) = 18.40972 41.05946 29.73459
#
# Velocity S-wave (km/s) = 2.67555 3.99573 3.40033
# Velocity P-wave (km/s) = 4.09573 6.72107 5.56542
#
# Compressibility (1/GPa) = 0.05378113
#
# Stress axis : x y z
#
# Youngs Moduli (GPa) = 44.65478 72.54801 25.09668
#
# Poissons Ratio (x) = 0.82060 -0.46077
# Poissons Ratio (y) = 0.50509 0.45601
# Poissons Ratio (z) = -0.81985 1.31819
#
# Static dielectric constant tensor:
#      x y z
#    x 2.098200 0.000000 0.048320 
#    y 0.000000 2.127760 0.000000 
#    z 0.048320 0.000000 2.269640 
# 
# From -- ./inp_files/55316.got.cif
#   From: 2010.05.17/outbox.cif.g08.bks.cpg/sg5_28_cif.got.tgz:55316.got - 2010.06.03 18:56:24.
