data_PCOD9123156
_publ_section_title
;
Structure prediction by ZEFSAII (Michael W. Deem and Ramdas Pophale) SiO2 
 PCOD9123156
Probable space group: C 2
;
_chemical_formula_sum "Si O2"
_cell_formula_units_Z 26
_cell_length_a 8.840116
_cell_length_b 19.464042
_cell_length_c 8.510224
_cell_angle_alpha 90.000000
_cell_angle_beta 123.512032
_cell_angle_gamma 90.000000
_cell_volume 1220.894676
_symmetry_space_group_name_H-M "C 2"
_symmetry_group_IT_number 5
_symmetry_cell_setting 'monoclinic'
loop_
_space_group_symop_operation_xyz
x,y,z
-x,y,-z
1/2+x,1/2+y,z
1/2-x,1/2+y,-z
loop_
_atom_site_type_symbol
_atom_site_label
_atom_site_fract_x
_atom_site_fract_y
_atom_site_fract_z
Si Si1 0.353282 0.357820 0.037452
Si Si2 0.779093 0.169750 0.604329
Si Si3 0.997706 0.290502 0.313155
Si Si4 0.794358 0.889767 0.342555
Si Si5 0.000000 0.603997 0.000000
Si Si6 0.284933 0.540666 0.412830
Si Si7 0.949100 0.710580 0.222233
O O1 0.292625 0.402365 0.153177
O O2 0.434003 0.288159 0.158205
O O3 0.500000 0.388122 0.000000
O O4 0.180149 0.328258 0.849178
O O5 0.969949 0.209783 0.707514
O O6 0.766134 0.089302 0.555063
O O7 0.657069 0.200720 0.393483
O O8 0.677402 0.190787 0.704328
O O9 0.160906 0.330107 0.319095
O O10 0.000000 0.298519 0.500000
O O11 0.000000 0.870078 0.500000
O O12 0.750172 0.959643 0.410026
O O13 0.853787 0.564270 0.806143
O O14 0.099735 0.656314 0.939681
O O15 0.500000 0.547501 0.500000
#
# Coordination Sequence:
#
# PCOD9123156 Si02
#       7
#     4   4   4   4   2   4   4
#     4  12  24  40  67 102 136 172 223 283 341 401
#     4  10  21  40  64  94 133 172 219 276 332 403
#     4  12  25  39  67 100 132 174 224 279 337 404
#     4  11  24  46  66  95 137 178 223 280 336 405
#     4  10  22  40  64  92 130 178 218 280 328 402
#     4  10  24  43  66  91 134 179 220 273 336 401
#     4  10  20  37  63  96 130 170 215 279 338 382
#
# _framework density 21.295857999999999
#
# number of rings (size 3 to 8) (size 9 to 14) (size 15 to 20)
#    0.000    1.231    2.308    3.692    6.462    0.000 
#    5.538    3.077    0.000    0.000    0.000    0.000 
#    0.000    0.000    0.000    0.000    0.000    0.000 
#
# Total GULP energy -72572.425672 kJ/mol
# GULP energy per Si atom -5582.494282 kJ/mol
# Density = 2.124739 g / cm^3
# Si number density = 21.295858 Si / 1000 Ang^3
#
#
#
# Elastic Constant Matrix: (Units=GPa)
#
#
# Indices 1 2 3 4 5 6 
#
# 1 69.9912 21.1166 26.9031 0.0000 -12.8466 0.0000
# 2 21.1166 75.2123 0.0559 0.0000 -1.3714 0.0000
# 3 26.9031 0.0559 69.1791 0.0000 2.5465 0.0000
# 4 0.0000 0.0000 0.0000 10.8007 0.0000 -4.7097
# 5 -12.8466 -1.3714 2.5465 0.0000 33.5115 0.0000
# 6 0.0000 0.0000 0.0000 -4.7097 0.0000 21.4580
#
#
#
# Elastic Compliance Matrix: (Units=1/GPa)
#
#
# Indices 1 2 3 4 5 6 
#
# 1 0.020750 -0.005667 -0.008372 0.000000 0.008359 0.000000
# 2 -0.005667 0.014853 0.002256 0.000000 -0.001736 0.000000
# 3 -0.008372 0.002256 0.017874 0.000000 -0.004476 0.000000
# 4 0.000000 0.000000 0.000000 0.102386 0.000000 0.022472
# 5 0.008359 -0.001736 -0.004476 0.000000 0.033314 0.000000
# 6 0.000000 0.000000 0.000000 0.022472 0.000000 0.051535
#
#
# Mechanical properties :
#
#
# Convention : Reuss Voigt Hill
#
# Bulk Modulus (GPa) = 33.43393 34.50378 33.96885
# Shear Modulus (GPa) = 18.23155 24.24116 21.23636
#
# Velocity S-wave (km/s) = 2.92911 3.37754 3.16128
# Velocity P-wave (km/s) = 5.21281 5.60782 5.41392
#
# Compressibility (1/GPa) = 0.02990974
#
# Stress axis : x y z
#
# Youngs Moduli (GPa) = 48.19345 67.32442 55.94678
#
# Poissons Ratio (x) = 0.38153 0.46841
# Poissons Ratio (y) = 0.27312 -0.12620
# Poissons Ratio (z) = 0.40350 -0.15187
#
# Static dielectric constant tensor:
#      x y z
#    x 1.780680 0.000000 0.013800 
#    y 0.000000 1.789560 0.000000 
#    z 0.013800 0.000000 1.846270 
# 
# From -- ./inp_files/16737.got.cif
#   From: 2010.05.17/outbox.cif.g08.bks.cpg/sg5_9_cif.got.tgz:16737.got - 2010.06.03 18:56:24.
