data_PCOD9123027
_publ_section_title
;
Structure prediction by ZEFSAII (Michael W. Deem and Ramdas Pophale) SiO2 
 PCOD9123027
Probable space group: C 2
;
_chemical_formula_sum "Si O2"
_cell_formula_units_Z 22
_cell_length_a 8.508712
_cell_length_b 10.576728
_cell_length_c 14.980074
_cell_angle_alpha 90.000000
_cell_angle_beta 46.983554
_cell_angle_gamma 90.000000
_cell_volume 985.689892
_symmetry_space_group_name_H-M "C 2"
_symmetry_group_IT_number 5
_symmetry_cell_setting 'monoclinic'
loop_
_space_group_symop_operation_xyz
x,y,z
-x,y,-z
1/2+x,1/2+y,z
1/2-x,1/2+y,-z
loop_
_atom_site_type_symbol
_atom_site_label
_atom_site_fract_x
_atom_site_fract_y
_atom_site_fract_z
Si Si1 0.786105 0.014830 0.022651
Si Si2 0.253595 0.736288 0.911188
Si Si3 0.477501 0.109005 0.288104
Si Si4 0.350975 0.342705 0.409459
Si Si5 0.000000 0.038681 0.500000
Si Si6 0.593830 0.846727 0.332149
O O1 0.602594 0.092929 0.147386
O O2 0.712727 0.867229 0.043949
O O3 0.839437 0.105112 0.918713
O O4 0.000000 0.008461 0.000000
O O5 0.337482 0.767102 0.779938
O O6 0.000000 0.719154 0.000000
O O7 0.526195 0.233690 0.326418
O O8 0.541492 0.985797 0.316957
O O9 0.217608 0.107432 0.382798
O O10 0.436492 0.452600 0.439370
O O11 0.270332 0.370584 0.340421
O O12 0.131993 0.295948 0.542568
#
# Coordination Sequence:
#
# PCOD9123027 Si02
#       6
#     4   4   4   4   2   4
#     4  10  23  41  62  88 123 162 208 254 299 359
#     4  10  21  41  62  89 123 163 207 252 302 358
#     4  10  21  39  59  87 120 154 198 249 300 358
#     4  10  20  37  59  87 119 156 195 243 303 362
#     4  10  22  36  60  94 120 152 198 246 302 364
#     4   9  20  38  58  84 124 160 195 244 303 361
#
# _framework density 22.319393999999999
#
# number of rings (size 3 to 8) (size 9 to 14) (size 15 to 20)
#    0.000    2.182    0.000    2.182    0.000    8.000 
#    0.000   27.273    0.000    0.000    0.000    0.000 
#    0.000    0.000    0.000    0.000    0.000    0.000 
#
# Total GULP energy -61379.226757 kJ/mol
# GULP energy per Si atom -5579.929705 kJ/mol
# Density = 2.226859 g / cm^3
# Si number density = 22.319394 Si / 1000 Ang^3
#
#
#
# Elastic Constant Matrix: (Units=GPa)
#
#
# Indices 1 2 3 4 5 6 
#
# 1 58.4323 26.1572 21.0145 0.0000 17.0378 0.0000
# 2 26.1572 51.1362 17.5336 0.0000 17.9970 0.0000
# 3 21.0145 17.5336 61.2904 0.0000 8.4258 0.0000
# 4 0.0000 0.0000 0.0000 43.3859 0.0000 3.3345
# 5 17.0378 17.9970 8.4258 0.0000 31.2469 0.0000
# 6 0.0000 0.0000 0.0000 3.3345 0.0000 19.9477
#
#
#
# Elastic Compliance Matrix: (Units=1/GPa)
#
#
# Indices 1 2 3 4 5 6 
#
# 1 0.024841 -0.008368 -0.005113 0.000000 -0.007346 0.000000
# 2 -0.008368 0.029103 -0.003925 0.000000 -0.011141 0.000000
# 3 -0.005113 -0.003925 0.019210 0.000000 -0.000131 0.000000
# 4 0.000000 0.000000 0.000000 0.023349 0.000000 -0.003903
# 5 -0.007346 -0.011141 -0.000131 0.000000 0.042461 0.000000
# 6 0.000000 0.000000 0.000000 -0.003903 0.000000 0.050784
#
#
# Mechanical properties :
#
#
# Convention : Reuss Voigt Hill
#
# Bulk Modulus (GPa) = 26.08153 33.36324 29.72238
# Shear Modulus (GPa) = 21.06690 25.99300 23.52995
#
# Velocity S-wave (km/s) = 3.07560 3.41632 3.25043
# Velocity P-wave (km/s) = 4.93187 5.52650 5.23763
#
# Compressibility (1/GPa) = 0.03834131
#
# Stress axis : x y z
#
# Youngs Moduli (GPa) = 40.25656 34.36111 52.05669
#
# Poissons Ratio (x) = 0.28752 0.26618
# Poissons Ratio (y) = 0.33686 0.20432
# Poissons Ratio (z) = 0.20585 0.13486
#
# Static dielectric constant tensor:
#      x y z
#    x 1.828190 0.000000 0.013020 
#    y 0.000000 1.872250 0.000000 
#    z 0.013020 0.000000 1.880440 
# 
# From -- ./inp_files/35480.got.cif
#   From: 2010.05.17/outbox.cif.g08.bks.cpg/sg5_18_cif.got.tgz:35480.got - 2010.06.03 18:56:24.
