data_PCOD9123688
_publ_section_title
;
Structure prediction by ZEFSAII (Michael W. Deem and Ramdas Pophale) SiO2 
 PCOD9123688
Probable space group: C 2
;
_chemical_formula_sum "Si O2"
_cell_formula_units_Z 26
_cell_length_a 11.037299
_cell_length_b 8.619818
_cell_length_c 13.811863
_cell_angle_alpha 90.000000
_cell_angle_beta 110.075026
_cell_angle_gamma 90.000000
_cell_volume 1234.217146
_symmetry_space_group_name_H-M "C 2"
_symmetry_group_IT_number 5
_symmetry_cell_setting 'monoclinic'
loop_
_space_group_symop_operation_xyz
x,y,z
-x,y,-z
1/2+x,1/2+y,z
1/2-x,1/2+y,-z
loop_
_atom_site_type_symbol
_atom_site_label
_atom_site_fract_x
_atom_site_fract_y
_atom_site_fract_z
Si Si1 0.500000 0.764081 0.500000
Si Si2 0.777279 0.917000 0.140143
Si Si3 0.491376 0.557200 0.680689
Si Si4 0.137086 0.183603 0.981940
Si Si5 0.856587 0.485685 0.592570
Si Si6 0.533599 0.858744 0.202449
Si Si7 0.865050 0.818372 0.515972
O O1 0.539948 0.658148 0.601704
O O2 0.394379 0.881747 0.511006
O O3 0.645464 0.930918 0.166119
O O4 0.900191 0.948922 0.241844
O O5 0.804687 0.043902 0.064122
O O6 0.747403 0.752037 0.081870
O O7 0.441971 0.685763 0.744306
O O8 0.384994 0.447287 0.604194
O O9 0.091281 0.322439 0.896568
O O10 0.000000 0.145585 0.000000
O O11 0.967034 0.468590 0.703486
O O12 0.826279 0.657676 0.553458
O O13 0.730787 0.390284 0.589637
O O14 0.000000 0.790759 0.500000
#
# Coordination Sequence:
#
# PCOD9123688 Si02
#       7
#     2   4   4   4   4   4   4
#     4  10  20  40  62  90 132 176 210 254 306 366
#     4  10  20  39  68  89 122 163 198 261 317 369
#     4  10  21  37  62  90 130 164 212 252 306 365
#     4   9  20  40  62  89 121 156 203 255 316 371
#     4  11  23  39  62  90 130 170 214 259 309 366
#     4   9  20  38  61  90 120 163 204 258 313 369
#     4  12  24  39  59  90 125 172 213 259 304 368
#
# _framework density 21.065985999999999
#
# number of rings (size 3 to 8) (size 9 to 14) (size 15 to 20)
#    0.000    1.846    1.538    2.769    2.154    1.231 
#    0.000    6.923    0.000    0.000    0.000    0.000 
#    0.000    0.000    0.000    0.000    0.000    0.000 
#
# Total GULP energy -72414.280039 kJ/mol
# GULP energy per Si atom -5570.329234 kJ/mol
# Density = 2.101804 g / cm^3
# Si number density = 21.065986 Si / 1000 Ang^3
#
#
#
# Elastic Constant Matrix: (Units=GPa)
#
#
# Indices 1 2 3 4 5 6 
#
# 1 74.8597 34.6840 21.0776 0.0000 -7.6555 0.0000
# 2 34.6840 78.3333 21.4733 0.0000 -12.9099 0.0000
# 3 21.0776 21.4733 76.7428 0.0000 -9.8641 0.0000
# 4 0.0000 0.0000 0.0000 -1.7648 0.0000 4.6564
# 5 -7.6555 -12.9099 -9.8641 0.0000 23.6460 0.0000
# 6 0.0000 0.0000 0.0000 4.6564 0.0000 38.4049
#
#
#
# Elastic Compliance Matrix: (Units=1/GPa)
#
#
# Indices 1 2 3 4 5 6 
#
# 1 0.017369 -0.006808 -0.002769 0.000000 0.000751 0.000000
# 2 -0.006808 0.017435 -0.002186 0.000000 0.006403 0.000000
# 3 -0.002769 -0.002186 0.014935 0.000000 0.004140 0.000000
# 4 0.000000 0.000000 0.000000 -0.429306 0.000000 0.052051
# 5 0.000751 0.006403 0.004140 0.000000 0.047757 0.000000
# 6 0.000000 0.000000 0.000000 0.052051 0.000000 0.019727
#
#
# Mechanical properties :
#
#
# Convention : Reuss Voigt Hill
#
# Bulk Modulus (GPa) = 38.14782 42.71174 40.42978
# Shear Modulus (GPa) = -17.86858 22.23728 2.18435
#
# Velocity S-wave (km/s) = -2.91558 3.25253 1.01939
# Velocity P-wave (km/s) = 2.61034 5.86724 4.54084
#
# Compressibility (1/GPa) = 0.02621382
#
# Stress axis : x y z
#
# Youngs Moduli (GPa) = 57.57411 57.35720 66.95778
#
# Poissons Ratio (x) = 0.39047 0.18540
# Poissons Ratio (y) = 0.39194 0.14635
# Poissons Ratio (z) = 0.15942 0.12536
#
# Static dielectric constant tensor:
#      x y z
#    x 1.898440 0.000000 0.030280 
#    y 0.000000 1.728520 0.000000 
#    z 0.030280 0.000000 1.862280 
# 
# From -- ./inp_files/52086.got.cif
#   From: 2010.05.17/outbox.cif.g08.bks.cpg/sg5_27_cif.got.tgz:52086.got - 2010.06.03 18:56:24.
