data_PCOD9123597
_publ_section_title
;
Structure prediction by ZEFSAII (Michael W. Deem and Ramdas Pophale) SiO2 
 PCOD9123597
Probable space group: C 2
;
_chemical_formula_sum "Si O2"
_cell_formula_units_Z 30
_cell_length_a 6.926419
_cell_length_b 12.580177
_cell_length_c 14.527394
_cell_angle_alpha 90.000000
_cell_angle_beta 89.096384
_cell_angle_gamma 90.000000
_cell_volume 1265.695436
_symmetry_space_group_name_H-M "C 2"
_symmetry_group_IT_number 5
_symmetry_cell_setting 'monoclinic'
loop_
_space_group_symop_operation_xyz
x,y,z
-x,y,-z
1/2+x,1/2+y,z
1/2-x,1/2+y,-z
loop_
_atom_site_type_symbol
_atom_site_label
_atom_site_fract_x
_atom_site_fract_y
_atom_site_fract_z
Si Si1 0.771739 0.314980 0.517393
Si Si2 0.723942 0.207183 0.085355
Si Si3 0.000000 0.001080 0.500000
Si Si4 0.941664 0.935347 0.892058
Si Si5 0.881675 0.297231 0.719659
Si Si6 0.167731 0.515516 0.206882
Si Si7 0.298256 0.654192 0.369373
Si Si8 0.183142 0.162272 0.116223
O O1 0.677010 0.422318 0.482375
O O2 0.754478 0.310707 0.627893
O O3 0.700653 0.217294 0.454566
O O4 0.000000 0.317325 0.500000
O O5 0.648841 0.319716 0.122666
O O6 0.952669 0.188700 0.104515
O O7 0.622774 0.103097 0.129509
O O8 0.713454 0.206628 0.974785
O O9 0.951904 0.075239 0.415105
O O10 0.125698 0.964672 0.827404
O O11 0.800795 0.035588 0.877988
O O12 0.000000 0.941710 0.000000
O O13 0.940802 0.407858 0.766698
O O14 0.767056 0.223822 0.791933
O O15 0.077072 0.237653 0.689283
O O16 0.177146 0.584180 0.300251
#
# Coordination Sequence:
#
# PCOD9123597 Si02
#       8
#     4   4   2   4   4   4   4   4
#     4  10  24  44  68 101 135 178 223 281 340 407
#     4  10  21  38  63  90 123 170 214 261 329 394
#     4  12  22  46  72  96 136 184 222 280 348 400
#     4  11  20  39  64  89 126 170 215 269 325 391
#     4  11  20  41  67  91 130 172 214 270 333 387
#     4  11  22  40  64  92 128 168 214 272 322 397
#     4  11  22  42  66  95 135 171 217 277 337 394
#     4  10  20  39  63  89 123 173 208 269 333 381
#
# _framework density 23.702386000000001
#
# number of rings (size 3 to 8) (size 9 to 14) (size 15 to 20)
#    0.000    1.333    8.667    0.800    0.000    1.067 
#    1.200    5.333    0.000    0.000    0.000    0.000 
#    0.000    0.000    0.000    0.000    0.000    0.000 
#
# Total GULP energy -83885.417470 kJ/mol
# GULP energy per Si atom -5592.361165 kJ/mol
# Density = 2.364844 g / cm^3
# Si number density = 23.702386 Si / 1000 Ang^3
#
#
#
# Elastic Constant Matrix: (Units=GPa)
#
#
# Indices 1 2 3 4 5 6 
#
# 1 57.1094 38.8905 16.3821 0.0000 -10.0625 0.0000
# 2 38.8905 220.0430 63.1390 0.0000 -12.9537 0.0000
# 3 16.3821 63.1390 140.8616 0.0000 -4.7249 0.0000
# 4 0.0000 0.0000 0.0000 54.2526 0.0000 8.7391
# 5 -10.0625 -12.9537 -4.7249 0.0000 14.8399 0.0000
# 6 0.0000 0.0000 0.0000 8.7391 0.0000 41.0309
#
#
#
# Elastic Compliance Matrix: (Units=1/GPa)
#
#
# Indices 1 2 3 4 5 6 
#
# 1 0.021850 -0.002917 -0.000831 0.000000 0.012005 0.000000
# 2 -0.002917 0.005832 -0.002194 0.000000 0.002414 0.000000
# 3 -0.000831 -0.002194 0.008183 0.000000 0.000127 0.000000
# 4 0.000000 0.000000 0.000000 0.019087 0.000000 -0.004065
# 5 0.012005 0.002414 0.000127 0.000000 0.077674 0.000000
# 6 0.000000 0.000000 0.000000 -0.004065 0.000000 0.025238
#
#
# Mechanical properties :
#
#
# Convention : Reuss Voigt Hill
#
# Bulk Modulus (GPa) = 41.69758 72.75969 57.22863
# Shear Modulus (GPa) = 28.13073 41.99817 35.06445
#
# Velocity S-wave (km/s) = 3.44878 4.21396 3.85042
# Velocity P-wave (km/s) = 5.78698 7.37837 6.63059
#
# Compressibility (1/GPa) = 0.02398221
#
# Stress axis : x y z
#
# Youngs Moduli (GPa) = 45.76639 171.47815 122.19841
#
# Poissons Ratio (x) = 0.50012 0.10157
# Poissons Ratio (y) = 0.13348 0.26807
# Poissons Ratio (z) = 0.03804 0.37618
#
# Static dielectric constant tensor:
#      x y z
#    x 1.941590 0.000000 0.004630 
#    y 0.000000 1.864760 0.000000 
#    z 0.004630 0.000000 1.907290 
# 
# From -- ./inp_files/50304.got.cif
#   From: 2010.05.17/outbox.cif.g08.bks.cpg/sg5_26_cif.got.tgz:50304.got - 2010.06.03 18:56:24.
