data_PCOD9123856
_publ_section_title
;
Structure prediction by ZEFSAII (Michael W. Deem and Ramdas Pophale) SiO2 
 PCOD9123856
Probable space group: C 2
;
_chemical_formula_sum "Si O2"
_cell_formula_units_Z 32
_cell_length_a 22.106146
_cell_length_b 12.641041
_cell_length_c 11.181043
_cell_angle_alpha 90.000000
_cell_angle_beta 148.557801
_cell_angle_gamma 90.000000
_cell_volume 1629.849598
_symmetry_space_group_name_H-M "C 2"
_symmetry_group_IT_number 5
_symmetry_cell_setting 'monoclinic'
loop_
_space_group_symop_operation_xyz
x,y,z
-x,y,-z
1/2+x,1/2+y,z
1/2-x,1/2+y,-z
loop_
_atom_site_type_symbol
_atom_site_label
_atom_site_fract_x
_atom_site_fract_y
_atom_site_fract_z
Si Si1 0.022848 0.258770 0.678865
Si Si2 0.645296 0.366715 0.906409
Si Si3 0.261990 0.309294 0.180437
Si Si4 0.689712 0.492915 0.312507
Si Si5 0.831177 0.088813 0.965431
Si Si6 0.765709 0.274311 0.316433
Si Si7 0.876552 0.642738 0.741277
Si Si8 0.902733 0.860884 0.636218
O O1 0.000000 0.274387 0.500000
O O2 0.903405 0.273992 0.546230
O O3 0.130453 0.327809 0.911349
O O4 0.066877 0.140423 0.784050
O O5 0.651258 0.344233 0.777094
O O6 0.519925 0.369942 0.757251
O O7 0.704222 0.479806 0.033150
O O8 0.718517 0.278340 0.101312
O O9 0.264278 0.181610 0.198554
O O10 0.296347 0.360286 0.363569
O O11 0.635453 0.563956 0.115436
O O12 0.723770 0.382872 0.306757
O O13 0.803592 0.555099 0.548089
O O14 0.612447 0.454532 0.293441
O O15 0.706247 0.181708 0.290615
O O16 0.901631 0.748339 0.704062
O O17 0.000000 0.605636 0.000000
#
# Coordination Sequence:
#
# PCOD9123856 Si02
#       8
#     4   4   4   4   4   4   4   4
#     4  10  20  40  66  90 129 161 214 265 323 388
#     4  11  21  41  65  94 129 166 218 270 320 392
#     4  10  22  42  65  91 133 167 212 270 324 388
#     4  10  23  40  62  91 131 164 215 266 318 394
#     4   9  22  40  66  90 128 167 219 257 333 380
#     4  10  21  38  64  92 120 169 210 263 328 376
#     4  11  21  40  61  88 129 164 212 268 318 382
#     4  11  23  41  64  96 126 171 216 267 324 383
#
# _framework density 19.633714000000001
#
# number of rings (size 3 to 8) (size 9 to 14) (size 15 to 20)
#    0.750    1.000    3.750    0.375    1.750    2.000 
#    2.250    5.625    2.750    0.000    0.000    0.000 
#    0.000    0.000    0.000    0.000    0.000    0.000 
#
# Total GULP energy -89192.093045 kJ/mol
# GULP energy per Si atom -5574.505815 kJ/mol
# Density = 1.958903 g / cm^3
# Si number density = 19.633714 Si / 1000 Ang^3
#
#
#
# Elastic Constant Matrix: (Units=GPa)
#
#
# Indices 1 2 3 4 5 6 
#
# 1 83.6773 8.2634 12.7094 0.0000 3.7560 0.0000
# 2 8.2634 30.1045 -4.4434 0.0000 -7.7534 0.0000
# 3 12.7094 -4.4434 86.9555 0.0000 -3.7840 0.0000
# 4 0.0000 0.0000 0.0000 28.8230 0.0000 -4.6907
# 5 3.7560 -7.7534 -3.7840 0.0000 37.7907 0.0000
# 6 0.0000 0.0000 0.0000 -4.6907 0.0000 11.4038
#
#
#
# Elastic Compliance Matrix: (Units=1/GPa)
#
#
# Indices 1 2 3 4 5 6 
#
# 1 0.012836 -0.004471 -0.002210 0.000000 -0.002414 0.000000
# 2 -0.004471 0.037020 0.002908 0.000000 0.008331 0.000000
# 3 -0.002210 0.002908 0.012060 0.000000 0.002024 0.000000
# 4 0.000000 0.000000 0.000000 0.037184 0.000000 0.015295
# 5 -0.002414 0.008331 0.002024 0.000000 0.028613 0.000000
# 6 0.000000 0.000000 0.000000 0.015295 0.000000 0.093981
#
#
# Mechanical properties :
#
#
# Convention : Reuss Voigt Hill
#
# Bulk Modulus (GPa) = 18.39281 25.97734 22.18508
# Shear Modulus (GPa) = 20.21320 27.88404 24.04862
#
# Velocity S-wave (km/s) = 3.21209 3.77266 3.50360
# Velocity P-wave (km/s) = 4.81092 5.67776 5.26222
#
# Compressibility (1/GPa) = 0.05436906
#
# Stress axis : x y z
#
# Youngs Moduli (GPa) = 77.90451 27.01260 82.92043
#
# Poissons Ratio (x) = 0.12078 0.18323
# Poissons Ratio (y) = 0.34834 -0.24111
# Poissons Ratio (z) = 0.17214 -0.07855
#
# Static dielectric constant tensor:
#      x y z
#    x 1.693960 0.000000 -0.018500 
#    y 0.000000 1.688630 0.000000 
#    z -0.018500 0.000000 1.716170 
# 
# From -- ./inp_files/47521.got.cif
#   From: 2010.05.17/outbox.cif.g08.bks.cpg/sg5_24_cif.got.tgz:47521.got - 2010.06.03 18:56:24.
