data_PCOD9123531
_publ_section_title
;
Structure prediction by ZEFSAII (Michael W. Deem and Ramdas Pophale) SiO2 
 PCOD9123531
Probable space group: C 2
;
_chemical_formula_sum "Si O2"
_cell_formula_units_Z 26
_cell_length_a 12.387568
_cell_length_b 8.044844
_cell_length_c 23.154352
_cell_angle_alpha 90.000000
_cell_angle_beta 29.715069
_cell_angle_gamma 90.000000
_cell_volume 1143.783772
_symmetry_space_group_name_H-M "C 2"
_symmetry_group_IT_number 5
_symmetry_cell_setting 'monoclinic'
loop_
_space_group_symop_operation_xyz
x,y,z
-x,y,-z
1/2+x,1/2+y,z
1/2-x,1/2+y,-z
loop_
_atom_site_type_symbol
_atom_site_label
_atom_site_fract_x
_atom_site_fract_y
_atom_site_fract_z
Si Si1 0.547214 0.371150 0.836365
Si Si2 0.830020 0.348046 0.306923
Si Si3 0.990047 0.234328 0.348318
Si Si4 0.106805 0.249039 0.074424
Si Si5 0.975806 0.678600 0.753088
Si Si6 0.543139 0.357474 0.601567
Si Si7 0.000000 0.208241 0.000000
O O1 0.475889 0.561230 0.878126
O O2 0.533450 0.311555 0.776137
O O3 0.786545 0.333191 0.748091
O O4 0.366141 0.264333 0.954762
O O5 0.919248 0.226234 0.314302
O O6 0.597992 0.302057 0.388163
O O7 0.990097 0.353568 0.177631
O O8 0.850251 0.530515 0.325118
O O9 0.795594 0.327348 0.471847
O O10 0.009867 0.050042 0.363954
O O11 0.037652 0.306075 0.042096
O O12 0.975685 0.757779 0.690012
O O13 0.729836 0.616095 0.882743
#
# Coordination Sequence:
#
# PCOD9123531 Si02
#       7
#     4   4   4   4   4   4   2
#     4  11  25  44  72 112 144 196 240 306 369 446
#     4  12  25  48  74 108 144 197 241 309 362 444
#     4  12  28  47  75 106 151 193 253 294 378 430
#     4  11  23  42  72 106 148 186 248 297 378 431
#     4  11  23  45  75 103 151 191 245 299 374 424
#     4  12  27  50  70 108 149 198 245 312 351 447
#     4  10  20  38  70 104 138 190 222 304 356 428
#
# _framework density 22.731569
#
# number of rings (size 3 to 8) (size 9 to 14) (size 15 to 20)
#    0.000    0.615    3.077    5.077    2.154    1.231 
#    2.769    0.000    0.000    0.000    0.000    0.000 
#    0.000    0.000    0.000    0.000    0.000    0.000 
#
# Total GULP energy -72767.722867 kJ/mol
# GULP energy per Si atom -5597.517144 kJ/mol
# Density = 2.267983 g / cm^3
# Si number density = 22.731569 Si / 1000 Ang^3
#
#
#
# Elastic Constant Matrix: (Units=GPa)
#
#
# Indices 1 2 3 4 5 6 
#
# 1 117.9444 25.4936 34.0722 0.0000 -13.0663 0.0000
# 2 25.4936 71.1295 24.5854 0.0000 -7.0897 0.0000
# 3 34.0722 24.5854 121.1263 -0.0001 -26.7155 0.0000
# 4 0.0000 0.0000 -0.0001 31.7661 0.0000 4.2666
# 5 -13.0663 -7.0897 -26.7155 0.0000 45.7387 0.0000
# 6 0.0000 0.0000 0.0000 4.2666 0.0000 26.2835
#
#
#
# Elastic Compliance Matrix: (Units=1/GPa)
#
#
# Indices 1 2 3 4 5 6 
#
# 1 0.009757 -0.002709 -0.001920 0.000000 0.001246 0.000000
# 2 -0.002709 0.015888 -0.002399 0.000000 0.000287 0.000000
# 3 -0.001920 -0.002399 0.010423 0.000000 0.005167 0.000000
# 4 0.000000 0.000000 0.000000 0.032182 0.000000 -0.005224
# 5 0.001246 0.000287 0.005167 0.000000 0.025282 0.000000
# 6 0.000000 0.000000 0.000000 -0.005224 0.000000 0.038895
#
#
# Mechanical properties :
#
#
# Convention : Reuss Voigt Hill
#
# Bulk Modulus (GPa) = 45.43291 53.16695 49.29993
# Shear Modulus (GPa) = 32.50568 35.82759 34.16663
#
# Velocity S-wave (km/s) = 3.78561 3.97434 3.88112
# Velocity P-wave (km/s) = 6.25603 6.67086 6.46677
#
# Compressibility (1/GPa) = 0.02201048
#
# Stress axis : x y z
#
# Youngs Moduli (GPa) = 102.49269 62.94125 95.94531
#
# Poissons Ratio (x) = 0.17052 0.18420
# Poissons Ratio (y) = 0.27767 0.23021
# Poissons Ratio (z) = 0.19677 0.15102
#
# Static dielectric constant tensor:
#      x y z
#    x 1.857930 0.000000 -0.007750 
#    y 0.000000 1.838050 0.000000 
#    z -0.007750 0.000000 1.846250 
# 
# From -- ./inp_files/68253.got.cif
#   From: 2010.05.17/outbox.cif.g08.bks.cpg/sg5_35_cif.got.tgz:68253.got - 2010.06.03 18:56:24.
