data_PCOD9123298
_publ_section_title
;
Structure prediction by ZEFSAII (Michael W. Deem and Ramdas Pophale) SiO2 
 PCOD9123298
Probable space group: C 2
;
_chemical_formula_sum "Si O2"
_cell_formula_units_Z 22
_cell_length_a 23.779283
_cell_length_b 4.931224
_cell_length_c 11.259532
_cell_angle_alpha 90.000000
_cell_angle_beta 44.395816
_cell_angle_gamma 90.000000
_cell_volume 923.699178
_symmetry_space_group_name_H-M "C 2"
_symmetry_group_IT_number 5
_symmetry_cell_setting 'monoclinic'
loop_
_space_group_symop_operation_xyz
x,y,z
-x,y,-z
1/2+x,1/2+y,z
1/2-x,1/2+y,-z
loop_
_atom_site_type_symbol
_atom_site_label
_atom_site_fract_x
_atom_site_fract_y
_atom_site_fract_z
Si Si1 0.059773 0.870260 0.656414
Si Si2 0.366581 0.817614 0.080138
Si Si3 0.000000 0.955675 0.000000
Si Si4 0.802472 0.198761 0.946027
Si Si5 0.762399 0.060014 0.557807
Si Si6 0.035758 0.403913 0.276516
O O1 0.152513 0.956096 0.521374
O O2 0.036155 0.804404 0.830197
O O3 0.030703 0.635685 0.609459
O O4 0.010023 0.133795 0.692471
O O5 0.322994 0.621660 0.051217
O O6 0.306166 0.991983 0.245916
O O7 0.427520 0.649175 0.067417
O O8 0.414495 0.002902 0.914246
O O9 0.739182 0.443069 0.049155
O O10 0.887303 0.306755 0.761184
O O11 0.740284 0.871891 0.477198
#
# Coordination Sequence:
#
# PCOD9123298 Si02
#       6
#     4   4   2   4   4   4
#     4  11  21  36  57  85 125 155 196 242 299 367
#     4   9  23  39  61  92 123 158 204 246 308 362
#     4  10  20  38  60  94 120 162 198 250 296 382
#     4  10  21  39  66  90 116 154 214 262 297 343
#     4  12  25  37  55  89 130 167 191 242 313 370
#     4   9  22  37  61  85 111 157 204 247 294 348
#
# _framework density 23.817277000000001
#
# number of rings (size 3 to 8) (size 9 to 14) (size 15 to 20)
#    1.091    0.727    1.818    2.182    5.091    2.182 
#    0.000    0.000    0.000    6.545    0.000    0.000 
#    0.000    0.000    0.000    0.000    0.000    0.000 
#
# Total GULP energy -61362.793161 kJ/mol
# GULP energy per Si atom -5578.435742 kJ/mol
# Density = 2.376307 g / cm^3
# Si number density = 23.817277 Si / 1000 Ang^3
#
#
#
# Elastic Constant Matrix: (Units=GPa)
#
#
# Indices 1 2 3 4 5 6 
#
# 1 95.1662 33.7908 24.2753 -0.0005 -40.9008 0.0010
# 2 33.7908 81.5333 2.5714 -0.0029 -19.7044 0.0029
# 3 24.2753 2.5714 47.3974 -0.0006 -18.3924 0.0007
# 4 -0.0005 -0.0029 -0.0006 29.7236 0.0005 -27.8201
# 5 -40.9008 -19.7044 -18.3924 0.0005 39.3696 -0.0008
# 6 0.0010 0.0029 0.0007 -27.8201 -0.0008 45.5146
#
#
#
# Elastic Compliance Matrix: (Units=1/GPa)
#
#
# Indices 1 2 3 4 5 6 
#
# 1 0.020356 -0.004099 -0.003411 -0.000001 0.017502 0.000000
# 2 -0.004099 0.015002 0.003111 0.000001 0.004704 0.000000
# 3 -0.003411 0.003111 0.026756 0.000001 0.010512 0.000000
# 4 -0.000001 0.000001 0.000001 0.078623 0.000000 0.048057
# 5 0.017502 0.004704 0.010512 0.000000 0.050848 0.000000
# 6 0.000000 0.000000 0.000000 0.048057 0.000000 0.051345
#
#
# Mechanical properties :
#
#
# Convention : Reuss Voigt Hill
#
# Bulk Modulus (GPa) = 18.75665 38.37467 28.56566
# Shear Modulus (GPa) = 18.55281 33.81883 26.18582
#
# Velocity S-wave (km/s) = 2.79402 3.77228 3.31939
# Velocity P-wave (km/s) = 4.27797 5.92626 5.16825
#
# Compressibility (1/GPa) = 0.05331442
#
# Stress axis : x y z
#
# Youngs Moduli (GPa) = 49.12653 66.65652 37.37483
#
# Poissons Ratio (x) = 0.27321 0.12750
# Poissons Ratio (y) = 0.20136 -0.11626
# Poissons Ratio (z) = 0.16759 -0.20734
#
# Static dielectric constant tensor:
#      x y z
#    x 1.893770 0.000000 -0.002400 
#    y 0.000000 1.865980 0.000000 
#    z -0.002400 0.000000 1.947880 
# 
# From -- ./inp_files/55150.got.cif
#   From: 2010.05.17/outbox.cif.g08.bks.cpg/sg5_28_cif.got.tgz:55150.got - 2010.06.03 18:56:24.
