data_PCOD9123268
_publ_section_title
;
Structure prediction by ZEFSAII (Michael W. Deem and Ramdas Pophale) SiO2 
 PCOD9123268
Probable space group: C 2
;
_chemical_formula_sum "Si O2"
_cell_formula_units_Z 32
_cell_length_a 21.840080
_cell_length_b 8.169216
_cell_length_c 19.930668
_cell_angle_alpha 90.000000
_cell_angle_beta 18.626645
_cell_angle_gamma 90.000000
_cell_volume 1135.772656
_symmetry_space_group_name_H-M "C 2"
_symmetry_group_IT_number 5
_symmetry_cell_setting 'monoclinic'
loop_
_space_group_symop_operation_xyz
x,y,z
-x,y,-z
1/2+x,1/2+y,z
1/2-x,1/2+y,-z
loop_
_atom_site_type_symbol
_atom_site_label
_atom_site_fract_x
_atom_site_fract_y
_atom_site_fract_z
Si Si1 0.268981 0.279500 0.752454
Si Si2 0.213123 0.595776 0.139188
Si Si3 0.179486 0.621173 0.669200
Si Si4 0.152689 0.903087 0.122577
Si Si5 0.275424 0.249357 0.247369
Si Si6 0.240435 0.612480 0.865062
Si Si7 0.758616 0.588038 0.638919
Si Si8 0.786494 0.287424 0.433650
O O1 0.500000 0.283304 0.500000
O O2 0.214409 0.133126 0.861023
O O3 0.216040 0.448486 0.843789
O O4 0.195170 0.232212 0.755782
O O5 0.265983 0.755493 0.040072
O O6 0.985071 0.592921 0.388234
O O7 0.267317 0.452086 0.032617
O O8 0.275677 0.614121 0.642552
O O9 0.130524 0.453737 0.681432
O O10 0.306038 0.734314 0.489590
O O11 0.964812 0.686764 0.901878
O O12 0.938591 0.835072 0.338958
O O13 0.162048 0.048177 0.168355
O O14 0.174375 0.236276 0.279517
O O15 0.267787 0.419816 0.294658
O O16 0.500000 0.221033 0.000000
O O17 0.667008 0.632926 0.662445
#
# Coordination Sequence:
#
# PCOD9123268 Si02
#       8
#     4   4   4   4   4   4   4   4
#     4   9  19  36  57  85 119 154 200 253 307 364
#     4   9  20  35  56  87 120 153 198 255 310 364
#     4  11  24  42  61  90 127 164 205 255 310 373
#     4  10  21  39  63  90 122 160 207 260 309 365
#     4  10  23  39  59  89 124 160 207 258 308 373
#     4  10  21  40  62  87 123 163 205 256 310 367
#     4  10  20  38  59  86 120 158 204 255 305 364
#     4  11  24  41  64  90 125 166 209 258 308 372
#
# _framework density 28.174654
#
# number of rings (size 3 to 8) (size 9 to 14) (size 15 to 20)
#    0.000    2.000    0.000    3.750    0.000    7.000 
#    0.000    5.625    0.000    0.000    0.000    0.000 
#    0.000    0.000    0.000    0.000    0.000    0.000 
#
# Total GULP energy -89603.483844 kJ/mol
# GULP energy per Si atom -5600.217740 kJ/mol
# Density = 2.811053 g / cm^3
# Si number density = 28.174654 Si / 1000 Ang^3
#
#
#
# Elastic Constant Matrix: (Units=GPa)
#
#
# Indices 1 2 3 4 5 6 
#
# 1 129.0106 33.0677 52.6601 -0.0007 35.8724 0.0001
# 2 33.0677 112.2711 33.0620 -0.0010 32.9266 0.0006
# 3 52.6601 33.0620 127.8931 -0.0008 44.3791 0.0009
# 4 -0.0007 -0.0010 -0.0008 59.3443 0.0008 20.3452
# 5 35.8724 32.9266 44.3791 0.0008 52.6272 -0.0004
# 6 0.0001 0.0006 0.0009 20.3452 -0.0004 51.4255
#
#
#
# Elastic Compliance Matrix: (Units=1/GPa)
#
#
# Indices 1 2 3 4 5 6 
#
# 1 0.010198 -0.001039 -0.002465 0.000000 -0.004222 0.000000
# 2 -0.001039 0.011052 -0.000389 0.000000 -0.005878 0.000000
# 3 -0.002465 -0.000389 0.011687 0.000000 -0.007931 0.000000
# 4 0.000000 0.000000 0.000000 0.019495 -0.000001 -0.007713
# 5 -0.004222 -0.005878 -0.007931 -0.000001 0.032245 0.000001
# 6 0.000000 0.000000 0.000000 -0.007713 0.000001 0.022497
#
#
# Mechanical properties :
#
#
# Convention : Reuss Voigt Hill
#
# Bulk Modulus (GPa) = 39.76423 67.41717 53.59070
# Shear Modulus (GPa) = 40.53685 49.37173 44.95429
#
# Velocity S-wave (km/s) = 3.79723 4.19064 3.99878
# Velocity P-wave (km/s) = 5.77662 6.88444 6.35472
#
# Compressibility (1/GPa) = 0.02514823
#
# Stress axis : x y z
#
# Youngs Moduli (GPa) = 98.05858 90.48446 85.56570
#
# Poissons Ratio (x) = 0.09405 0.21094
# Poissons Ratio (y) = 0.10193 0.03332
# Poissons Ratio (z) = 0.24174 0.03524
#
# Static dielectric constant tensor:
#      x y z
#    x 2.166850 0.000000 -0.016470 
#    y 0.000000 2.250480 0.000000 
#    z -0.016470 0.000000 2.189990 
# 
# From -- ./inp_files/67576.got.cif
#   From: 2010.05.17/outbox.cif.g08.bks.cpg/sg5_34_cif.got.tgz:67576.got - 2010.06.03 18:56:24.
