data_PCOD9123281
_publ_section_title
;
Structure prediction by ZEFSAII (Michael W. Deem and Ramdas Pophale) SiO2 
 PCOD9123281
Probable space group: C 2
;
_chemical_formula_sum "Si O2"
_cell_formula_units_Z 28
_cell_length_a 30.923926
_cell_length_b 8.633534
_cell_length_c 8.969260
_cell_angle_alpha 90.000000
_cell_angle_beta 143.253661
_cell_angle_gamma 90.000000
_cell_volume 1432.648132
_symmetry_space_group_name_H-M "C 2"
_symmetry_group_IT_number 5
_symmetry_cell_setting 'monoclinic'
loop_
_space_group_symop_operation_xyz
x,y,z
-x,y,-z
1/2+x,1/2+y,z
1/2-x,1/2+y,-z
loop_
_atom_site_type_symbol
_atom_site_label
_atom_site_fract_x
_atom_site_fract_y
_atom_site_fract_z
Si Si1 0.137662 0.556800 0.436196
Si Si2 0.683812 0.553343 0.556891
Si Si3 0.180707 0.826309 0.779713
Si Si4 0.397781 0.322923 0.882392
Si Si5 0.525310 0.485307 0.400295
Si Si6 0.553647 0.765167 0.287217
Si Si7 0.266382 0.321839 0.741406
O O1 0.166688 0.673754 0.643244
O O2 0.104955 0.657426 0.208809
O O3 0.077794 0.444272 0.346447
O O4 0.205428 0.454893 0.561836
O O5 0.722103 0.447918 0.786665
O O6 0.632540 0.439973 0.324673
O O7 0.629894 0.679093 0.475964
O O8 0.736024 0.656435 0.601401
O O9 0.104997 0.913116 0.604365
O O10 0.218460 0.800491 0.040924
O O11 0.340569 0.343721 0.858713
O O12 0.474307 0.381365 0.153272
O O13 0.500000 0.473920 0.500000
O O14 0.521550 0.665015 0.335173
O O15 0.500000 0.740072 0.000000
#
# Coordination Sequence:
#
# PCOD9123281 Si02
#       7
#     4   4   4   4   4   4   4
#     4  10  24  37  61  92 117 161 202 251 293 352
#     4   9  20  35  58  82 113 158 196 240 291 355
#     4  10  21  37  61  85 121 156 201 245 293 362
#     4  11  21  38  60  88 121 153 199 249 298 357
#     4  11  22  40  61  89 117 165 199 245 312 352
#     4  10  20  38  60  84 115 152 206 246 293 353
#     4  11  20  38  58  88 122 154 199 241 301 352
#
# _framework density 19.544226999999999
#
# number of rings (size 3 to 8) (size 9 to 14) (size 15 to 20)
#    0.000    1.714    2.857    1.714    2.000    0.000 
#    0.000    2.143    0.000    0.000    0.000    0.000 
#    0.000    0.000    0.000    0.000    0.000    0.000 
#
# Total GULP energy -78017.221913 kJ/mol
# GULP energy per Si atom -5572.658708 kJ/mol
# Density = 1.949974 g / cm^3
# Si number density = 19.544227 Si / 1000 Ang^3
#
#
#
# Elastic Constant Matrix: (Units=GPa)
#
#
# Indices 1 2 3 4 5 6 
#
# 1 43.0142 25.5824 5.1551 0.0000 -6.1612 0.0000
# 2 25.5824 120.5064 31.7811 0.0000 -6.3952 0.0000
# 3 5.1551 31.7811 73.0475 0.0000 -7.2773 0.0000
# 4 0.0000 0.0000 0.0000 16.3263 0.0000 -1.4740
# 5 -6.1612 -6.3952 -7.2773 0.0000 30.4399 0.0000
# 6 0.0000 0.0000 0.0000 -1.4740 0.0000 23.7388
#
#
#
# Elastic Compliance Matrix: (Units=1/GPa)
#
#
# Indices 1 2 3 4 5 6 
#
# 1 0.027233 -0.005821 0.001063 0.000000 0.004544 0.000000
# 2 -0.005821 0.010649 -0.004217 0.000000 0.000051 0.000000
# 3 0.001063 -0.004217 0.015758 0.000000 0.003096 0.000000
# 4 0.000000 0.000000 0.000000 0.061596 0.000000 0.003825
# 5 0.004544 0.000051 0.003096 0.000000 0.034522 0.000000
# 6 0.000000 0.000000 0.000000 0.003825 0.000000 0.042363
#
#
# Mechanical properties :
#
#
# Convention : Reuss Voigt Hill
#
# Bulk Modulus (GPa) = 28.01848 40.17839 34.09843
# Shear Modulus (GPa) = 22.52582 25.70429 24.11505
#
# Velocity S-wave (km/s) = 3.39861 3.63048 3.51646
# Velocity P-wave (km/s) = 5.45599 6.17869 5.82855
#
# Compressibility (1/GPa) = 0.03569074
#
# Stress axis : x y z
#
# Youngs Moduli (GPa) = 36.71973 93.90640 63.45988
#
# Poissons Ratio (x) = 0.54660 -0.06747
# Poissons Ratio (y) = 0.21373 0.26762
# Poissons Ratio (z) = -0.03904 0.39602
#
# Static dielectric constant tensor:
#      x y z
#    x 1.723160 0.000000 0.010690 
#    y 0.000000 1.741770 0.000000 
#    z 0.010690 0.000000 1.676230 
# 
# From -- ./inp_files/28763.got.cif
#   From: 2010.05.17/outbox.cif.g08.bks.cpg/sg5_15_cif.got.tgz:28763.got - 2010.06.03 18:56:24.
