data_PCOD9123054
_publ_section_title
;
Structure prediction by ZEFSAII (Michael W. Deem and Ramdas Pophale) SiO2 
 PCOD9123054
Probable space group: C 2
;
_chemical_formula_sum "Si O2"
_cell_formula_units_Z 30
_cell_length_a 18.029225
_cell_length_b 13.423307
_cell_length_c 6.497273
_cell_angle_alpha 90.000000
_cell_angle_beta 65.506935
_cell_angle_gamma 90.000000
_cell_volume 1430.917376
_symmetry_space_group_name_H-M "C 2"
_symmetry_group_IT_number 5
_symmetry_cell_setting 'monoclinic'
loop_
_space_group_symop_operation_xyz
x,y,z
-x,y,-z
1/2+x,1/2+y,z
1/2-x,1/2+y,-z
loop_
_atom_site_type_symbol
_atom_site_label
_atom_site_fract_x
_atom_site_fract_y
_atom_site_fract_z
Si Si1 0.000000 0.925400 0.500000
Si Si2 0.718272 0.038139 0.642344
Si Si3 0.099615 0.051388 0.720799
Si Si4 0.173299 0.370151 0.998045
Si Si5 0.898163 0.278563 0.302372
Si Si6 0.261944 0.254372 0.232852
Si Si7 0.417317 0.968525 0.520331
Si Si8 0.579940 0.375756 0.020610
O O1 0.945602 0.990102 0.406446
O O2 0.937756 0.865798 0.717903
O O3 0.803439 0.046754 0.425781
O O4 0.721889 0.944813 0.793088
O O5 0.642549 0.022224 0.573339
O O6 0.711192 0.140602 0.776387
O O7 0.071980 0.165566 0.734588
O O8 0.085155 0.992544 0.950308
O O9 0.110112 0.316515 0.920030
O O10 0.223329 0.285150 0.058726
O O11 0.133743 0.437538 0.220673
O O12 0.807951 0.275250 0.515695
O O13 0.942792 0.364328 0.379691
O O14 0.340275 0.324379 0.159331
O O15 0.500000 0.021120 0.500000
O O16 0.500000 0.334455 0.000000
#
# Coordination Sequence:
#
# PCOD9123054 Si02
#       8
#     2   4   4   4   4   4   4   4
#     4  10  22  36  58  90 124 166 198 244 316 368
#     4  10  22  39  63  92 120 162 210 257 303 371
#     4  10  20  37  60  89 124 154 200 253 309 363
#     4  10  20  38  61  88 117 161 199 251 308 361
#     4   9  21  36  60  92 118 155 202 256 304 370
#     4  10  21  39  63  87 121 157 210 254 305 369
#     4  10  22  40  57  86 124 161 206 251 306 361
#     4  10  21  38  56  85 123 161 198 251 304 359
#
# _framework density 20.965572000000002
#
# number of rings (size 3 to 8) (size 9 to 14) (size 15 to 20)
#    0.000    2.133    0.000    3.200    0.933    9.600 
#    7.200    0.000    1.467    0.000    0.000    0.000 
#    0.000    0.000    0.000    0.000    0.000    0.000 
#
# Total GULP energy -83713.474574 kJ/mol
# GULP energy per Si atom -5580.898305 kJ/mol
# Density = 2.091785 g / cm^3
# Si number density = 20.965572 Si / 1000 Ang^3
#
#
#
# Elastic Constant Matrix: (Units=GPa)
#
#
# Indices 1 2 3 4 5 6 
#
# 1 94.1976 11.4676 22.8504 0.0000 10.1416 0.0000
# 2 11.4676 62.5320 18.7401 0.0000 5.4959 0.0000
# 3 22.8504 18.7401 87.8732 0.0000 13.1185 0.0000
# 4 0.0000 0.0000 0.0000 22.1896 0.0000 -1.6619
# 5 10.1416 5.4959 13.1185 0.0000 31.0898 0.0000
# 6 0.0000 0.0000 0.0000 -1.6619 0.0000 2.8501
#
#
#
# Elastic Compliance Matrix: (Units=1/GPa)
#
#
# Indices 1 2 3 4 5 6 
#
# 1 0.011616 -0.001190 -0.002383 0.000000 -0.002573 0.000000
# 2 -0.001190 0.017279 -0.003178 0.000000 -0.001325 0.000000
# 3 -0.002383 -0.003178 0.013316 0.000000 -0.004280 0.000000
# 4 0.000000 0.000000 0.000000 0.047124 0.000000 0.027479
# 5 -0.002573 -0.001325 -0.004280 0.000000 0.035045 0.000000
# 6 0.000000 0.000000 0.000000 0.027479 0.000000 0.366892
#
#
# Mechanical properties :
#
#
# Convention : Reuss Voigt Hill
#
# Bulk Modulus (GPa) = 34.83044 38.96877 36.89960
# Shear Modulus (GPa) = 9.72114 23.99553 16.85833
#
# Velocity S-wave (km/s) = 2.15564 3.38675 2.83874
# Velocity P-wave (km/s) = 4.77964 5.82416 5.32756
#
# Compressibility (1/GPa) = 0.02871052
#
# Stress axis : x y z
#
# Youngs Moduli (GPa) = 86.08899 57.87425 75.09639
#
# Poissons Ratio (x) = 0.06887 0.17893
# Poissons Ratio (y) = 0.10244 0.23863
# Poissons Ratio (z) = 0.20512 0.18390
#
# Static dielectric constant tensor:
#      x y z
#    x 1.772870 0.000000 -0.021370 
#    y 0.000000 1.756040 0.000000 
#    z -0.021370 0.000000 1.761340 
# 
# From -- ./inp_files/8646.got.cif
#   From: 2010.05.17/outbox.cif.g08.bks.cpg/sg5_5_cif.got.tgz:8646.got - 2010.06.03 18:56:24.
