data_PCOD9123763
_publ_section_title
;
Structure prediction by ZEFSAII (Michael W. Deem and Ramdas Pophale) SiO2 
 PCOD9123763
Probable space group: C 2
;
_chemical_formula_sum "Si O2"
_cell_formula_units_Z 32
_cell_length_a 13.715577
_cell_length_b 16.165553
_cell_length_c 18.144361
_cell_angle_alpha 90.000000
_cell_angle_beta 155.935936
_cell_angle_gamma 90.000000
_cell_volume 1640.395828
_symmetry_space_group_name_H-M "C 2"
_symmetry_group_IT_number 5
_symmetry_cell_setting 'monoclinic'
loop_
_space_group_symop_operation_xyz
x,y,z
-x,y,-z
1/2+x,1/2+y,z
1/2-x,1/2+y,-z
loop_
_atom_site_type_symbol
_atom_site_label
_atom_site_fract_x
_atom_site_fract_y
_atom_site_fract_z
Si Si1 0.666380 0.806210 0.044438
Si Si2 0.809549 0.867942 0.565885
Si Si3 0.236928 0.515548 0.618590
Si Si4 0.620697 0.470506 0.004230
Si Si5 0.579045 0.653077 0.787782
Si Si6 0.882307 0.633401 0.132654
Si Si7 0.011676 0.341512 0.230560
Si Si8 0.599808 0.696860 0.486778
O O1 0.756756 0.715958 0.079131
O O2 0.907485 0.858349 0.225952
O O3 0.500000 0.796809 0.000000
O O4 0.512915 0.848493 0.873700
O O5 0.697983 0.946866 0.529417
O O6 0.744360 0.871297 0.434700
O O7 0.685537 0.786428 0.515537
O O8 0.371623 0.592309 0.674052
O O9 0.000000 0.539338 0.500000
O O10 0.416736 0.473867 0.801312
O O11 0.775725 0.552903 0.097949
O O12 0.787913 0.391367 0.109278
O O13 0.500000 0.471194 0.000000
O O14 0.515076 0.745343 0.769046
O O15 0.574031 0.657517 0.695498
O O16 0.812104 0.629794 0.997183
O O17 0.161056 0.642392 0.340697
O O18 0.500000 0.706317 0.500000
#
# Coordination Sequence:
#
# PCOD9123763 Si02
#       8
#     4   4   4   4   4   4   4   4
#     4  10  20  40  62  85 125 165 202 246 306 367
#     4  10  21  39  61  90 124 153 206 263 296 362
#     4  11  22  39  66  94 125 157 200 264 315 352
#     4  11  22  37  65  96 121 158 201 258 317 354
#     4   9  22  41  56  88 127 156 197 251 301 365
#     4   9  21  39  60  89 124 153 204 260 297 363
#     4  10  21  41  58  89 127 156 202 249 301 370
#     4  10  21  38  62  87 119 166 204 243 309 361
#
# _framework density 19.507486
#
# number of rings (size 3 to 8) (size 9 to 14) (size 15 to 20)
#    0.000    2.000    1.250    1.500    3.500    2.000 
#   11.250    1.250    0.000    0.000    0.000    0.000 
#    0.000    0.000    0.000    0.000    0.000    0.000 
#
# Total GULP energy -89286.359519 kJ/mol
# GULP energy per Si atom -5580.397470 kJ/mol
# Density = 1.946309 g / cm^3
# Si number density = 19.507486 Si / 1000 Ang^3
#
#
#
# Elastic Constant Matrix: (Units=GPa)
#
#
# Indices 1 2 3 4 5 6 
#
# 1 95.5728 6.3206 53.2420 -0.1097 -29.6756 0.0125
# 2 6.3206 60.1186 22.5154 0.0411 -8.1808 0.0043
# 3 53.2420 22.5154 89.8023 0.3422 -35.7601 -0.0266
# 4 -0.1097 0.0411 0.3422 70.8581 0.1594 -14.8610
# 5 -29.6756 -8.1808 -35.7601 0.1594 27.3610 -0.0134
# 6 0.0125 0.0043 -0.0266 -14.8610 -0.0134 12.1537
#
#
#
# Elastic Compliance Matrix: (Units=1/GPa)
#
#
# Indices 1 2 3 4 5 6 
#
# 1 0.017315 0.002075 -0.006383 0.000037 0.011058 0.000025
# 2 0.002075 0.018622 -0.005809 0.000021 0.000225 0.000004
# 3 -0.006383 -0.005809 0.026961 -0.000237 0.026579 -0.000193
# 4 0.000037 0.000021 -0.000237 0.018983 -0.000363 0.023210
# 5 0.011058 0.000225 0.026579 -0.000363 0.083350 -0.000305
# 6 0.000025 0.000004 -0.000193 0.023210 -0.000305 0.110659
#
#
# Mechanical properties :
#
#
# Convention : Reuss Voigt Hill
#
# Bulk Modulus (GPa) = 23.43907 45.51664 34.47786
# Shear Modulus (GPa) = 16.11106 32.96895 24.54001
#
# Velocity S-wave (km/s) = 2.87695 4.11550 3.55065
# Velocity P-wave (km/s) = 4.80388 6.77987 5.87554
#
# Compressibility (1/GPa) = 0.04266381
#
# Stress axis : x y z
#
# Youngs Moduli (GPa) = 57.75211 53.69992 37.09012
#
# Poissons Ratio (x) = -0.11141 0.23674
# Poissons Ratio (y) = -0.11982 0.21547
# Poissons Ratio (z) = 0.36862 0.31196
#
# Static dielectric constant tensor:
#      x y z
#    x 1.621900 0.000100 -0.030650 
#    y 0.000100 1.659990 -0.000070 
#    z -0.030650 -0.000070 1.717570 
# 
# From -- ./inp_files/53466.got.cif
#   From: 2010.05.17/outbox.cif.g08.bks.cpg/sg5_27_cif.got.tgz:53466.got - 2010.06.03 18:56:24.
