data_PCOD9123560
_publ_section_title
;
Structure prediction by ZEFSAII (Michael W. Deem and Ramdas Pophale) SiO2 
 PCOD9123560
Probable space group: C 2
;
_chemical_formula_sum "Si O2"
_cell_formula_units_Z 24
_cell_length_a 17.210059
_cell_length_b 8.598999
_cell_length_c 23.527978
_cell_angle_alpha 90.000000
_cell_angle_beta 18.767435
_cell_angle_gamma 90.000000
_cell_volume 1120.219638
_symmetry_space_group_name_H-M "C 2"
_symmetry_group_IT_number 5
_symmetry_cell_setting 'monoclinic'
loop_
_space_group_symop_operation_xyz
x,y,z
-x,y,-z
1/2+x,1/2+y,z
1/2-x,1/2+y,-z
loop_
_atom_site_type_symbol
_atom_site_label
_atom_site_fract_x
_atom_site_fract_y
_atom_site_fract_z
Si Si1 0.475542 0.860390 0.372882
Si Si2 0.381458 0.369013 0.900581
Si Si3 0.216229 0.534734 0.306006
Si Si4 0.567106 0.585194 0.675701
Si Si5 0.793021 0.141960 0.598340
Si Si6 0.177073 0.298346 0.696796
O O1 0.556437 0.734585 0.269313
O O2 0.360350 0.739255 0.496812
O O3 0.662033 0.962673 0.281540
O O4 0.257984 0.980136 0.507696
O O5 0.532675 0.465667 0.842932
O O6 0.404744 0.465693 0.825019
O O7 0.529846 0.207733 0.795972
O O8 0.107578 0.332118 0.103198
O O9 0.243758 0.720122 0.298393
O O10 0.000000 0.490144 0.500000
O O11 0.723034 0.669994 0.616667
O O12 0.000000 0.178749 0.500000
O O13 0.791431 0.957806 0.597994
#
# Coordination Sequence:
#
# PCOD9123560 Si02
#       6
#     4   4   4   4   4   4
#     4  11  20  39  61  92 130 161 207 269 311 366
#     4  10  20  39  60  91 125 160 203 254 312 378
#     4  11  18  40  63  91 122 164 216 255 301 377
#     4  10  22  37  62  92 127 161 205 261 324 361
#     4  11  19  33  61  92 116 160 210 254 299 365
#     4  11  22  35  63  95 121 162 212 256 312 376
#
# _framework density 21.424368999999999
#
# number of rings (size 3 to 8) (size 9 to 14) (size 15 to 20)
#    0.000    1.333    6.667    3.500    0.000    0.000 
#    0.000    0.833    0.000    0.000    0.000    0.000 
#    0.000    0.000    0.000    0.000    0.000    0.000 
#
# Total GULP energy -66823.763591 kJ/mol
# GULP energy per Si atom -5568.646966 kJ/mol
# Density = 2.137561 g / cm^3
# Si number density = 21.424369 Si / 1000 Ang^3
#
#
#
# Elastic Constant Matrix: (Units=GPa)
#
#
# Indices 1 2 3 4 5 6 
#
# 1 84.7433 33.7840 20.4559 0.0088 -7.8168 0.0006
# 2 33.7840 153.9862 12.6143 0.0328 -1.3405 0.0060
# 3 20.4559 12.6143 53.3890 0.0144 -17.4254 0.0153
# 4 0.0088 0.0328 0.0144 28.6003 0.0028 -1.1505
# 5 -7.8168 -1.3405 -17.4254 0.0028 18.1529 -0.0009
# 6 0.0006 0.0060 0.0153 -1.1505 -0.0009 56.3546
#
#
#
# Elastic Compliance Matrix: (Units=1/GPa)
#
#
# Indices 1 2 3 4 5 6 
#
# 1 0.014059 -0.002730 -0.004123 0.000001 0.001894 0.000001
# 2 -0.002730 0.007180 -0.001254 -0.000007 -0.001849 -0.000001
# 3 -0.004123 -0.001254 0.029120 -0.000015 0.026085 -0.000008
# 4 0.000001 -0.000007 -0.000015 0.034993 -0.000020 0.000714
# 5 0.001894 -0.001849 0.026085 -0.000020 0.080807 -0.000006
# 6 0.000001 -0.000001 -0.000008 0.000714 -0.000006 0.017759
#
#
# Mechanical properties :
#
#
# Convention : Reuss Voigt Hill
#
# Bulk Modulus (GPa) = 29.28745 47.31411 38.30078
# Shear Modulus (GPa) = 23.63908 35.63918 29.63913
#
# Velocity S-wave (km/s) = 3.32531 4.08301 3.72348
# Velocity P-wave (km/s) = 5.33324 6.66034 6.03339
#
# Compressibility (1/GPa) = 0.03414432
#
# Stress axis : x y z
#
# Youngs Moduli (GPa) = 71.12985 139.28165 34.34022
#
# Poissons Ratio (x) = 0.38027 0.14160
# Poissons Ratio (y) = 0.19420 0.04306
# Poissons Ratio (z) = 0.29329 0.17463
#
# Static dielectric constant tensor:
#      x y z
#    x 1.816720 0.000000 -0.013170 
#    y 0.000000 1.847300 0.000010 
#    z -0.013170 0.000010 1.774050 
# 
# From -- ./inp_files/32457.got.cif
#   From: 2010.05.17/outbox.cif.g08.bks.cpg/sg5_17_cif.got.tgz:32457.got - 2010.06.03 18:56:24.
