data_PCOD9123036
_publ_section_title
;
Structure prediction by ZEFSAII (Michael W. Deem and Ramdas Pophale) SiO2 
 PCOD9123036
Probable space group: C 2
;
_chemical_formula_sum "Si O2"
_cell_formula_units_Z 20
_cell_length_a 27.779547
_cell_length_b 4.996007
_cell_length_c 18.447482
_cell_angle_alpha 90.000000
_cell_angle_beta 17.790229
_cell_angle_gamma 90.000000
_cell_volume 782.245935
_symmetry_space_group_name_H-M "C 2"
_symmetry_group_IT_number 5
_symmetry_cell_setting 'monoclinic'
loop_
_space_group_symop_operation_xyz
x,y,z
-x,y,-z
1/2+x,1/2+y,z
1/2-x,1/2+y,-z
loop_
_atom_site_type_symbol
_atom_site_label
_atom_site_fract_x
_atom_site_fract_y
_atom_site_fract_z
Si Si1 0.381696 0.959490 0.736058
Si Si2 0.381140 0.998659 0.057983
Si Si3 0.219777 0.682194 0.585348
Si Si4 0.179354 0.996392 0.776421
Si Si5 0.834278 0.458752 0.962268
O O1 0.500000 0.912200 0.500000
O O2 0.234800 0.758067 0.938746
O O3 0.314990 0.259319 0.827989
O O4 0.433643 0.918910 0.745828
O O5 0.558247 0.026721 0.833703
O O6 0.285198 0.786790 0.243327
O O7 0.399378 0.912558 0.949208
O O8 0.314117 0.292843 0.165936
O O9 0.318873 0.428781 0.414629
O O10 0.273680 0.851964 0.577073
O O11 0.000000 0.007744 0.000000
#
# Coordination Sequence:
#
# PCOD9123036 Si02
#       5
#     4   4   4   4   4
#     4  10  21  42  67  92 125 164 201 255 331 386
#     4  11  21  39  60  88 122 165 215 249 307 381
#     4  11  22  38  59  89 126 167 214 263 312 358
#     4  10  20  37  60  78 118 171 202 243 308 370
#     4  10  22  40  65  93 128 162 204 264 314 377
#
# _framework density 25.567408
#
# number of rings (size 3 to 8) (size 9 to 14) (size 15 to 20)
#    0.000    1.600    0.000    7.200    0.000    0.000 
#   10.800    0.000    0.000    0.000    0.000    0.000 
#    0.000    0.000    0.000    0.000    0.000    0.000 
#
# Total GULP energy -55854.598612 kJ/mol
# GULP energy per Si atom -5585.459861 kJ/mol
# Density = 2.550922 g / cm^3
# Si number density = 25.567408 Si / 1000 Ang^3
#
#
#
# Elastic Constant Matrix: (Units=GPa)
#
#
# Indices 1 2 3 4 5 6 
#
# 1 126.2748 23.3287 36.9457 -0.0007 42.1146 0.0004
# 2 23.3287 125.9271 8.3549 -0.0134 17.6856 0.0033
# 3 36.9457 8.3549 95.5380 -0.0064 42.6437 0.0005
# 4 -0.0007 -0.0134 -0.0064 33.4341 0.0009 18.3489
# 5 42.1146 17.6856 42.6437 0.0009 38.0321 0.0007
# 6 0.0004 0.0033 0.0005 18.3489 0.0007 31.3693
#
#
#
# Elastic Compliance Matrix: (Units=1/GPa)
#
#
# Indices 1 2 3 4 5 6 
#
# 1 0.012918 -0.000143 0.002747 0.000002 -0.017318 -0.000001
# 2 -0.000143 0.008701 0.002061 0.000007 -0.006199 -0.000005
# 3 0.002747 0.002061 0.022041 0.000009 -0.028714 -0.000005
# 4 0.000002 0.000007 0.000009 0.044051 -0.000015 -0.025767
# 5 -0.017318 -0.006199 -0.028714 -0.000015 0.080549 0.000008
# 6 -0.000001 -0.000005 -0.000005 -0.025767 0.000008 0.046950
#
#
# Mechanical properties :
#
#
# Convention : Reuss Voigt Hill
#
# Bulk Modulus (GPa) = 18.87116 53.88873 36.37995
# Shear Modulus (GPa) = 22.36702 39.17446 30.77074
#
# Velocity S-wave (km/s) = 2.96095 3.91858 3.47293
# Velocity P-wave (km/s) = 4.36882 6.44954 5.50832
#
# Compressibility (1/GPa) = 0.05299092
#
# Stress axis : x y z
#
# Youngs Moduli (GPa) = 77.41286 114.92284 45.36958
#
# Poissons Ratio (x) = 0.01645 -0.12463
# Poissons Ratio (y) = 0.01108 -0.09353
# Poissons Ratio (z) = -0.21265 -0.23691
#
# Static dielectric constant tensor:
#      x y z
#    x 2.086190 0.000000 0.024280 
#    y 0.000000 1.927020 0.000000 
#    z 0.024280 0.000000 2.059680 
# 
# From -- ./inp_files/57431.got.cif
#   From: 2010.05.17/outbox.cif.g08.bks.cpg/sg5_29_cif.got.tgz:57431.got - 2010.06.03 18:56:24.
