data_PCOD9123260
_publ_section_title
;
Structure prediction by ZEFSAII (Michael W. Deem and Ramdas Pophale) SiO2 
 PCOD9123260
Probable space group: C 2
;
_chemical_formula_sum "Si O2"
_cell_formula_units_Z 28
_cell_length_a 8.336215
_cell_length_b 12.881871
_cell_length_c 11.973247
_cell_angle_alpha 90.000000
_cell_angle_beta 112.583894
_cell_angle_gamma 90.000000
_cell_volume 1187.165301
_symmetry_space_group_name_H-M "C 2"
_symmetry_group_IT_number 5
_symmetry_cell_setting 'monoclinic'
loop_
_space_group_symop_operation_xyz
x,y,z
-x,y,-z
1/2+x,1/2+y,z
1/2-x,1/2+y,-z
loop_
_atom_site_type_symbol
_atom_site_label
_atom_site_fract_x
_atom_site_fract_y
_atom_site_fract_z
Si Si1 0.569912 0.667680 0.813321
Si Si2 0.000000 0.014494 0.000000
Si Si3 0.417541 0.885159 0.857719
Si Si4 0.047421 0.718722 0.135142
Si Si5 0.000000 0.684809 0.500000
Si Si6 0.308587 0.557077 0.607906
Si Si7 0.474892 0.356903 0.309764
Si Si8 0.153816 0.531921 0.812893
O O1 0.499315 0.774342 0.846456
O O2 0.770380 0.663131 0.835786
O O3 0.458393 0.639700 0.674816
O O4 0.532835 0.583722 0.899002
O O5 0.190753 0.972458 0.079886
O O6 0.209825 0.887138 0.794014
O O7 0.484487 0.964046 0.782744
O O8 0.500000 0.914502 0.000000
O O9 0.076830 0.807573 0.233209
O O10 0.896437 0.641835 0.141728
O O11 0.000000 0.759741 0.000000
O O12 0.842699 0.612379 0.502722
O O13 0.940848 0.764267 0.387757
O O14 0.409735 0.450385 0.608517
O O15 0.209587 0.542796 0.700373
#
# Coordination Sequence:
#
# PCOD9123260 Si02
#       8
#     4   2   4   4   2   4   4   4
#     4  11  21  42  65  99 149 183 245 295 371 439
#     4  10  20  38  58  98 142 204 222 294 356 440
#     4  12  24  40  69 112 154 200 235 306 381 468
#     4  12  22  42  71 112 152 197 239 308 372 471
#     4  12  26  58  80 100 158 200 258 336 368 440
#     4  11  26  49  75 103 142 193 252 324 365 445
#     4  12  27  50  77 111 147 197 260 305 393 443
#     4  11  23  40  68 104 153 193 250 296 378 449
#
# _framework density 23.585595999999999
#
# number of rings (size 3 to 8) (size 9 to 14) (size 15 to 20)
#    0.000    0.571    5.000    3.857    4.000    1.143 
#    7.714    0.000    0.000    0.000    0.000    0.000 
#    0.000    0.000    0.000    0.000    0.000    0.000 
#
# Total GULP energy -78269.787468 kJ/mol
# GULP energy per Si atom -5590.699105 kJ/mol
# Density = 2.353191 g / cm^3
# Si number density = 23.585596 Si / 1000 Ang^3
#
#
#
# Elastic Constant Matrix: (Units=GPa)
#
#
# Indices 1 2 3 4 5 6 
#
# 1 98.0396 25.7164 15.1485 0.0000 16.2768 0.0000
# 2 25.7164 57.6590 9.7325 0.0000 1.2251 0.0000
# 3 15.1485 9.7325 51.3534 0.0000 22.3870 0.0000
# 4 0.0000 0.0000 0.0000 21.3980 0.0000 5.5916
# 5 16.2768 1.2251 22.3870 0.0000 38.3605 0.0000
# 6 0.0000 0.0000 0.0000 5.5916 0.0000 38.5390
#
#
#
# Elastic Compliance Matrix: (Units=1/GPa)
#
#
# Indices 1 2 3 4 5 6 
#
# 1 0.012494 -0.005373 -0.000578 0.000000 -0.004793 0.000000
# 2 -0.005373 0.020330 -0.003995 0.000000 0.003962 0.000000
# 3 -0.000578 -0.003995 0.027144 0.000000 -0.015468 0.000000
# 4 0.000000 0.000000 0.000000 0.048575 0.000000 -0.007048
# 5 -0.004793 0.003962 -0.015468 0.000000 0.037003 0.000000
# 6 0.000000 0.000000 0.000000 -0.007048 0.000000 0.026970
#
#
# Mechanical properties :
#
#
# Convention : Reuss Voigt Hill
#
# Bulk Modulus (GPa) = 24.95311 34.24963 29.60137
# Shear Modulus (GPa) = 24.29931 30.08981 27.19456
#
# Velocity S-wave (km/s) = 3.21325 3.57567 3.39929
# Velocity P-wave (km/s) = 4.93654 5.62140 5.29006
#
# Compressibility (1/GPa) = 0.04007516
#
# Stress axis : x y z
#
# Youngs Moduli (GPa) = 80.03602 49.18839 36.84098
#
# Poissons Ratio (x) = 0.26430 0.02130
# Poissons Ratio (y) = 0.43005 0.14719
# Poissons Ratio (z) = 0.04627 0.19652
#
# Static dielectric constant tensor:
#      x y z
#    x 1.890700 0.000000 0.042850 
#    y 0.000000 1.935300 0.000000 
#    z 0.042850 0.000000 1.931530 
# 
# From -- ./inp_files/50799.got.cif
#   From: 2010.05.17/outbox.cif.g08.bks.cpg/sg5_26_cif.got.tgz:50799.got - 2010.06.03 18:56:24.
