data_PCOD9123063
_publ_section_title
;
Structure prediction by ZEFSAII (Michael W. Deem and Ramdas Pophale) SiO2 
 PCOD9123063
Probable space group: C 2
;
_chemical_formula_sum "Si O2"
_cell_formula_units_Z 32
_cell_length_a 13.803317
_cell_length_b 9.197413
_cell_length_c 10.644791
_cell_angle_alpha 90.000000
_cell_angle_beta 101.928458
_cell_angle_gamma 90.000000
_cell_volume 1322.225700
_symmetry_space_group_name_H-M "C 2"
_symmetry_group_IT_number 5
_symmetry_cell_setting 'monoclinic'
loop_
_space_group_symop_operation_xyz
x,y,z
-x,y,-z
1/2+x,1/2+y,z
1/2-x,1/2+y,-z
loop_
_atom_site_type_symbol
_atom_site_label
_atom_site_fract_x
_atom_site_fract_y
_atom_site_fract_z
Si Si1 0.174631 0.634850 0.228692
Si Si2 0.880859 0.169776 0.790082
Si Si3 0.630811 0.516926 0.610151
Si Si4 0.439273 0.455650 0.137803
Si Si5 0.249883 0.107872 0.030099
Si Si6 0.204096 0.919158 0.394727
Si Si7 0.591430 0.823351 0.456446
Si Si8 0.536438 0.109916 0.875100
O O1 0.258674 0.530966 0.304925
O O2 0.187617 0.788330 0.297554
O O3 0.063607 0.582985 0.228862
O O4 0.202403 0.659959 0.089165
O O5 0.811277 0.212814 0.890284
O O6 0.918764 0.280446 0.693148
O O7 0.812395 0.064604 0.687579
O O8 0.971537 0.069447 0.863666
O O9 0.569785 0.473744 0.714455
O O10 0.629933 0.410154 0.492652
O O11 0.604267 0.672430 0.541546
O O12 0.458745 0.286569 0.117278
O O13 0.337130 0.499700 0.040317
O O14 0.352379 0.055781 0.125427
O O15 0.311062 0.911195 0.484603
O O16 0.500000 0.898317 0.500000
O O17 0.500000 0.048966 0.000000
#
# Coordination Sequence:
#
# PCOD9123063 Si02
#       8
#     4   4   4   4   4   4   4   4
#     4   9  19  40  61  86 121 156 193 250 293 351
#     4  11  21  38  61  90 115 157 202 248 287 364
#     4   9  20  36  60  87 117 154 194 243 290 346
#     4  11  20  37  63  87 115 150 203 244 292 352
#     4  10  23  35  58  91 117 146 198 254 297 340
#     4  10  21  37  61  85 119 156 199 238 298 355
#     4  10  20  38  57  83 121 160 193 244 296 343
#     4  10  20  37  61  84 114 155 193 241 303 351
#
# _framework density 24.201616999999999
#
# number of rings (size 3 to 8) (size 9 to 14) (size 15 to 20)
#    0.000    2.000    2.500    1.125    3.500    0.000 
#    2.250    0.000    0.000    1.500    0.000    0.000 
#    0.000    0.000    0.000    0.000    0.000    0.000 
#
# Total GULP energy -89272.869192 kJ/mol
# GULP energy per Si atom -5579.554324 kJ/mol
# Density = 2.414653 g / cm^3
# Si number density = 24.201617 Si / 1000 Ang^3
#
#
#
# Elastic Constant Matrix: (Units=GPa)
#
#
# Indices 1 2 3 4 5 6 
#
# 1 170.8719 13.1627 50.0499 0.0000 2.9967 0.0000
# 2 13.1627 42.5542 23.4346 0.0000 -3.3280 0.0000
# 3 50.0499 23.4346 121.7888 0.0000 -28.0449 0.0000
# 4 0.0000 0.0000 0.0000 16.9380 0.0000 -1.6155
# 5 2.9967 -3.3280 -28.0449 0.0000 52.3664 0.0000
# 6 0.0000 0.0000 0.0000 -1.6155 0.0000 13.6028
#
#
#
# Elastic Compliance Matrix: (Units=1/GPa)
#
#
# Indices 1 2 3 4 5 6 
#
# 1 0.006873 -0.000521 -0.003220 0.000000 -0.002151 0.000000
# 2 -0.000521 0.026389 -0.005099 0.000000 -0.001024 0.000000
# 3 -0.003220 -0.005099 0.011958 0.000000 0.006264 0.000000
# 4 0.000000 0.000000 0.000000 0.059715 0.000000 0.007092
# 5 -0.002151 -0.001024 0.006264 0.000000 0.022509 0.000000
# 6 0.000000 0.000000 0.000000 0.007092 0.000000 0.074356
#
#
# Mechanical properties :
#
#
# Convention : Reuss Voigt Hill
#
# Bulk Modulus (GPa) = 36.31143 56.50102 46.40623
# Shear Modulus (GPa) = 21.86649 33.15262 27.50956
#
# Velocity S-wave (km/s) = 3.00911 3.70517 3.37513
# Velocity P-wave (km/s) = 5.20666 6.45763 5.86559
#
# Compressibility (1/GPa) = 0.02753953
#
# Stress axis : x y z
#
# Youngs Moduli (GPa) = 145.49163 37.89487 83.62781
#
# Poissons Ratio (x) = 0.01975 0.26925
# Poissons Ratio (y) = 0.07583 0.42645
# Poissons Ratio (z) = 0.46842 0.19324
#
# Static dielectric constant tensor:
#      x y z
#    x 2.030680 0.000000 -0.038910 
#    y 0.000000 1.925780 0.000000 
#    z -0.038910 0.000000 2.011500 
# 
# From -- ./inp_files/39210.got.cif
#   From: 2010.05.17/outbox.cif.g08.bks.cpg/sg5_20_cif.got.tgz:39210.got - 2010.06.03 18:56:24.
