data_PCOD9123858
_publ_section_title
;
Structure prediction by ZEFSAII (Michael W. Deem and Ramdas Pophale) SiO2 
 PCOD9123858
Probable space group: C 2
;
_chemical_formula_sum "Si O2"
_cell_formula_units_Z 32
_cell_length_a 13.138907
_cell_length_b 14.464969
_cell_length_c 18.035612
_cell_angle_alpha 90.000000
_cell_angle_beta 151.777190
_cell_angle_gamma 90.000000
_cell_volume 1620.982765
_symmetry_space_group_name_H-M "C 2"
_symmetry_group_IT_number 5
_symmetry_cell_setting 'monoclinic'
loop_
_space_group_symop_operation_xyz
x,y,z
-x,y,-z
1/2+x,1/2+y,z
1/2-x,1/2+y,-z
loop_
_atom_site_type_symbol
_atom_site_label
_atom_site_fract_x
_atom_site_fract_y
_atom_site_fract_z
Si Si1 0.956383 0.054760 0.553091
Si Si2 0.146525 0.970281 0.965334
Si Si3 0.467778 0.074475 0.280161
Si Si4 0.702918 0.734177 0.750913
Si Si5 0.741949 0.962933 0.130250
Si Si6 0.811119 0.751429 0.986446
Si Si7 0.356035 0.942480 0.335683
Si Si8 0.715739 0.742526 0.093736
O O1 0.045731 0.159461 0.615009
O O2 0.000000 0.014291 0.500000
O O3 0.701941 0.057160 0.398726
O O4 0.085569 0.000378 0.700122
O O5 0.201002 0.863231 0.018838
O O6 0.279070 0.031409 0.108021
O O7 0.213716 0.995835 0.924943
O O8 0.889412 0.973043 0.807140
O O9 0.411560 0.181971 0.250155
O O10 0.456821 0.020411 0.349378
O O11 0.710961 0.717279 0.844831
O O12 0.645206 0.841456 0.702794
O O13 0.937404 0.724205 0.862312
O O14 0.751391 0.851279 0.130497
O O15 0.500000 0.989223 0.000000
O O16 0.712235 0.723935 0.002456
O O17 0.500000 0.933068 0.500000
O O18 0.500000 0.716071 0.000000
#
# Coordination Sequence:
#
# PCOD9123858 Si02
#       8
#     4   4   4   4   4   4   4   4
#     4  12  26  40  60  94 129 165 206 256 314 372
#     4  10  20  40  66  92 121 160 209 259 310 368
#     4  12  24  40  62  93 127 165 208 253 310 373
#     4  10  21  38  64  97 125 157 203 266 326 368
#     4  10  23  42  64  88 123 168 212 250 305 368
#     4   9  19  38  66  95 119 156 212 261 316 366
#     4  11  22  40  65  96 128 157 202 266 321 368
#     4  10  22  41  64  89 123 168 212 252 301 375
#
# _framework density 19.741111
#
# number of rings (size 3 to 8) (size 9 to 14) (size 15 to 20)
#    0.000    1.500    1.250    3.750    3.500    3.000 
#    2.250    0.625    0.000    0.000    0.000    0.000 
#    0.000    0.000    0.000    0.000    0.000    0.000 
#
# Total GULP energy -89395.030902 kJ/mol
# GULP energy per Si atom -5587.189431 kJ/mol
# Density = 1.969618 g / cm^3
# Si number density = 19.741111 Si / 1000 Ang^3
#
#
#
# Elastic Constant Matrix: (Units=GPa)
#
#
# Indices 1 2 3 4 5 6 
#
# 1 112.5614 16.0720 9.5772 0.0034 -1.0889 -0.0007
# 2 16.0720 31.8562 11.6390 0.0082 3.8584 -0.0013
# 3 9.5772 11.6390 66.5876 0.0165 2.4150 -0.0032
# 4 0.0034 0.0082 0.0165 19.9704 0.0040 9.4253
# 5 -1.0889 3.8584 2.4150 0.0040 29.8306 -0.0013
# 6 -0.0007 -0.0013 -0.0032 9.4253 -0.0013 12.1479
#
#
#
# Elastic Compliance Matrix: (Units=1/GPa)
#
#
# Indices 1 2 3 4 5 6 
#
# 1 0.009624 -0.004763 -0.000588 0.000001 0.001015 -0.000001
# 2 -0.004763 0.036343 -0.005507 -0.000015 -0.004429 0.000013
# 3 -0.000588 -0.005507 0.016087 -0.000020 -0.000612 0.000019
# 4 0.000001 -0.000015 -0.000020 0.079005 -0.000010 -0.061298
# 5 0.001015 -0.004429 -0.000612 -0.000010 0.034182 0.000010
# 6 -0.000001 0.000013 0.000019 -0.061298 0.000010 0.129879
#
#
# Mechanical properties :
#
#
# Convention : Reuss Voigt Hill
#
# Bulk Modulus (GPa) = 24.79128 31.73129 28.26129
# Shear Modulus (GPa) = 14.69370 23.97089 19.33229
#
# Velocity S-wave (km/s) = 2.73118 3.48841 3.13276
# Velocity P-wave (km/s) = 4.74671 5.68629 5.23761
#
# Compressibility (1/GPa) = 0.04033676
#
# Stress axis : x y z
#
# Youngs Moduli (GPa) = 103.90604 27.51587 62.16136
#
# Poissons Ratio (x) = 0.13107 0.03658
# Poissons Ratio (y) = 0.49495 0.34230
# Poissons Ratio (z) = 0.06114 0.15152
#
# Static dielectric constant tensor:
#      x y z
#    x 1.698360 0.000000 0.010990 
#    y 0.000000 1.713400 0.000000 
#    z 0.010990 0.000000 1.678990 
# 
# From -- ./inp_files/60717.got.cif
#   From: 2010.05.17/outbox.cif.g08.bks.cpg/sg5_31_cif.got.tgz:60717.got - 2010.06.03 18:56:24.
