data_PCOD9123189
_publ_section_title
;
Structure prediction by ZEFSAII (Michael W. Deem and Ramdas Pophale) SiO2 
 PCOD9123189
Probable space group: C 2
;
_chemical_formula_sum "Si O2"
_cell_formula_units_Z 30
_cell_length_a 10.863265
_cell_length_b 14.916560
_cell_length_c 11.879275
_cell_angle_alpha 90.000000
_cell_angle_beta 125.179987
_cell_angle_gamma 90.000000
_cell_volume 1573.348872
_symmetry_space_group_name_H-M "C 2"
_symmetry_group_IT_number 5
_symmetry_cell_setting 'monoclinic'
loop_
_space_group_symop_operation_xyz
x,y,z
-x,y,-z
1/2+x,1/2+y,z
1/2-x,1/2+y,-z
loop_
_atom_site_type_symbol
_atom_site_label
_atom_site_fract_x
_atom_site_fract_y
_atom_site_fract_z
Si Si1 0.211471 0.186180 0.529497
Si Si2 0.855087 0.162903 0.764797
Si Si3 0.827481 0.395149 0.439468
Si Si4 0.950664 0.965414 0.852579
Si Si5 0.176563 0.986679 0.583118
Si Si6 0.457839 0.230386 0.352580
Si Si7 0.706280 0.400726 0.830686
Si Si8 0.000000 0.309618 0.000000
O O1 0.141969 0.172693 0.368234
O O2 0.168983 0.286573 0.546234
O O3 0.392361 0.189197 0.617458
O O4 0.177104 0.094882 0.577485
O O5 0.679342 0.162870 0.705210
O O6 0.920494 0.070742 0.841797
O O7 0.934917 0.246236 0.867453
O O8 0.700031 0.420974 0.279798
O O9 0.760706 0.442108 0.519120
O O10 0.000000 0.424044 0.500000
O O11 0.093721 0.957177 0.846155
O O12 0.000000 0.928749 0.000000
O O13 0.246729 0.948781 0.734800
O O14 0.000000 0.961358 0.500000
O O15 0.500000 0.262444 0.500000
O O16 0.392336 0.312644 0.248940
O O17 0.860966 0.369336 0.968132
#
# Coordination Sequence:
#
# PCOD9123189 Si02
#       8
#     4   4   4   4   4   4   4   2
#     4  11  21  38  67  99 130 164 217 287 336 377
#     4  10  20  37  65  96 125 174 224 262 321 407
#     4  12  26  42  67 108 137 169 223 286 337 387
#     4  12  25  42  65  94 140 179 212 271 340 405
#     4  12  22  41  70  95 130 175 220 274 332 391
#     4   9  18  34  65  94 125 160 215 271 324 384
#     4  11  22  43  65  91 127 178 224 265 333 396
#     4  10  22  40  64  92 124 176 230 264 306 418
#
# _framework density 19.067609000000001
#
# number of rings (size 3 to 8) (size 9 to 14) (size 15 to 20)
#    0.000    1.067    4.667    3.200    1.867    2.133 
#    0.000    0.000    1.467    0.000    0.000    0.000 
#    0.000    0.000    0.000    0.000    0.000    0.000 
#
# Total GULP energy -83693.266027 kJ/mol
# GULP energy per Si atom -5579.551068 kJ/mol
# Density = 1.902421 g / cm^3
# Si number density = 19.067609 Si / 1000 Ang^3
#
#
#
# Elastic Constant Matrix: (Units=GPa)
#
#
# Indices 1 2 3 4 5 6 
#
# 1 113.5194 31.9215 42.0395 0.0000 19.0261 0.0000
# 2 31.9215 88.7268 14.9396 0.0000 5.4324 0.0000
# 3 42.0395 14.9396 97.0514 0.0000 8.9827 0.0000
# 4 0.0000 0.0000 0.0000 21.2026 0.0000 -10.7394
# 5 19.0261 5.4324 8.9827 0.0000 32.7058 0.0000
# 6 0.0000 0.0000 0.0000 -10.7394 0.0000 -13.3885
#
#
#
# Elastic Compliance Matrix: (Units=1/GPa)
#
#
# Indices 1 2 3 4 5 6 
#
# 1 0.012243 -0.003353 -0.004288 0.000000 -0.005387 0.000000
# 2 -0.003353 0.012558 -0.000480 0.000000 -0.000003 0.000000
# 3 -0.004288 -0.000480 0.012310 0.000000 -0.000806 0.000000
# 4 0.000000 0.000000 0.000000 0.033538 0.000000 -0.026902
# 5 -0.005387 -0.000003 -0.000806 0.000000 0.033932 0.000000
# 6 0.000000 0.000000 0.000000 -0.026902 0.000000 -0.053112
#
#
# Mechanical properties :
#
#
# Convention : Reuss Voigt Hill
#
# Bulk Modulus (GPa) = 47.92148 53.01096 50.46622
# Shear Modulus (GPa) = 66.96309 22.13043 44.54676
#
# Velocity S-wave (km/s) = 5.93254 3.41050 4.83872
# Velocity P-wave (km/s) = 8.49197 6.58563 7.59882
#
# Compressibility (1/GPa) = 0.02086747
#
# Stress axis : x y z
#
# Youngs Moduli (GPa) = 81.67962 79.63117 81.23441
#
# Poissons Ratio (x) = 0.26698 0.34837
# Poissons Ratio (y) = 0.27385 0.03903
# Poissons Ratio (z) = 0.35028 0.03826
#
# Static dielectric constant tensor:
#      x y z
#    x 1.702980 0.000000 0.011600 
#    y 0.000000 1.666210 0.000000 
#    z 0.011600 0.000000 1.680080 
# 
# From -- ./inp_files/40081.got.cif
#   From: 2010.05.17/outbox.cif.g08.bks.cpg/sg5_21_cif.got.tgz:40081.got - 2010.06.03 18:56:24.
