data_PCOD9123973
_publ_section_title
;
Structure prediction by ZEFSAII (Michael W. Deem and Ramdas Pophale) SiO2 
 PCOD9123973
Probable space group: C 2
;
_chemical_formula_sum "Si O2"
_cell_formula_units_Z 22
_cell_length_a 5.554302
_cell_length_b 12.307622
_cell_length_c 13.256958
_cell_angle_alpha 90.000000
_cell_angle_beta 90.816528
_cell_angle_gamma 90.000000
_cell_volume 906.156931
_symmetry_space_group_name_H-M "C 2"
_symmetry_group_IT_number 5
_symmetry_cell_setting 'monoclinic'
loop_
_space_group_symop_operation_xyz
x,y,z
-x,y,-z
1/2+x,1/2+y,z
1/2-x,1/2+y,-z
loop_
_atom_site_type_symbol
_atom_site_label
_atom_site_fract_x
_atom_site_fract_y
_atom_site_fract_z
Si Si1 0.500000 0.790100 0.500000
Si Si2 0.020193 0.124322 0.316558
Si Si3 0.388314 0.263759 0.780555
Si Si4 0.911612 0.488157 0.219181
Si Si5 0.500000 0.942435 0.000000
Si Si6 0.172364 0.901988 0.628004
Si Si7 0.000000 0.807339 0.000000
O O1 0.507640 0.715129 0.402564
O O2 0.271340 0.865694 0.520056
O O3 0.801402 0.168047 0.245304
O O4 0.257486 0.092427 0.254152
O O5 0.984245 0.009918 0.372750
O O6 0.252474 0.380310 0.789869
O O7 0.559530 0.299971 0.688102
O O8 0.497654 0.247749 0.892108
O O9 0.106428 0.447900 0.301863
O O10 0.005551 0.504030 0.106502
O O11 0.749458 0.874535 0.003195
#
# Coordination Sequence:
#
# PCOD9123973 Si02
#       7
#     2   4   4   4   2   4   2
#     4  12  28  46  72 102 140 200 246 320 382 444
#     4  11  27  44  72 108 148 189 262 313 378 455
#     4  10  22  45  74 106 150 195 248 321 375 461
#     4  10  22  46  74 108 148 193 252 310 384 458
#     4  10  20  42  83 107 154 206 246 313 392 461
#     4  11  25  45  72 102 145 194 248 315 380 458
#     4  10  20  40  81 111 148 210 250 303 402 461
#
# _framework density 24.278352999999999
#
# number of rings (size 3 to 8) (size 9 to 14) (size 15 to 20)
#    0.000    1.455    3.636    0.000    5.091    0.727 
#    0.000    0.909   12.000    0.000    0.000    0.000 
#    0.000    0.000    0.000    0.000    0.000    0.000 
#
# Total GULP energy -61396.639652 kJ/mol
# GULP energy per Si atom -5581.512696 kJ/mol
# Density = 2.422309 g / cm^3
# Si number density = 24.278353 Si / 1000 Ang^3
#
#
#
# Elastic Constant Matrix: (Units=GPa)
#
#
# Indices 1 2 3 4 5 6 
#
# 1 107.4758 29.8967 49.4590 0.0000 -13.6101 0.0000
# 2 29.8967 143.3001 39.2813 0.0000 -14.3574 0.0000
# 3 49.4590 39.2813 144.2560 0.0000 -22.9264 0.0000
# 4 0.0000 0.0000 0.0000 27.1271 0.0000 -8.6129
# 5 -13.6101 -14.3574 -22.9264 0.0000 52.0077 0.0000
# 6 0.0000 0.0000 0.0000 -8.6129 0.0000 51.7228
#
#
#
# Elastic Compliance Matrix: (Units=1/GPa)
#
#
# Indices 1 2 3 4 5 6 
#
# 1 0.011362 -0.001339 -0.003352 0.000000 0.001126 0.000000
# 2 -0.001339 0.007777 -0.001477 0.000000 0.001146 0.000000
# 3 -0.003352 -0.001477 0.008903 0.000000 0.002640 0.000000
# 4 0.000000 0.000000 0.000000 0.038921 0.000000 0.006481
# 5 0.001126 0.001146 0.002640 0.000000 0.021003 0.000000
# 6 0.000000 0.000000 0.000000 0.006481 0.000000 0.020413
#
#
# Mechanical properties :
#
#
# Convention : Reuss Voigt Hill
#
# Bulk Modulus (GPa) = 63.66445 70.25623 66.96034
# Shear Modulus (GPa) = 39.69832 44.59784 42.14808
#
# Velocity S-wave (km/s) = 4.04806 4.29060 4.17110
# Velocity P-wave (km/s) = 6.93749 7.31753 7.13004
#
# Compressibility (1/GPa) = 0.01570735
#
# Stress axis : x y z
#
# Youngs Moduli (GPa) = 88.01277 128.58023 112.32140
#
# Poissons Ratio (x) = 0.17214 0.37650
# Poissons Ratio (y) = 0.11783 0.16586
# Poissons Ratio (z) = 0.29502 0.18987
#
# Static dielectric constant tensor:
#      x y z
#    x 2.065090 0.000000 -0.012910 
#    y 0.000000 1.937490 0.000000 
#    z -0.012910 0.000000 1.897500 
# 
# From -- ./inp_files/48727.got.cif
#   From: 2010.05.17/outbox.cif.g08.bks.cpg/sg5_25_cif.got.tgz:48727.got - 2010.06.03 18:56:24.
