data_PCOD9123457
_publ_section_title
;
Structure prediction by ZEFSAII (Michael W. Deem and Ramdas Pophale) SiO2 
 PCOD9123457
Probable space group: C 2
;
_chemical_formula_sum "Si O2"
_cell_formula_units_Z 30
_cell_length_a 8.563796
_cell_length_b 22.813719
_cell_length_c 11.292088
_cell_angle_alpha 90.000000
_cell_angle_beta 41.286403
_cell_angle_gamma 90.000000
_cell_volume 1455.674739
_symmetry_space_group_name_H-M "C 2"
_symmetry_group_IT_number 5
_symmetry_cell_setting 'monoclinic'
loop_
_space_group_symop_operation_xyz
x,y,z
-x,y,-z
1/2+x,1/2+y,z
1/2-x,1/2+y,-z
loop_
_atom_site_type_symbol
_atom_site_label
_atom_site_fract_x
_atom_site_fract_y
_atom_site_fract_z
Si Si1 0.500000 0.077910 0.000000
Si Si2 0.124606 0.255914 0.700012
Si Si3 0.726010 0.948748 0.421366
Si Si4 0.343778 0.486394 0.704518
Si Si5 0.001903 0.747628 0.300593
Si Si6 0.809686 0.157343 0.999220
Si Si7 0.035235 0.859378 0.113162
Si Si8 0.962077 0.392717 0.226053
O O1 0.690158 0.112047 0.974747
O O2 0.647462 0.034850 0.831191
O O3 0.240928 0.246018 0.505287
O O4 0.324083 0.252502 0.687202
O O5 0.045046 0.323049 0.754288
O O6 0.938147 0.207274 0.846490
O O7 0.500000 0.981867 0.500000
O O8 0.634388 0.921292 0.597401
O O9 0.959859 0.986358 0.305929
O O10 0.812036 0.896903 0.285941
O O11 0.500000 0.496809 0.500000
O O12 0.219132 0.422453 0.763616
O O13 0.050516 0.804381 0.192085
O O14 0.085691 0.689403 0.187286
O O15 0.000000 0.141397 0.000000
O O16 0.267625 0.900962 0.969489
O O17 0.000000 0.837155 0.000000
#
# Coordination Sequence:
#
# PCOD9123457 Si02
#       8
#     2   4   4   4   4   4   4   4
#     4  12  26  52  72  96 136 184 246 296 334 402
#     4  10  20  38  65  98 135 179 219 280 347 415
#     4  11  22  40  59  96 137 172 221 273 340 421
#     4  10  25  45  69  97 127 178 238 282 344 402
#     4  10  21  35  61  97 134 177 226 268 344 410
#     4  10  24  45  68 100 133 177 238 287 344 408
#     4  12  22  32  56  95 142 183 215 263 338 418
#     4  11  21  38  65  97 138 177 220 273 343 419
#
# _framework density 20.608998
#
# number of rings (size 3 to 8) (size 9 to 14) (size 15 to 20)
#    0.000    1.333    4.000    1.600    4.667    2.133 
#    4.800    1.333    0.000    0.000    0.000    0.000 
#    0.000    0.000    0.000    0.000    0.000    0.000 
#
# Total GULP energy -83609.794406 kJ/mol
# GULP energy per Si atom -5573.986294 kJ/mol
# Density = 2.056209 g / cm^3
# Si number density = 20.608998 Si / 1000 Ang^3
#
#
#
# Elastic Constant Matrix: (Units=GPa)
#
#
# Indices 1 2 3 4 5 6 
#
# 1 71.0012 38.4276 40.1762 0.0000 -13.2476 0.0000
# 2 38.4276 61.9200 34.6638 0.0000 -9.9542 0.0000
# 3 40.1762 34.6638 129.8609 0.0000 3.5293 0.0000
# 4 0.0000 0.0000 0.0000 4.0958 0.0000 -2.7581
# 5 -13.2476 -9.9542 3.5293 0.0000 34.7011 0.0000
# 6 0.0000 0.0000 0.0000 -2.7581 0.0000 22.4225
#
#
#
# Elastic Compliance Matrix: (Units=1/GPa)
#
#
# Indices 1 2 3 4 5 6 
#
# 1 0.023976 -0.011292 -0.004577 0.000000 0.006380 0.000000
# 2 -0.011292 0.025628 -0.003440 0.000000 0.003391 0.000000
# 3 -0.004577 -0.003440 0.010137 0.000000 -0.003765 0.000000
# 4 0.000000 0.000000 0.000000 0.266201 0.000000 0.032744
# 5 0.006380 0.003391 -0.003765 0.000000 0.032609 0.000000
# 6 0.000000 0.000000 0.000000 0.032744 0.000000 0.048626
#
#
# Mechanical properties :
#
#
# Convention : Reuss Voigt Hill
#
# Bulk Modulus (GPa) = 47.33833 54.36857 50.85345
# Shear Modulus (GPa) = 11.04159 22.21152 16.62656
#
# Velocity S-wave (km/s) = 2.31717 3.28648 2.84344
# Velocity P-wave (km/s) = 5.49351 6.39058 5.95895
#
# Compressibility (1/GPa) = 0.02112453
#
# Stress axis : x y z
#
# Youngs Moduli (GPa) = 41.70897 39.01968 98.64831
#
# Poissons Ratio (x) = 0.44059 0.45150
# Poissons Ratio (y) = 0.47096 0.33932
# Poissons Ratio (z) = 0.19090 0.13422
#
# Static dielectric constant tensor:
#      x y z
#    x 1.846310 0.000000 0.005450 
#    y 0.000000 1.703200 0.000000 
#    z 0.005450 0.000000 1.737000 
# 
# From -- ./inp_files/37529.got.cif
#   From: 2010.05.17/outbox.cif.g08.bks.cpg/sg5_19_cif.got.tgz:37529.got - 2010.06.03 18:56:24.
