data_PCOD9123925
_publ_section_title
;
Structure prediction by ZEFSAII (Michael W. Deem and Ramdas Pophale) SiO2 
 PCOD9123925
Probable space group: C 2
;
_chemical_formula_sum "Si O2"
_cell_formula_units_Z 18
_cell_length_a 9.856150
_cell_length_b 11.817792
_cell_length_c 14.136813
_cell_angle_alpha 90.000000
_cell_angle_beta 151.752009
_cell_angle_gamma 90.000000
_cell_volume 779.329953
_symmetry_space_group_name_H-M "C 2"
_symmetry_group_IT_number 5
_symmetry_cell_setting 'monoclinic'
loop_
_space_group_symop_operation_xyz
x,y,z
-x,y,-z
1/2+x,1/2+y,z
1/2-x,1/2+y,-z
loop_
_atom_site_type_symbol
_atom_site_label
_atom_site_fract_x
_atom_site_fract_y
_atom_site_fract_z
Si Si1 0.176695 0.246350 0.926630
Si Si2 0.312477 0.557968 0.802995
Si Si3 0.551472 0.426566 0.785139
Si Si4 0.000000 0.604784 0.000000
Si Si5 0.364188 0.240352 0.520608
O O1 0.226964 0.363960 0.008176
O O2 0.465910 0.185450 0.070052
O O3 0.017380 0.164127 0.901937
O O4 0.971168 0.247869 0.708988
O O5 0.321710 0.481762 0.714986
O O6 0.008799 0.618984 0.637263
O O7 0.500000 0.498788 0.000000
O O8 0.725598 0.522871 0.836862
O O9 0.440674 0.332502 0.645422
O O10 0.500000 0.266174 0.500000
#
# Coordination Sequence:
#
# PCOD9123925 Si02
#       5
#     4   4   4   2   4
#     4  10  22  42  65  91 131 163 207 263 311 368
#     4  10  20  40  69  90 126 171 205 256 317 371
#     4  11  22  42  68  90 126 174 202 258 320 366
#     4  10  22  42  60  94 126 160 212 254 308 374
#     4  10  21  42  67  93 127 166 210 260 312 374
#
# _framework density 23.096765000000001
#
# number of rings (size 3 to 8) (size 9 to 14) (size 15 to 20)
#    0.000    1.778    2.222    2.667    1.556    0.000 
#   16.000   10.000    0.000    0.000    0.000    0.000 
#    0.000    0.000    0.000    0.000    0.000    0.000 
#
# Total GULP energy -50232.086024 kJ/mol
# GULP energy per Si atom -5581.342892 kJ/mol
# Density = 2.304420 g / cm^3
# Si number density = 23.096765 Si / 1000 Ang^3
#
#
#
# Elastic Constant Matrix: (Units=GPa)
#
#
# Indices 1 2 3 4 5 6 
#
# 1 65.5757 23.8708 38.5399 0.0078 -2.7837 -0.0033
# 2 23.8708 61.8642 28.5576 0.0170 -2.3015 0.0032
# 3 38.5399 28.5576 123.2077 0.0287 -11.4658 0.0073
# 4 0.0078 0.0170 0.0287 18.4393 0.0121 -23.1855
# 5 -2.7837 -2.3015 -11.4658 0.0121 26.8824 0.0003
# 6 -0.0033 0.0032 0.0073 -23.1855 0.0003 22.3412
#
#
#
# Elastic Compliance Matrix: (Units=1/GPa)
#
#
# Indices 1 2 3 4 5 6 
#
# 1 0.020218 -0.005463 -0.005109 -0.000038 -0.000553 -0.000034
# 2 -0.005463 0.019579 -0.002839 0.000048 -0.000100 0.000047
# 3 -0.005109 -0.002839 0.010726 0.000063 0.003803 0.000062
# 4 -0.000038 0.000048 0.000063 -0.177859 0.000110 -0.184580
# 5 -0.000553 -0.000100 0.003803 0.000110 0.038755 0.000112
# 6 -0.000034 0.000047 0.000062 -0.184580 0.000112 -0.146795
#
#
# Mechanical properties :
#
#
# Convention : Reuss Voigt Hill
#
# Bulk Modulus (GPa) = 42.19244 48.06492 45.12868
# Shear Modulus (GPa) = -24.91859 24.17786 -0.37036
#
# Velocity S-wave (km/s) = -3.28819 3.23895 -0.40087
# Velocity P-wave (km/s) = 1.97258 5.90281 4.40081
#
# Compressibility (1/GPa) = 0.02370093
#
# Stress axis : x y z
#
# Youngs Moduli (GPa) = 49.46184 51.07510 93.22772
#
# Poissons Ratio (x) = 0.27903 0.47634
# Poissons Ratio (y) = 0.27022 0.26463
# Poissons Ratio (z) = 0.25272 0.14498
#
# Static dielectric constant tensor:
#      x y z
#    x 1.903980 0.000000 0.012670 
#    y 0.000000 1.859070 -0.000010 
#    z 0.012670 -0.000010 1.962840 
# 
# From -- ./inp_files/52655.got.cif
#   From: 2010.05.17/outbox.cif.g08.bks.cpg/sg5_27_cif.got.tgz:52655.got - 2010.06.03 18:56:24.
