data_PCOD9123554
_publ_section_title
;
Structure prediction by ZEFSAII (Michael W. Deem and Ramdas Pophale) SiO2 
 PCOD9123554
Probable space group: C 2
;
_chemical_formula_sum "Si O2"
_cell_formula_units_Z 30
_cell_length_a 19.158707
_cell_length_b 9.676372
_cell_length_c 7.713122
_cell_angle_alpha 90.000000
_cell_angle_beta 91.796388
_cell_angle_gamma 90.000000
_cell_volume 1429.208074
_symmetry_space_group_name_H-M "C 2"
_symmetry_group_IT_number 5
_symmetry_cell_setting 'monoclinic'
loop_
_space_group_symop_operation_xyz
x,y,z
-x,y,-z
1/2+x,1/2+y,z
1/2-x,1/2+y,-z
loop_
_atom_site_type_symbol
_atom_site_label
_atom_site_fract_x
_atom_site_fract_y
_atom_site_fract_z
Si Si1 0.742580 0.300590 0.725730
Si Si2 0.813717 0.523638 0.276487
Si Si3 0.874181 0.297004 0.541714
Si Si4 0.578868 0.421184 0.962766
Si Si5 0.000000 0.468278 0.500000
Si Si6 0.290673 0.313187 0.872741
Si Si7 0.051986 0.624821 0.842691
Si Si8 0.319327 0.586428 0.275526
O O1 0.704034 0.170034 0.639663
O O2 0.823948 0.284152 0.699748
O O3 0.714248 0.445548 0.655920
O O4 0.726386 0.294899 0.926429
O O5 0.842873 0.416968 0.416377
O O6 0.745824 0.453777 0.192242
O O7 0.872539 0.550677 0.134465
O O8 0.948133 0.359941 0.588470
O O9 0.866333 0.162190 0.422660
O O10 0.565057 0.289337 0.836085
O O11 0.628952 0.535408 0.876256
O O12 0.500000 0.470909 0.000000
O O13 0.625769 0.345900 0.118945
O O14 0.974381 0.565416 0.341982
O O15 0.245773 0.188227 0.781265
O O16 0.000000 0.599550 0.000000
#
# Coordination Sequence:
#
# PCOD9123554 Si02
#       8
#     4   4   4   4   2   4   4   4
#     4  11  19  34  63  83 119 155 208 256 318 368
#     4  10  20  39  58  92 118 159 218 268 302 397
#     4  10  23  39  58  86 125 163 207 263 325 379
#     4  10  21  38  64  95 131 164 212 267 325 392
#     4  10  24  44  58  92 136 168 220 264 318 402
#     4  10  21  36  63  92 125 158 214 263 321 379
#     4  10  21  39  68  91 127 171 219 263 326 384
#     4  10  21  40  61  93 125 164 209 276 315 379
#
# _framework density 20.990646000000002
#
# number of rings (size 3 to 8) (size 9 to 14) (size 15 to 20)
#    0.000    1.867    2.667    2.400    1.867    1.067 
#    4.800    4.667    2.933    0.000    0.000    0.000 
#    0.000    0.000    0.000    0.000    0.000    0.000 
#
# Total GULP energy -83543.386792 kJ/mol
# GULP energy per Si atom -5569.559119 kJ/mol
# Density = 2.094287 g / cm^3
# Si number density = 20.990646 Si / 1000 Ang^3
#
#
#
# Elastic Constant Matrix: (Units=GPa)
#
#
# Indices 1 2 3 4 5 6 
#
# 1 115.0302 26.1205 6.6369 0.0000 -14.6887 0.0000
# 2 26.1205 118.3978 8.8655 0.0000 7.3837 0.0000
# 3 6.6369 8.8655 30.7407 0.0000 -4.6460 0.0000
# 4 0.0000 0.0000 0.0000 7.2856 0.0000 1.3249
# 5 -14.6887 7.3837 -4.6460 0.0000 28.5144 0.0000
# 6 0.0000 0.0000 0.0000 1.3249 0.0000 21.1651
#
#
#
# Elastic Compliance Matrix: (Units=1/GPa)
#
#
# Indices 1 2 3 4 5 6 
#
# 1 0.010032 -0.002528 -0.000571 0.000000 0.005729 0.000000
# 2 -0.002528 0.009478 -0.002825 0.000000 -0.004217 0.000000
# 3 -0.000571 -0.002825 0.034381 0.000000 0.006039 0.000000
# 4 0.000000 0.000000 0.000000 0.138838 0.000000 -0.008691
# 5 0.005729 -0.004217 0.006039 0.000000 0.040097 0.000000
# 6 0.000000 0.000000 0.000000 -0.008691 0.000000 0.047792
#
#
# Mechanical properties :
#
#
# Convention : Reuss Voigt Hill
#
# Bulk Modulus (GPa) = 23.78491 38.60163 31.19327
# Shear Modulus (GPa) = 16.31425 26.22940 21.27182
#
# Velocity S-wave (km/s) = 2.79088 3.53877 3.18684
# Velocity P-wave (km/s) = 4.66274 5.92681 5.33236
#
# Compressibility (1/GPa) = 0.04204347
#
# Stress axis : x y z
#
# Youngs Moduli (GPa) = 99.68206 105.50443 29.08589
#
# Poissons Ratio (x) = 0.26669 0.01661
# Poissons Ratio (y) = 0.25197 0.08217
# Poissons Ratio (z) = 0.05692 0.29806
#
# Static dielectric constant tensor:
#      x y z
#    x 1.877150 0.000000 0.001570 
#    y 0.000000 1.800260 0.000000 
#    z 0.001570 0.000000 1.757760 
# 
# From -- ./inp_files/28952.got.cif
#   From: 2010.05.17/outbox.cif.g08.bks.cpg/sg5_15_cif.got.tgz:28952.got - 2010.06.03 18:56:24.
