data_PCOD9123271
_publ_section_title
;
Structure prediction by ZEFSAII (Michael W. Deem and Ramdas Pophale) SiO2 
 PCOD9123271
Probable space group: C 2
;
_chemical_formula_sum "Si O2"
_cell_formula_units_Z 28
_cell_length_a 19.220455
_cell_length_b 13.045026
_cell_length_c 10.156582
_cell_angle_alpha 90.000000
_cell_angle_beta 31.592594
_cell_angle_gamma 90.000000
_cell_volume 1334.088180
_symmetry_space_group_name_H-M "C 2"
_symmetry_group_IT_number 5
_symmetry_cell_setting 'monoclinic'
loop_
_space_group_symop_operation_xyz
x,y,z
-x,y,-z
1/2+x,1/2+y,z
1/2-x,1/2+y,-z
loop_
_atom_site_type_symbol
_atom_site_label
_atom_site_fract_x
_atom_site_fract_y
_atom_site_fract_z
Si Si1 0.339872 0.635300 0.745401
Si Si2 0.715300 0.474694 0.398604
Si Si3 0.404763 0.085551 0.278998
Si Si4 0.886618 0.807260 0.290592
Si Si5 0.314468 0.830582 0.619213
Si Si6 0.575058 0.902969 0.117449
Si Si7 0.159094 0.510703 0.227796
O O1 0.500000 0.642645 0.500000
O O2 0.314195 0.550666 0.672564
O O3 0.283453 0.740504 0.772806
O O4 0.257260 0.597833 0.009019
O O5 0.772699 0.537639 0.429555
O O6 0.599707 0.401359 0.632664
O O7 0.830950 0.397215 0.159919
O O8 0.383472 0.198269 0.369467
O O9 0.486595 0.004631 0.231030
O O10 0.500000 0.101658 0.000000
O O11 0.760133 0.819030 0.398654
O O12 0.000000 0.811545 0.000000
O O13 0.469131 0.818840 0.328422
O O14 0.295937 0.942051 0.719208
O O15 0.657710 0.926405 0.113647
O O16 0.000000 0.539918 0.500000
#
# Coordination Sequence:
#
# PCOD9123271 Si02
#       7
#     4   4   4   4   4   4   4
#     4  11  23  40  65  88 123 155 198 255 306 348
#     4  10  20  38  59  90 117 153 196 244 299 352
#     4   9  17  34  58  83 108 150 196 236 283 343
#     4  11  23  35  59  90 125 155 189 244 304 355
#     4  11  21  40  63  85 118 160 201 243 300 358
#     4   9  18  37  64  82 110 154 209 242 279 354
#     4   9  21  40  62  87 114 161 207 242 288 358
#
# _framework density 20.988116999999999
#
# number of rings (size 3 to 8) (size 9 to 14) (size 15 to 20)
#    0.000    2.000    2.857    1.286    4.000    0.000 
#    0.000   10.714    0.000    0.000    0.000    0.000 
#    0.000    0.000    0.000    0.000    0.000    0.000 
#
# Total GULP energy -77934.706792 kJ/mol
# GULP energy per Si atom -5566.764771 kJ/mol
# Density = 2.094035 g / cm^3
# Si number density = 20.988117 Si / 1000 Ang^3
#
#
#
# Elastic Constant Matrix: (Units=GPa)
#
#
# Indices 1 2 3 4 5 6 
#
# 1 42.1226 1.4283 -6.7539 0.0000 6.0915 0.0000
# 2 1.4283 73.3689 24.4247 0.0000 19.1155 0.0000
# 3 -6.7539 24.4247 59.8409 0.0000 14.1363 0.0000
# 4 0.0000 0.0000 0.0000 -187.9146 0.0000 164.4957
# 5 6.0915 19.1155 14.1363 0.0000 24.8343 0.0000
# 6 0.0000 0.0000 0.0000 164.4957 0.0000 -77.0082
#
#
#
# Elastic Compliance Matrix: (Units=1/GPa)
#
#
# Indices 1 2 3 4 5 6 
#
# 1 0.025903 0.000276 0.005040 0.000000 -0.009435 0.000000
# 2 0.000276 0.018147 -0.004691 0.000000 -0.011366 0.000000
# 3 0.005040 -0.004691 0.021528 0.000000 -0.009880 0.000000
# 4 0.000000 0.000000 0.000000 0.006118 0.000000 0.013068
# 5 -0.009435 -0.011366 -0.009880 0.000000 0.056954 0.000000
# 6 0.000000 0.000000 0.000000 0.013068 0.000000 0.014928
#
#
# Mechanical properties :
#
#
# Convention : Reuss Voigt Hill
#
# Bulk Modulus (GPa) = 14.96355 23.72563 19.34459
# Shear Modulus (GPa) = 30.37577 -37.60215 -3.61319
#
# Velocity S-wave (km/s) = 3.80845 -4.23731 -1.31350
# Velocity P-wave (km/s) = 5.14626 3.55118 2.63374
#
# Compressibility (1/GPa) = 0.06682906
#
# Stress axis : x y z
#
# Youngs Moduli (GPa) = 38.60501 55.10469 46.45038
#
# Poissons Ratio (x) = -0.01522 -0.23410
# Poissons Ratio (y) = -0.01066 0.21789
# Poissons Ratio (z) = -0.19456 0.25849
#
# Static dielectric constant tensor:
#      x y z
#    x 1.955910 0.000000 -0.410980 
#    y 0.000000 1.794100 0.000000 
#    z -0.410980 0.000000 2.821370 
# 
# From -- ./inp_files/38772.got.cif
#   From: 2010.05.17/outbox.cif.g08.bks.cpg/sg5_20_cif.got.tgz:38772.got - 2010.06.03 18:56:24.
