data_PCOD9123129
_publ_section_title
;
Structure prediction by ZEFSAII (Michael W. Deem and Ramdas Pophale) SiO2 
 PCOD9123129
Probable space group: C 2
;
_chemical_formula_sum "Si O2"
_cell_formula_units_Z 30
_cell_length_a 5.430609
_cell_length_b 27.976739
_cell_length_c 9.345852
_cell_angle_alpha 90.000000
_cell_angle_beta 108.068717
_cell_angle_gamma 90.000000
_cell_volume 1349.898971
_symmetry_space_group_name_H-M "C 2"
_symmetry_group_IT_number 5
_symmetry_cell_setting 'monoclinic'
loop_
_space_group_symop_operation_xyz
x,y,z
-x,y,-z
1/2+x,1/2+y,z
1/2-x,1/2+y,-z
loop_
_atom_site_type_symbol
_atom_site_label
_atom_site_fract_x
_atom_site_fract_y
_atom_site_fract_z
Si Si1 0.866963 0.126800 0.339807
Si Si2 0.073242 0.480847 0.854741
Si Si3 0.243756 0.139274 0.980905
Si Si4 0.776880 0.338280 0.834815
Si Si5 0.361711 0.064960 0.337385
Si Si6 0.500000 0.402520 0.000000
Si Si7 0.198888 0.740933 0.909114
Si Si8 0.698380 0.912962 0.401002
O O1 0.839529 0.157564 0.191025
O O2 0.588416 0.102977 0.329234
O O3 0.000000 0.151831 0.500000
O O4 0.089643 0.088211 0.336848
O O5 0.184955 0.525163 0.788367
O O6 0.849610 0.457481 0.716083
O O7 0.268288 0.437364 0.916282
O O8 0.000000 0.496511 0.000000
O O9 0.500000 0.109648 0.000000
O O10 0.319949 0.183095 0.099046
O O11 0.000000 0.112940 0.000000
O O12 0.676396 0.283995 0.792386
O O13 0.854293 0.365528 0.704915
O O14 0.559703 0.369720 0.874488
O O15 0.000000 0.338914 0.000000
O O16 0.500000 0.041876 0.500000
O O17 0.500000 0.743985 0.000000
O O18 0.000000 0.754067 0.000000
O O19 0.500000 0.915626 0.500000
O O20 0.000000 0.912535 0.500000
#
# Coordination Sequence:
#
# PCOD9123129 Si02
#       8
#     4   4   4   4   4   2   4   4
#     4  10  22  42  64  89 125 166 202 248 318 385
#     4  12  26  41  62  93 125 171 218 271 317 370
#     4  10  20  37  62  96 122 152 206 252 310 369
#     4  11  21  39  65  89 125 167 216 259 318 376
#     4  10  24  42  62  89 126 168 206 255 315 375
#     4  12  20  40  64  92 124 168 216 266 318 366
#     4   9  19  33  61  91 118 155 195 257 305 364
#     4  12  26  41  62  91 128 174 223 268 317 378
#
# _framework density 22.223884000000002
#
# number of rings (size 3 to 8) (size 9 to 14) (size 15 to 20)
#    0.000    1.333    3.333    2.000    1.867    3.200 
#    0.000    0.000    0.000   16.800    0.000    0.000 
#    0.000    0.000    0.000    0.000    0.000    0.000 
#
# Total GULP energy -83570.705953 kJ/mol
# GULP energy per Si atom -5571.380397 kJ/mol
# Density = 2.217330 g / cm^3
# Si number density = 22.223884 Si / 1000 Ang^3
#
#
#
# Elastic Constant Matrix: (Units=GPa)
#
#
# Indices 1 2 3 4 5 6 
#
# 1 143.7734 15.8231 22.8276 0.0000 -3.7371 0.0000
# 2 15.8231 78.4168 20.5494 0.0000 -0.3225 0.0000
# 3 22.8276 20.5494 108.1441 0.0000 -12.1644 0.0000
# 4 0.0000 0.0000 0.0000 -3.9426 0.0000 -23.7348
# 5 -3.7371 -0.3225 -12.1644 0.0000 34.5908 0.0000
# 6 0.0000 0.0000 0.0000 -23.7348 0.0000 20.1764
#
#
#
# Elastic Compliance Matrix: (Units=1/GPa)
#
#
# Indices 1 2 3 4 5 6 
#
# 1 0.007293 -0.001133 -0.001288 0.000000 0.000325 0.000000
# 2 -0.001133 0.013618 -0.002445 0.000000 -0.000855 0.000000
# 3 -0.001288 -0.002445 0.010375 0.000000 0.003487 0.000000
# 4 0.000000 0.000000 0.000000 -0.031384 0.000000 -0.036919
# 5 0.000325 -0.000855 0.003487 0.000000 0.030163 0.000000
# 6 0.000000 0.000000 0.000000 -0.036919 0.000000 0.006133
#
#
# Mechanical properties :
#
#
# Convention : Reuss Voigt Hill
#
# Bulk Modulus (GPa) = 46.39074 49.85938 48.12506
# Shear Modulus (GPa) = 94.13763 28.24053 61.18908
#
# Velocity S-wave (km/s) = 6.51542 3.56860 5.25288
# Velocity P-wave (km/s) = 8.80458 6.28200 7.64801
#
# Compressibility (1/GPa) = 0.02155603
#
# Stress axis : x y z
#
# Youngs Moduli (GPa) = 137.11875 73.43176 96.38096
#
# Poissons Ratio (x) = 0.08318 0.12411
# Poissons Ratio (y) = 0.15533 0.23563
# Poissons Ratio (z) = 0.17656 0.17952
#
# Static dielectric constant tensor:
#      x y z
#    x 1.888100 0.000000 0.007290 
#    y 0.000000 1.857830 0.000000 
#    z 0.007290 0.000000 1.909070 
# 
# From -- ./inp_files/13335.got.cif
#   From: 2010.05.17/outbox.cif.g08.bks.cpg/sg5_7_cif.got.tgz:13335.got - 2010.06.03 18:56:24.
