data_PCOD9123934
_publ_section_title
;
Structure prediction by ZEFSAII (Michael W. Deem and Ramdas Pophale) SiO2 
 PCOD9123934
Probable space group: C 2
;
_chemical_formula_sum "Si O2"
_cell_formula_units_Z 22
_cell_length_a 19.887994
_cell_length_b 7.983889
_cell_length_c 5.340015
_cell_angle_alpha 90.000000
_cell_angle_beta 97.007811
_cell_angle_gamma 90.000000
_cell_volume 841.572206
_symmetry_space_group_name_H-M "C 2"
_symmetry_group_IT_number 5
_symmetry_cell_setting 'monoclinic'
loop_
_space_group_symop_operation_xyz
x,y,z
-x,y,-z
1/2+x,1/2+y,z
1/2-x,1/2+y,-z
loop_
_atom_site_type_symbol
_atom_site_label
_atom_site_fract_x
_atom_site_fract_y
_atom_site_fract_z
Si Si1 0.426716 0.052950 0.327368
Si Si2 0.813177 0.760574 0.764352
Si Si3 0.616163 0.744049 0.384021
Si Si4 0.579575 0.400855 0.515291
Si Si5 0.000000 0.334886 0.000000
Si Si6 0.247409 0.125713 0.223709
O O1 0.500000 0.058918 0.500000
O O2 0.406941 0.246015 0.292410
O O3 0.383912 0.918744 0.468613
O O4 0.442788 0.957178 0.081448
O O5 0.889973 0.817372 0.726040
O O6 0.784123 0.677993 0.497664
O O7 0.774012 0.934208 0.781451
O O8 0.790929 0.654939 0.994259
O O9 0.618378 0.577616 0.561379
O O10 0.542188 0.729752 0.219071
O O11 0.676517 0.728052 0.213088
O O12 0.500000 0.429912 0.500000
#
# Coordination Sequence:
#
# PCOD9123934 Si02
#       6
#     4   4   4   4   2   4
#     4   9  20  39  63  95 136 173 226 281 353 407
#     4  11  26  48  73 105 141 195 237 298 356 427
#     4  10  23  42  68  98 143 183 233 291 351 426
#     4  10  22  46  65 100 139 181 232 292 355 422
#     4  10  20  40  70 104 132 190 230 292 360 416
#     4  11  26  46  73 104 145 189 243 290 361 423
#
# _framework density 26.141548
#
# number of rings (size 3 to 8) (size 9 to 14) (size 15 to 20)
#    0.000    1.818    0.000    2.727    7.636    0.000 
#   16.364    4.545    0.000    0.000    0.000    0.000 
#    0.000    0.000    0.000    0.000    0.000    0.000 
#
# Total GULP energy -61505.264854 kJ/mol
# GULP energy per Si atom -5591.387714 kJ/mol
# Density = 2.608205 g / cm^3
# Si number density = 26.141548 Si / 1000 Ang^3
#
#
#
# Elastic Constant Matrix: (Units=GPa)
#
#
# Indices 1 2 3 4 5 6 
#
# 1 127.2694 25.9490 39.2329 0.0000 -35.8966 0.0000
# 2 25.9490 137.1219 32.3240 0.0000 -8.1295 0.0000
# 3 39.2329 32.3240 126.1236 0.0000 -27.1914 0.0000
# 4 0.0000 0.0000 0.0000 32.9709 0.0000 -24.9314
# 5 -35.8966 -8.1295 -27.1914 0.0000 35.6407 0.0000
# 6 0.0000 0.0000 0.0000 -24.9314 0.0000 27.5268
#
#
#
# Elastic Compliance Matrix: (Units=1/GPa)
#
#
# Indices 1 2 3 4 5 6 
#
# 1 0.011354 -0.001307 -0.000952 0.000000 0.010411 0.000000
# 2 -0.001307 0.007915 -0.001815 0.000000 -0.000896 0.000000
# 3 -0.000952 -0.001815 0.010047 0.000000 0.006292 0.000000
# 4 0.000000 0.000000 0.000000 0.096245 0.000000 0.087170
# 5 0.010411 -0.000896 0.006292 0.000000 0.043139 0.000000
# 6 0.000000 0.000000 0.000000 0.087170 0.000000 0.115280
#
#
# Mechanical properties :
#
#
# Convention : Reuss Voigt Hill
#
# Bulk Modulus (GPa) = 47.24442 65.05852 56.15147
# Shear Modulus (GPa) = 16.71220 38.76162 27.73691
#
# Velocity S-wave (km/s) = 2.53117 3.85484 3.26088
# Velocity P-wave (km/s) = 5.16277 6.68985 5.97530
#
# Compressibility (1/GPa) = 0.02116652
#
# Stress axis : x y z
#
# Youngs Moduli (GPa) = 88.07696 126.34465 99.53619
#
# Poissons Ratio (x) = 0.16512 0.09480
# Poissons Ratio (y) = 0.11510 0.18066
# Poissons Ratio (z) = 0.08388 0.22932
#
# Static dielectric constant tensor:
#      x y z
#    x 2.108280 0.000000 -0.038340 
#    y 0.000000 1.993820 0.000000 
#    z -0.038340 0.000000 2.065090 
# 
# From -- ./inp_files/9267.got.cif
#   From: 2010.05.17/outbox.cif.g08.bks.cpg/sg5_5_cif.got.tgz:9267.got - 2010.06.03 18:56:24.
