data_PCOD9123582
_publ_section_title
;
Structure prediction by ZEFSAII (Michael W. Deem and Ramdas Pophale) SiO2 
 PCOD9123582
Probable space group: C 2
;
_chemical_formula_sum "Si O2"
_cell_formula_units_Z 30
_cell_length_a 9.938338
_cell_length_b 12.835113
_cell_length_c 11.325100
_cell_angle_alpha 90.000000
_cell_angle_beta 63.330953
_cell_angle_gamma 90.000000
_cell_volume 1290.938242
_symmetry_space_group_name_H-M "C 2"
_symmetry_group_IT_number 5
_symmetry_cell_setting 'monoclinic'
loop_
_space_group_symop_operation_xyz
x,y,z
-x,y,-z
1/2+x,1/2+y,z
1/2-x,1/2+y,-z
loop_
_atom_site_type_symbol
_atom_site_label
_atom_site_fract_x
_atom_site_fract_y
_atom_site_fract_z
Si Si1 0.179390 0.794480 0.914261
Si Si2 0.373046 0.018846 0.379080
Si Si3 0.500000 0.178812 0.500000
Si Si4 0.193865 0.297364 0.642270
Si Si5 0.816669 0.018518 0.066481
Si Si6 0.824903 0.248676 0.101286
Si Si7 0.058519 0.101524 0.601066
Si Si8 0.243724 0.064904 0.181789
O O1 0.241761 0.691633 0.826868
O O2 0.238854 0.788609 0.022978
O O3 0.000000 0.786468 0.000000
O O4 0.228467 0.910131 0.853521
O O5 0.489626 0.097676 0.394116
O O6 0.213432 0.045951 0.505980
O O7 0.357331 0.036737 0.243748
O O8 0.381566 0.894798 0.391358
O O9 0.356877 0.254911 0.539420
O O10 0.209642 0.319609 0.774188
O O11 0.089197 0.196484 0.675300
O O12 0.751477 0.027991 0.957155
O O13 0.778326 0.128590 0.140458
O O14 0.000000 0.015515 0.000000
O O15 0.000000 0.250729 0.000000
O O16 0.000000 0.145669 0.500000
O O17 0.923594 0.034361 0.707364
#
# Coordination Sequence:
#
# PCOD9123582 Si02
#       8
#     4   4   2   4   4   4   4   4
#     4  10  21  36  57  92 128 161 203 262 321 380
#     4  10  23  42  65  92 127 169 212 272 333 382
#     4  10  26  44  62 104 130 162 236 278 320 408
#     4  11  22  41  67  91 126 170 208 276 335 379
#     4   9  18  36  59  89 124 163 209 250 312 393
#     4  10  21  40  62  89 126 167 215 255 317 413
#     4   9  20  39  60  90 116 157 216 257 309 399
#     4  10  20  39  62  88 125 164 211 256 318 404
#
# _framework density 23.238914000000001
#
# number of rings (size 3 to 8) (size 9 to 14) (size 15 to 20)
#    0.000    2.133    0.000    3.200    5.600    0.000 
#    4.800    7.333    0.000    0.000    0.000    0.000 
#    0.000    0.000    0.000    0.000    0.000    0.000 
#
# Total GULP energy -83662.327992 kJ/mol
# GULP energy per Si atom -5577.488533 kJ/mol
# Density = 2.318602 g / cm^3
# Si number density = 23.238914 Si / 1000 Ang^3
#
#
#
# Elastic Constant Matrix: (Units=GPa)
#
#
# Indices 1 2 3 4 5 6 
#
# 1 74.9631 -4.8419 17.2914 0.0000 2.7930 0.0000
# 2 -4.8419 115.6454 11.4193 0.0000 0.6621 0.0000
# 3 17.2914 11.4193 49.1569 0.0000 10.9195 0.0000
# 4 0.0000 0.0000 0.0000 5.0917 0.0000 3.0588
# 5 2.7930 0.6621 10.9195 0.0000 34.1817 0.0000
# 6 0.0000 0.0000 0.0000 3.0588 0.0000 18.8451
#
#
#
# Elastic Compliance Matrix: (Units=1/GPa)
#
#
# Indices 1 2 3 4 5 6 
#
# 1 0.014675 0.001160 -0.005554 0.000000 0.000553 0.000000
# 2 0.001160 0.008950 -0.002613 0.000000 0.000567 0.000000
# 3 -0.005554 -0.002613 0.024533 0.000000 -0.007333 0.000000
# 4 0.000000 0.000000 0.000000 0.217616 0.000000 -0.035322
# 5 0.000553 0.000567 -0.007333 0.000000 0.031542 0.000000
# 6 0.000000 0.000000 0.000000 -0.035322 0.000000 0.058797
#
#
# Mechanical properties :
#
#
# Convention : Reuss Voigt Hill
#
# Bulk Modulus (GPa) = 29.28845 31.94478 30.61662
# Shear Modulus (GPa) = 13.10582 26.01682 19.56132
#
# Velocity S-wave (km/s) = 2.37736 3.34958 2.90444
# Velocity P-wave (km/s) = 4.49070 5.36056 4.94480
#
# Compressibility (1/GPa) = 0.03414315
#
# Stress axis : x y z
#
# Youngs Moduli (GPa) = 68.14112 111.72616 40.76192
#
# Poissons Ratio (x) = -0.12957 0.22641
# Poissons Ratio (y) = -0.07903 0.10651
# Poissons Ratio (z) = 0.37848 0.29194
#
# Static dielectric constant tensor:
#      x y z
#    x 1.911520 0.000000 0.011920 
#    y 0.000000 1.898750 0.000000 
#    z 0.011920 0.000000 1.847660 
# 
# From -- ./inp_files/39149.got.cif
#   From: 2010.05.17/outbox.cif.g08.bks.cpg/sg5_20_cif.got.tgz:39149.got - 2010.06.03 18:56:24.
