data_PCOD9123286
_publ_section_title
;
Structure prediction by ZEFSAII (Michael W. Deem and Ramdas Pophale) SiO2 
 PCOD9123286
Probable space group: C 2
;
_chemical_formula_sum "Si O2"
_cell_formula_units_Z 22
_cell_length_a 5.456320
_cell_length_b 13.644544
_cell_length_c 15.467457
_cell_angle_alpha 90.000000
_cell_angle_beta 73.465507
_cell_angle_gamma 90.000000
_cell_volume 1103.919002
_symmetry_space_group_name_H-M "C 2"
_symmetry_group_IT_number 5
_symmetry_cell_setting 'monoclinic'
loop_
_space_group_symop_operation_xyz
x,y,z
-x,y,-z
1/2+x,1/2+y,z
1/2-x,1/2+y,-z
loop_
_atom_site_type_symbol
_atom_site_label
_atom_site_fract_x
_atom_site_fract_y
_atom_site_fract_z
Si Si1 0.000000 0.830180 0.000000
Si Si2 0.612615 0.720444 0.321652
Si Si3 0.913083 0.350092 0.828804
Si Si4 0.059338 0.551395 0.759324
Si Si5 0.043482 0.656048 0.397510
Si Si6 0.809473 0.183255 0.090582
O O1 0.793104 0.885084 0.079398
O O2 0.138471 0.758608 0.053253
O O3 0.694483 0.808267 0.250410
O O4 0.309498 0.715916 0.366743
O O5 0.687793 0.617924 0.266919
O O6 0.798618 0.717529 0.386349
O O7 0.090950 0.441121 0.786942
O O8 0.045546 0.255093 0.857589
O O9 0.953388 0.566942 0.672188
O O10 0.860079 0.606103 0.841837
O O11 0.000000 0.624632 0.500000
O O12 0.000000 0.138536 0.000000
#
# Coordination Sequence:
#
# PCOD9123286 Si02
#       6
#     2   4   4   4   4   4
#     4  10  20  38  60  86 134 162 218 262 298 388
#     4  10  21  42  64  93 129 166 211 267 316 385
#     4  11  21  40  60  96 125 174 212 261 314 381
#     4  10  23  38  66  89 128 173 204 271 317 376
#     4  10  21  42  68  95 127 168 211 268 326 380
#     4  10  21  40  57  88 131 165 217 264 309 375
#
# _framework density 19.928996999999999
#
# number of rings (size 3 to 8) (size 9 to 14) (size 15 to 20)
#    1.091    0.727    3.636    0.545    1.273    1.455 
#    4.909    1.818    0.000    0.000    0.000    0.000 
#    0.000    0.000    0.000    0.000    0.000    0.000 
#
# Total GULP energy -61247.180959 kJ/mol
# GULP energy per Si atom -5567.925542 kJ/mol
# Density = 1.988364 g / cm^3
# Si number density = 19.928997 Si / 1000 Ang^3
#
#
#
# Elastic Constant Matrix: (Units=GPa)
#
#
# Indices 1 2 3 4 5 6 
#
# 1 73.8583 -4.4899 13.5554 0.0000 5.6813 0.0000
# 2 -4.4899 42.1486 13.7552 0.0000 0.0473 0.0000
# 3 13.5554 13.7552 109.8436 0.0000 3.5682 0.0000
# 4 0.0000 0.0000 0.0000 8.3540 0.0000 -3.2643
# 5 5.6813 0.0473 3.5682 0.0000 27.5729 0.0000
# 6 0.0000 0.0000 0.0000 -3.2643 0.0000 14.7782
#
#
#
# Elastic Compliance Matrix: (Units=1/GPa)
#
#
# Indices 1 2 3 4 5 6 
#
# 1 0.014233 0.002152 -0.001939 0.000000 -0.002685 0.000000
# 2 0.002152 0.025065 -0.003403 0.000000 -0.000046 0.000000
# 3 -0.001939 -0.003403 0.009797 0.000000 -0.000863 0.000000
# 4 0.000000 0.000000 0.000000 0.131011 0.000000 0.028938
# 5 -0.002685 -0.000046 -0.000863 0.000000 0.036933 0.000000
# 6 0.000000 0.000000 0.000000 0.028938 0.000000 0.074059
#
#
# Mechanical properties :
#
#
# Convention : Reuss Voigt Hill
#
# Bulk Modulus (GPa) = 23.41051 30.16577 26.78814
# Shear Modulus (GPa) = 16.04027 23.67635 19.85831
#
# Velocity S-wave (km/s) = 2.84010 3.45053 3.16009
# Velocity P-wave (km/s) = 4.74630 5.57174 5.17551
#
# Compressibility (1/GPa) = 0.04271586
#
# Stress axis : x y z
#
# Youngs Moduli (GPa) = 70.26118 39.89568 102.06961
#
# Poissons Ratio (x) = -0.08585 0.19787
# Poissons Ratio (y) = -0.15119 0.34733
# Poissons Ratio (z) = 0.13621 0.13576
#
# Static dielectric constant tensor:
#      x y z
#    x 1.783040 0.000000 0.030280 
#    y 0.000000 1.648310 0.000000 
#    z 0.030280 0.000000 1.781780 
# 
# From -- ./inp_files/48713.got.cif
#   From: 2010.05.17/outbox.cif.g08.bks.cpg/sg5_25_cif.got.tgz:48713.got - 2010.06.03 18:56:24.
