data_PCOD9123948
_publ_section_title
;
Structure prediction by ZEFSAII (Michael W. Deem and Ramdas Pophale) SiO2 
 PCOD9123948
Probable space group: C 2
;
_chemical_formula_sum "Si O2"
_cell_formula_units_Z 22
_cell_length_a 15.435102
_cell_length_b 11.119192
_cell_length_c 8.746767
_cell_angle_alpha 90.000000
_cell_angle_beta 34.566110
_cell_angle_gamma 90.000000
_cell_volume 851.699771
_symmetry_space_group_name_H-M "C 2"
_symmetry_group_IT_number 5
_symmetry_cell_setting 'monoclinic'
loop_
_space_group_symop_operation_xyz
x,y,z
-x,y,-z
1/2+x,1/2+y,z
1/2-x,1/2+y,-z
loop_
_atom_site_type_symbol
_atom_site_label
_atom_site_fract_x
_atom_site_fract_y
_atom_site_fract_z
Si Si1 0.960420 0.112710 0.387955
Si Si2 0.619089 0.038800 0.447417
Si Si3 0.679433 0.762050 0.888258
Si Si4 0.782299 0.469739 0.406691
Si Si5 0.000000 0.850221 0.000000
Si Si6 0.835650 0.870555 0.957364
O O1 0.000000 0.155670 0.500000
O O2 0.059594 0.988130 0.230675
O O3 0.021120 0.212888 0.184356
O O4 0.789671 0.076114 0.590981
O O5 0.500000 0.089446 0.500000
O O6 0.741847 0.143316 0.292399
O O7 0.581600 0.001007 0.674345
O O8 0.688103 0.926053 0.254693
O O9 0.679223 0.863289 0.762554
O O10 0.781609 0.806860 0.883178
O O11 0.641062 0.427503 0.723740
O O12 0.927868 0.793627 0.950815
#
# Coordination Sequence:
#
# PCOD9123948 Si02
#       6
#     4   4   4   4   2   4
#     4  10  20  40  71 104 140 186 240 286 354 439
#     4  10  24  44  64 101 144 178 235 297 352 428
#     4  11  23  40  76 104 133 191 240 283 367 426
#     4  10  21  45  69 102 145 185 237 301 349 424
#     4   8  18  34  68  92 132 188 224 272 356 410
#     4   9  19  40  63 100 140 180 231 296 348 415
#
# _framework density 25.830698000000002
#
# number of rings (size 3 to 8) (size 9 to 14) (size 15 to 20)
#    0.000    2.182    1.818    1.091    5.091    0.727 
#   13.091    0.000    0.000    0.000    0.000    0.000 
#    0.000    0.000    0.000    0.000    0.000    0.000 
#
# Total GULP energy -61536.010714 kJ/mol
# GULP energy per Si atom -5594.182792 kJ/mol
# Density = 2.577191 g / cm^3
# Si number density = 25.830698 Si / 1000 Ang^3
#
#
#
# Elastic Constant Matrix: (Units=GPa)
#
#
# Indices 1 2 3 4 5 6 
#
# 1 173.4445 64.1758 38.6110 0.0000 40.5525 0.0000
# 2 64.1758 109.4371 52.4951 0.0000 22.7348 0.0000
# 3 38.6110 52.4951 76.8610 0.0000 17.3237 0.0000
# 4 0.0000 0.0000 0.0000 39.8732 0.0000 0.1685
# 5 40.5525 22.7348 17.3237 0.0000 38.3984 0.0000
# 6 0.0000 0.0000 0.0000 0.1685 0.0000 8.9462
#
#
#
# Elastic Compliance Matrix: (Units=1/GPa)
#
#
# Indices 1 2 3 4 5 6 
#
# 1 0.008797 -0.003479 -0.000460 0.000000 -0.007023 0.000000
# 2 -0.003479 0.015634 -0.008540 0.000000 -0.001729 0.000000
# 3 -0.000460 -0.008540 0.019843 0.000000 -0.003410 0.000000
# 4 0.000000 0.000000 0.000000 0.025081 0.000000 -0.000473
# 5 -0.007023 -0.001729 -0.003410 0.000000 0.036022 0.000000
# 6 0.000000 0.000000 0.000000 -0.000473 0.000000 0.111788
#
#
# Mechanical properties :
#
#
# Convention : Reuss Voigt Hill
#
# Bulk Modulus (GPa) = 51.77266 74.47849 63.12557
# Shear Modulus (GPa) = 20.11559 31.07427 25.59493
#
# Velocity S-wave (km/s) = 2.79363 3.47219 3.15123
# Velocity P-wave (km/s) = 5.52199 6.70602 6.14260
#
# Compressibility (1/GPa) = 0.01931521
#
# Stress axis : x y z
#
# Youngs Moduli (GPa) = 113.66991 63.96449 50.39559
#
# Poissons Ratio (x) = 0.22254 0.02319
# Poissons Ratio (y) = 0.39548 0.43039
# Poissons Ratio (z) = 0.05230 0.54627
#
# Static dielectric constant tensor:
#      x y z
#    x 2.123310 0.000000 -0.049050 
#    y 0.000000 1.932480 0.000000 
#    z -0.049050 0.000000 2.071900 
# 
# From -- ./inp_files/23289.got.cif
#   From: 2010.05.17/outbox.cif.g08.bks.cpg/sg5_12_cif.got.tgz:23289.got - 2010.06.03 18:56:24.
