data_PCOD9123003
_publ_section_title
;
Structure prediction by ZEFSAII (Michael W. Deem and Ramdas Pophale) SiO2 
 PCOD9123003
Probable space group: C 2
;
_chemical_formula_sum "Si O2"
_cell_formula_units_Z 28
_cell_length_a 18.821613
_cell_length_b 13.712531
_cell_length_c 9.292574
_cell_angle_alpha 90.000000
_cell_angle_beta 142.867734
_cell_angle_gamma 90.000000
_cell_volume 1447.773980
_symmetry_space_group_name_H-M "C 2"
_symmetry_group_IT_number 5
_symmetry_cell_setting 'monoclinic'
loop_
_space_group_symop_operation_xyz
x,y,z
-x,y,-z
1/2+x,1/2+y,z
1/2-x,1/2+y,-z
loop_
_atom_site_type_symbol
_atom_site_label
_atom_site_fract_x
_atom_site_fract_y
_atom_site_fract_z
Si Si1 0.697529 0.568580 0.843756
Si Si2 0.368870 0.770993 0.154614
Si Si3 0.932037 0.721090 0.680640
Si Si4 0.383409 0.041765 0.398711
Si Si5 0.373452 0.353955 0.361314
Si Si6 0.612981 0.843069 0.492139
Si Si7 0.317227 0.197077 0.792588
O O1 0.620138 0.657047 0.784961
O O2 0.641081 0.467664 0.700948
O O3 0.763461 0.614569 0.810632
O O4 0.783592 0.546171 0.116492
O O5 0.480449 0.808071 0.242933
O O6 0.373499 0.825229 0.314651
O O7 0.241831 0.798078 0.885259
O O8 0.907636 0.643643 0.515522
O O9 0.881128 0.823343 0.540995
O O10 0.871500 0.676064 0.724303
O O11 0.070000 0.735766 0.936159
O O12 0.500000 0.015333 0.500000
O O13 0.365735 0.957665 0.489156
O O14 0.500000 0.322706 0.500000
O O15 0.714709 0.774960 0.595800
#
# Coordination Sequence:
#
# PCOD9123003 Si02
#       7
#     4   4   4   4   4   4   4
#     4  11  22  36  63  93 122 153 212 256 313 362
#     4  10  20  37  57  94 121 153 195 261 311 357
#     4  11  24  41  61  88 130 167 209 253 310 378
#     4  12  19  36  65  93 115 157 208 264 298 367
#     4  12  23  37  64  97 123 158 210 266 313 365
#     4  10  20  37  62  86 124 157 203 252 314 360
#     4  10  24  43  60  86 130 174 201 252 312 378
#
# _framework density 19.340035
#
# number of rings (size 3 to 8) (size 9 to 14) (size 15 to 20)
#    0.000    1.143    5.714    2.143    4.000    1.143 
#    0.000    0.714    0.000    0.000    0.000    0.000 
#    0.000    0.000    0.000    0.000    0.000    0.000 
#
# Total GULP energy -78013.240762 kJ/mol
# GULP energy per Si atom -5572.374340 kJ/mol
# Density = 1.929602 g / cm^3
# Si number density = 19.340035 Si / 1000 Ang^3
#
#
#
# Elastic Constant Matrix: (Units=GPa)
#
#
# Indices 1 2 3 4 5 6 
#
# 1 58.1937 15.6715 29.1082 0.0000 11.8689 0.0000
# 2 15.6715 121.5220 41.4850 0.0000 6.6097 0.0000
# 3 29.1082 41.4850 107.0716 0.0000 16.6277 0.0000
# 4 0.0000 0.0000 0.0000 30.7867 0.0000 1.6601
# 5 11.8689 6.6097 16.6277 0.0000 28.4461 0.0000
# 6 0.0000 0.0000 0.0000 1.6601 0.0000 14.8469
#
#
#
# Elastic Compliance Matrix: (Units=1/GPa)
#
#
# Indices 1 2 3 4 5 6 
#
# 1 0.020827 -0.000858 -0.004411 0.000000 -0.005912 0.000000
# 2 -0.000858 0.009519 -0.003483 0.000000 0.000182 0.000000
# 3 -0.004411 -0.003483 0.012623 0.000000 -0.004728 0.000000
# 4 0.000000 0.000000 0.000000 0.032679 0.000000 -0.003654
# 5 -0.005912 0.000182 -0.004728 0.000000 0.040342 0.000000
# 6 0.000000 0.000000 0.000000 -0.003654 0.000000 0.067763
#
#
# Mechanical properties :
#
#
# Convention : Reuss Voigt Hill
#
# Bulk Modulus (GPa) = 39.27232 51.03520 45.15376
# Shear Modulus (GPa) = 23.83838 28.18413 26.01126
#
# Velocity S-wave (km/s) = 3.51464 3.82159 3.67133
# Velocity P-wave (km/s) = 6.06799 6.77631 6.43191
#
# Compressibility (1/GPa) = 0.02546322
#
# Stress axis : x y z
#
# Youngs Moduli (GPa) = 48.01346 105.05561 79.22285
#
# Poissons Ratio (x) = 0.09018 0.34949
# Poissons Ratio (y) = 0.04121 0.27593
# Poissons Ratio (z) = 0.21181 0.36591
#
# Static dielectric constant tensor:
#      x y z
#    x 1.694260 0.000000 0.045670 
#    y 0.000000 1.751370 0.000000 
#    z 0.045670 0.000000 1.718960 
# 
# From -- ./inp_files/27729.got.cif
#   From: 2010.05.17/outbox.cif.g08.bks.cpg/sg5_14_cif.got.tgz:27729.got - 2010.06.03 18:56:24.
