data_PCOD9123724
_publ_section_title
;
Structure prediction by ZEFSAII (Michael W. Deem and Ramdas Pophale) SiO2 
 PCOD9123724
Probable space group: C 2
;
_chemical_formula_sum "Si O2"
_cell_formula_units_Z 30
_cell_length_a 26.127590
_cell_length_b 9.531611
_cell_length_c 10.643741
_cell_angle_alpha 90.000000
_cell_angle_beta 150.214197
_cell_angle_gamma 90.000000
_cell_volume 1316.757015
_symmetry_space_group_name_H-M "C 2"
_symmetry_group_IT_number 5
_symmetry_cell_setting 'monoclinic'
loop_
_space_group_symop_operation_xyz
x,y,z
-x,y,-z
1/2+x,1/2+y,z
1/2-x,1/2+y,-z
loop_
_atom_site_type_symbol
_atom_site_label
_atom_site_fract_x
_atom_site_fract_y
_atom_site_fract_z
Si Si1 0.233074 0.989110 0.163903
Si Si2 0.449048 0.614514 0.635227
Si Si3 0.742826 0.018785 0.326511
Si Si4 0.264086 0.803955 0.475366
Si Si5 0.500000 0.700172 0.000000
Si Si6 0.206572 0.293395 0.070644
Si Si7 0.593811 0.373858 0.639701
Si Si8 0.078980 0.386406 0.571280
O O1 0.237355 0.890920 0.293564
O O2 0.347989 0.988290 0.349996
O O3 0.194817 0.145071 0.112432
O O4 0.164705 0.928270 0.904698
O O5 0.330809 0.590072 0.427894
O O6 0.507845 0.605601 0.892071
O O7 0.461923 0.500159 0.555091
O O8 0.466917 0.769633 0.619432
O O9 0.711998 0.150648 0.347243
O O10 0.774857 0.894447 0.489622
O O11 0.674959 0.930738 0.082997
O O12 0.390179 0.783482 0.755943
O O13 0.327013 0.308523 0.290619
O O14 0.148579 0.293010 0.814743
O O15 0.500000 0.287792 0.500000
O O16 0.000000 0.453526 0.500000
#
# Coordination Sequence:
#
# PCOD9123724 Si02
#       8
#     4   4   4   4   2   4   4   4
#     4  11  22  40  63  95 134 169 221 275 328 399
#     4  10  20  40  59  96 124 164 222 275 309 394
#     4  10  22  40  63  92 127 167 221 261 333 386
#     4  11  23  42  67  93 128 175 216 277 330 387
#     4  10  22  38  66  88 132 160 228 268 314 390
#     4  10  23  38  64  93 133 169 214 275 329 397
#     4  10  22  38  62  91 131 173 219 268 331 388
#     4  11  22  38  64  96 131 173 219 273 328 388
#
# _framework density 22.783249000000001
#
# number of rings (size 3 to 8) (size 9 to 14) (size 15 to 20)
#    0.000    1.600    4.000    1.200    1.867    2.667 
#    0.000    1.333    0.000   10.400    0.000    0.000 
#    0.000    0.000    0.000    0.000    0.000    0.000 
#
# Total GULP energy -83660.235952 kJ/mol
# GULP energy per Si atom -5577.349063 kJ/mol
# Density = 2.273139 g / cm^3
# Si number density = 22.783249 Si / 1000 Ang^3
#
#
#
# Elastic Constant Matrix: (Units=GPa)
#
#
# Indices 1 2 3 4 5 6 
#
# 1 69.6893 -9.5881 23.0494 0.0000 -5.3824 0.0000
# 2 -9.5881 79.0843 36.4463 0.0000 -9.1091 0.0000
# 3 23.0494 36.4463 74.5306 0.0000 -27.7408 0.0000
# 4 0.0000 0.0000 0.0000 26.1049 0.0000 -7.1538
# 5 -5.3824 -9.1091 -27.7408 0.0000 45.3353 0.0000
# 6 0.0000 0.0000 0.0000 -7.1538 0.0000 26.2759
#
#
#
# Elastic Compliance Matrix: (Units=1/GPa)
#
#
# Indices 1 2 3 4 5 6 
#
# 1 0.018242 0.006392 -0.009690 0.000000 -0.002479 0.000000
# 2 0.006392 0.018716 -0.012233 0.000000 -0.002966 0.000000
# 3 -0.009690 -0.012233 0.027262 0.000000 0.013073 0.000000
# 4 0.000000 0.000000 0.000000 0.041396 0.000000 0.011270
# 5 -0.002479 -0.002966 0.013073 0.000000 0.029167 0.000000
# 6 0.000000 0.000000 0.000000 0.011270 0.000000 0.041126
#
#
# Mechanical properties :
#
#
# Convention : Reuss Voigt Hill
#
# Bulk Modulus (GPa) = 30.15890 35.90216 33.03053
# Shear Modulus (GPa) = 22.93326 31.10297 27.01811
#
# Velocity S-wave (km/s) = 3.17611 3.69883 3.44739
# Velocity P-wave (km/s) = 5.16878 5.83388 5.51137
#
# Compressibility (1/GPa) = 0.03315771
#
# Stress axis : x y z
#
# Youngs Moduli (GPa) = 54.81762 53.43140 36.68091
#
# Poissons Ratio (x) = -0.34152 0.35544
# Poissons Ratio (y) = -0.35039 0.44871
# Poissons Ratio (z) = 0.53119 0.65362
#
# Static dielectric constant tensor:
#      x y z
#    x 1.894970 0.000000 0.052620 
#    y 0.000000 1.830180 0.000000 
#    z 0.052620 0.000000 1.884500 
# 
# From -- ./inp_files/48359.got.cif
#   From: 2010.05.17/outbox.cif.g08.bks.cpg/sg5_25_cif.got.tgz:48359.got - 2010.06.03 18:56:24.
