data_PCOD9123699
_publ_section_title
;
Structure prediction by ZEFSAII (Michael W. Deem and Ramdas Pophale) SiO2 
 PCOD9123699
Probable space group: C 2
;
_chemical_formula_sum "Si O2"
_cell_formula_units_Z 20
_cell_length_a 13.415823
_cell_length_b 6.940948
_cell_length_c 9.940829
_cell_angle_alpha 90.000000
_cell_angle_beta 116.338267
_cell_angle_gamma 90.000000
_cell_volume 829.581307
_symmetry_space_group_name_H-M "C 2"
_symmetry_group_IT_number 5
_symmetry_cell_setting 'monoclinic'
loop_
_space_group_symop_operation_xyz
x,y,z
-x,y,-z
1/2+x,1/2+y,z
1/2-x,1/2+y,-z
loop_
_atom_site_type_symbol
_atom_site_label
_atom_site_fract_x
_atom_site_fract_y
_atom_site_fract_z
Si Si1 0.112776 0.649200 0.329130
Si Si2 0.718571 0.148076 0.670489
Si Si3 0.457119 0.471107 0.330702
Si Si4 0.868328 0.416208 0.902878
Si Si5 0.894126 0.377496 0.209827
O O1 0.203180 0.639566 0.501756
O O2 0.159618 0.592883 0.212363
O O3 0.913558 0.150920 0.222677
O O4 0.012891 0.491662 0.293020
O O5 0.633382 0.310741 0.679461
O O6 0.831324 0.226295 0.800702
O O7 0.677725 0.949911 0.708377
O O8 0.500000 0.548475 0.500000
O O9 0.552201 0.353668 0.308778
O O10 0.830313 0.433183 0.033789
O O11 0.000000 0.413766 0.000000
#
# Coordination Sequence:
#
# PCOD9123699 Si02
#       5
#     4   4   4   4   4
#     4   9  20  43  63  89 135 167 214 265 316 391
#     4  10  21  40  65  93 128 172 218 263 314 392
#     4   9  18  37  70  98 118 167 225 266 318 376
#     4  10  23  43  60  94 137 167 210 268 330 372
#     4  10  20  39  69  94 129 166 216 269 323 383
#
# _framework density 24.108546
#
# number of rings (size 3 to 8) (size 9 to 14) (size 15 to 20)
#    0.000    2.400    0.000    3.000    2.800    0.000 
#   18.000   15.000    0.000    0.000    0.000    0.000 
#    0.000    0.000    0.000    0.000    0.000    0.000 
#
# Total GULP energy -55922.348820 kJ/mol
# GULP energy per Si atom -5592.234882 kJ/mol
# Density = 2.405367 g / cm^3
# Si number density = 24.108546 Si / 1000 Ang^3
#
#
#
# Elastic Constant Matrix: (Units=GPa)
#
#
# Indices 1 2 3 4 5 6 
#
# 1 13.1237 12.7249 1.3359 0.0000 -7.2205 0.0000
# 2 12.7249 92.7725 30.4263 0.0000 -9.9748 0.0000
# 3 1.3359 30.4263 104.7750 0.0000 -24.0697 0.0000
# 4 0.0000 0.0000 0.0000 41.4037 0.0000 2.9844
# 5 -7.2205 -9.9748 -24.0697 0.0000 22.3066 0.0000
# 6 0.0000 0.0000 0.0000 2.9844 0.0000 28.2492
#
#
#
# Elastic Compliance Matrix: (Units=1/GPa)
#
#
# Indices 1 2 3 4 5 6 
#
# 1 0.113913 -0.015169 0.013117 0.000000 0.044243 0.000000
# 2 -0.015169 0.014010 -0.004738 0.000000 -0.003759 0.000000
# 3 0.013117 -0.004738 0.014947 0.000000 0.018255 0.000000
# 4 0.000000 0.000000 0.000000 0.024338 0.000000 -0.002571
# 5 0.044243 -0.003759 0.018255 0.000000 0.077168 0.000000
# 6 0.000000 0.000000 0.000000 -0.002571 0.000000 0.035671
#
#
# Mechanical properties :
#
#
# Convention : Reuss Voigt Hill
#
# Bulk Modulus (GPa) = 7.73470 33.29391 20.51431
# Shear Modulus (GPa) = 14.84893 29.47086 22.15989
#
# Velocity S-wave (km/s) = 2.48447 3.50011 3.03507
# Velocity P-wave (km/s) = 3.38310 5.49312 4.56178
#
# Compressibility (1/GPa) = 0.12928742
#
# Stress axis : x y z
#
# Youngs Moduli (GPa) = 8.77861 71.37938 66.90423
#
# Poissons Ratio (x) = 1.08279 -0.87756
# Poissons Ratio (y) = 0.13317 0.31702
# Poissons Ratio (z) = -0.11515 0.33822
#
# Static dielectric constant tensor:
#      x y z
#    x 2.041620 0.000000 0.013440 
#    y 0.000000 1.884300 0.000000 
#    z 0.013440 0.000000 1.916010 
# 
# From -- ./inp_files/23009.got.cif
#   From: 2010.05.17/outbox.cif.g08.bks.cpg/sg5_12_cif.got.tgz:23009.got - 2010.06.03 18:56:24.
