data_PCOD9123262
_publ_section_title
;
Structure prediction by ZEFSAII (Michael W. Deem and Ramdas Pophale) SiO2 
 PCOD9123262
Probable space group: C 2
;
_chemical_formula_sum "Si O2"
_cell_formula_units_Z 20
_cell_length_a 11.632958
_cell_length_b 14.145538
_cell_length_c 5.132537
_cell_angle_alpha 90.000000
_cell_angle_beta 84.274898
_cell_angle_gamma 90.000000
_cell_volume 840.368994
_symmetry_space_group_name_H-M "C 2"
_symmetry_group_IT_number 5
_symmetry_cell_setting 'monoclinic'
loop_
_space_group_symop_operation_xyz
x,y,z
-x,y,-z
1/2+x,1/2+y,z
1/2-x,1/2+y,-z
loop_
_atom_site_type_symbol
_atom_site_label
_atom_site_fract_x
_atom_site_fract_y
_atom_site_fract_z
Si Si1 0.775613 0.156320 0.400845
Si Si2 0.341948 0.941790 0.106437
Si Si3 0.635309 0.451184 0.492975
Si Si4 0.627247 0.153056 0.947341
Si Si5 0.841927 0.341224 0.607221
O O1 0.834266 0.053213 0.386341
O O2 0.719582 0.187872 0.139991
O O3 0.859050 0.237508 0.492160
O O4 0.675658 0.152996 0.643956
O O5 0.374060 0.862807 0.892107
O O6 0.380288 0.041287 0.984643
O O7 0.388466 0.914631 0.380751
O O8 0.204472 0.950761 0.201201
O O9 0.500000 0.437538 0.500000
O O10 0.704144 0.368054 0.625992
O O11 0.500000 0.195826 0.000000
#
# Coordination Sequence:
#
# PCOD9123262 Si02
#       5
#     4   4   4   4   4
#     4  11  22  39  58  89 120 153 193 249 288 351
#     4   9  19  39  56  83 112 154 189 244 281 347
#     4   9  21  38  61  86 119 155 195 238 298 348
#     4  11  21  38  61  83 116 155 195 238 297 348
#     4  10  20  38  59  79 123 147 193 237 295 334
#
# _framework density 23.799067999999998
#
# number of rings (size 3 to 8) (size 9 to 14) (size 15 to 20)
#    1.200    0.800    2.000    1.800    0.000    2.400 
#    0.000    2.000    0.000    0.000    0.000    0.000 
#    0.000    0.000    0.000    0.000    0.000    0.000 
#
# Total GULP energy -55790.496474 kJ/mol
# GULP energy per Si atom -5579.049647 kJ/mol
# Density = 2.374490 g / cm^3
# Si number density = 23.799068 Si / 1000 Ang^3
#
#
#
# Elastic Constant Matrix: (Units=GPa)
#
#
# Indices 1 2 3 4 5 6 
#
# 1 141.4888 -12.9736 18.1297 0.0000 -5.7190 0.0000
# 2 -12.9736 85.6105 -6.5599 0.0000 8.8292 0.0000
# 3 18.1297 -6.5599 90.8864 0.0000 13.0715 0.0000
# 4 0.0000 0.0000 0.0000 30.0371 0.0000 -1.7910
# 5 -5.7190 8.8292 13.0715 0.0000 19.7391 0.0000
# 6 0.0000 0.0000 0.0000 -1.7910 0.0000 -9.8174
#
#
#
# Elastic Compliance Matrix: (Units=1/GPa)
#
#
# Indices 1 2 3 4 5 6 
#
# 1 0.007499 0.000668 -0.001898 0.000000 0.003131 0.000000
# 2 0.000668 0.012593 0.001722 0.000000 -0.006579 0.000000
# 3 -0.001898 0.001722 0.012927 0.000000 -0.009880 0.000000
# 4 0.000000 0.000000 0.000000 0.032934 0.000000 -0.006008
# 5 0.003131 -0.006579 -0.009880 0.000000 0.061054 0.000000
# 6 0.000000 0.000000 0.000000 -0.006008 0.000000 -0.100764
#
#
# Mechanical properties :
#
#
# Convention : Reuss Voigt Hill
#
# Bulk Modulus (GPa) = 29.40999 35.01979 32.21489
# Shear Modulus (GPa) = 136.64531 29.28439 82.96485
#
# Velocity S-wave (km/s) = 7.58557 3.51163 5.91069
# Velocity P-wave (km/s) = 9.43958 5.58469 7.75546
#
# Compressibility (1/GPa) = 0.03400205
#
# Stress axis : x y z
#
# Youngs Moduli (GPa) = 133.35697 79.41215 77.35993
#
# Poissons Ratio (x) = -0.05305 0.14682
# Poissons Ratio (y) = -0.08909 -0.13320
# Poissons Ratio (z) = 0.25309 -0.13674
#
# Static dielectric constant tensor:
#      x y z
#    x 2.039980 0.000000 0.025020 
#    y 0.000000 1.937970 0.000000 
#    z 0.025020 0.000000 1.885190 
# 
# From -- ./inp_files/4669.got.cif
#   From: 2010.05.17/outbox.cif.g08.bks.cpg/sg5_3_cif.got.tgz:4669.got - 2010.06.03 18:56:24.
