data_PCOD9123415
_publ_section_title
;
Structure prediction by ZEFSAII (Michael W. Deem and Ramdas Pophale) SiO2 
 PCOD9123415
Probable space group: C 2
;
_chemical_formula_sum "Si O2"
_cell_formula_units_Z 26
_cell_length_a 9.569147
_cell_length_b 15.879310
_cell_length_c 8.904398
_cell_angle_alpha 90.000000
_cell_angle_beta 106.587287
_cell_angle_gamma 90.000000
_cell_volume 1296.730873
_symmetry_space_group_name_H-M "C 2"
_symmetry_group_IT_number 5
_symmetry_cell_setting 'monoclinic'
loop_
_space_group_symop_operation_xyz
x,y,z
-x,y,-z
1/2+x,1/2+y,z
1/2-x,1/2+y,-z
loop_
_atom_site_type_symbol
_atom_site_label
_atom_site_fract_x
_atom_site_fract_y
_atom_site_fract_z
Si Si1 0.693306 0.909870 0.864048
Si Si2 0.000000 0.114743 0.000000
Si Si3 0.040699 0.238405 0.753557
Si Si4 0.000000 0.815994 0.000000
Si Si5 0.499864 0.170272 0.757728
Si Si6 0.500000 0.031414 0.000000
Si Si7 0.743480 0.557060 0.292144
Si Si8 0.710267 0.681398 0.508754
O O1 0.587659 0.830852 0.812864
O O2 0.627014 0.972569 0.969838
O O3 0.854133 0.871769 0.939532
O O4 0.691965 0.965115 0.710853
O O5 0.926791 0.176539 0.098582
O O6 0.112882 0.061983 0.132027
O O7 0.130186 0.204613 0.638287
O O8 0.872751 0.233078 0.647613
O O9 0.023582 0.752545 0.866651
O O10 0.640568 0.127674 0.725628
O O11 0.378464 0.193048 0.598592
O O12 0.445176 0.095111 0.852806
O O13 0.693673 0.586131 0.440826
#
# Coordination Sequence:
#
# PCOD9123415 Si02
#       8
#     4   2   4   2   4   2   4   4
#     4  11  21  39  59  96 123 156 199 265 304 354
#     4  10  20  38  64  92 116 168 204 242 288 386
#     4  10  21  38  65  85 123 156 206 242 304 355
#     4  11  21  36  65  89 126 154 206 259 303 346
#     4  10  20  40  62  86 118 167 204 244 295 375
#     4   9  23  38  61  93 124 158 204 249 309 360
#     4  10  22  37  63  89 123 157 206 246 306 354
#     4  10  21  40  59  87 117 165 200 243 291 377
#
# _framework density 20.050421
#
# number of rings (size 3 to 8) (size 9 to 14) (size 15 to 20)
#    0.000    1.846    1.538    2.308    4.308    1.231 
#   13.846    0.000    0.000    0.000    0.000    0.000 
#    0.000    0.000    0.000    0.000    0.000    0.000 
#
# Total GULP energy -72488.966716 kJ/mol
# GULP energy per Si atom -5576.074363 kJ/mol
# Density = 2.000479 g / cm^3
# Si number density = 20.050421 Si / 1000 Ang^3
#
#
#
# Elastic Constant Matrix: (Units=GPa)
#
#
# Indices 1 2 3 4 5 6 
#
# 1 67.1415 33.5539 6.9709 0.0000 16.1744 0.0000
# 2 33.5539 102.7597 8.7765 0.0000 -4.8736 0.0000
# 3 6.9709 8.7765 53.3418 0.0000 3.6399 0.0000
# 4 0.0000 0.0000 0.0000 5.8158 0.0000 3.6933
# 5 16.1744 -4.8736 3.6399 0.0000 36.9496 0.0000
# 6 0.0000 0.0000 0.0000 3.6933 0.0000 18.7249
#
#
#
# Elastic Compliance Matrix: (Units=1/GPa)
#
#
# Indices 1 2 3 4 5 6 
#
# 1 0.021052 -0.007279 -0.000865 0.000000 -0.010090 0.000000
# 2 -0.007279 0.012467 -0.001439 0.000000 0.004972 0.000000
# 3 -0.000865 -0.001439 0.019213 0.000000 -0.001704 0.000000
# 4 0.000000 0.000000 0.000000 0.196566 0.000000 -0.038771
# 5 -0.010090 0.004972 -0.001704 0.000000 0.032304 0.000000
# 6 0.000000 0.000000 0.000000 -0.038771 0.000000 0.061052
#
#
# Mechanical properties :
#
#
# Convention : Reuss Voigt Hill
#
# Bulk Modulus (GPa) = 29.79212 35.76061 32.77636
# Shear Modulus (GPa) = 13.40450 23.89419 18.64935
#
# Velocity S-wave (km/s) = 2.58842 3.45585 3.05310
# Velocity P-wave (km/s) = 4.88099 5.81360 5.36759
#
# Compressibility (1/GPa) = 0.03356593
#
# Stress axis : x y z
#
# Youngs Moduli (GPa) = 47.50150 80.21237 52.04764
#
# Poissons Ratio (x) = 0.58384 0.04502
# Poissons Ratio (y) = 0.34575 0.07491
# Poissons Ratio (z) = 0.04109 0.11545
#
# Static dielectric constant tensor:
#      x y z
#    x 1.788100 0.000000 -0.017510 
#    y 0.000000 1.693050 0.000000 
#    z -0.017510 0.000000 1.731590 
# 
# From -- ./inp_files/20517.got.cif
#   From: 2010.05.17/outbox.cif.g08.bks.cpg/sg5_11_cif.got.tgz:20517.got - 2010.06.03 18:56:24.
