data_PCOD9123313
_publ_section_title
;
Structure prediction by ZEFSAII (Michael W. Deem and Ramdas Pophale) SiO2 
 PCOD9123313
Probable space group: C 2
;
_chemical_formula_sum "Si O2"
_cell_formula_units_Z 22
_cell_length_a 6.568171
_cell_length_b 20.862715
_cell_length_c 7.896651
_cell_angle_alpha 90.000000
_cell_angle_beta 61.943454
_cell_angle_gamma 90.000000
_cell_volume 954.915581
_symmetry_space_group_name_H-M "C 2"
_symmetry_group_IT_number 5
_symmetry_cell_setting 'monoclinic'
loop_
_space_group_symop_operation_xyz
x,y,z
-x,y,-z
1/2+x,1/2+y,z
1/2-x,1/2+y,-z
loop_
_atom_site_type_symbol
_atom_site_label
_atom_site_fract_x
_atom_site_fract_y
_atom_site_fract_z
Si Si1 0.255759 0.327560 0.684088
Si Si2 0.000000 0.063210 0.500000
Si Si3 0.707442 0.962889 0.814871
Si Si4 0.988344 0.712888 0.711028
Si Si5 0.500000 0.746575 0.500000
Si Si6 0.500000 0.482992 0.000000
Si Si7 0.780490 0.588885 0.701078
O O1 0.500000 0.346069 0.500000
O O2 0.135693 0.394533 0.770636
O O3 0.339864 0.277610 0.798042
O O4 0.094319 0.289229 0.617862
O O5 0.192811 0.014212 0.353930
O O6 0.089739 0.102217 0.628168
O O7 0.500000 0.992967 0.000000
O O8 0.900482 0.945774 0.879906
O O9 0.256908 0.714110 0.658306
O O10 0.000000 0.711020 0.500000
O O11 0.847813 0.647859 0.797060
O O12 0.311073 0.530051 0.155809
O O13 0.000000 0.572536 0.500000
#
# Coordination Sequence:
#
# PCOD9123313 Si02
#       7
#     4   2   4   4   2   2   4
#     4   9  18  35  57  90 119 155 199 245 296 355
#     4  10  22  39  60  86 126 161 194 246 298 350
#     4  11  22  39  59  90 123 157 206 242 293 358
#     4   8  17  32  57  90 117 151 200 242 299 356
#     4   8  16  33  60  94 114 155 196 248 302 346
#     4  10  24  40  58  90 128 156 196 256 288 346
#     4  10  20  38  61  89 117 160 202 239 301 361
#
# _framework density 23.038686999999999
#
# number of rings (size 3 to 8) (size 9 to 14) (size 15 to 20)
#    0.000    2.909    0.909    1.091    0.000    9.455 
#    3.273    0.000    0.000    0.000    2.364    0.000 
#    0.000    0.000    0.000    0.000    0.000    0.000 
#
# Total GULP energy -61290.355600 kJ/mol
# GULP energy per Si atom -5571.850509 kJ/mol
# Density = 2.298625 g / cm^3
# Si number density = 23.038687 Si / 1000 Ang^3
#
#
#
# Elastic Constant Matrix: (Units=GPa)
#
#
# Indices 1 2 3 4 5 6 
#
# 1 137.4581 38.9649 3.8581 0.0000 11.8664 0.0000
# 2 38.9649 71.6182 17.1991 0.0000 -8.2168 0.0000
# 3 3.8581 17.1991 47.3813 0.0000 -16.9317 0.0000
# 4 0.0000 0.0000 0.0000 8.1261 0.0000 -4.9544
# 5 11.8664 -8.2168 -16.9317 0.0000 32.7631 0.0000
# 6 0.0000 0.0000 0.0000 -4.9544 0.0000 46.2677
#
#
#
# Elastic Compliance Matrix: (Units=1/GPa)
#
#
# Indices 1 2 3 4 5 6 
#
# 1 0.009282 -0.005492 -0.000559 0.000000 -0.005028 0.000000
# 2 -0.005492 0.018584 -0.004811 0.000000 0.004164 0.000000
# 3 -0.000559 -0.004811 0.027643 0.000000 0.013282 0.000000
# 4 0.000000 0.000000 0.000000 0.131656 0.000000 0.014098
# 5 -0.005028 0.004164 0.013282 0.000000 0.040251 0.000000
# 6 0.000000 0.000000 0.000000 0.014098 0.000000 0.023123
#
#
# Mechanical properties :
#
#
# Convention : Reuss Voigt Hill
#
# Bulk Modulus (GPa) = 29.59871 41.83354 35.71612
# Shear Modulus (GPa) = 17.63511 30.52707 24.08109
#
# Velocity S-wave (km/s) = 2.76969 3.64405 3.23653
# Velocity P-wave (km/s) = 4.80661 5.99190 5.43168
#
# Compressibility (1/GPa) = 0.03378526
#
# Stress axis : x y z
#
# Youngs Moduli (GPa) = 107.73997 53.80907 36.17503
#
# Poissons Ratio (x) = 0.29554 0.02021
# Poissons Ratio (y) = 0.59176 0.17403
# Poissons Ratio (z) = 0.06020 0.25886
#
# Static dielectric constant tensor:
#      x y z
#    x 1.920280 0.000000 0.019180 
#    y 0.000000 1.956570 0.000000 
#    z 0.019180 0.000000 1.901620 
# 
# From -- ./inp_files/12796.got.cif
#   From: 2010.05.17/outbox.cif.g08.bks.cpg/sg5_7_cif.got.tgz:12796.got - 2010.06.03 18:56:24.
