data_PCOD9123284
_publ_section_title
;
Structure prediction by ZEFSAII (Michael W. Deem and Ramdas Pophale) SiO2 
 PCOD9123284
Probable space group: C 2
;
_chemical_formula_sum "Si O2"
_cell_formula_units_Z 24
_cell_length_a 13.670596
_cell_length_b 9.000521
_cell_length_c 8.338055
_cell_angle_alpha 90.000000
_cell_angle_beta 86.257273
_cell_angle_gamma 90.000000
_cell_volume 1023.746922
_symmetry_space_group_name_H-M "C 2"
_symmetry_group_IT_number 5
_symmetry_cell_setting 'monoclinic'
loop_
_space_group_symop_operation_xyz
x,y,z
-x,y,-z
1/2+x,1/2+y,z
1/2-x,1/2+y,-z
loop_
_atom_site_type_symbol
_atom_site_label
_atom_site_fract_x
_atom_site_fract_y
_atom_site_fract_z
Si Si1 0.000000 0.989730 0.500000
Si Si2 0.698950 0.948293 0.419063
Si Si3 0.461028 0.996687 0.789790
Si Si4 0.380160 0.471095 0.204858
Si Si5 0.194769 0.110262 0.326223
Si Si6 0.853821 0.649602 0.082967
Si Si7 0.000000 0.216679 0.000000
O O1 0.059757 0.917898 0.641147
O O2 0.083899 0.074414 0.388112
O O3 0.589664 0.988802 0.376965
O O4 0.776376 0.021010 0.287529
O O5 0.713269 0.773665 0.392901
O O6 0.736836 0.995792 0.586122
O O7 0.568237 0.065972 0.806385
O O8 0.457510 0.832482 0.872153
O O9 0.390320 0.096208 0.908041
O O10 0.368274 0.325574 0.098302
O O11 0.430070 0.605887 0.105959
O O12 0.242160 0.111167 0.144070
#
# Coordination Sequence:
#
# PCOD9123284 Si02
#       7
#     2   4   4   4   4   4   2
#     4  10  22  38  60  88 116 152 196 240 286 340
#     4  10  23  39  58  86 117 151 195 238 288 345
#     4  10  22  39  59  87 118 154 194 236 288 344
#     4  10  21  38  58  85 117 152 194 240 286 340
#     4  10  22  40  60  86 117 152 195 238 288 344
#     4   9  21  40  59  86 118 153 193 235 289 345
#     4  10  20  38  60  84 118 154 194 240 284 340
#
# _framework density 23.443292
#
# number of rings (size 3 to 8) (size 9 to 14) (size 15 to 20)
#    0.000    2.333    0.000    2.000    0.000   15.333 
#    0.000    1.667    0.000    0.000    0.000    0.000 
#    0.000    0.000    0.000    0.000    0.000    0.000 
#
# Total GULP energy -66959.781735 kJ/mol
# GULP energy per Si atom -5579.981811 kJ/mol
# Density = 2.338993 g / cm^3
# Si number density = 23.443292 Si / 1000 Ang^3
#
#
#
# Elastic Constant Matrix: (Units=GPa)
#
#
# Indices 1 2 3 4 5 6 
#
# 1 96.8604 1.3595 36.0125 0.0000 -13.7028 0.0000
# 2 1.3595 55.0394 22.3792 0.0000 -17.0601 0.0000
# 3 36.0125 22.3792 35.7231 0.0000 -28.0909 0.0000
# 4 0.0000 0.0000 0.0000 22.0836 0.0000 -1.4350
# 5 -13.7028 -17.0601 -28.0909 0.0000 59.5209 0.0000
# 6 0.0000 0.0000 0.0000 -1.4350 0.0000 18.5799
#
#
#
# Elastic Compliance Matrix: (Units=1/GPa)
#
#
# Indices 1 2 3 4 5 6 
#
# 1 0.022898 0.011954 -0.037739 0.000000 -0.009113 0.000000
# 2 0.011954 0.030624 -0.035253 0.000000 -0.005108 0.000000
# 3 -0.037739 -0.035253 0.116627 0.000000 0.036250 0.000000
# 4 0.000000 0.000000 0.000000 0.045511 0.000000 0.003515
# 5 -0.009113 -0.005108 0.036250 0.000000 0.030347 0.000000
# 6 0.000000 0.000000 0.000000 0.003515 0.000000 0.054093
#
#
# Mechanical properties :
#
#
# Convention : Reuss Voigt Hill
#
# Bulk Modulus (GPa) = 20.80049 34.12502 27.46276
# Shear Modulus (GPa) = 11.41031 28.56167 19.98599
#
# Velocity S-wave (km/s) = 2.20857 3.49425 2.92297
# Velocity P-wave (km/s) = 3.92373 5.55587 4.80954
#
# Compressibility (1/GPa) = 0.04807578
#
# Stress axis : x y z
#
# Youngs Moduli (GPa) = 43.67135 32.65389 8.57432
#
# Poissons Ratio (x) = -0.39036 0.32358
# Poissons Ratio (y) = -0.52207 0.30227
# Poissons Ratio (z) = 1.64810 1.15114
#
# Static dielectric constant tensor:
#      x y z
#    x 2.000630 0.000000 0.038220 
#    y 0.000000 1.819580 0.000000 
#    z 0.038220 0.000000 1.898190 
# 
# From -- ./inp_files/22821.got.cif
#   From: 2010.05.17/outbox.cif.g08.bks.cpg/sg5_12_cif.got.tgz:22821.got - 2010.06.03 18:56:24.
