data_PCOD9123077
_publ_section_title
;
Structure prediction by ZEFSAII (Michael W. Deem and Ramdas Pophale) SiO2 
 PCOD9123077
Probable space group: C 2
;
_chemical_formula_sum "Si O2"
_cell_formula_units_Z 32
_cell_length_a 14.958987
_cell_length_b 12.536084
_cell_length_c 13.135659
_cell_angle_alpha 90.000000
_cell_angle_beta 140.002429
_cell_angle_gamma 90.000000
_cell_volume 1583.293751
_symmetry_space_group_name_H-M "C 2"
_symmetry_group_IT_number 5
_symmetry_cell_setting 'monoclinic'
loop_
_space_group_symop_operation_xyz
x,y,z
-x,y,-z
1/2+x,1/2+y,z
1/2-x,1/2+y,-z
loop_
_atom_site_type_symbol
_atom_site_label
_atom_site_fract_x
_atom_site_fract_y
_atom_site_fract_z
Si Si1 0.640948 0.845410 0.057303
Si Si2 0.216685 0.788327 0.627088
Si Si3 0.466361 0.749777 0.588751
Si Si4 0.214077 0.889875 0.420072
Si Si5 0.958430 0.930485 0.073177
Si Si6 0.998848 0.164933 0.174527
Si Si7 0.362819 0.944495 0.157067
Si Si8 0.431707 0.070088 0.545834
O O1 0.769090 0.834167 0.246837
O O2 0.500000 0.862286 0.000000
O O3 0.625680 0.734492 0.981416
O O4 0.642228 0.931537 0.968779
O O5 0.208143 0.880936 0.536398
O O6 0.364709 0.731093 0.735934
O O7 0.110550 0.692501 0.510214
O O8 0.500000 0.730108 0.500000
O O9 0.308303 0.791532 0.461862
O O10 0.499091 0.658091 0.700727
O O11 0.552760 0.848744 0.713588
O O12 0.058986 0.877783 0.243175
O O13 0.297596 0.996555 0.457278
O O14 0.794465 0.931943 0.944197
O O15 0.001157 0.053755 0.121056
O O16 0.000000 0.887355 0.000000
O O17 0.448609 0.048349 0.266589
O O18 0.500000 0.029513 0.500000
#
# Coordination Sequence:
#
# PCOD9123077 Si02
#       8
#     4   4   4   4   4   4   4   4
#     4   9  18  37  61  84 118 160 196 245 307 368
#     4  10  20  37  61  88 117 157 204 258 306 361
#     4   9  17  37  57  78 111 152 195 237 293 358
#     4  10  21  36  59  87 117 156 200 252 307 362
#     4  12  21  35  57  84 118 148 191 248 302 353
#     4   9  19  32  58  84 108 149 199 235 292 367
#     4  10  22  34  57  91 118 152 198 244 303 368
#     4  11  21  36  61  93 117 157 209 260 303 367
#
# _framework density 20.211031999999999
#
# number of rings (size 3 to 8) (size 9 to 14) (size 15 to 20)
#    0.000    2.000    1.250    6.375    1.750    1.000 
#    2.250    1.250    2.750    0.000    0.000    0.000 
#    0.000    0.000    0.000    0.000    0.000    0.000 
#
# Total GULP energy -89179.268356 kJ/mol
# GULP energy per Si atom -5573.704272 kJ/mol
# Density = 2.016503 g / cm^3
# Si number density = 20.211032 Si / 1000 Ang^3
#
#
#
# Elastic Constant Matrix: (Units=GPa)
#
#
# Indices 1 2 3 4 5 6 
#
# 1 70.4450 8.7024 49.9654 0.0000 -17.8658 0.0000
# 2 8.7024 24.5931 28.2256 0.0000 -5.9391 0.0000
# 3 49.9654 28.2256 132.7786 0.0000 -7.3898 0.0000
# 4 0.0000 0.0000 0.0000 16.3748 0.0000 -1.6694
# 5 -17.8658 -5.9391 -7.3898 0.0000 47.2713 0.0000
# 6 0.0000 0.0000 0.0000 -1.6694 0.0000 7.6142
#
#
#
# Elastic Compliance Matrix: (Units=1/GPa)
#
#
# Indices 1 2 3 4 5 6 
#
# 1 0.021655 0.003960 -0.008582 0.000000 0.007340 0.000000
# 2 0.003960 0.055712 -0.012973 0.000000 0.006468 0.000000
# 3 -0.008582 -0.012973 0.013364 0.000000 -0.002784 0.000000
# 4 0.000000 0.000000 0.000000 0.062466 0.000000 0.013696
# 5 0.007340 0.006468 -0.002784 0.000000 0.024306 0.000000
# 6 0.000000 0.000000 0.000000 0.013696 0.000000 0.134336
#
#
# Mechanical properties :
#
#
# Convention : Reuss Voigt Hill
#
# Bulk Modulus (GPa) = 18.00524 44.62262 31.31393
# Shear Modulus (GPa) = 13.67831 23.64696 18.66263
#
# Velocity S-wave (km/s) = 2.60431 3.42424 3.04203
# Velocity P-wave (km/s) = 4.23925 6.14493 5.27880
#
# Compressibility (1/GPa) = 0.05553938
#
# Stress axis : x y z
#
# Youngs Moduli (GPa) = 46.17863 17.94948 74.82990
#
# Poissons Ratio (x) = -0.07107 0.64220
# Poissons Ratio (y) = -0.18285 0.97077
# Poissons Ratio (z) = 0.39631 0.23286
#
# Static dielectric constant tensor:
#      x y z
#    x 1.745280 0.000000 -0.001370 
#    y 0.000000 1.737330 0.000000 
#    z -0.001370 0.000000 1.770960 
# 
# From -- ./inp_files/43082.got.cif
#   From: 2010.05.17/outbox.cif.g08.bks.cpg/sg5_22_cif.got.tgz:43082.got - 2010.06.03 18:56:24.
