data_PCOD9123871
_publ_section_title
;
Structure prediction by ZEFSAII (Michael W. Deem and Ramdas Pophale) SiO2 
 PCOD9123871
Probable space group: C 2
;
_chemical_formula_sum "Si O2"
_cell_formula_units_Z 30
_cell_length_a 11.846806
_cell_length_b 15.395280
_cell_length_c 11.046283
_cell_angle_alpha 90.000000
_cell_angle_beta 52.604338
_cell_angle_gamma 90.000000
_cell_volume 1600.580053
_symmetry_space_group_name_H-M "C 2"
_symmetry_group_IT_number 5
_symmetry_cell_setting 'monoclinic'
loop_
_space_group_symop_operation_xyz
x,y,z
-x,y,-z
1/2+x,1/2+y,z
1/2-x,1/2+y,-z
loop_
_atom_site_type_symbol
_atom_site_label
_atom_site_fract_x
_atom_site_fract_y
_atom_site_fract_z
Si Si1 0.595823 0.208510 0.557427
Si Si2 0.896451 0.360588 0.214727
Si Si3 0.613416 0.075963 0.218865
Si Si4 0.991189 0.986844 0.861895
Si Si5 0.822625 0.440736 0.007733
Si Si6 0.727458 0.381421 0.564272
Si Si7 0.500000 0.944133 0.500000
Si Si8 0.153569 0.154407 0.764336
O O1 0.500000 0.230792 0.500000
O O2 0.497220 0.153009 0.707398
O O3 0.649984 0.290934 0.593768
O O4 0.729667 0.153955 0.419674
O O5 0.849901 0.415777 0.128192
O O6 0.796558 0.395700 0.386703
O O7 0.876643 0.257354 0.202898
O O8 0.063834 0.376140 0.131151
O O9 0.760438 0.112652 0.178708
O O10 0.550682 0.007014 0.357613
O O11 0.629107 0.032714 0.078803
O O12 0.117045 0.946304 0.698626
O O13 0.843861 0.944253 0.913663
O O14 0.020383 0.090974 0.829386
O O15 0.000000 0.967449 0.000000
O O16 0.866467 0.384779 0.556112
#
# Coordination Sequence:
#
# PCOD9123871 Si02
#       8
#     4   4   4   4   4   4   2   4
#     4   9  20  37  68  98 120 165 224 265 310 370
#     4  10  25  43  67  93 127 176 211 262 326 382
#     4  11  18  38  66  94 124 159 213 265 311 379
#     4  12  24  39  65 102 125 160 220 273 315 371
#     4  11  24  38  63  97 132 163 205 265 332 373
#     4  11  23  39  68  94 130 164 218 268 318 381
#     4  12  18  38  68  92 118 170 210 260 318 380
#     4  10  20  40  66  97 119 164 227 262 300 379
#
# _framework density 18.743203999999999
#
# number of rings (size 3 to 8) (size 9 to 14) (size 15 to 20)
#    0.000    1.333    6.000    0.000    7.467    0.000 
#    0.000    0.000   14.667    0.000    0.000    0.000 
#    0.000    0.000    0.000    0.000    0.000    0.000 
#
# Total GULP energy -83540.138487 kJ/mol
# GULP energy per Si atom -5569.342566 kJ/mol
# Density = 1.870054 g / cm^3
# Si number density = 18.743204 Si / 1000 Ang^3
#
#
#
# Elastic Constant Matrix: (Units=GPa)
#
#
# Indices 1 2 3 4 5 6 
#
# 1 94.6326 58.3122 45.4634 0.0000 -21.7004 0.0000
# 2 58.3122 86.2798 54.0495 0.0000 -3.7909 0.0000
# 3 45.4634 54.0495 117.5439 0.0000 -9.2424 0.0000
# 4 0.0000 0.0000 0.0000 29.1708 0.0000 -2.9570
# 5 -21.7004 -3.7909 -9.2424 0.0000 29.6997 0.0000
# 6 0.0000 0.0000 0.0000 -2.9570 0.0000 36.9475
#
#
#
# Elastic Compliance Matrix: (Units=1/GPa)
#
#
# Indices 1 2 3 4 5 6 
#
# 1 0.023488 -0.014415 -0.001283 0.000000 0.014923 0.000000
# 2 -0.014415 0.025128 -0.006720 0.000000 -0.009416 0.000000
# 3 -0.001283 -0.006720 0.012252 0.000000 0.002018 0.000000
# 4 0.000000 0.000000 0.000000 0.034561 0.000000 0.002766
# 5 0.014923 -0.009416 0.002018 0.000000 0.044000 0.000000
# 6 0.000000 0.000000 0.000000 0.002766 0.000000 0.027287
#
#
# Mechanical properties :
#
#
# Convention : Reuss Voigt Hill
#
# Bulk Modulus (GPa) = 62.36979 68.23405 65.30192
# Shear Modulus (GPa) = 23.05257 28.53898 25.79577
#
# Velocity S-wave (km/s) = 3.51082 3.90632 3.71384
# Velocity P-wave (km/s) = 7.05568 7.53854 7.30110
#
# Compressibility (1/GPa) = 0.01603340
#
# Stress axis : x y z
#
# Youngs Moduli (GPa) = 42.57512 39.79577 81.61846
#
# Poissons Ratio (x) = 0.57366 0.10471
# Poissons Ratio (y) = 0.61372 0.54844
# Poissons Ratio (z) = 0.05462 0.26741
#
# Static dielectric constant tensor:
#      x y z
#    x 1.664970 0.000000 -0.019790 
#    y 0.000000 1.655700 0.000000 
#    z -0.019790 0.000000 1.699680 
# 
# From -- ./inp_files/40053.got.cif
#   From: 2010.05.17/outbox.cif.g08.bks.cpg/sg5_21_cif.got.tgz:40053.got - 2010.06.03 18:56:24.
