data_PCOD9123269
_publ_section_title
;
Structure prediction by ZEFSAII (Michael W. Deem and Ramdas Pophale) SiO2 
 PCOD9123269
Probable space group: C 2
;
_chemical_formula_sum "Si O2"
_cell_formula_units_Z 26
_cell_length_a 6.923948
_cell_length_b 8.074607
_cell_length_c 18.798494
_cell_angle_alpha 90.000000
_cell_angle_beta 59.851439
_cell_angle_gamma 90.000000
_cell_volume 908.817737
_symmetry_space_group_name_H-M "C 2"
_symmetry_group_IT_number 5
_symmetry_cell_setting 'monoclinic'
loop_
_space_group_symop_operation_xyz
x,y,z
-x,y,-z
1/2+x,1/2+y,z
1/2-x,1/2+y,-z
loop_
_atom_site_type_symbol
_atom_site_label
_atom_site_fract_x
_atom_site_fract_y
_atom_site_fract_z
Si Si1 0.979483 0.127920 0.428398
Si Si2 0.500000 0.169828 0.500000
Si Si3 0.208093 0.456989 0.718301
Si Si4 0.689467 0.133929 0.024779
Si Si5 0.851265 0.441752 0.659554
Si Si6 0.073982 0.793932 0.818694
Si Si7 0.552127 0.795413 0.127500
O O1 0.746707 0.224735 0.474775
O O2 0.000000 0.040217 0.500000
O O3 0.044365 0.996978 0.355711
O O4 0.157200 0.271843 0.383406
O O5 0.421442 0.075893 0.588256
O O6 0.103227 0.623209 0.770480
O O7 0.057891 0.417727 0.677152
O O8 0.178435 0.324954 0.787294
O O9 0.649203 0.273777 0.093194
O O10 0.632658 0.958734 0.070054
O O11 0.500000 0.162442 0.000000
O O12 0.915196 0.151190 0.936746
O O13 0.639273 0.442916 0.753142
O O14 0.272806 0.782733 0.840102
#
# Coordination Sequence:
#
# PCOD9123269 Si02
#       7
#     4   2   4   4   4   4   4
#     4  11  22  38  59  89 125 165 213 271 317 377
#     4  12  24  36  62  92 116 168 220 256 330 390
#     4   9  18  37  62  86 124 171 208 264 327 375
#     4   9  17  33  56  87 121 164 212 263 320 385
#     4  10  20  38  59  86 122 164 211 263 323 382
#     4   8  17  34  60  84 120 164 205 260 326 378
#     4   9  17  33  61  90 121 168 213 260 326 387
#
# _framework density 28.608598000000001
#
# number of rings (size 3 to 8) (size 9 to 14) (size 15 to 20)
#    0.000    2.462    2.308    0.000    0.000    1.231 
#    0.000   11.538    0.000   27.692    0.000    0.000 
#    0.000    0.000    0.000    0.000    0.000    0.000 
#
# Total GULP energy -72643.837262 kJ/mol
# GULP energy per Si atom -5587.987482 kJ/mol
# Density = 2.854348 g / cm^3
# Si number density = 28.608598 Si / 1000 Ang^3
#
#
#
# Elastic Constant Matrix: (Units=GPa)
#
#
# Indices 1 2 3 4 5 6 
#
# 1 72.2748 5.8755 51.1237 0.0000 -2.4896 0.0000
# 2 5.8755 63.7647 39.4549 0.0000 8.1066 0.0000
# 3 51.1237 39.4549 198.8713 0.0000 15.5906 0.0000
# 4 0.0000 0.0000 0.0000 57.1132 0.0000 10.8628
# 5 -2.4896 8.1066 15.5906 0.0000 59.1550 0.0000
# 6 0.0000 0.0000 0.0000 10.8628 0.0000 35.0685
#
#
#
# Elastic Compliance Matrix: (Units=1/GPa)
#
#
# Indices 1 2 3 4 5 6 
#
# 1 0.017195 0.001148 -0.004791 0.000000 0.001829 0.000000
# 2 0.001148 0.018094 -0.003772 0.000000 -0.001437 0.000000
# 3 -0.004791 -0.003772 0.007131 0.000000 -0.001564 0.000000
# 4 0.000000 0.000000 0.000000 0.018605 0.000000 -0.005763
# 5 0.001829 -0.001437 -0.001564 0.000000 0.017591 0.000000
# 6 0.000000 0.000000 0.000000 -0.005763 0.000000 0.030301
#
#
# Mechanical properties :
#
#
# Convention : Reuss Voigt Hill
#
# Bulk Modulus (GPa) = 36.24728 58.64655 47.44691
# Shear Modulus (GPa) = 37.60978 46.16444 41.88711
#
# Velocity S-wave (km/s) = 3.62972 4.02139 3.83056
# Velocity P-wave (km/s) = 5.50128 6.48893 6.01541
#
# Compressibility (1/GPa) = 0.02758828
#
# Stress axis : x y z
#
# Youngs Moduli (GPa) = 58.15641 55.26817 140.23121
#
# Poissons Ratio (x) = -0.06344 0.67191
# Poissons Ratio (y) = -0.06675 0.52896
# Poissons Ratio (z) = 0.27865 0.20847
#
# Static dielectric constant tensor:
#      x y z
#    x 2.327860 0.000000 -0.053700 
#    y 0.000000 2.249170 0.000000 
#    z -0.053700 0.000000 2.250710 
# 
# From -- ./inp_files/64380.got.cif
#   From: 2010.05.17/outbox.cif.g08.bks.cpg/sg5_33_cif.got.tgz:64380.got - 2010.06.03 18:56:24.
