data_PCOD9123375
_publ_section_title
;
Structure prediction by ZEFSAII (Michael W. Deem and Ramdas Pophale) SiO2 
 PCOD9123375
Probable space group: C 2
;
_chemical_formula_sum "Si O2"
_cell_formula_units_Z 20
_cell_length_a 7.380901
_cell_length_b 22.472771
_cell_length_c 8.083501
_cell_angle_alpha 90.000000
_cell_angle_beta 37.496454
_cell_angle_gamma 90.000000
_cell_volume 816.164311
_symmetry_space_group_name_H-M "C 2"
_symmetry_group_IT_number 5
_symmetry_cell_setting 'monoclinic'
loop_
_space_group_symop_operation_xyz
x,y,z
-x,y,-z
1/2+x,1/2+y,z
1/2-x,1/2+y,-z
loop_
_atom_site_type_symbol
_atom_site_label
_atom_site_fract_x
_atom_site_fract_y
_atom_site_fract_z
Si Si1 0.716210 0.082490 0.082984
Si Si2 0.132510 0.409475 0.174432
Si Si3 0.500000 0.007789 0.500000
Si Si4 0.410204 0.334588 0.371349
Si Si5 0.000000 0.494801 0.000000
Si Si6 0.155861 0.711316 0.210803
O O1 0.449775 0.053521 0.385479
O O2 0.660384 0.151861 0.097660
O O3 0.737725 0.040074 0.908434
O O4 0.000000 0.078487 0.000000
O O5 0.207040 0.458625 0.260105
O O6 0.390813 0.379346 0.880989
O O7 0.927013 0.356252 0.386100
O O8 0.926896 0.449160 0.199839
O O9 0.500000 0.335141 0.500000
O O10 0.482610 0.267569 0.263254
O O11 0.000000 0.696092 0.500000
O O12 0.500000 0.728325 0.000000
#
# Coordination Sequence:
#
# PCOD9123375 Si02
#       6
#     4   4   2   4   2   4
#     4  10  22  42  64  92 127 171 213 265 319 378
#     4  11  23  38  61  92 128 162 212 260 320 380
#     4  10  24  38  60  90 130 170 210 262 322 386
#     4  11  20  37  61  92 121 164 211 265 312 381
#     4  10  22  42  62  98 128 168 212 264 318 390
#     4  10  20  38  63  88 120 163 216 260 314 380
#
# _framework density 24.504868999999999
#
# number of rings (size 3 to 8) (size 9 to 14) (size 15 to 20)
#    0.000    1.600    3.000    2.400    5.600    0.000 
#    0.000    2.000    0.000    0.000    0.000    0.000 
#    0.000    0.000    0.000    0.000    0.000    0.000 
#
# Total GULP energy -55756.412551 kJ/mol
# GULP energy per Si atom -5575.641255 kJ/mol
# Density = 2.444910 g / cm^3
# Si number density = 24.504869 Si / 1000 Ang^3
#
#
#
# Elastic Constant Matrix: (Units=GPa)
#
#
# Indices 1 2 3 4 5 6 
#
# 1 64.9594 42.0937 21.4627 0.0000 3.1875 0.0000
# 2 42.0937 208.6727 25.5023 0.0000 1.6637 0.0000
# 3 21.4627 25.5023 115.3738 0.0000 -12.2943 0.0000
# 4 0.0000 0.0000 0.0000 18.0120 0.0000 2.4371
# 5 3.1875 1.6637 -12.2943 0.0000 27.1732 0.0000
# 6 0.0000 0.0000 0.0000 2.4371 0.0000 31.2613
#
#
#
# Elastic Compliance Matrix: (Units=1/GPa)
#
#
# Indices 1 2 3 4 5 6 
#
# 1 0.018779 -0.003381 -0.003109 0.000000 -0.003402 0.000000
# 2 -0.003381 0.005552 -0.000622 0.000000 -0.000225 0.000000
# 3 -0.003109 -0.000622 0.009904 0.000000 0.004884 0.000000
# 4 0.000000 0.000000 0.000000 0.056110 0.000000 -0.004374
# 5 -0.003402 -0.000225 0.004884 0.000000 0.039423 0.000000
# 6 0.000000 0.000000 0.000000 -0.004374 0.000000 0.032329
#
#
# Mechanical properties :
#
#
# Convention : Reuss Voigt Hill
#
# Bulk Modulus (GPa) = 49.97237 63.01372 56.49304
# Shear Modulus (GPa) = 27.32350 35.28577 31.30463
#
# Velocity S-wave (km/s) = 3.34282 3.79878 3.57807
# Velocity P-wave (km/s) = 5.94444 6.70907 6.33829
#
# Compressibility (1/GPa) = 0.02001106
#
# Stress axis : x y z
#
# Youngs Moduli (GPa) = 53.25020 180.11281 100.97221
#
# Poissons Ratio (x) = 0.60899 0.31389
# Poissons Ratio (y) = 0.18005 0.06283
# Poissons Ratio (z) = 0.16554 0.11207
#
# Static dielectric constant tensor:
#      x y z
#    x 2.061210 0.000000 -0.003200 
#    y 0.000000 1.931410 0.000000 
#    z -0.003200 0.000000 1.972540 
# 
# From -- ./inp_files/16412.got.cif
#   From: 2010.05.17/outbox.cif.g08.bks.cpg/sg5_9_cif.got.tgz:16412.got - 2010.06.03 18:56:24.
