data_PCOD9123673
_publ_section_title
;
Structure prediction by ZEFSAII (Michael W. Deem and Ramdas Pophale) SiO2 
 PCOD9123673
Probable space group: C 2
;
_chemical_formula_sum "Si O2"
_cell_formula_units_Z 22
_cell_length_a 13.552144
_cell_length_b 14.942371
_cell_length_c 10.517342
_cell_angle_alpha 90.000000
_cell_angle_beta 31.105094
_cell_angle_gamma 90.000000
_cell_volume 1100.261381
_symmetry_space_group_name_H-M "C 2"
_symmetry_group_IT_number 5
_symmetry_cell_setting 'monoclinic'
loop_
_space_group_symop_operation_xyz
x,y,z
-x,y,-z
1/2+x,1/2+y,z
1/2-x,1/2+y,-z
loop_
_atom_site_type_symbol
_atom_site_label
_atom_site_fract_x
_atom_site_fract_y
_atom_site_fract_z
Si Si1 0.459536 0.859470 0.282007
Si Si2 0.743279 0.128669 0.928567
Si Si3 0.698359 0.450369 0.242797
Si Si4 0.974959 0.174644 0.173586
Si Si5 0.000000 0.257595 0.500000
Si Si6 0.675034 0.044654 0.635270
O O1 0.387146 0.774903 0.280161
O O2 0.479076 0.818363 0.399799
O O3 0.344088 0.951456 0.420203
O O4 0.651468 0.889010 0.995429
O O5 0.821250 0.192720 0.730067
O O6 0.824189 0.171481 0.969637
O O7 0.847555 0.032854 0.799655
O O8 0.521994 0.101566 0.160125
O O9 0.500000 0.405267 0.500000
O O10 0.787468 0.502718 0.265976
O O11 0.835956 0.108293 0.401890
O O12 0.000000 0.149666 0.000000
#
# Coordination Sequence:
#
# PCOD9123673 Si02
#       6
#     4   4   4   4   2   4
#     4  10  23  40  63  94 132 166 213 271 310 383
#     4  10  20  39  67  90 121 173 212 265 310 381
#     4  11  19  39  68  91 121 170 222 256 317 383
#     4  11  23  43  61  95 138 166 213 270 316 373
#     4  10  20  42  62  96 136 162 212 274 312 370
#     4  11  23  41  68  94 125 174 216 260 322 384
#
# _framework density 19.995249000000001
#
# number of rings (size 3 to 8) (size 9 to 14) (size 15 to 20)
#    0.000    1.455    2.727    4.364    0.000    3.636 
#   13.091    0.000    0.000    0.000    0.000    0.000 
#    0.000    0.000    0.000    0.000    0.000    0.000 
#
# Total GULP energy -61296.250950 kJ/mol
# GULP energy per Si atom -5572.386450 kJ/mol
# Density = 1.994974 g / cm^3
# Si number density = 19.995249 Si / 1000 Ang^3
#
#
#
# Elastic Constant Matrix: (Units=GPa)
#
#
# Indices 1 2 3 4 5 6 
#
# 1 96.3830 27.8525 57.2435 -0.0032 12.8496 0.0013
# 2 27.8525 133.7753 49.4851 -0.0055 1.7087 0.0024
# 3 57.2435 49.4851 101.7378 -0.0114 3.7392 0.0053
# 4 -0.0032 -0.0055 -0.0114 38.6147 0.0043 6.8040
# 5 12.8496 1.7087 3.7392 0.0043 32.6688 -0.0019
# 6 0.0013 0.0024 0.0053 6.8040 -0.0019 31.5615
#
#
#
# Elastic Compliance Matrix: (Units=1/GPa)
#
#
# Indices 1 2 3 4 5 6 
#
# 1 0.016495 -0.000007 -0.009077 -0.000001 -0.005449 0.000001
# 2 -0.000007 0.009115 -0.004431 0.000000 0.000033 0.000000
# 3 -0.009077 -0.004431 0.017024 0.000004 0.001854 -0.000003
# 4 -0.000001 0.000000 0.000004 0.026919 -0.000004 -0.005803
# 5 -0.005449 0.000033 0.001854 -0.000004 0.032539 0.000003
# 6 0.000001 0.000000 -0.000003 -0.005803 0.000003 0.032935
#
#
# Mechanical properties :
#
#
# Convention : Reuss Voigt Hill
#
# Bulk Modulus (GPa) = 64.08856 66.78427 65.43642
# Shear Modulus (GPa) = 29.89363 33.72332 31.80848
#
# Velocity S-wave (km/s) = 3.87077 4.11124 3.99281
# Velocity P-wave (km/s) = 7.21793 7.48391 7.35213
#
# Compressibility (1/GPa) = 0.01560341
#
# Stress axis : x y z
#
# Youngs Moduli (GPa) = 60.62497 109.70538 58.74146
#
# Poissons Ratio (x) = 0.00075 0.53322
# Poissons Ratio (y) = 0.00042 0.26029
# Poissons Ratio (z) = 0.55031 0.48611
#
# Static dielectric constant tensor:
#      x y z
#    x 1.789890 0.000000 -0.020470 
#    y 0.000000 1.731570 0.000000 
#    z -0.020470 0.000000 1.736100 
# 
# From -- ./inp_files/42846.got.cif
#   From: 2010.05.17/outbox.cif.g08.bks.cpg/sg5_22_cif.got.tgz:42846.got - 2010.06.03 18:56:24.
