data_PCOD9123188
_publ_section_title
;
Structure prediction by ZEFSAII (Michael W. Deem and Ramdas Pophale) SiO2 
 PCOD9123188
Probable space group: C 2
;
_chemical_formula_sum "Si O2"
_cell_formula_units_Z 24
_cell_length_a 14.971844
_cell_length_b 12.485695
_cell_length_c 5.508969
_cell_angle_alpha 90.000000
_cell_angle_beta 74.128934
_cell_angle_gamma 90.000000
_cell_volume 990.555989
_symmetry_space_group_name_H-M "C 2"
_symmetry_group_IT_number 5
_symmetry_cell_setting 'monoclinic'
loop_
_space_group_symop_operation_xyz
x,y,z
-x,y,-z
1/2+x,1/2+y,z
1/2-x,1/2+y,-z
loop_
_atom_site_type_symbol
_atom_site_label
_atom_site_fract_x
_atom_site_fract_y
_atom_site_fract_z
Si Si1 0.199561 0.894340 0.458662
Si Si2 0.000000 0.611884 0.000000
Si Si3 0.289843 0.107451 0.142469
Si Si4 0.500000 0.983783 0.500000
Si Si5 0.500000 0.603512 0.000000
Si Si6 0.180919 0.432638 0.233034
Si Si7 0.826799 0.248745 0.075400
Si Si8 0.500000 0.469685 0.500000
O O1 0.222979 0.894697 0.725062
O O2 0.245259 0.787107 0.314416
O O3 0.093054 0.901821 0.468872
O O4 0.248218 0.008350 0.333622
O O5 0.892764 0.654018 0.122845
O O6 0.986860 0.549961 0.755617
O O7 0.212224 0.194418 0.141746
O O8 0.298827 0.051242 0.871094
O O9 0.595419 0.921860 0.479080
O O10 0.590762 0.676688 0.890358
O O11 0.487721 0.536788 0.759658
O O12 0.141229 0.364974 0.039396
#
# Coordination Sequence:
#
# PCOD9123188 Si02
#       8
#     4   2   4   2   2   4   4   2
#     4  11  24  45  71 101 146 195 242 306 371 442
#     4  10  20  39  69  90 128 176 224 275 357 418
#     4  10  21  45  63  99 135 191 229 305 361 445
#     4  10  20  37  65  96 124 170 216 277 359 406
#     4  12  28  49  81 112 150 198 260 307 377 446
#     4  10  23  39  69  96 145 175 237 299 370 425
#     4  11  26  42  71 109 141 188 254 309 362 442
#     4  12  28  51  79 106 154 212 242 305 385 460
#
# _framework density 24.228816999999999
#
# number of rings (size 3 to 8) (size 9 to 14) (size 15 to 20)
#    0.000    1.333    3.333    1.000    7.000    2.667 
#    3.000    0.833    0.000    0.000    0.000    0.000 
#    0.000    0.000    0.000    0.000    0.000    0.000 
#
# Total GULP energy -66829.456492 kJ/mol
# GULP energy per Si atom -5569.121374 kJ/mol
# Density = 2.417367 g / cm^3
# Si number density = 24.228817 Si / 1000 Ang^3
#
#
#
# Elastic Constant Matrix: (Units=GPa)
#
#
# Indices 1 2 3 4 5 6 
#
# 1 170.9091 17.3552 14.6080 0.0000 5.9768 0.0000
# 2 17.3552 50.1848 10.2408 0.0000 7.7340 0.0000
# 3 14.6080 10.2408 76.3861 0.0000 11.0091 0.0000
# 4 0.0000 0.0000 0.0000 21.2356 0.0000 -13.1269
# 5 5.9768 7.7340 11.0091 0.0000 37.0916 0.0000
# 6 0.0000 0.0000 0.0000 -13.1269 0.0000 -26.9541
#
#
#
# Elastic Compliance Matrix: (Units=1/GPa)
#
#
# Indices 1 2 3 4 5 6 
#
# 1 0.006129 -0.001890 -0.000870 0.000000 -0.000335 0.000000
# 2 -0.001890 0.021543 -0.002009 0.000000 -0.003591 0.000000
# 3 -0.000870 -0.002009 0.014048 0.000000 -0.003610 0.000000
# 4 0.000000 0.000000 0.000000 0.036194 0.000000 -0.017627
# 5 -0.000335 -0.003591 -0.003610 0.000000 0.028835 0.000000
# 6 0.000000 0.000000 0.000000 -0.017627 0.000000 -0.028516
#
#
# Mechanical properties :
#
#
# Convention : Reuss Voigt Hill
#
# Bulk Modulus (GPa) = 31.07491 42.43200 36.75345
# Shear Modulus (GPa) = 50.76128 23.29302 37.02715
#
# Velocity S-wave (km/s) = 4.58217 3.10397 3.91350
# Velocity P-wave (km/s) = 6.39128 5.51337 5.96849
#
# Compressibility (1/GPa) = 0.03218030
#
# Stress axis : x y z
#
# Youngs Moduli (GPa) = 163.15511 46.41773 71.18688
#
# Poissons Ratio (x) = 0.08775 0.06196
# Poissons Ratio (y) = 0.30842 0.14303
# Poissons Ratio (z) = 0.14201 0.09326
#
# Static dielectric constant tensor:
#      x y z
#    x 2.070230 0.000000 -0.117430 
#    y 0.000000 1.947360 0.000000 
#    z -0.117430 0.000000 2.101520 
# 
# From -- ./inp_files/6751.got.cif
#   From: 2010.05.17/outbox.cif.g08.bks.cpg/sg5_4_cif.got.tgz:6751.got - 2010.06.03 18:56:24.
