data_PCOD9123484
_publ_section_title
;
Structure prediction by ZEFSAII (Michael W. Deem and Ramdas Pophale) SiO2 
 PCOD9123484
Probable space group: C 2
;
_chemical_formula_sum "Si O2"
_cell_formula_units_Z 28
_cell_length_a 17.021570
_cell_length_b 5.087142
_cell_length_c 13.637420
_cell_angle_alpha 90.000000
_cell_angle_beta 71.159760
_cell_angle_gamma 90.000000
_cell_volume 1117.611435
_symmetry_space_group_name_H-M "C 2"
_symmetry_group_IT_number 5
_symmetry_cell_setting 'monoclinic'
loop_
_space_group_symop_operation_xyz
x,y,z
-x,y,-z
1/2+x,1/2+y,z
1/2-x,1/2+y,-z
loop_
_atom_site_type_symbol
_atom_site_label
_atom_site_fract_x
_atom_site_fract_y
_atom_site_fract_z
Si Si1 0.934731 0.441590 0.706487
Si Si2 0.140956 0.736607 0.038649
Si Si3 0.589906 0.710348 0.772124
Si Si4 0.203130 0.422382 0.565340
Si Si5 0.698006 0.734230 0.123926
Si Si6 0.000000 0.047196 0.000000
Si Si7 0.939139 0.800736 0.366969
Si Si8 0.000000 0.170105 0.500000
O O1 0.843395 0.348188 0.764688
O O2 0.005128 0.323284 0.753010
O O3 0.963959 0.741092 0.694733
O O4 0.949778 0.344939 0.593189
O O5 0.204902 0.776408 0.923920
O O6 0.176900 0.935247 0.106635
O O7 0.053346 0.851735 0.046311
O O8 0.151692 0.434513 0.065429
O O9 0.596508 0.423584 0.718246
O O10 0.674198 0.845427 0.691331
O O11 0.562294 0.699435 0.898248
O O12 0.235848 0.163874 0.493663
O O13 0.114059 0.553467 0.576187
O O14 0.941358 0.994368 0.456348
#
# Coordination Sequence:
#
# PCOD9123484 Si02
#       8
#     4   4   4   4   4   2   4   2
#     4  10  20  38  66  95 133 179 231 290 350 419
#     4  10  23  41  69  97 138 175 236 277 350 399
#     4  10  22  40  69 104 139 189 236 295 362 416
#     4  11  22  44  73  95 137 192 233 288 360 429
#     4  10  21  44  68  95 131 190 217 288 347 413
#     4  12  22  44  70 116 142 192 242 300 334 460
#     4  10  21  41  66 100 137 184 230 293 362 412
#     4  10  22  38  64 104 132 166 244 290 338 426
#
# _framework density 25.053431
#
# number of rings (size 3 to 8) (size 9 to 14) (size 15 to 20)
#    0.000    1.714    2.857    1.286    2.000    0.571 
#    5.143    7.143    0.000    0.000    0.000    0.000 
#    0.000    0.000    0.000    0.000    0.000    0.000 
#
# Total GULP energy -77960.762938 kJ/mol
# GULP energy per Si atom -5568.625924 kJ/mol
# Density = 2.499641 g / cm^3
# Si number density = 25.053431 Si / 1000 Ang^3
#
#
#
# Elastic Constant Matrix: (Units=GPa)
#
#
# Indices 1 2 3 4 5 6 
#
# 1 20.1426 4.0378 25.2918 0.0000 -25.0358 0.0000
# 2 4.0378 90.6178 37.1138 0.0000 -8.6763 0.0000
# 3 25.2918 37.1138 178.9777 0.0000 -33.4603 0.0000
# 4 0.0000 0.0000 0.0000 32.9230 0.0000 -18.4789
# 5 -25.0358 -8.6763 -33.4603 0.0000 45.4386 0.0000
# 6 0.0000 0.0000 0.0000 -18.4789 0.0000 43.6307
#
#
#
# Elastic Compliance Matrix: (Units=1/GPa)
#
#
# Indices 1 2 3 4 5 6 
#
# 1 0.166939 0.004247 -0.008261 0.000000 0.086708 0.000000
# 2 0.004247 0.012179 -0.002613 0.000000 0.002741 0.000000
# 3 -0.008261 -0.002613 0.007366 0.000000 0.000374 0.000000
# 4 0.000000 0.000000 0.000000 0.039846 0.000000 0.016876
# 5 0.086708 0.002741 0.000374 0.000000 0.070581 0.000000
# 6 0.000000 0.000000 0.000000 0.016876 0.000000 0.030067
#
#
# Mechanical properties :
#
#
# Convention : Reuss Voigt Hill
#
# Bulk Modulus (GPa) = 5.77269 46.95832 26.36551
# Shear Modulus (GPa) = 12.56357 39.28475 25.92416
#
# Velocity S-wave (km/s) = 2.24178 3.96414 3.22025
# Velocity P-wave (km/s) = 3.00166 6.30369 4.93693
#
# Compressibility (1/GPa) = 0.17322948
#
# Stress axis : x y z
#
# Youngs Moduli (GPa) = 5.99022 82.10976 135.75063
#
# Poissons Ratio (x) = -0.34870 1.12143
# Poissons Ratio (y) = -0.02544 0.35473
# Poissons Ratio (z) = 0.04948 0.21456
#
# Static dielectric constant tensor:
#      x y z
#    x 2.055370 0.000000 -0.073670 
#    y 0.000000 2.076510 0.000000 
#    z -0.073670 0.000000 2.067280 
# 
# From -- ./inp_files/45599.got.cif
#   From: 2010.05.17/outbox.cif.g08.bks.cpg/sg5_23_cif.got.tgz:45599.got - 2010.06.03 18:56:24.
