data_PCOD9123236
_publ_section_title
;
Structure prediction by ZEFSAII (Michael W. Deem and Ramdas Pophale) SiO2 
 PCOD9123236
Probable space group: C 2
;
_chemical_formula_sum "Si O2"
_cell_formula_units_Z 16
_cell_length_a 18.510379
_cell_length_b 5.113843
_cell_length_c 12.094277
_cell_angle_alpha 90.000000
_cell_angle_beta 32.036970
_cell_angle_gamma 90.000000
_cell_volume 607.296051
_symmetry_space_group_name_H-M "C 2"
_symmetry_group_IT_number 5
_symmetry_cell_setting 'monoclinic'
loop_
_space_group_symop_operation_xyz
x,y,z
-x,y,-z
1/2+x,1/2+y,z
1/2-x,1/2+y,-z
loop_
_atom_site_type_symbol
_atom_site_label
_atom_site_fract_x
_atom_site_fract_y
_atom_site_fract_z
Si Si1 0.363187 0.965980 0.715663
Si Si2 0.629020 0.605750 0.749211
Si Si3 0.096240 0.313431 0.084463
Si Si4 0.770721 0.599748 0.271773
O O1 0.500000 0.111258 0.500000
O O2 0.380177 0.897979 0.821463
O O3 0.346452 0.718510 0.654750
O O4 0.223810 0.127767 0.888328
O O5 0.549227 0.675537 0.740913
O O6 0.688702 0.323561 0.694607
O O7 0.732866 0.831049 0.654539
O O8 0.500000 0.622267 0.000000
O O9 0.111812 0.548091 0.975241
#
# Coordination Sequence:
#
# PCOD9123236 Si02
#       4
#     4   4   4   4
#     4  12  26  45  70 109 146 190 237 294 360 440
#     4  10  20  37  73  98 133 191 235 291 354 413
#     4  11  24  43  75 102 145 190 236 297 365 417
#     4  11  21  42  70 103 137 187 240 288 355 422
#
# _framework density 26.346294
#
# number of rings (size 3 to 8) (size 9 to 14) (size 15 to 20)
#    0.000    1.000    7.500    2.250    0.000    1.000 
#    0.000    2.500    0.000    0.000    0.000    0.000 
#    0.000    0.000    0.000    0.000    0.000    0.000 
#
# Total GULP energy -44777.650841 kJ/mol
# GULP energy per Si atom -5597.206355 kJ/mol
# Density = 2.628633 g / cm^3
# Si number density = 26.346294 Si / 1000 Ang^3
#
#
#
# Elastic Constant Matrix: (Units=GPa)
#
#
# Indices 1 2 3 4 5 6 
#
# 1 217.2262 68.7624 39.2948 -0.0026 -2.2114 -0.0006
# 2 68.7624 146.8860 37.0897 -0.0263 -6.0528 0.0210
# 3 39.2948 37.0897 126.8394 -0.0121 -12.3036 0.0043
# 4 -0.0026 -0.0263 -0.0121 24.0372 0.0030 -18.0751
# 5 -2.2114 -6.0528 -12.3036 0.0030 32.7284 0.0017
# 6 -0.0006 0.0210 0.0043 -18.0751 0.0017 37.5883
#
#
#
# Elastic Compliance Matrix: (Units=1/GPa)
#
#
# Indices 1 2 3 4 5 6 
#
# 1 0.005533 -0.002338 -0.001076 -0.000002 -0.000463 0.000001
# 2 -0.002338 0.008349 -0.001642 0.000007 0.000769 -0.000001
# 3 -0.001076 -0.001642 0.008989 0.000003 0.003003 0.000001
# 4 -0.000002 0.000007 0.000003 0.065166 -0.000005 0.031336
# 5 -0.000463 0.000769 0.003003 -0.000005 0.031794 -0.000005
# 6 0.000001 -0.000001 0.000001 0.031336 -0.000005 0.041673
#
#
# Mechanical properties :
#
#
# Convention : Reuss Voigt Hill
#
# Bulk Modulus (GPa) = 78.37464 86.80504 82.58984
# Shear Modulus (GPa) = 28.43036 41.92444 35.17740
#
# Velocity S-wave (km/s) = 3.28853 3.99342 3.65799
# Velocity P-wave (km/s) = 6.65069 7.36766 7.01834
#
# Compressibility (1/GPa) = 0.01275923
#
# Stress axis : x y z
#
# Youngs Moduli (GPa) = 180.72124 119.77693 111.25038
#
# Poissons Ratio (x) = 0.28002 0.11965
# Poissons Ratio (y) = 0.42250 0.18273
# Poissons Ratio (z) = 0.19437 0.19673
#
# Static dielectric constant tensor:
#      x y z
#    x 2.073570 0.000000 0.021600 
#    y 0.000000 2.123220 0.000010 
#    z 0.021600 0.000010 2.098330 
# 
# From -- ./inp_files/41047.got.cif
#   From: 2010.05.17/outbox.cif.g08.bks.cpg/sg5_21_cif.got.tgz:41047.got - 2010.06.03 18:56:24.
