data_PCOD9123705
_publ_section_title
;
Structure prediction by ZEFSAII (Michael W. Deem and Ramdas Pophale) SiO2 
 PCOD9123705
Probable space group: C 2
;
_chemical_formula_sum "Si O2"
_cell_formula_units_Z 20
_cell_length_a 16.088095
_cell_length_b 7.214391
_cell_length_c 13.233386
_cell_angle_alpha 90.000000
_cell_angle_beta 38.105250
_cell_angle_gamma 90.000000
_cell_volume 947.843073
_symmetry_space_group_name_H-M "C 2"
_symmetry_group_IT_number 5
_symmetry_cell_setting 'monoclinic'
loop_
_space_group_symop_operation_xyz
x,y,z
-x,y,-z
1/2+x,1/2+y,z
1/2-x,1/2+y,-z
loop_
_atom_site_type_symbol
_atom_site_label
_atom_site_fract_x
_atom_site_fract_y
_atom_site_fract_z
Si Si1 0.095243 0.876650 0.815777
Si Si2 0.151557 0.178831 0.345265
Si Si3 0.000000 0.813197 0.500000
Si Si4 0.696554 0.966689 0.954730
Si Si5 0.000000 0.239318 0.000000
Si Si6 0.553291 0.212941 0.232260
O O1 0.243119 0.794657 0.690806
O O2 0.041140 0.814277 0.758955
O O3 0.000000 0.800662 0.000000
O O4 0.078695 0.096621 0.850007
O O5 0.226664 0.146198 0.166250
O O6 0.000000 0.257227 0.500000
O O7 0.122358 0.961196 0.399563
O O8 0.995546 0.698747 0.606523
O O9 0.813205 0.836064 0.883105
O O10 0.597991 0.023868 0.138632
O O11 0.605842 0.863236 0.958809
#
# Coordination Sequence:
#
# PCOD9123705 Si02
#       6
#     4   4   2   4   2   4
#     4  10  20  39  70 105 133 172 238 280 340 415
#     4   9  19  41  70  95 141 174 221 289 355 403
#     4   8  22  40  66 102 148 172 224 280 348 414
#     4  11  20  38  70  97 135 183 232 283 339 408
#     4  10  22  38  66 110 134 172 246 284 326 410
#     4  11  21  39  72  97 137 183 229 283 343 412
#
# _framework density 21.100538
#
# number of rings (size 3 to 8) (size 9 to 14) (size 15 to 20)
#    1.200    0.800    2.000    2.400    0.000    0.000 
#    0.000    5.000   19.800    1.200    0.000    0.000 
#    0.000    0.000    0.000    0.000    0.000    0.000 
#
# Total GULP energy -55695.409442 kJ/mol
# GULP energy per Si atom -5569.540944 kJ/mol
# Density = 2.105251 g / cm^3
# Si number density = 21.100538 Si / 1000 Ang^3
#
#
#
# Elastic Constant Matrix: (Units=GPa)
#
#
# Indices 1 2 3 4 5 6 
#
# 1 189.4431 52.4623 75.2820 0.0000 -11.8185 0.0000
# 2 52.4623 47.2948 31.1551 0.0000 -2.2886 0.0001
# 3 75.2820 31.1551 115.7533 0.0000 12.0616 0.0000
# 4 0.0000 0.0000 0.0000 23.8405 0.0000 5.3878
# 5 -11.8185 -2.2886 12.0616 0.0000 42.6911 -0.0001
# 6 0.0000 0.0001 0.0000 5.3878 -0.0001 12.6118
#
#
#
# Elastic Compliance Matrix: (Units=1/GPa)
#
#
# Indices 1 2 3 4 5 6 
#
# 1 0.009239 -0.007158 -0.004439 0.000000 0.003428 0.000000
# 2 -0.007158 0.031745 -0.003977 0.000000 0.000844 0.000000
# 3 -0.004439 -0.003977 0.013133 0.000000 -0.005153 0.000000
# 4 0.000000 0.000000 0.000000 0.046428 0.000000 -0.019834
# 5 0.003428 0.000844 -0.005153 0.000000 0.025874 0.000000
# 6 0.000000 0.000000 0.000000 -0.019834 0.000000 0.087764
#
#
# Mechanical properties :
#
#
# Convention : Reuss Voigt Hill
#
# Bulk Modulus (GPa) = 43.53709 74.47669 59.00689
# Shear Modulus (GPa) = 19.76385 28.73480 24.24932
#
# Velocity S-wave (km/s) = 3.06380 3.69427 3.39370
# Velocity P-wave (km/s) = 5.76140 7.31912 6.58647
#
# Compressibility (1/GPa) = 0.02296892
#
# Stress axis : x y z
#
# Youngs Moduli (GPa) = 108.23807 31.50147 76.14160
#
# Poissons Ratio (x) = 0.22549 0.33801
# Poissons Ratio (y) = 0.77478 0.30278
# Poissons Ratio (z) = 0.48050 0.12527
#
# Static dielectric constant tensor:
#      x y z
#    x 1.710590 0.000000 0.005630 
#    y 0.000000 1.777340 0.000000 
#    z 0.005630 0.000000 1.871610 
# 
# From -- ./inp_files/41256.got.cif
#   From: 2010.05.17/outbox.cif.g08.bks.cpg/sg5_21_cif.got.tgz:41256.got - 2010.06.03 18:56:24.
