data_PCOD9123148
_publ_section_title
;
Structure prediction by ZEFSAII (Michael W. Deem and Ramdas Pophale) SiO2 
 PCOD9123148
Probable space group: C 2
;
_chemical_formula_sum "Si O2"
_cell_formula_units_Z 26
_cell_length_a 9.173493
_cell_length_b 19.914554
_cell_length_c 8.188034
_cell_angle_alpha 90.000000
_cell_angle_beta 129.070929
_cell_angle_gamma 90.000000
_cell_volume 1161.319271
_symmetry_space_group_name_H-M "C 2"
_symmetry_group_IT_number 5
_symmetry_cell_setting 'monoclinic'
loop_
_space_group_symop_operation_xyz
x,y,z
-x,y,-z
1/2+x,1/2+y,z
1/2-x,1/2+y,-z
loop_
_atom_site_type_symbol
_atom_site_label
_atom_site_fract_x
_atom_site_fract_y
_atom_site_fract_z
Si Si1 0.389835 0.356970 0.083537
Si Si2 0.799970 0.170517 0.646238
Si Si3 0.010150 0.300841 0.316793
Si Si4 0.692102 0.911265 0.238739
Si Si5 0.000000 0.617375 0.000000
Si Si6 0.300273 0.545671 0.446615
Si Si7 0.913646 0.711736 0.203958
O O1 0.351200 0.405117 0.210365
O O2 0.474502 0.287535 0.208953
O O3 0.500000 0.381475 0.000000
O O4 0.185841 0.328317 0.889419
O O5 0.949081 0.221921 0.675066
O O6 0.825266 0.091491 0.626455
O O7 0.601298 0.183231 0.417680
O O8 0.759846 0.196784 0.799750
O O9 0.161570 0.342005 0.315550
O O10 0.000000 0.317233 0.500000
O O11 0.739202 0.967966 0.405224
O O12 0.500000 0.925477 0.000000
O O13 0.124127 0.668268 0.982026
O O14 0.862542 0.575656 0.786773
O O15 0.500000 0.550423 0.500000
#
# Coordination Sequence:
#
# PCOD9123148 Si02
#       7
#     4   4   4   4   2   4   4
#     4  11  22  39  67  99 131 172 215 273 341 388
#     4  10  22  39  61  96 130 165 222 272 327 396
#     4  11  23  39  64  98 132 167 218 277 325 393
#     4  10  23  46  65  90 136 180 216 275 335 395
#     4  10  22  42  62  90 136 170 214 280 324 396
#     4  11  24  42  66  92 130 180 218 267 333 395
#     4  10  20  37  63  93 127 170 209 278 333 379
#
# _framework density 22.38833
#
# number of rings (size 3 to 8) (size 9 to 14) (size 15 to 20)
#    0.000    1.538    3.077    1.385    4.308    2.462 
#    5.538    1.538    0.000    0.000    0.000    0.000 
#    0.000    0.000    0.000    0.000    0.000    0.000 
#
# Total GULP energy -72525.390155 kJ/mol
# GULP energy per Si atom -5578.876166 kJ/mol
# Density = 2.233737 g / cm^3
# Si number density = 22.388330 Si / 1000 Ang^3
#
#
#
# Elastic Constant Matrix: (Units=GPa)
#
#
# Indices 1 2 3 4 5 6 
#
# 1 103.0272 22.8006 13.3027 0.0000 -15.6749 0.0000
# 2 22.8006 95.6620 17.5262 0.0000 -8.5652 0.0000
# 3 13.3027 17.5262 42.9135 0.0000 -0.9479 0.0000
# 4 0.0000 0.0000 0.0000 -8.7146 0.0000 6.2168
# 5 -15.6749 -8.5652 -0.9479 0.0000 35.1263 0.0000
# 6 0.0000 0.0000 0.0000 6.2168 0.0000 25.5193
#
#
#
# Elastic Compliance Matrix: (Units=1/GPa)
#
#
# Indices 1 2 3 4 5 6 
#
# 1 0.011115 -0.001769 -0.002624 0.000000 0.004458 0.000000
# 2 -0.001769 0.011829 -0.004239 0.000000 0.001981 0.000000
# 3 -0.002624 -0.004239 0.025814 0.000000 -0.001508 0.000000
# 4 0.000000 0.000000 0.000000 -0.097761 0.000000 0.023816
# 5 0.004458 0.001981 -0.001508 0.000000 0.030900 0.000000
# 6 0.000000 0.000000 0.000000 0.023816 0.000000 0.033384
#
#
# Mechanical properties :
#
#
# Convention : Reuss Voigt Hill
#
# Bulk Modulus (GPa) = 31.75321 38.76243 35.25782
# Shear Modulus (GPa) = 116.15941 22.91776 69.53858
#
# Velocity S-wave (km/s) = 7.21086 3.20292 5.57921
# Velocity P-wave (km/s) = 9.14016 5.57042 7.56875
#
# Compressibility (1/GPa) = 0.03149288
#
# Stress axis : x y z
#
# Youngs Moduli (GPa) = 89.97026 84.53732 38.73845
#
# Poissons Ratio (x) = 0.14956 0.10167
# Poissons Ratio (y) = 0.15918 0.16421
# Poissons Ratio (z) = 0.23612 0.35835
#
# Static dielectric constant tensor:
#      x y z
#    x 1.756390 0.000000 -0.002710 
#    y 0.000000 1.864290 0.000000 
#    z -0.002710 0.000000 2.136990 
# 
# From -- ./inp_files/16544.got.cif
#   From: 2010.05.17/outbox.cif.g08.bks.cpg/sg5_9_cif.got.tgz:16544.got - 2010.06.03 18:56:24.
