data_PCOD9123342
_publ_section_title
;
Structure prediction by ZEFSAII (Michael W. Deem and Ramdas Pophale) SiO2 
 PCOD9123342
Probable space group: C 2
;
_chemical_formula_sum "Si O2"
_cell_formula_units_Z 18
_cell_length_a 17.410230
_cell_length_b 7.912889
_cell_length_c 7.324651
_cell_angle_alpha 90.000000
_cell_angle_beta 47.450351
_cell_angle_gamma 90.000000
_cell_volume 743.382370
_symmetry_space_group_name_H-M "C 2"
_symmetry_group_IT_number 5
_symmetry_cell_setting 'monoclinic'
loop_
_space_group_symop_operation_xyz
x,y,z
-x,y,-z
1/2+x,1/2+y,z
1/2-x,1/2+y,-z
loop_
_atom_site_type_symbol
_atom_site_label
_atom_site_fract_x
_atom_site_fract_y
_atom_site_fract_z
Si Si1 0.220775 0.339280 0.256528
Si Si2 0.108182 0.843734 0.745373
Si Si3 0.500000 0.677904 0.500000
Si Si4 0.797996 0.741758 0.754033
Si Si5 0.414541 0.695215 0.022631
O O1 0.285282 0.278540 0.329940
O O2 0.206094 0.541105 0.269960
O O3 0.104839 0.268395 0.410804
O O4 0.296165 0.285918 0.967997
O O5 0.116503 0.819374 0.515736
O O6 0.000000 0.772643 0.000000
O O7 0.109071 0.039059 0.805915
O O8 0.451984 0.613992 0.769670
O O9 0.685092 0.805690 0.865256
O O10 0.500000 0.797157 0.000000
#
# Coordination Sequence:
#
# PCOD9123342 Si02
#       5
#     4   4   2   4   4
#     4  10  23  40  62  87 117 153 193 242 289 345
#     4  10  22  37  58  85 117 155 192 236 286 341
#     4  10  20  38  62  88 116 150 194 240 294 342
#     4  10  22  39  59  88 119 153 193 238 293 343
#     4   9  19  36  60  85 113 153 195 239 282 340
#
# _framework density 24.213647000000002
#
# number of rings (size 3 to 8) (size 9 to 14) (size 15 to 20)
#    0.000    2.222    0.000    1.333    0.000   16.889 
#    0.000    5.556    0.000    0.000    0.000    0.000 
#    0.000    0.000    0.000    0.000    0.000    0.000 
#
# Total GULP energy -50179.632107 kJ/mol
# GULP energy per Si atom -5575.514679 kJ/mol
# Density = 2.415854 g / cm^3
# Si number density = 24.213647 Si / 1000 Ang^3
#
#
#
# Elastic Constant Matrix: (Units=GPa)
#
#
# Indices 1 2 3 4 5 6 
#
# 1 96.2024 -6.9600 -15.3018 0.0000 -13.1382 0.0000
# 2 -6.9600 32.4341 9.9852 0.0000 -8.3252 0.0000
# 3 -15.3018 9.9852 164.7010 0.0000 0.4469 0.0000
# 4 0.0000 0.0000 0.0000 21.8996 0.0000 -3.9619
# 5 -13.1382 -8.3252 0.4469 0.0000 39.4168 0.0000
# 6 0.0000 0.0000 0.0000 -3.9619 0.0000 17.9188
#
#
#
# Elastic Compliance Matrix: (Units=1/GPa)
#
#
# Indices 1 2 3 4 5 6 
#
# 1 0.011383 0.003335 0.000843 0.000000 0.004489 0.000000
# 2 0.003335 0.034245 -0.001789 0.000000 0.008365 0.000000
# 3 0.000843 -0.001789 0.006259 0.000000 -0.000168 0.000000
# 4 0.000000 0.000000 0.000000 0.047566 0.000000 0.010517
# 5 0.004489 0.008365 -0.000168 0.000000 0.028635 0.000000
# 6 0.000000 0.000000 0.000000 0.010517 0.000000 0.058133
#
#
# Mechanical properties :
#
#
# Convention : Reuss Voigt Hill
#
# Bulk Modulus (GPa) = 17.64707 29.86493 23.75600
# Shear Modulus (GPa) = 24.95882 36.22133 30.59007
#
# Velocity S-wave (km/s) = 3.21405 3.87189 3.55821
# Velocity P-wave (km/s) = 4.59101 5.68765 5.16850
#
# Compressibility (1/GPa) = 0.05666664
#
# Stress axis : x y z
#
# Youngs Moduli (GPa) = 87.84846 29.20104 159.77354
#
# Poissons Ratio (x) = -0.09740 -0.13472
# Poissons Ratio (y) = -0.29301 0.28583
# Poissons Ratio (z) = -0.07407 0.05224
#
# Static dielectric constant tensor:
#      x y z
#    x 2.104590 0.000000 -0.063320 
#    y 0.000000 1.924070 0.000000 
#    z -0.063320 0.000000 1.962550 
# 
# From -- ./inp_files/4461.got.cif
#   From: 2010.05.17/outbox.cif.g08.bks.cpg/sg5_3_cif.got.tgz:4461.got - 2010.06.03 18:56:24.
