data_PCOD9123776
_publ_section_title
;
Structure prediction by ZEFSAII (Michael W. Deem and Ramdas Pophale) SiO2 
 PCOD9123776
Probable space group: C 2
;
_chemical_formula_sum "Si O2"
_cell_formula_units_Z 30
_cell_length_a 21.285963
_cell_length_b 8.793443
_cell_length_c 11.898990
_cell_angle_alpha 90.000000
_cell_angle_beta 141.336769
_cell_angle_gamma 90.000000
_cell_volume 1391.434753
_symmetry_space_group_name_H-M "C 2"
_symmetry_group_IT_number 5
_symmetry_cell_setting 'monoclinic'
loop_
_space_group_symop_operation_xyz
x,y,z
-x,y,-z
1/2+x,1/2+y,z
1/2-x,1/2+y,-z
loop_
_atom_site_type_symbol
_atom_site_label
_atom_site_fract_x
_atom_site_fract_y
_atom_site_fract_z
Si Si1 0.684533 0.739890 0.460257
Si Si2 0.090736 0.565770 0.975730
Si Si3 0.370419 0.030718 0.720332
Si Si4 0.975316 0.124627 0.262034
Si Si5 0.201863 0.472700 0.691546
Si Si6 0.656427 0.338551 0.914273
Si Si7 0.000000 0.351818 0.500000
Si Si8 0.210409 0.262969 0.115986
O O1 0.656996 0.852318 0.319412
O O2 0.774160 0.628451 0.552084
O O3 0.588218 0.644661 0.371957
O O4 0.714161 0.858419 0.602878
O O5 0.101619 0.605556 0.121662
O O6 0.173466 0.433083 0.086343
O O7 0.115822 0.693839 0.922982
O O8 0.973435 0.527482 0.792973
O O9 0.963640 0.239142 0.350512
O O10 0.933491 0.958132 0.236204
O O11 0.896102 0.182818 0.059595
O O12 0.232754 0.648528 0.720658
O O13 0.087854 0.453303 0.572299
O O14 0.267543 0.415792 0.889919
O O15 0.717239 0.282181 0.890994
#
# Coordination Sequence:
#
# PCOD9123776 Si02
#       8
#     4   4   4   4   4   4   2   4
#     4  11  24  45  64  96 127 176 225 288 334 382
#     4  11  24  46  64  98 132 175 220 272 334 403
#     4  11  26  44  68  89 134 178 220 287 328 386
#     4  10  22  39  65  95 134 172 223 267 340 391
#     4  10  22  39  65  95 134 172 223 267 340 391
#     4  11  22  40  68 100 131 179 216 269 332 423
#     4  10  20  40  62  96 140 174 204 288 326 394
#     4  11  22  40  68 100 131 179 216 269 332 423
#
# _framework density 21.560479000000001
#
# number of rings (size 3 to 8) (size 9 to 14) (size 15 to 20)
#    0.000    1.333    4.000    1.600    3.733    0.000 
#    0.000    3.333    0.000    0.000    0.000    0.000 
#    0.000    0.000    0.000    0.000    0.000    0.000 
#
# Total GULP energy -83678.258615 kJ/mol
# GULP energy per Si atom -5578.550574 kJ/mol
# Density = 2.151141 g / cm^3
# Si number density = 21.560479 Si / 1000 Ang^3
#
#
#
# Elastic Constant Matrix: (Units=GPa)
#
#
# Indices 1 2 3 4 5 6 
#
# 1 89.3759 46.8006 42.5512 0.0000 19.8152 0.0000
# 2 46.8006 107.9666 47.1080 0.0000 36.2858 0.0000
# 3 42.5512 47.1080 79.1481 0.0000 21.5663 0.0000
# 4 0.0000 0.0000 0.0000 37.7301 0.0000 -7.2627
# 5 19.8152 36.2858 21.5663 0.0000 24.8671 0.0000
# 6 0.0000 0.0000 0.0000 -7.2627 0.0000 21.8214
#
#
#
# Elastic Compliance Matrix: (Units=1/GPa)
#
#
# Indices 1 2 3 4 5 6 
#
# 1 0.016549 -0.003676 -0.005994 0.000000 -0.002624 0.000000
# 2 -0.003676 0.020435 -0.003744 0.000000 -0.023642 0.000000
# 3 -0.005994 -0.003744 0.020028 0.000000 -0.007130 0.000000
# 4 0.000000 0.000000 0.000000 0.028318 0.000000 0.009425
# 5 -0.002624 -0.023642 -0.007130 0.000000 0.082986 0.000000
# 6 0.000000 0.000000 0.000000 0.009425 0.000000 0.048963
#
#
# Mechanical properties :
#
#
# Convention : Reuss Voigt Hill
#
# Bulk Modulus (GPa) = 33.13075 61.04556 47.08815
# Shear Modulus (GPa) = 19.67179 26.21911 22.94545
#
# Velocity S-wave (km/s) = 3.02387 3.49101 3.26580
# Velocity P-wave (km/s) = 5.25276 6.68016 6.00900
#
# Compressibility (1/GPa) = 0.03018344
#
# Stress axis : x y z
#
# Youngs Moduli (GPa) = 60.42556 48.93545 49.92945
#
# Poissons Ratio (x) = 0.17991 0.29927
# Poissons Ratio (y) = 0.22215 0.18695
# Poissons Ratio (z) = 0.36218 0.18323
#
# Static dielectric constant tensor:
#      x y z
#    x 1.787340 0.000000 -0.025560 
#    y 0.000000 1.815820 0.000000 
#    z -0.025560 0.000000 1.841230 
# 
# From -- ./inp_files/57618.got.cif
#   From: 2010.05.17/outbox.cif.g08.bks.cpg/sg5_29_cif.got.tgz:57618.got - 2010.06.03 18:56:24.
