data_PCOD9123938
_publ_section_title
;
Structure prediction by ZEFSAII (Michael W. Deem and Ramdas Pophale) SiO2 
 PCOD9123938
Probable space group: C 2
;
_chemical_formula_sum "Si O2"
_cell_formula_units_Z 28
_cell_length_a 10.803680
_cell_length_b 11.828542
_cell_length_c 19.668174
_cell_angle_alpha 90.000000
_cell_angle_beta 29.509259
_cell_angle_gamma 90.000000
_cell_volume 1238.026146
_symmetry_space_group_name_H-M "C 2"
_symmetry_group_IT_number 5
_symmetry_cell_setting 'monoclinic'
loop_
_space_group_symop_operation_xyz
x,y,z
-x,y,-z
1/2+x,1/2+y,z
1/2-x,1/2+y,-z
loop_
_atom_site_type_symbol
_atom_site_label
_atom_site_fract_x
_atom_site_fract_y
_atom_site_fract_z
Si Si1 0.754754 0.093200 0.737778
Si Si2 0.629452 0.667024 0.665236
Si Si3 0.291729 0.122439 0.449720
Si Si4 0.957319 0.816684 0.872183
Si Si5 0.525624 0.850809 0.821790
Si Si6 0.099318 0.463398 0.384299
Si Si7 0.742617 0.721769 0.847752
O O1 0.538271 0.186573 0.840919
O O2 0.886624 0.104513 0.748873
O O3 0.996704 0.122269 0.575054
O O4 0.650611 0.972589 0.766889
O O5 0.793125 0.696510 0.519392
O O6 0.565920 0.780506 0.734502
O O7 0.760381 0.574738 0.651790
O O8 0.502800 0.155706 0.294777
O O9 0.375913 0.002605 0.442105
O O10 0.822545 0.818699 0.862982
O O11 0.206200 0.889566 0.749418
O O12 0.767913 0.857678 0.019692
O O13 0.642774 0.774538 0.825996
O O14 0.000000 0.402753 0.500000
O O15 0.500000 0.662679 0.000000
#
# Coordination Sequence:
#
# PCOD9123938 Si02
#       7
#     4   4   4   4   4   4   4
#     4  10  25  43  66 110 136 185 232 291 365 419
#     4   9  21  43  72 104 126 185 240 286 348 424
#     4   9  21  42  68 101 134 178 237 294 347 435
#     4  11  26  40  66 101 138 185 231 295 359 439
#     4  11  23  45  70 102 142 183 237 295 356 427
#     4  10  20  40  70  94 125 181 237 288 348 423
#     4  10  22  41  67  98 134 187 224 286 360 422
#
# _framework density 22.616647
#
# number of rings (size 3 to 8) (size 9 to 14) (size 15 to 20)
#    0.857    1.143    1.429    0.857    4.000    0.571 
#    2.571    1.429    0.000    0.000    0.000    0.000 
#    0.000    0.000    0.000    0.000    0.000    0.000 
#
# Total GULP energy -78096.668703 kJ/mol
# GULP energy per Si atom -5578.333479 kJ/mol
# Density = 2.256517 g / cm^3
# Si number density = 22.616647 Si / 1000 Ang^3
#
#
#
# Elastic Constant Matrix: (Units=GPa)
#
#
# Indices 1 2 3 4 5 6 
#
# 1 34.2428 23.1705 9.3406 -0.0026 7.3208 -0.0006
# 2 23.1705 89.6859 60.5329 -0.0034 3.6704 0.0003
# 3 9.3406 60.5329 159.3179 -0.0153 0.6289 -0.0034
# 4 -0.0026 -0.0034 -0.0153 28.6309 0.0019 -13.2524
# 5 7.3208 3.6704 0.6289 0.0019 28.9636 0.0010
# 6 -0.0006 0.0003 -0.0034 -13.2524 0.0010 15.9940
#
#
#
# Elastic Compliance Matrix: (Units=1/GPa)
#
#
# Indices 1 2 3 4 5 6 
#
# 1 0.037659 -0.010658 0.001874 0.000008 -0.008209 0.000009
# 2 -0.010658 0.018104 -0.006256 -0.000005 0.000536 -0.000006
# 3 0.001874 -0.006256 0.008543 0.000008 0.000134 0.000009
# 4 0.000008 -0.000005 0.000008 0.056657 -0.000007 0.046945
# 5 -0.008209 0.000536 0.000134 -0.000007 0.036530 -0.000008
# 6 0.000009 -0.000006 0.000009 0.046945 -0.000008 0.101421
#
#
# Mechanical properties :
#
#
# Convention : Reuss Voigt Hill
#
# Bulk Modulus (GPa) = 29.21733 52.14829 40.68281
# Shear Modulus (GPa) = 16.64429 27.39787 22.02108
#
# Velocity S-wave (km/s) = 2.71575 3.48430 3.12375
# Velocity P-wave (km/s) = 4.77287 6.26854 5.57113
#
# Compressibility (1/GPa) = 0.03422626
#
# Stress axis : x y z
#
# Youngs Moduli (GPa) = 26.55411 55.23620 117.05104
#
# Poissons Ratio (x) = 0.58872 -0.21937
# Poissons Ratio (y) = 0.28302 0.73226
# Poissons Ratio (z) = -0.04977 0.34555
#
# Static dielectric constant tensor:
#      x y z
#    x 1.914240 0.000000 -0.013410 
#    y 0.000000 1.820790 0.000000 
#    z -0.013410 0.000000 1.878120 
# 
# From -- ./inp_files/65288.got.cif
#   From: 2010.05.17/outbox.cif.g08.bks.cpg/sg5_33_cif.got.tgz:65288.got - 2010.06.03 18:56:24.
