data_PCOD9123564
_publ_section_title
;
Structure prediction by ZEFSAII (Michael W. Deem and Ramdas Pophale) SiO2 
 PCOD9123564
Probable space group: C 2
;
_chemical_formula_sum "Si O2"
_cell_formula_units_Z 32
_cell_length_a 20.441960
_cell_length_b 12.375257
_cell_length_c 5.252505
_cell_angle_alpha 90.000000
_cell_angle_beta 77.526171
_cell_angle_gamma 90.000000
_cell_volume 1297.384423
_symmetry_space_group_name_H-M "C 2"
_symmetry_group_IT_number 5
_symmetry_cell_setting 'monoclinic'
loop_
_space_group_symop_operation_xyz
x,y,z
-x,y,-z
1/2+x,1/2+y,z
1/2-x,1/2+y,-z
loop_
_atom_site_type_symbol
_atom_site_label
_atom_site_fract_x
_atom_site_fract_y
_atom_site_fract_z
Si Si1 0.690771 0.135330 0.743248
Si Si2 0.433504 0.243517 0.973913
Si Si3 0.566756 0.384036 0.517009
Si Si4 0.212825 0.158100 0.951452
Si Si5 0.794311 0.827048 0.601277
Si Si6 0.296797 0.964522 0.634063
Si Si7 0.070256 0.344303 0.374986
Si Si8 0.570032 0.699541 0.882291
O O1 0.633716 0.174364 0.980803
O O2 0.674123 0.215264 0.524981
O O3 0.684073 0.014817 0.656582
O O4 0.767117 0.153450 0.769071
O O5 0.430922 0.339952 0.192885
O O6 0.500000 0.179370 0.000000
O O7 0.443381 0.292698 0.689685
O O8 0.500000 0.454819 0.500000
O O9 0.645363 0.409844 0.385291
O O10 0.239965 0.277052 0.840595
O O11 0.258686 0.058950 0.814571
O O12 0.138757 0.141320 0.906963
O O13 0.757029 0.875051 0.390043
O O14 0.364564 0.917472 0.683201
O O15 0.076053 0.251462 0.594224
O O16 0.000000 0.401171 0.500000
O O17 0.065262 0.292491 0.101104
O O18 0.500000 0.637335 0.000000
#
# Coordination Sequence:
#
# PCOD9123564 Si02
#       8
#     4   4   4   4   4   4   4   4
#     4  10  22  37  57  91 120 167 209 252 320 382
#     4   9  17  33  54  81 114 151 193 236 286 360
#     4   9  17  32  58  83 108 153 201 234 291 364
#     4  11  22  38  64  91 127 167 217 265 328 387
#     4  10  20  39  61  82 124 163 205 262 315 382
#     4  11  24  38  60  97 128 164 214 272 327 388
#     4  10  22  43  67  98 132 175 217 271 336 394
#     4  10  22  42  72  94 126 177 225 271 330 390
#
# _framework density 24.665008
#
# number of rings (size 3 to 8) (size 9 to 14) (size 15 to 20)
#    0.000    2.000    2.500    0.750    3.500    1.000 
#    2.250    1.250    2.750    0.750    0.000    0.000 
#    0.000    0.000    0.000    0.000    0.000    0.000 
#
# Total GULP energy -89101.161036 kJ/mol
# GULP energy per Si atom -5568.822565 kJ/mol
# Density = 2.460887 g / cm^3
# Si number density = 24.665008 Si / 1000 Ang^3
#
#
#
# Elastic Constant Matrix: (Units=GPa)
#
#
# Indices 1 2 3 4 5 6 
#
# 1 165.0467 4.6937 5.6506 0.0000 18.0214 0.0000
# 2 4.6937 31.3065 8.6939 0.0000 3.4916 0.0000
# 3 5.6506 8.6939 97.3630 0.0000 10.3196 0.0000
# 4 0.0000 0.0000 0.0000 19.6762 0.0000 -0.9568
# 5 18.0214 3.4916 10.3196 0.0000 38.8203 0.0000
# 6 0.0000 0.0000 0.0000 -0.9568 0.0000 18.8668
#
#
#
# Elastic Compliance Matrix: (Units=1/GPa)
#
#
# Indices 1 2 3 4 5 6 
#
# 1 0.006395 -0.000632 -0.000006 0.000000 -0.002910 0.000000
# 2 -0.000632 0.033006 -0.002703 0.000000 -0.001956 0.000000
# 3 -0.000006 -0.002703 0.010791 0.000000 -0.002622 0.000000
# 4 0.000000 0.000000 0.000000 0.050948 0.000000 0.002584
# 5 -0.002910 -0.001956 -0.002622 0.000000 0.027984 0.000000
# 6 0.000000 0.000000 0.000000 0.002584 0.000000 0.053134
#
#
# Mechanical properties :
#
#
# Convention : Reuss Voigt Hill
#
# Bulk Modulus (GPa) = 22.98444 36.86585 29.92515
# Shear Modulus (GPa) = 24.57678 33.78452 29.18065
#
# Velocity S-wave (km/s) = 3.16004 3.70501 3.44332
# Velocity P-wave (km/s) = 4.75955 5.76904 5.28844
#
# Compressibility (1/GPa) = 0.04350769
#
# Stress axis : x y z
#
# Youngs Moduli (GPa) = 156.37596 30.29753 92.67382
#
# Poissons Ratio (x) = 0.01916 0.00058
# Poissons Ratio (y) = 0.09890 0.25051
# Poissons Ratio (z) = 0.00097 0.08190
#
# Static dielectric constant tensor:
#      x y z
#    x 2.165390 0.000000 -0.087820 
#    y 0.000000 1.953430 0.000000 
#    z -0.087820 0.000000 2.113680 
# 
# From -- ./inp_files/9711.got.cif
#   From: 2010.05.17/outbox.cif.g08.bks.cpg/sg5_5_cif.got.tgz:9711.got - 2010.06.03 18:56:24.
