data_PCOD9123064
_publ_section_title
;
Structure prediction by ZEFSAII (Michael W. Deem and Ramdas Pophale) SiO2 
 PCOD9123064
Probable space group: C 2
;
_chemical_formula_sum "Si O2"
_cell_formula_units_Z 32
_cell_length_a 13.107376
_cell_length_b 7.805013
_cell_length_c 27.994841
_cell_angle_alpha 90.000000
_cell_angle_beta 150.146013
_cell_angle_gamma 90.000000
_cell_volume 1425.656101
_symmetry_space_group_name_H-M "C 2"
_symmetry_group_IT_number 5
_symmetry_cell_setting 'monoclinic'
loop_
_space_group_symop_operation_xyz
x,y,z
-x,y,-z
1/2+x,1/2+y,z
1/2-x,1/2+y,-z
loop_
_atom_site_type_symbol
_atom_site_label
_atom_site_fract_x
_atom_site_fract_y
_atom_site_fract_z
Si Si1 0.985975 0.092460 0.045766
Si Si2 0.726916 0.303367 0.186212
Si Si3 0.924436 0.161382 0.731105
Si Si4 0.572646 0.882687 0.583432
Si Si5 0.289045 0.047388 0.660134
Si Si6 0.522053 0.112262 0.843513
Si Si7 0.541714 0.047815 0.369750
Si Si8 0.831290 0.272450 0.789791
O O1 0.085838 0.209355 0.126471
O O2 0.744555 0.060925 0.952026
O O3 0.113201 0.916531 0.100140
O O4 0.000000 0.178548 0.000000
O O5 0.871817 0.165932 0.218214
O O6 0.554952 0.269636 0.156483
O O7 0.891452 0.414476 0.282178
O O8 0.972234 0.185089 0.806312
O O9 0.782124 0.995322 0.669829
O O10 0.794992 0.339826 0.667733
O O11 0.500000 0.903814 0.500000
O O12 0.426498 0.966311 0.565014
O O13 0.622370 0.681716 0.612918
O O14 0.489002 0.109650 0.772670
O O15 0.293425 0.079253 0.604774
O O16 0.358495 0.971455 0.793979
O O17 0.400018 0.215447 0.315271
#
# Coordination Sequence:
#
# PCOD9123064 Si02
#       8
#     4   4   4   4   4   4   4   4
#     4  11  21  36  54  82 125 164 211 270 315 377
#     4  10  20  37  61  84 123 167 209 262 326 388
#     4   9  21  41  64  90 127 169 216 268 333 402
#     4  11  23  42  66 100 130 165 221 278 329 407
#     4  10  21  41  65  90 125 177 207 258 345 394
#     4  11  20  34  59  89 118 164 217 257 327 384
#     4   9  19  40  60  84 123 160 206 260 320 394
#     4   9  19  35  55  83 113 160 205 259 313 374
#
# _framework density 22.445805
#
# number of rings (size 3 to 8) (size 9 to 14) (size 15 to 20)
#    0.000    2.000    1.250    3.750    1.750    0.500 
#    4.500    0.625    0.000    0.000    0.000    0.000 
#    0.000    0.000    0.000    0.000    0.000    0.000 
#
# Total GULP energy -89107.524632 kJ/mol
# GULP energy per Si atom -5569.220289 kJ/mol
# Density = 2.239472 g / cm^3
# Si number density = 22.445805 Si / 1000 Ang^3
#
#
#
# Elastic Constant Matrix: (Units=GPa)
#
#
# Indices 1 2 3 4 5 6 
#
# 1 95.9148 25.8837 14.5965 0.0000 -23.9842 0.0000
# 2 25.8837 48.4620 10.3795 0.0000 -2.8916 0.0000
# 3 14.5965 10.3795 57.8988 0.0000 -29.9543 0.0000
# 4 0.0000 0.0000 0.0000 14.2539 0.0000 -2.4485
# 5 -23.9842 -2.8916 -29.9543 0.0000 34.7552 0.0000
# 6 0.0000 0.0000 0.0000 -2.4485 0.0000 30.4838
#
#
#
# Elastic Compliance Matrix: (Units=1/GPa)
#
#
# Indices 1 2 3 4 5 6 
#
# 1 0.015554 -0.008530 0.005042 0.000000 0.014369 0.000000
# 2 -0.008530 0.026284 -0.008077 0.000000 -0.010661 0.000000
# 3 0.005042 -0.008077 0.034110 0.000000 0.032206 0.000000
# 4 0.000000 0.000000 0.000000 0.071138 0.000000 0.005714
# 5 0.014369 -0.010661 0.032206 0.000000 0.065559 0.000000
# 6 0.000000 0.000000 0.000000 0.005714 0.000000 0.033263
#
#
# Mechanical properties :
#
#
# Convention : Reuss Voigt Hill
#
# Bulk Modulus (GPa) = 18.93262 33.77720 26.35491
# Shear Modulus (GPa) = 17.44328 25.99299 21.71813
#
# Velocity S-wave (km/s) = 2.79073 3.40668 3.11397
# Velocity P-wave (km/s) = 4.34020 5.52765 4.96952
#
# Compressibility (1/GPa) = 0.05281889
#
# Stress axis : x y z
#
# Youngs Moduli (GPa) = 64.29385 38.04560 29.31670
#
# Poissons Ratio (x) = 0.32452 -0.14782
# Poissons Ratio (y) = 0.54841 0.23679
# Poissons Ratio (z) = -0.32417 0.30729
#
# Static dielectric constant tensor:
#      x y z
#    x 1.924690 0.000000 -0.004120 
#    y 0.000000 1.876500 0.000000 
#    z -0.004120 0.000000 1.808490 
# 
# From -- ./inp_files/71894.got.cif
#   From: 2010.05.17/outbox.cif.g08.bks.cpg/sg5_36_cif.got.tgz:71894.got - 2010.06.03 18:56:24.
