data_PCOD9123418
_publ_section_title
;
Structure prediction by ZEFSAII (Michael W. Deem and Ramdas Pophale) SiO2 
 PCOD9123418
Probable space group: C 2
;
_chemical_formula_sum "Si O2"
_cell_formula_units_Z 26
_cell_length_a 15.809366
_cell_length_b 8.887883
_cell_length_c 14.721516
_cell_angle_alpha 90.000000
_cell_angle_beta 141.765271
_cell_angle_gamma 90.000000
_cell_volume 1280.191698
_symmetry_space_group_name_H-M "C 2"
_symmetry_group_IT_number 5
_symmetry_cell_setting 'monoclinic'
loop_
_space_group_symop_operation_xyz
x,y,z
-x,y,-z
1/2+x,1/2+y,z
1/2-x,1/2+y,-z
loop_
_atom_site_type_symbol
_atom_site_label
_atom_site_fract_x
_atom_site_fract_y
_atom_site_fract_z
Si Si1 0.373864 0.573550 0.078562
Si Si2 0.000000 0.953225 0.000000
Si Si3 0.130879 0.720109 0.180187
Si Si4 0.615969 0.784615 0.329850
Si Si5 0.645214 0.271036 0.821077
Si Si6 0.618763 0.124042 0.377143
Si Si7 0.659589 0.899621 0.164994
O O1 0.473174 0.697442 0.206361
O O2 0.373675 0.419812 0.134473
O O3 0.433334 0.538096 0.029018
O O4 0.222681 0.642574 0.944113
O O5 0.849820 0.895478 0.819198
O O6 0.094160 0.677120 0.251385
O O7 0.209482 0.574953 0.211148
O O8 0.000000 0.737914 0.000000
O O9 0.731841 0.680627 0.470850
O O10 0.659804 0.828512 0.264509
O O11 0.606437 0.945015 0.371858
O O12 0.499286 0.208476 0.667520
O O13 0.746751 0.313531 0.825987
O O14 0.500000 0.904732 0.000000
#
# Coordination Sequence:
#
# PCOD9123418 Si02
#       7
#     4   2   4   4   4   4   4
#     4  12  24  37  65  99 129 168 213 271 312 382
#     4  10  20  38  64  92 128 164 220 254 322 374
#     4   8  18  36  63  90 121 164 205 261 316 380
#     4  11  24  45  67  89 132 173 212 257 339 385
#     4  12  24  38  63 101 129 163 222 266 313 371
#     4  11  23  42  65  98 124 169 213 270 314 387
#     4  10  20  40  64  91 129 173 208 258 334 375
#
# _framework density 20.309459
#
# number of rings (size 3 to 8) (size 9 to 14) (size 15 to 20)
#    0.462    0.923    3.077    2.769    6.462    0.615 
#    0.000    0.000    0.000    0.000    0.000    0.000 
#    0.000    0.000    0.000    0.000    0.000    0.000 
#
# Total GULP energy -72394.842422 kJ/mol
# GULP energy per Si atom -5568.834032 kJ/mol
# Density = 2.026323 g / cm^3
# Si number density = 20.309459 Si / 1000 Ang^3
#
#
#
# Elastic Constant Matrix: (Units=GPa)
#
#
# Indices 1 2 3 4 5 6 
#
# 1 38.6653 -0.9692 -7.8209 0.0000 -6.2805 0.0000
# 2 -0.9692 80.4907 -13.1419 0.0000 -6.9137 0.0000
# 3 -7.8209 -13.1419 24.5487 0.0000 -0.4899 0.0000
# 4 0.0000 0.0000 0.0000 34.0343 0.0000 -0.3348
# 5 -6.2805 -6.9137 -0.4899 0.0000 17.0666 0.0000
# 6 0.0000 0.0000 0.0000 -0.3348 0.0000 22.8322
#
#
#
# Elastic Compliance Matrix: (Units=1/GPa)
#
#
# Indices 1 2 3 4 5 6 
#
# 1 0.030426 0.003397 0.011770 0.000000 0.012911 0.000000
# 2 0.003397 0.014576 0.009034 0.000000 0.007414 0.000000
# 3 0.011770 0.009034 0.049509 0.000000 0.009412 0.000000
# 4 0.000000 0.000000 0.000000 0.029386 0.000000 0.000431
# 5 0.012911 0.007414 0.009412 0.000000 0.066619 0.000000
# 6 0.000000 0.000000 0.000000 0.000431 0.000000 0.043804
#
#
# Mechanical properties :
#
#
# Convention : Reuss Voigt Hill
#
# Bulk Modulus (GPa) = 6.99735 11.09340 9.04537
# Shear Modulus (GPa) = 21.40798 25.82906 23.61852
#
# Velocity S-wave (km/s) = 3.25020 3.57006 3.41388
# Velocity P-wave (km/s) = 4.18783 4.74003 4.47246
#
# Compressibility (1/GPa) = 0.14291123
#
# Stress axis : x y z
#
# Youngs Moduli (GPa) = 32.86675 68.60371 20.19841
#
# Poissons Ratio (x) = -0.23304 -0.23773
# Poissons Ratio (y) = -0.11165 -0.18246
# Poissons Ratio (z) = -0.38683 -0.61973
#
# Static dielectric constant tensor:
#      x y z
#    x 1.735190 0.000000 -0.007720 
#    y 0.000000 1.836930 0.000000 
#    z -0.007720 0.000000 1.748080 
# 
# From -- ./inp_files/54270.got.cif
#   From: 2010.05.17/outbox.cif.g08.bks.cpg/sg5_28_cif.got.tgz:54270.got - 2010.06.03 18:56:24.
