data_PCOD9123630
_publ_section_title
;
Structure prediction by ZEFSAII (Michael W. Deem and Ramdas Pophale) SiO2 
 PCOD9123630
Probable space group: C 2
;
_chemical_formula_sum "Si O2"
_cell_formula_units_Z 32
_cell_length_a 14.950732
_cell_length_b 11.470202
_cell_length_c 8.585792
_cell_angle_alpha 90.000000
_cell_angle_beta 95.754097
_cell_angle_gamma 90.000000
_cell_volume 1464.940876
_symmetry_space_group_name_H-M "C 2"
_symmetry_group_IT_number 5
_symmetry_cell_setting 'monoclinic'
loop_
_space_group_symop_operation_xyz
x,y,z
-x,y,-z
1/2+x,1/2+y,z
1/2-x,1/2+y,-z
loop_
_atom_site_type_symbol
_atom_site_label
_atom_site_fract_x
_atom_site_fract_y
_atom_site_fract_z
Si Si1 0.107946 0.691420 0.512476
Si Si2 0.033460 0.052669 0.844184
Si Si3 0.584741 0.897309 0.120685
Si Si4 0.428393 0.732263 0.623337
Si Si5 0.818550 0.613466 0.790755
Si Si6 0.304038 0.689644 0.974643
Si Si7 0.662360 0.441971 0.620333
Si Si8 0.726510 0.582229 0.358360
O O1 0.139164 0.688599 0.338924
O O2 0.148539 0.803295 0.610510
O O3 0.167189 0.583796 0.589058
O O4 0.000000 0.685751 0.500000
O O5 0.075950 0.982472 0.707194
O O6 0.111987 0.136775 0.918426
O O7 0.958684 0.137568 0.758326
O O8 0.000000 0.992798 0.000000
O O9 0.567576 0.856768 0.294499
O O10 0.607358 0.031482 0.118904
O O11 0.500000 0.868634 0.000000
O O12 0.667409 0.815833 0.081792
O O13 0.500000 0.723440 0.500000
O O14 0.326885 0.692722 0.569347
O O15 0.774359 0.692293 0.914143
O O16 0.744818 0.516935 0.712437
O O17 0.281577 0.604369 0.826751
O O18 0.675131 0.479376 0.440806
#
# Coordination Sequence:
#
# PCOD9123630 Si02
#       8
#     4   4   4   4   4   4   4   4
#     4  11  26  45  62  88 134 174 224 273 323 400
#     4  11  18  33  61 104 138 158 205 287 321 387
#     4  11  21  39  65  94 129 173 213 268 334 391
#     4  11  19  33  63 103 134 159 216 274 328 384
#     4  10  25  44  63  94 132 168 221 278 327 398
#     4  10  20  39  64  95 131 164 212 276 329 394
#     4  10  22  40  65  93 128 179 218 267 338 386
#     4  10  21  38  65  91 129 170 218 273 325 391
#
# _framework density 21.843886000000001
#
# number of rings (size 3 to 8) (size 9 to 14) (size 15 to 20)
#    0.000    1.500    5.000    1.500    1.750    2.500 
#    0.000    5.000    0.000    0.000    0.000    0.000 
#    0.000    0.000    0.000    0.000    0.000    0.000 
#
# Total GULP energy -89169.367907 kJ/mol
# GULP energy per Si atom -5573.085494 kJ/mol
# Density = 2.179417 g / cm^3
# Si number density = 21.843886 Si / 1000 Ang^3
#
#
#
# Elastic Constant Matrix: (Units=GPa)
#
#
# Indices 1 2 3 4 5 6 
#
# 1 111.7646 11.4582 39.5839 0.0000 -19.5666 0.0000
# 2 11.4582 38.3697 12.0656 0.0000 -10.2358 0.0000
# 3 39.5839 12.0656 94.0734 0.0000 -28.8773 0.0000
# 4 0.0000 0.0000 0.0000 27.7116 0.0000 0.7422
# 5 -19.5666 -10.2358 -28.8773 0.0000 35.8591 0.0000
# 6 0.0000 0.0000 0.0000 0.7422 0.0000 16.9919
#
#
#
# Elastic Compliance Matrix: (Units=1/GPa)
#
#
# Indices 1 2 3 4 5 6 
#
# 1 0.010814 -0.001407 -0.003562 0.000000 0.002630 0.000000
# 2 -0.001407 0.028559 -0.001068 0.000000 0.006524 0.000000
# 3 -0.003562 -0.001068 0.015377 0.000000 0.010134 0.000000
# 4 0.000000 0.000000 0.000000 0.036128 0.000000 -0.001578
# 5 0.002630 0.006524 0.010134 0.000000 0.039345 0.000000
# 6 0.000000 0.000000 0.000000 -0.001578 0.000000 0.058920
#
#
# Mechanical properties :
#
#
# Convention : Reuss Voigt Hill
#
# Bulk Modulus (GPa) = 23.43371 41.15813 32.29592
# Shear Modulus (GPa) = 23.20795 28.18587 25.69691
#
# Velocity S-wave (km/s) = 3.26305 3.59602 3.43357
# Velocity P-wave (km/s) = 4.99478 6.01038 5.52596
#
# Compressibility (1/GPa) = 0.04267357
#
# Stress axis : x y z
#
# Youngs Moduli (GPa) = 92.47440 35.01560 65.03314
#
# Poissons Ratio (x) = 0.04928 0.23167
# Poissons Ratio (y) = 0.13015 0.06946
# Poissons Ratio (z) = 0.32942 0.03740
#
# Static dielectric constant tensor:
#      x y z
#    x 1.839290 0.000000 0.006960 
#    y 0.000000 1.807930 0.000000 
#    z 0.006960 0.000000 1.838080 
# 
# From -- ./inp_files/23896.got.cif
#   From: 2010.05.17/outbox.cif.g08.bks.cpg/sg5_12_cif.got.tgz:23896.got - 2010.06.03 18:56:24.
