data_PCOD9123404
_publ_section_title
;
Structure prediction by ZEFSAII (Michael W. Deem and Ramdas Pophale) SiO2 
 PCOD9123404
Probable space group: C 2
;
_chemical_formula_sum "Si O2"
_cell_formula_units_Z 30
_cell_length_a 12.898996
_cell_length_b 14.245203
_cell_length_c 18.300589
_cell_angle_alpha 90.000000
_cell_angle_beta 21.545260
_cell_angle_gamma 90.000000
_cell_volume 1234.909024
_symmetry_space_group_name_H-M "C 2"
_symmetry_group_IT_number 5
_symmetry_cell_setting 'monoclinic'
loop_
_space_group_symop_operation_xyz
x,y,z
-x,y,-z
1/2+x,1/2+y,z
1/2-x,1/2+y,-z
loop_
_atom_site_type_symbol
_atom_site_label
_atom_site_fract_x
_atom_site_fract_y
_atom_site_fract_z
Si Si1 0.226078 0.663650 0.138559
Si Si2 0.237543 0.939264 0.545654
Si Si3 0.088832 0.544409 0.101370
Si Si4 0.774180 0.260906 0.452934
Si Si5 0.702433 0.605536 0.655727
Si Si6 0.640104 0.862562 0.987522
Si Si7 0.000000 0.335600 0.500000
Si Si8 0.309156 0.210520 0.196064
O O1 0.049267 0.588361 0.207692
O O2 0.345671 0.750622 0.011184
O O3 0.028820 0.719555 0.325143
O O4 0.500000 0.621764 0.000000
O O5 0.278063 0.873634 0.449429
O O6 0.468361 0.903719 0.451867
O O7 0.955631 0.898251 0.766490
O O8 0.223054 0.049426 0.564706
O O9 0.929134 0.611233 0.146774
O O10 0.427896 0.561986 0.872702
O O11 0.023297 0.436779 0.123478
O O12 0.852229 0.213156 0.326666
O O13 0.996345 0.222374 0.367322
O O14 0.000000 0.596612 0.500000
O O15 0.500000 0.878455 0.000000
O O16 0.264726 0.271691 0.299676
O O17 0.500000 0.239150 0.000000
#
# Coordination Sequence:
#
# PCOD9123404 Si02
#       8
#     4   4   4   4   4   4   2   4
#     4  10  21  41  63  87 122 170 211 253 321 385
#     4   9  19  36  59  83 117 162 211 243 307 388
#     4  11  21  35  60  91 121 155 212 259 310 377
#     4  10  21  38  60  88 125 164 203 258 312 374
#     4  11  21  36  61  86 118 161 206 251 310 378
#     4   9  19  34  59  87 117 160 202 249 307 387
#     4  10  20  38  64  88 124 172 214 258 322 378
#     4  11  20  35  60  97 127 160 211 270 317 371
#
# _framework density 24.293288
#
# number of rings (size 3 to 8) (size 9 to 14) (size 15 to 20)
#    0.000    1.867    2.000    3.600    1.867    0.000 
#    0.000    1.333    8.800    0.800    0.000    0.000 
#    0.000    0.000    0.000    0.000    0.000    0.000 
#
# Total GULP energy -83542.217672 kJ/mol
# GULP energy per Si atom -5569.481178 kJ/mol
# Density = 2.423800 g / cm^3
# Si number density = 24.293288 Si / 1000 Ang^3
#
#
#
# Elastic Constant Matrix: (Units=GPa)
#
#
# Indices 1 2 3 4 5 6 
#
# 1 41.0699 10.6407 14.7595 -0.1666 8.3968 0.1260
# 2 10.6407 90.7815 -20.3632 -0.1945 21.1329 0.0508
# 3 14.7595 -20.3632 45.3252 -0.3707 9.6739 0.2363
# 4 -0.1666 -0.1945 -0.3707 -1.8780 0.1901 39.8327
# 5 8.3968 21.1329 9.6739 0.1901 46.5632 -0.1944
# 6 0.1260 0.0508 0.2363 39.8327 -0.1944 -13.6397
#
#
#
# Elastic Compliance Matrix: (Units=1/GPa)
#
#
# Indices 1 2 3 4 5 6 
#
# 1 0.030667 -0.006526 -0.012944 -0.000020 0.000121 -0.000026
# 2 -0.006526 0.016303 0.011276 -0.000042 -0.008564 0.000196
# 3 -0.012944 0.011276 0.033417 -0.000098 -0.009724 0.000354
# 4 -0.000020 -0.000042 -0.000098 0.008738 0.000114 0.025515
# 5 0.000121 -0.008564 -0.009724 0.000114 0.027360 -0.000257
# 6 -0.000026 0.000196 0.000354 0.025515 -0.000257 0.001208
#
#
# Mechanical properties :
#
#
# Convention : Reuss Voigt Hill
#
# Bulk Modulus (GPa) = 15.62533 20.80563 18.21548
# Shear Modulus (GPa) = 32.17207 17.68507 24.92857
#
# Velocity S-wave (km/s) = 3.64307 2.70104 3.20683
# Velocity P-wave (km/s) = 4.91343 4.27907 4.60718
#
# Compressibility (1/GPa) = 0.06399866
#
# Stress axis : x y z
#
# Youngs Moduli (GPa) = 32.60875 61.33745 29.92505
#
# Poissons Ratio (x) = 0.40030 0.38735
# Poissons Ratio (y) = 0.21281 -0.33744
# Poissons Ratio (z) = 0.42209 -0.69166
#
# Static dielectric constant tensor:
#      x y z
#    x 2.462410 -0.000220 -0.155200 
#    y -0.000220 2.000380 0.000110 
#    z -0.155200 0.000110 2.052170 
# 
# From -- ./inp_files/66183.got.cif
#   From: 2010.05.17/outbox.cif.g08.bks.cpg/sg5_34_cif.got.tgz:66183.got - 2010.06.03 18:56:24.
