data_PCOD9123793
_publ_section_title
;
Structure prediction by ZEFSAII (Michael W. Deem and Ramdas Pophale) SiO2 
 PCOD9123793
Probable space group: C 2
;
_chemical_formula_sum "Si O2"
_cell_formula_units_Z 26
_cell_length_a 14.838061
_cell_length_b 11.946212
_cell_length_c 19.634697
_cell_angle_alpha 90.000000
_cell_angle_beta 159.719686
_cell_angle_gamma 90.000000
_cell_volume 1206.359933
_symmetry_space_group_name_H-M "C 2"
_symmetry_group_IT_number 5
_symmetry_cell_setting 'monoclinic'
loop_
_space_group_symop_operation_xyz
x,y,z
-x,y,-z
1/2+x,1/2+y,z
1/2-x,1/2+y,-z
loop_
_atom_site_type_symbol
_atom_site_label
_atom_site_fract_x
_atom_site_fract_y
_atom_site_fract_z
Si Si1 0.659755 0.335880 0.245918
Si Si2 0.253727 0.489011 0.916293
Si Si3 0.500000 0.640832 0.000000
Si Si4 0.500000 0.014881 0.000000
Si Si5 0.000000 0.896685 0.500000
Si Si6 0.570946 0.088776 0.196911
Si Si7 0.064715 0.822605 0.692392
Si Si8 0.586411 0.892447 0.442994
O O1 0.680532 0.210956 0.290650
O O2 0.755485 0.419408 0.374497
O O3 0.836202 0.337656 0.303018
O O4 0.366344 0.369639 0.019344
O O5 0.146815 0.557311 0.903728
O O6 0.042779 0.474115 0.705816
O O7 0.503325 0.556399 0.065383
O O8 0.745970 0.718965 0.160337
O O9 0.499097 0.088883 0.066732
O O10 0.751873 0.933455 0.170811
O O11 0.002511 0.822700 0.434755
O O12 0.762104 0.982777 0.336987
O O13 0.807793 0.828410 0.556014
#
# Coordination Sequence:
#
# PCOD9123793 Si02
#       8
#     4   4   2   2   2   4   4   4
#     4  11  25  43  69 104 140 182 242 301 341 433
#     4  12  24  46  69 100 145 186 234 298 356 425
#     4  11  24  43  66 100 144 185 230 295 360 418
#     4   9  22  39  68  98 138 181 232 299 346 426
#     4  10  20  40  64 100 134 174 238 290 330 428
#     4  11  23  41  68 100 137 184 236 288 364 407
#     4  10  21  43  66  95 139 182 232 289 354 420
#     4  11  22  44  70  94 138 186 230 293 349 410
#
# _framework density 21.552440000000001
#
# number of rings (size 3 to 8) (size 9 to 14) (size 15 to 20)
#    0.000    1.231    3.077    2.769    2.154    2.462 
#    2.769    0.000    0.000    0.000    0.000    0.000 
#    0.000    0.000    0.000    0.000    0.000    0.000 
#
# Total GULP energy -72416.567479 kJ/mol
# GULP energy per Si atom -5570.505191 kJ/mol
# Density = 2.150339 g / cm^3
# Si number density = 21.552440 Si / 1000 Ang^3
#
#
#
# Elastic Constant Matrix: (Units=GPa)
#
#
# Indices 1 2 3 4 5 6 
#
# 1 109.5735 14.5978 40.0191 -0.0671 10.7521 -0.0050
# 2 14.5978 53.3545 14.8339 -0.0557 4.0156 -0.0038
# 3 40.0191 14.8339 61.1903 -0.0096 4.3992 -0.0060
# 4 -0.0671 -0.0557 -0.0096 19.1490 -0.0029 -3.4221
# 5 10.7521 4.0156 4.3992 -0.0029 48.5509 0.0030
# 6 -0.0050 -0.0038 -0.0060 -3.4221 0.0030 30.8501
#
#
#
# Elastic Compliance Matrix: (Units=1/GPa)
#
#
# Indices 1 2 3 4 5 6 
#
# 1 0.012237 -0.001090 -0.007600 0.000036 -0.001931 0.000005
# 2 -0.001090 0.020267 -0.004124 0.000054 -0.001061 0.000008
# 3 -0.007600 -0.004124 0.022313 -0.000028 0.000002 0.000000
# 4 0.000036 0.000054 -0.000028 0.053278 -0.000007 0.005910
# 5 -0.001931 -0.001061 0.000002 -0.000007 0.021112 -0.000003
# 6 0.000005 0.000008 0.000000 0.005910 -0.000003 0.033070
#
#
# Mechanical properties :
#
#
# Convention : Reuss Voigt Hill
#
# Bulk Modulus (GPa) = 34.25971 40.33554 37.29763
# Shear Modulus (GPa) = 25.29920 30.02118 27.66019
#
# Velocity S-wave (km/s) = 3.42986 3.73626 3.58633
# Velocity P-wave (km/s) = 5.62279 6.11298 5.87300
#
# Compressibility (1/GPa) = 0.02918880
#
# Stress axis : x y z
#
# Youngs Moduli (GPa) = 81.72158 49.34064 44.81785
#
# Poissons Ratio (x) = 0.05376 0.34061
# Poissons Ratio (y) = 0.08904 0.18484
# Poissons Ratio (z) = 0.62108 0.20350
#
# Static dielectric constant tensor:
#      x y z
#    x 1.764550 0.000000 -0.040360 
#    y 0.000000 1.743770 -0.000010 
#    z -0.040360 -0.000010 1.836310 
# 
# From -- ./inp_files/66128.got.cif
#   From: 2010.05.17/outbox.cif.g08.bks.cpg/sg5_34_cif.got.tgz:66128.got - 2010.06.03 18:56:24.
