data_PCOD9123737
_publ_section_title
;
Structure prediction by ZEFSAII (Michael W. Deem and Ramdas Pophale) SiO2 
 PCOD9123737
Probable space group: C 2
;
_chemical_formula_sum "Si O2"
_cell_formula_units_Z 28
_cell_length_a 25.274139
_cell_length_b 4.764951
_cell_length_c 8.938139
_cell_angle_alpha 90.000000
_cell_angle_beta 103.958231
_cell_angle_gamma 90.000000
_cell_volume 1044.635660
_symmetry_space_group_name_H-M "C 2"
_symmetry_group_IT_number 5
_symmetry_cell_setting 'monoclinic'
loop_
_space_group_symop_operation_xyz
x,y,z
-x,y,-z
1/2+x,1/2+y,z
1/2-x,1/2+y,-z
loop_
_atom_site_type_symbol
_atom_site_label
_atom_site_fract_x
_atom_site_fract_y
_atom_site_fract_z
Si Si1 0.060237 0.746300 0.008409
Si Si2 0.722608 0.452842 0.150594
Si Si3 0.565796 0.779777 0.216841
Si Si4 0.714138 0.739108 0.441090
Si Si5 0.617385 0.723132 0.549850
Si Si6 0.801701 0.943895 0.181836
Si Si7 0.530647 0.093935 0.666748
O O1 0.060586 0.750085 0.827344
O O2 0.094364 0.535810 0.141159
O O3 0.000000 0.623159 0.000000
O O4 0.058813 0.047830 0.084500
O O5 0.695814 0.588422 0.277276
O O6 0.748176 0.143847 0.167847
O O7 0.778073 0.633582 0.173005
O O8 0.683909 0.491089 0.982715
O O9 0.592542 0.615032 0.377194
O O10 0.515394 0.911786 0.278620
O O11 0.740101 0.473767 0.544313
O O12 0.668191 0.887213 0.508602
O O13 0.647923 0.508273 0.678456
O O14 0.575446 0.900127 0.617240
O O15 0.500000 0.238217 0.500000
#
# Coordination Sequence:
#
# PCOD9123737 Si02
#       7
#     4   4   4   4   4   4   4
#     4  10  20  43  69  94 137 183 222 275 347 410
#     4  10  20  40  60  90 122 167 224 274 344 391
#     4  10  23  42  68 101 138 182 224 280 345 416
#     4  12  23  41  65  92 130 178 226 283 341 404
#     4  11  23  42  68 103 139 182 237 286 350 413
#     4  10  21  38  65  87 125 171 217 283 331 400
#     4   9  21  44  72 107 144 183 233 292 347 419
#
# _framework density 26.803602999999999
#
# number of rings (size 3 to 8) (size 9 to 14) (size 15 to 20)
#    0.000    1.714    2.857    1.286    0.000    3.429 
#    0.000   39.286    0.000    6.857    0.000    0.000 
#    0.000    0.000    0.000    0.000    0.000    0.000 
#
# Total GULP energy -78076.078508 kJ/mol
# GULP energy per Si atom -5576.862751 kJ/mol
# Density = 2.674260 g / cm^3
# Si number density = 26.803603 Si / 1000 Ang^3
#
#
#
# Elastic Constant Matrix: (Units=GPa)
#
#
# Indices 1 2 3 4 5 6 
#
# 1 48.9958 -0.7665 41.6384 0.0000 -19.5111 0.0000
# 2 -0.7665 76.9743 58.3317 0.0000 -0.2342 0.0000
# 3 41.6384 58.3317 255.0718 0.0000 -10.4262 0.0000
# 4 0.0000 0.0000 0.0000 49.1227 0.0000 -10.8974
# 5 -19.5111 -0.2342 -10.4262 0.0000 46.1197 0.0000
# 6 0.0000 0.0000 0.0000 -10.8974 0.0000 11.7217
#
#
#
# Elastic Compliance Matrix: (Units=1/GPa)
#
#
# Indices 1 2 3 4 5 6 
#
# 1 0.029541 0.004394 -0.005365 0.000000 0.011307 0.000000
# 2 0.004394 0.016393 -0.004428 0.000000 0.000941 0.000000
# 3 -0.005365 -0.004428 0.005768 0.000000 -0.000988 0.000000
# 4 0.000000 0.000000 0.000000 0.025646 0.000000 0.023843
# 5 0.011307 0.000941 -0.000988 0.000000 0.026247 0.000000
# 6 0.000000 0.000000 0.000000 0.023843 0.000000 0.107478
#
#
# Mechanical properties :
#
#
# Convention : Reuss Voigt Hill
#
# Bulk Modulus (GPa) = 24.44674 64.38323 44.41498
# Shear Modulus (GPa) = 21.23085 40.18204 30.70645
#
# Velocity S-wave (km/s) = 2.81746 3.87606 3.38836
# Velocity P-wave (km/s) = 4.44124 6.64111 5.64929
#
# Compressibility (1/GPa) = 0.04090526
#
# Stress axis : x y z
#
# Youngs Moduli (GPa) = 33.85173 61.00013 173.35679
#
# Poissons Ratio (x) = -0.26805 0.93006
# Poissons Ratio (y) = -0.14875 0.76759
# Poissons Ratio (z) = 0.18161 0.27010
#
# Static dielectric constant tensor:
#      x y z
#    x 2.247840 0.000000 0.102930 
#    y 0.000000 2.057240 0.000000 
#    z 0.102930 0.000000 2.247780 
# 
# From -- ./inp_files/31433.got.cif
#   From: 2010.05.17/outbox.cif.g08.bks.cpg/sg5_16_cif.got.tgz:31433.got - 2010.06.03 18:56:24.
