data_PCOD9123800
_publ_section_title
;
Structure prediction by ZEFSAII (Michael W. Deem and Ramdas Pophale) SiO2 
 PCOD9123800
Probable space group: C 2
;
_chemical_formula_sum "Si O2"
_cell_formula_units_Z 24
_cell_length_a 17.284558
_cell_length_b 7.255504
_cell_length_c 14.202143
_cell_angle_alpha 90.000000
_cell_angle_beta 34.938522
_cell_angle_gamma 90.000000
_cell_volume 1020.010814
_symmetry_space_group_name_H-M "C 2"
_symmetry_group_IT_number 5
_symmetry_cell_setting 'monoclinic'
loop_
_space_group_symop_operation_xyz
x,y,z
-x,y,-z
1/2+x,1/2+y,z
1/2-x,1/2+y,-z
loop_
_atom_site_type_symbol
_atom_site_label
_atom_site_fract_x
_atom_site_fract_y
_atom_site_fract_z
Si Si1 0.070543 0.626640 0.727170
Si Si2 0.500000 0.394760 0.500000
Si Si3 0.822627 0.530871 0.861184
Si Si4 0.350272 0.697229 0.349522
Si Si5 0.000000 0.551489 0.000000
Si Si6 0.094566 0.110914 0.227779
Si Si7 0.720508 0.730408 0.779303
O O1 0.211044 0.701972 0.546753
O O2 0.097180 0.406454 0.708450
O O3 0.026850 0.669482 0.878343
O O4 0.950293 0.648157 0.771626
O O5 0.560945 0.519084 0.358507
O O6 0.371924 0.279219 0.594322
O O7 0.873561 0.326371 0.788192
O O8 0.744025 0.619656 0.851813
O O9 0.721491 0.522407 0.049546
O O10 0.464022 0.589082 0.292159
O O11 0.338836 0.629216 0.253380
O O12 0.127560 0.411700 0.888684
#
# Coordination Sequence:
#
# PCOD9123800 Si02
#       7
#     4   2   4   4   2   4   4
#     4  10  21  38  61  88 118 155 200 246 299 358
#     4  12  24  40  64  94 122 160 206 252 302 362
#     4  11  23  40  63  93 125 160 202 253 305 360
#     4  10  22  39  62  88 119 157 200 248 301 357
#     4  10  20  40  64  86 116 160 202 244 300 362
#     4  11  24  41  63  92 125 160 204 252 302 361
#     4  11  22  41  65  88 120 163 202 246 306 363
#
# _framework density 23.529161999999999
#
# number of rings (size 3 to 8) (size 9 to 14) (size 15 to 20)
#    0.000    1.333    0.000    8.000    0.000    4.667 
#    0.000    0.000    0.000   10.000    0.000    0.000 
#    0.000    0.000    0.000    0.000    0.000    0.000 
#
# Total GULP energy -67195.847848 kJ/mol
# GULP energy per Si atom -5599.653987 kJ/mol
# Density = 2.347561 g / cm^3
# Si number density = 23.529162 Si / 1000 Ang^3
#
#
#
# Elastic Constant Matrix: (Units=GPa)
#
#
# Indices 1 2 3 4 5 6 
#
# 1 146.5043 16.7244 24.2577 -0.0001 13.0320 0.0000
# 2 16.7244 36.5343 -4.7090 0.0000 5.1561 0.0000
# 3 24.2577 -4.7090 115.3198 0.0000 8.2331 0.0001
# 4 -0.0001 0.0000 0.0000 48.2588 0.0000 2.5695
# 5 13.0320 5.1561 8.2331 0.0000 55.1241 0.0000
# 6 0.0000 0.0000 0.0001 2.5695 0.0000 23.0255
#
#
#
# Elastic Compliance Matrix: (Units=1/GPa)
#
#
# Indices 1 2 3 4 5 6 
#
# 1 0.007611 -0.003525 -0.001658 0.000000 -0.001222 0.000000
# 2 -0.003525 0.029575 0.002110 0.000000 -0.002248 0.000000
# 3 -0.001658 0.002110 0.009191 0.000000 -0.001178 0.000000
# 4 0.000000 0.000000 0.000000 0.020845 0.000000 -0.002326
# 5 -0.001222 -0.002248 -0.001178 0.000000 0.018816 0.000000
# 6 0.000000 0.000000 0.000000 -0.002326 0.000000 0.043690
#
#
# Mechanical properties :
#
#
# Convention : Reuss Voigt Hill
#
# Bulk Modulus (GPa) = 24.85742 41.21163 33.03453
# Shear Modulus (GPa) = 33.49309 42.75404 38.12356
#
# Velocity S-wave (km/s) = 3.77698 4.26733 4.02962
# Velocity P-wave (km/s) = 5.44135 6.46787 5.97669
#
# Compressibility (1/GPa) = 0.04022943
#
# Stress axis : x y z
#
# Youngs Moduli (GPa) = 131.38198 33.81279 108.80790
#
# Poissons Ratio (x) = 0.11921 0.18038
# Poissons Ratio (y) = 0.46319 -0.22956
# Poissons Ratio (z) = 0.21780 -0.07134
#
# Static dielectric constant tensor:
#      x y z
#    x 1.658520 0.000000 0.147680 
#    y 0.000000 1.890970 0.000000 
#    z 0.147680 0.000000 1.756880 
# 
# From -- ./inp_files/55707.got.cif
#   From: 2010.05.17/outbox.cif.g08.bks.cpg/sg5_28_cif.got.tgz:55707.got - 2010.06.03 18:56:24.
