data_PCOD9123927
_publ_section_title
;
Structure prediction by ZEFSAII (Michael W. Deem and Ramdas Pophale) SiO2 
 PCOD9123927
Probable space group: C 2
;
_chemical_formula_sum "Si O2"
_cell_formula_units_Z 32
_cell_length_a 12.606897
_cell_length_b 7.166775
_cell_length_c 14.623266
_cell_angle_alpha 90.000000
_cell_angle_beta 94.550880
_cell_angle_gamma 90.000000
_cell_volume 1317.058232
_symmetry_space_group_name_H-M "C 2"
_symmetry_group_IT_number 5
_symmetry_cell_setting 'monoclinic'
loop_
_space_group_symop_operation_xyz
x,y,z
-x,y,-z
1/2+x,1/2+y,z
1/2-x,1/2+y,-z
loop_
_atom_site_type_symbol
_atom_site_label
_atom_site_fract_x
_atom_site_fract_y
_atom_site_fract_z
Si Si1 0.786391 0.768190 0.879298
Si Si2 0.397719 0.897548 0.256899
Si Si3 0.475260 0.506299 0.347871
Si Si4 0.022762 0.863129 0.848267
Si Si5 0.655122 0.599581 0.498401
Si Si6 0.111193 0.528632 0.546593
Si Si7 0.022902 0.278149 0.103516
Si Si8 0.251011 0.341547 0.084045
O O1 0.718060 0.862388 0.794529
O O2 0.761712 0.548869 0.877681
O O3 0.912419 0.791603 0.880334
O O4 0.747050 0.845429 0.974168
O O5 0.442648 0.705064 0.302723
O O6 0.390799 0.032076 0.343350
O O7 0.479797 0.917858 0.177878
O O8 0.484399 0.374019 0.261638
O O9 0.586813 0.525911 0.408210
O O10 0.383395 0.476088 0.417465
O O11 0.133384 0.766846 0.881948
O O12 0.032177 0.076811 0.887359
O O13 0.779891 0.606247 0.487868
O O14 0.617683 0.810145 0.516854
O O15 0.000000 0.605054 0.500000
O O16 0.148693 0.237467 0.116870
O O17 0.000000 0.349661 0.000000
#
# Coordination Sequence:
#
# PCOD9123927 Si02
#       8
#     4   4   4   4   4   4   4   4
#     4  12  23  41  65  88 128 167 214 262 316 367
#     4  10  20  41  67  89 126 174 208 253 319 375
#     4   9  18  41  66  88 125 173 203 252 321 375
#     4  11  23  41  62  91 124 164 215 261 313 371
#     4  10  20  40  69  91 130 167 202 256 320 373
#     4  11  22  42  66  96 129 164 206 261 315 375
#     4  11  21  42  64  84 126 168 207 261 314 368
#     4  12  24  41  62  89 123 168 209 265 314 368
#
# _framework density 24.296571
#
# number of rings (size 3 to 8) (size 9 to 14) (size 15 to 20)
#    0.000    1.250    6.250    2.625    0.000    2.000 
#    4.500    1.250    0.000    0.000    0.000    0.000 
#    0.000    0.000    0.000    0.000    0.000    0.000 
#
# Total GULP energy -89583.615946 kJ/mol
# GULP energy per Si atom -5598.975997 kJ/mol
# Density = 2.424127 g / cm^3
# Si number density = 24.296571 Si / 1000 Ang^3
#
#
#
# Elastic Constant Matrix: (Units=GPa)
#
#
# Indices 1 2 3 4 5 6 
#
# 1 197.4212 19.0248 41.7670 0.0000 -20.2417 0.0000
# 2 19.0248 47.7973 5.6170 0.0000 -7.7171 0.0000
# 3 41.7670 5.6170 133.2334 0.0000 0.4568 0.0000
# 4 0.0000 0.0000 0.0000 10.7135 0.0000 -4.8537
# 5 -20.2417 -7.7171 0.4568 0.0000 35.9712 0.0000
# 6 0.0000 0.0000 0.0000 -4.8537 0.0000 42.3445
#
#
#
# Elastic Compliance Matrix: (Units=1/GPa)
#
#
# Indices 1 2 3 4 5 6 
#
# 1 0.005912 -0.001659 -0.001794 0.000000 0.002993 0.000000
# 2 -0.001659 0.022254 -0.000431 0.000000 0.003846 0.000000
# 3 -0.001794 -0.000431 0.008090 0.000000 -0.001205 0.000000
# 4 0.000000 0.000000 0.000000 0.098453 0.000000 0.011285
# 5 0.002993 0.003846 -0.001205 0.000000 0.030325 0.000000
# 6 0.000000 0.000000 0.000000 0.011285 0.000000 0.024909
#
#
# Mechanical properties :
#
#
# Convention : Reuss Voigt Hill
#
# Bulk Modulus (GPa) = 35.10271 56.80773 45.95522
# Shear Modulus (GPa) = 24.13062 38.60873 31.36967
#
# Velocity S-wave (km/s) = 3.15488 3.99063 3.59711
# Velocity P-wave (km/s) = 5.26782 6.68320 6.01727
#
# Compressibility (1/GPa) = 0.02848783
#
# Stress axis : x y z
#
# Youngs Moduli (GPa) = 169.16089 44.93651 123.60659
#
# Poissons Ratio (x) = 0.07454 0.22169
# Poissons Ratio (y) = 0.28062 0.05332
# Poissons Ratio (z) = 0.30339 0.01938
#
# Static dielectric constant tensor:
#      x y z
#    x 1.867520 0.000000 -0.047610 
#    y 0.000000 2.005880 0.000000 
#    z -0.047610 0.000000 1.868460 
# 
# From -- ./inp_files/52453.got.cif
#   From: 2010.05.17/outbox.cif.g08.bks.cpg/sg5_27_cif.got.tgz:52453.got - 2010.06.03 18:56:24.
