data_PCOD9123932
_publ_section_title
;
Structure prediction by ZEFSAII (Michael W. Deem and Ramdas Pophale) SiO2 
 PCOD9123932
Probable space group: C 2
;
_chemical_formula_sum "Si O2"
_cell_formula_units_Z 24
_cell_length_a 8.024569
_cell_length_b 18.099592
_cell_length_c 8.053516
_cell_angle_alpha 90.000000
_cell_angle_beta 61.155629
_cell_angle_gamma 90.000000
_cell_volume 1024.582851
_symmetry_space_group_name_H-M "C 2"
_symmetry_group_IT_number 5
_symmetry_cell_setting 'monoclinic'
loop_
_space_group_symop_operation_xyz
x,y,z
-x,y,-z
1/2+x,1/2+y,z
1/2-x,1/2+y,-z
loop_
_atom_site_type_symbol
_atom_site_label
_atom_site_fract_x
_atom_site_fract_y
_atom_site_fract_z
Si Si1 0.790117 0.641540 0.453676
Si Si2 0.700821 0.021682 0.977422
Si Si3 0.695730 0.985948 0.361597
Si Si4 0.896742 0.732365 0.868769
Si Si5 0.426955 0.659059 0.793904
Si Si6 0.558954 0.397094 0.280482
O O1 0.794285 0.556466 0.516193
O O2 0.645317 0.678215 0.655682
O O3 0.679301 0.654833 0.333598
O O4 0.993158 0.677296 0.311706
O O5 0.674535 0.011693 0.183845
O O6 0.500000 0.051010 0.000000
O O7 0.881063 0.075916 0.873343
O O8 0.760235 0.947722 0.852016
O O9 0.500000 0.944593 0.500000
O O10 0.876869 0.933462 0.279560
O O11 0.908897 0.813925 0.790861
O O12 0.685664 0.708381 0.021702
O O13 0.000000 0.731261 0.000000
O O14 0.500000 0.400770 0.500000
#
# Coordination Sequence:
#
# PCOD9123932 Si02
#       6
#     4   4   4   4   4   4
#     4  10  21  40  69 101 135 178 227 279 336 407
#     4  12  24  43  71 100 134 178 230 286 341 405
#     4  12  24  42  71 102 132 180 231 281 342 410
#     4  10  22  43  66  99 141 181 224 281 341 404
#     4  10  20  40  70 100 136 179 225 280 337 401
#     4  12  26  46  66  98 142 181 226 284 343 406
#
# _framework density 23.424167000000001
#
# number of rings (size 3 to 8) (size 9 to 14) (size 15 to 20)
#    0.000    1.000    1.667    7.000    0.000    2.000 
#   12.000    0.000    0.000    0.000    0.000    0.000 
#    0.000    0.000    0.000    0.000    0.000    0.000 
#
# Total GULP energy -67123.763138 kJ/mol
# GULP energy per Si atom -5593.646928 kJ/mol
# Density = 2.337085 g / cm^3
# Si number density = 23.424167 Si / 1000 Ang^3
#
#
#
# Elastic Constant Matrix: (Units=GPa)
#
#
# Indices 1 2 3 4 5 6 
#
# 1 90.5060 4.9602 39.9561 0.0000 -1.6980 0.0000
# 2 4.9602 116.5672 49.4982 0.0000 -8.6481 0.0000
# 3 39.9561 49.4982 187.1283 0.0000 -12.7485 0.0000
# 4 0.0000 0.0000 0.0000 34.3481 0.0000 4.4220
# 5 -1.6980 -8.6481 -12.7485 0.0000 47.4696 0.0000
# 6 0.0000 0.0000 0.0000 4.4220 0.0000 13.1328
#
#
#
# Elastic Compliance Matrix: (Units=1/GPa)
#
#
# Indices 1 2 3 4 5 6 
#
# 1 0.012246 0.000654 -0.002801 0.000000 -0.000195 0.000000
# 2 0.000654 0.009755 -0.002646 0.000000 0.001090 0.000000
# 3 -0.002801 -0.002646 0.006725 0.000000 0.001224 0.000000
# 4 0.000000 0.000000 0.000000 0.030433 0.000000 -0.010247
# 5 -0.000195 0.001090 0.001224 0.000000 0.021586 0.000000
# 6 0.000000 0.000000 0.000000 -0.010247 0.000000 0.079596
#
#
# Mechanical properties :
#
#
# Convention : Reuss Voigt Hill
#
# Bulk Modulus (GPa) = 52.24481 64.78116 58.51298
# Shear Modulus (GPa) = 28.35952 38.97590 33.66771
#
# Velocity S-wave (km/s) = 3.48328 4.08354 3.79530
# Velocity P-wave (km/s) = 6.20724 7.06749 6.65129
#
# Compressibility (1/GPa) = 0.01914066
#
# Stress axis : x y z
#
# Youngs Moduli (GPa) = 81.65867 102.50871 148.69352
#
# Poissons Ratio (x) = -0.06702 0.41650
# Poissons Ratio (y) = -0.05339 0.39341
# Poissons Ratio (z) = 0.22873 0.27121
#
# Static dielectric constant tensor:
#      x y z
#    x 2.081700 0.000000 0.111020 
#    y 0.000000 1.851890 0.000000 
#    z 0.111020 0.000000 2.023230 
# 
# From -- ./inp_files/16687.got.cif
#   From: 2010.05.17/outbox.cif.g08.bks.cpg/sg5_9_cif.got.tgz:16687.got - 2010.06.03 18:56:24.
