data_PCOD9123390
_publ_section_title
;
Structure prediction by ZEFSAII (Michael W. Deem and Ramdas Pophale) SiO2 
 PCOD9123390
Probable space group: C 2
;
_chemical_formula_sum "Si O2"
_cell_formula_units_Z 20
_cell_length_a 21.599538
_cell_length_b 4.964259
_cell_length_c 14.347286
_cell_angle_alpha 90.000000
_cell_angle_beta 151.524503
_cell_angle_gamma 90.000000
_cell_volume 733.481738
_symmetry_space_group_name_H-M "C 2"
_symmetry_group_IT_number 5
_symmetry_cell_setting 'monoclinic'
loop_
_space_group_symop_operation_xyz
x,y,z
-x,y,-z
1/2+x,1/2+y,z
1/2-x,1/2+y,-z
loop_
_atom_site_type_symbol
_atom_site_label
_atom_site_fract_x
_atom_site_fract_y
_atom_site_fract_z
Si Si1 0.085422 0.872250 0.286920
Si Si2 0.249941 0.499463 0.246855
Si Si3 0.500000 0.021619 0.000000
Si Si4 0.139162 0.373564 0.445359
Si Si5 0.500000 0.483484 0.500000
Si Si6 0.784158 0.240800 0.103445
O O1 0.078092 0.668289 0.364506
O O2 0.234832 0.920182 0.453550
O O3 0.043245 0.165938 0.265074
O O4 0.028536 0.719040 0.123554
O O5 0.305426 0.724160 0.391262
O O6 0.375536 0.332308 0.377960
O O7 0.209114 0.654683 0.098306
O O8 0.130105 0.363904 0.142111
O O9 0.430714 0.670481 0.330104
O O10 0.759394 0.539497 0.035978
#
# Coordination Sequence:
#
# PCOD9123390 Si02
#       6
#     4   4   2   4   2   4
#     4   9  19  33  57  85 123 163 207 266 328 403
#     4   9  21  41  64  99 135 179 228 294 341 425
#     4  10  20  38  64 100 134 170 230 286 350 410
#     4   9  18  36  56  84 121 167 210 259 335 393
#     4   8  22  44  64 102 132 188 224 292 338 428
#     4  10  23  44  71 102 139 187 239 292 352 420
#
# _framework density 27.267211
#
# number of rings (size 3 to 8) (size 9 to 14) (size 15 to 20)
#    1.200    1.600    0.000    0.000    0.000    6.400 
#    0.000    4.000    0.000    0.000    0.000    0.000 
#    0.000    0.000    0.000    0.000    0.000    0.000 
#
# Total GULP energy -55846.945605 kJ/mol
# GULP energy per Si atom -5584.694560 kJ/mol
# Density = 2.720515 g / cm^3
# Si number density = 27.267211 Si / 1000 Ang^3
#
#
#
# Elastic Constant Matrix: (Units=GPa)
#
#
# Indices 1 2 3 4 5 6 
#
# 1 150.9033 8.4298 47.3067 0.0006 30.2040 -0.0001
# 2 8.4298 93.1449 8.6387 0.0048 -6.7419 0.0017
# 3 47.3067 8.6387 108.1889 0.0013 -4.1072 0.0005
# 4 0.0006 0.0048 0.0013 22.3629 0.0006 -14.5094
# 5 30.2040 -6.7419 -4.1072 0.0006 78.3793 0.0001
# 6 -0.0001 0.0017 0.0005 -14.5094 0.0001 18.6564
#
#
#
# Elastic Compliance Matrix: (Units=1/GPa)
#
#
# Indices 1 2 3 4 5 6 
#
# 1 0.008580 -0.000679 -0.003833 0.000001 -0.003566 0.000001
# 2 -0.000679 0.010932 -0.000531 -0.000006 0.001174 -0.000006
# 3 -0.003833 -0.000531 0.011038 -0.000001 0.002010 -0.000001
# 4 0.000001 -0.000006 -0.000001 0.090263 -0.000002 0.070199
# 5 -0.003566 0.001174 0.002010 -0.000002 0.014339 -0.000001
# 6 0.000001 -0.000006 -0.000001 0.070199 -0.000001 0.108195
#
#
# Mechanical properties :
#
#
# Convention : Reuss Voigt Hill
#
# Bulk Modulus (GPa) = 48.86908 53.44305 51.15606
# Shear Modulus (GPa) = 19.21202 43.07051 31.14127
#
# Velocity S-wave (km/s) = 2.65728 3.97869 3.38313
# Velocity P-wave (km/s) = 5.23221 6.38349 5.83631
#
# Compressibility (1/GPa) = 0.02046284
#
# Stress axis : x y z
#
# Youngs Moduli (GPa) = 116.55142 91.47719 90.59826
#
# Poissons Ratio (x) = 0.06212 0.34724
# Poissons Ratio (y) = 0.07915 0.04814
# Poissons Ratio (z) = 0.44672 0.04861
#
# Static dielectric constant tensor:
#      x y z
#    x 2.192320 0.000000 0.071010 
#    y 0.000000 2.018330 0.000000 
#    z 0.071010 0.000000 2.201940 
# 
# From -- ./inp_files/46849.got.cif
#   From: 2010.05.17/outbox.cif.g08.bks.cpg/sg5_24_cif.got.tgz:46849.got - 2010.06.03 18:56:24.
