data_PCOD9123650
_publ_section_title
;
Structure prediction by ZEFSAII (Michael W. Deem and Ramdas Pophale) SiO2 
 PCOD9123650
Probable space group: C 2
;
_chemical_formula_sum "Si O2"
_cell_formula_units_Z 32
_cell_length_a 8.976730
_cell_length_b 21.857246
_cell_length_c 15.817132
_cell_angle_alpha 90.000000
_cell_angle_beta 149.695097
_cell_angle_gamma 90.000000
_cell_volume 1565.993244
_symmetry_space_group_name_H-M "C 2"
_symmetry_group_IT_number 5
_symmetry_cell_setting 'monoclinic'
loop_
_space_group_symop_operation_xyz
x,y,z
-x,y,-z
1/2+x,1/2+y,z
1/2-x,1/2+y,-z
loop_
_atom_site_type_symbol
_atom_site_label
_atom_site_fract_x
_atom_site_fract_y
_atom_site_fract_z
Si Si1 0.998020 0.870830 0.676893
Si Si2 0.333501 0.681208 0.827933
Si Si3 0.200759 0.950484 0.908859
Si Si4 0.535559 0.878126 0.820722
Si Si5 0.199870 0.551425 0.681647
Si Si6 0.333071 0.744661 0.163009
Si Si7 0.237089 0.971940 0.552394
Si Si8 0.308324 0.743831 0.488677
O O1 0.910600 0.937833 0.599042
O O2 0.771862 0.816274 0.553180
O O3 0.063579 0.887057 0.805361
O O4 0.296380 0.855472 0.772930
O O5 0.311394 0.612619 0.780858
O O6 0.505007 0.718543 0.839789
O O7 0.002330 0.708496 0.669881
O O8 0.500000 0.684545 0.000000
O O9 0.500000 0.962213 0.000000
O O10 0.278724 0.930804 0.042049
O O11 0.972759 0.006205 0.794956
O O12 0.679701 0.818041 0.854091
O O13 0.362758 0.913838 0.663942
O O14 0.000000 0.563701 0.500000
O O15 0.985430 0.516577 0.641698
O O16 0.516375 0.730603 0.338416
O O17 0.000000 0.720210 0.000000
O O18 0.000000 0.001347 0.500000
O O19 0.500000 0.729244 0.500000
#
# Coordination Sequence:
#
# PCOD9123650 Si02
#       8
#     4   4   4   4   4   4   4   4
#     4  10  20  39  66 104 143 179 224 283 353 425
#     4  12  30  52  72 100 139 190 248 300 353 416
#     4  10  24  40  65 105 143 182 224 289 354 414
#     4  10  22  37  67 101 150 176 222 288 360 412
#     4  12  26  47  73  97 138 191 239 281 347 433
#     4  12  26  45  71 107 142 189 236 294 355 423
#     4  10  22  40  65 105 141 180 222 282 349 419
#     4  12  26  44  74 104 143 188 237 293 357 422
#
# _framework density 20.434315000000002
#
# number of rings (size 3 to 8) (size 9 to 14) (size 15 to 20)
#    0.000    1.000    3.750    1.875    8.750    1.000 
#    0.000    2.500    0.000    0.000    0.000    0.000 
#    0.000    0.000    0.000    0.000    0.000    0.000 
#
# Total GULP energy -89365.891365 kJ/mol
# GULP energy per Si atom -5585.368210 kJ/mol
# Density = 2.038781 g / cm^3
# Si number density = 20.434315 Si / 1000 Ang^3
#
#
#
# Elastic Constant Matrix: (Units=GPa)
#
#
# Indices 1 2 3 4 5 6 
#
# 1 126.7751 48.2052 77.7411 0.0000 -2.6017 -0.0022
# 2 48.2052 76.0554 48.2780 0.0029 -1.1226 -0.0004
# 3 77.7411 48.2780 150.2080 -0.0123 0.2069 -0.0308
# 4 0.0000 0.0029 -0.0123 -7.1657 -0.0088 4.3563
# 5 -2.6017 -1.1226 0.2069 -0.0088 21.6008 -0.0067
# 6 -0.0022 -0.0004 -0.0308 4.3563 -0.0067 10.3459
#
#
#
# Elastic Compliance Matrix: (Units=1/GPa)
#
#
# Indices 1 2 3 4 5 6 
#
# 1 0.012920 -0.004929 -0.005105 -0.000002 0.001349 -0.000011
# 2 -0.004929 0.018417 -0.003369 0.000005 0.000396 -0.000012
# 3 -0.005105 -0.003369 0.010383 0.000000 -0.000889 0.000029
# 4 -0.000002 0.000005 0.000000 -0.111112 -0.000031 0.046785
# 5 0.001349 0.000396 -0.000889 -0.000031 0.046486 0.000041
# 6 -0.000011 -0.000012 0.000029 0.046785 0.000041 0.076958
#
#
# Mechanical properties :
#
#
# Convention : Reuss Voigt Hill
#
# Bulk Modulus (GPa) = 67.04413 77.94301 72.49357
# Shear Modulus (GPa) = 58.25617 16.87715 37.56666
#
# Velocity S-wave (km/s) = 5.34517 2.87700 4.29232
# Velocity P-wave (km/s) = 8.42468 7.01870 7.75363
#
# Compressibility (1/GPa) = 0.01491555
#
# Stress axis : x y z
#
# Youngs Moduli (GPa) = 77.39929 54.29901 96.30818
#
# Poissons Ratio (x) = 0.26763 0.49161
# Poissons Ratio (y) = 0.38148 0.32445
# Poissons Ratio (z) = 0.39509 0.18292
#
# Static dielectric constant tensor:
#      x y z
#    x 1.732200 0.000000 0.015350 
#    y 0.000000 1.689380 0.000000 
#    z 0.015350 0.000000 1.749430 
# 
# From -- ./inp_files/51725.got.cif
#   From: 2010.05.17/outbox.cif.g08.bks.cpg/sg5_26_cif.got.tgz:51725.got - 2010.06.03 18:56:24.
