data_PCOD9123741
_publ_section_title
;
Structure prediction by ZEFSAII (Michael W. Deem and Ramdas Pophale) SiO2 
 PCOD9123741
Probable space group: C 2
;
_chemical_formula_sum "Si O2"
_cell_formula_units_Z 30
_cell_length_a 22.854704
_cell_length_b 7.064598
_cell_length_c 12.656537
_cell_angle_alpha 90.000000
_cell_angle_beta 141.426260
_cell_angle_gamma 90.000000
_cell_volume 1274.175562
_symmetry_space_group_name_H-M "C 2"
_symmetry_group_IT_number 5
_symmetry_cell_setting 'monoclinic'
loop_
_space_group_symop_operation_xyz
x,y,z
-x,y,-z
1/2+x,1/2+y,z
1/2-x,1/2+y,-z
loop_
_atom_site_type_symbol
_atom_site_label
_atom_site_fract_x
_atom_site_fract_y
_atom_site_fract_z
Si Si1 0.097093 0.763520 0.035978
Si Si2 0.887158 0.227498 0.641717
Si Si3 0.299779 0.235269 0.335001
Si Si4 0.010635 0.893676 0.313153
Si Si5 0.221654 0.372742 0.825746
Si Si6 0.673874 0.489403 0.825611
Si Si7 0.500000 0.598990 0.000000
Si Si8 0.691546 0.999422 0.334292
O O1 0.014296 0.788258 0.832791
O O2 0.882933 0.608092 0.845934
O O3 0.082681 0.960297 0.077136
O O4 0.188274 0.762209 0.092016
O O5 0.954036 0.209824 0.839656
O O6 0.787347 0.117931 0.487288
O O7 0.851019 0.440272 0.612455
O O8 0.953066 0.110667 0.653982
O O9 0.403778 0.285214 0.516706
O O10 0.299816 0.020795 0.295793
O O11 0.284276 0.366189 0.209695
O O12 0.227610 0.313355 0.320819
O O13 0.920531 0.899387 0.260600
O O14 0.152887 0.203206 0.758540
O O15 0.252646 0.486796 0.973728
#
# Coordination Sequence:
#
# PCOD9123741 Si02
#       8
#     4   4   4   4   4   4   2   4
#     4  10  21  40  66  92 128 174 212 276 319 400
#     4  10  22  40  65  95 127 175 211 277 318 396
#     4  11  22  41  70  99 130 176 217 283 325 397
#     4   9  23  43  67  91 142 169 220 268 343 390
#     4  11  22  40  71  98 129 172 228 268 332 393
#     4  11  21  42  69  97 134 174 221 277 324 403
#     4  10  20  40  60  92 132 164 210 270 338 370
#     4  11  22  41  69  94 130 170 233 263 330 392
#
# _framework density 23.544635
#
# number of rings (size 3 to 8) (size 9 to 14) (size 15 to 20)
#    0.000    1.600    2.667    2.000    0.000    0.533 
#    0.000    5.333    5.867    0.000    0.000    0.000 
#    0.000    0.000    0.000    0.000    0.000    0.000 
#
# Total GULP energy -83684.075173 kJ/mol
# GULP energy per Si atom -5578.938345 kJ/mol
# Density = 2.349105 g / cm^3
# Si number density = 23.544635 Si / 1000 Ang^3
#
#
#
# Elastic Constant Matrix: (Units=GPa)
#
#
# Indices 1 2 3 4 5 6 
#
# 1 74.2974 12.6318 8.2014 0.0000 -6.4008 0.0000
# 2 12.6318 73.9424 10.5687 0.0000 -6.6264 0.0000
# 3 8.2014 10.5687 59.5089 0.0000 -11.4225 0.0000
# 4 0.0000 0.0000 0.0000 23.2648 0.0000 -10.6282
# 5 -6.4008 -6.6264 -11.4225 0.0000 32.3419 0.0000
# 6 0.0000 0.0000 0.0000 -10.6282 0.0000 44.6773
#
#
#
# Elastic Compliance Matrix: (Units=1/GPa)
#
#
# Indices 1 2 3 4 5 6 
#
# 1 0.014111 -0.002064 -0.001205 0.000000 0.001944 0.000000
# 2 -0.002064 0.014315 -0.001902 0.000000 0.001853 0.000000
# 3 -0.001205 -0.001902 0.018437 0.000000 0.005883 0.000000
# 4 0.000000 0.000000 0.000000 0.048224 0.000000 0.011472
# 5 0.001944 0.001853 0.005883 0.000000 0.033762 0.000000
# 6 0.000000 0.000000 0.000000 0.011472 0.000000 0.025112
#
#
# Mechanical properties :
#
#
# Convention : Reuss Voigt Hill
#
# Bulk Modulus (GPa) = 27.38207 30.06139 28.72173
# Shear Modulus (GPa) = 28.33235 31.81327 30.07281
#
# Velocity S-wave (km/s) = 3.47269 3.67984 3.57777
# Velocity P-wave (km/s) = 5.26636 5.55432 5.41226
#
# Compressibility (1/GPa) = 0.03652024
#
# Stress axis : x y z
#
# Youngs Moduli (GPa) = 70.86743 69.85891 54.23752
#
# Poissons Ratio (x) = 0.14420 0.06535
# Poissons Ratio (y) = 0.14628 0.10317
# Poissons Ratio (z) = 0.08539 0.13288
#
# Static dielectric constant tensor:
#      x y z
#    x 1.933450 0.000000 -0.018540 
#    y 0.000000 1.948650 0.000000 
#    z -0.018540 0.000000 1.893100 
# 
# From -- ./inp_files/56752.got.cif
#   From: 2010.05.17/outbox.cif.g08.bks.cpg/sg5_29_cif.got.tgz:56752.got - 2010.06.03 18:56:24.
