data_PCOD9123538
_publ_section_title
;
Structure prediction by ZEFSAII (Michael W. Deem and Ramdas Pophale) SiO2 
 PCOD9123538
Probable space group: C 2
;
_chemical_formula_sum "Si O2"
_cell_formula_units_Z 26
_cell_length_a 13.706284
_cell_length_b 7.953574
_cell_length_c 14.241262
_cell_angle_alpha 90.000000
_cell_angle_beta 135.775943
_cell_angle_gamma 90.000000
_cell_volume 1082.813355
_symmetry_space_group_name_H-M "C 2"
_symmetry_group_IT_number 5
_symmetry_cell_setting 'monoclinic'
loop_
_space_group_symop_operation_xyz
x,y,z
-x,y,-z
1/2+x,1/2+y,z
1/2-x,1/2+y,-z
loop_
_atom_site_type_symbol
_atom_site_label
_atom_site_fract_x
_atom_site_fract_y
_atom_site_fract_z
Si Si1 0.701996 0.403190 0.738300
Si Si2 0.032349 0.203660 0.725803
Si Si3 0.052746 0.748102 0.205716
Si Si4 0.500000 0.999044 0.000000
Si Si5 0.077612 0.089173 0.952883
Si Si6 0.651414 0.668029 0.557862
Si Si7 0.383887 0.077069 0.241514
O O1 0.621630 0.543253 0.747985
O O2 0.694747 0.487195 0.630750
O O3 0.643435 0.214938 0.696757
O O4 0.856290 0.398630 0.889962
O O5 0.090515 0.380762 0.726798
O O6 0.880920 0.175287 0.574527
O O7 0.035842 0.217796 0.841065
O O8 0.005602 0.620424 0.092751
O O9 0.218660 0.780990 0.320964
O O10 0.969326 0.915404 0.127481
O O11 0.012153 0.657663 0.273554
O O12 0.000000 0.091490 0.000000
O O13 0.243305 0.089786 0.082006
O O14 0.500000 0.705586 0.500000
#
# Coordination Sequence:
#
# PCOD9123538 Si02
#       7
#     4   4   4   2   4   4   4
#     4  10  22  45  73 106 147 189 246 308 370 436
#     4  11  25  48  72 104 157 192 244 308 373 441
#     4  11  23  43  74 106 145 200 244 304 373 436
#     4  10  20  38  72 104 146 190 242 308 376 424
#     4  12  26  42  72 111 150 189 252 311 366 432
#     4   9  23  47  78 100 144 203 238 302 372 434
#     4  12  26  43  74 112 142 195 250 305 377 445
#
# _framework density 24.011524999999999
#
# number of rings (size 3 to 8) (size 9 to 14) (size 15 to 20)
#    0.000    1.231    2.308    2.769    7.538    2.462 
#    0.000    6.923    0.000    0.000    0.000    0.000 
#    0.000    0.000    0.000    0.000    0.000    0.000 
#
# Total GULP energy -72634.593362 kJ/mol
# GULP energy per Si atom -5587.276412 kJ/mol
# Density = 2.395687 g / cm^3
# Si number density = 24.011525 Si / 1000 Ang^3
#
#
#
# Elastic Constant Matrix: (Units=GPa)
#
#
# Indices 1 2 3 4 5 6 
#
# 1 57.8989 17.5684 27.3271 0.0000 1.4056 0.0000
# 2 17.5684 135.6307 26.1867 0.0000 0.5037 0.0000
# 3 27.3271 26.1867 128.4812 0.0000 -9.5201 0.0000
# 4 0.0000 0.0000 0.0000 18.3572 0.0000 9.8114
# 5 1.4056 0.5037 -9.5201 0.0000 35.3701 0.0000
# 6 0.0000 0.0000 0.0000 9.8114 0.0000 14.4153
#
#
#
# Elastic Compliance Matrix: (Units=1/GPa)
#
#
# Indices 1 2 3 4 5 6 
#
# 1 0.019730 -0.001783 -0.003968 0.000000 -0.001827 0.000000
# 2 -0.001783 0.007846 -0.001248 0.000000 -0.000377 0.000000
# 3 -0.003968 -0.001248 0.009076 0.000000 0.002618 0.000000
# 4 0.000000 0.000000 0.000000 0.085621 0.000000 -0.058276
# 5 -0.001827 -0.000377 0.002618 0.000000 0.029055 0.000000
# 6 0.000000 0.000000 0.000000 -0.058276 0.000000 0.109035
#
#
# Mechanical properties :
#
#
# Convention : Reuss Voigt Hill
#
# Bulk Modulus (GPa) = 44.14311 51.57503 47.85907
# Shear Modulus (GPa) = 17.73602 30.35710 24.04656
#
# Velocity S-wave (km/s) = 2.72075 3.55952 3.16802
# Velocity P-wave (km/s) = 5.31921 6.19834 5.77553
#
# Compressibility (1/GPa) = 0.02265359
#
# Stress axis : x y z
#
# Youngs Moduli (GPa) = 50.68488 127.45000 110.18483
#
# Poissons Ratio (x) = 0.22720 0.43726
# Poissons Ratio (y) = 0.09035 0.13751
# Poissons Ratio (z) = 0.20114 0.15905
#
# Static dielectric constant tensor:
#      x y z
#    x 2.084520 0.000000 -0.058220 
#    y 0.000000 1.962210 0.000000 
#    z -0.058220 0.000000 1.914780 
# 
# From -- ./inp_files/54336.got.cif
#   From: 2010.05.17/outbox.cif.g08.bks.cpg/sg5_28_cif.got.tgz:54336.got - 2010.06.03 18:56:24.
