data_PCOD9123928
_publ_section_title
;
Structure prediction by ZEFSAII (Michael W. Deem and Ramdas Pophale) SiO2 
 PCOD9123928
Probable space group: C 2
;
_chemical_formula_sum "Si O2"
_cell_formula_units_Z 24
_cell_length_a 29.665757
_cell_length_b 5.159293
_cell_length_c 21.474144
_cell_angle_alpha 90.000000
_cell_angle_beta 161.853271
_cell_angle_gamma 90.000000
_cell_volume 1023.651142
_symmetry_space_group_name_H-M "C 2"
_symmetry_group_IT_number 5
_symmetry_cell_setting 'monoclinic'
loop_
_space_group_symop_operation_xyz
x,y,z
-x,y,-z
1/2+x,1/2+y,z
1/2-x,1/2+y,-z
loop_
_atom_site_type_symbol
_atom_site_label
_atom_site_fract_x
_atom_site_fract_y
_atom_site_fract_z
Si Si1 0.686548 0.316350 0.154830
Si Si2 0.077330 0.035699 0.482570
Si Si3 0.953397 0.354661 0.686165
Si Si4 0.735471 0.362713 0.940724
Si Si5 0.785603 0.142011 0.694676
Si Si6 0.982069 0.300381 0.098724
O O1 0.854322 0.228774 0.376898
O O2 0.666940 0.393442 0.202360
O O3 0.638221 0.574061 0.055858
O O4 0.586442 0.083555 0.999814
O O5 0.055415 0.169801 0.385884
O O6 0.204202 0.828902 0.636396
O O7 0.921643 0.917485 0.294134
O O8 0.920321 0.261997 0.711739
O O9 0.841528 0.574854 0.520592
O O10 0.123030 0.427070 0.913636
O O11 0.755755 0.565937 0.024708
O O12 0.918174 0.253134 0.830504
#
# Coordination Sequence:
#
# PCOD9123928 Si02
#       6
#     4   4   4   4   4   4
#     4  11  26  44  65  95 133 181 214 259 318 405
#     4  10  22  43  71  94 125 174 225 261 314 397
#     4  10  25  42  68 102 133 163 219 280 331 369
#     4  10  20  40  69  97 125 168 219 272 318 383
#     4  11  24  42  68  94 130 176 219 259 320 399
#     4  12  28  40  68  98 140 167 214 273 333 377
#
# _framework density 23.445488999999998
#
# number of rings (size 3 to 8) (size 9 to 14) (size 15 to 20)
#    0.000    1.333    3.333    0.500   11.667    0.000 
#    0.000    0.833    3.667    0.000    0.000    0.000 
#    0.000    0.000    0.000    0.000    0.000    0.000 
#
# Total GULP energy -66972.830619 kJ/mol
# GULP energy per Si atom -5581.069218 kJ/mol
# Density = 2.339213 g / cm^3
# Si number density = 23.445489 Si / 1000 Ang^3
#
#
#
# Elastic Constant Matrix: (Units=GPa)
#
#
# Indices 1 2 3 4 5 6 
#
# 1 33.2151 -1.3041 7.2274 0.0000 -7.5939 0.0002
# 2 -1.3041 88.0621 26.7112 0.0010 -8.1121 -0.0001
# 3 7.2274 26.7112 50.3910 0.0000 -1.7164 0.0000
# 4 0.0000 0.0010 0.0000 46.1484 0.0000 -3.2085
# 5 -7.5939 -8.1121 -1.7164 0.0000 29.6339 -0.0001
# 6 0.0002 -0.0001 0.0000 -3.2085 -0.0001 10.9045
#
#
#
# Elastic Compliance Matrix: (Units=1/GPa)
#
#
# Indices 1 2 3 4 5 6 
#
# 1 0.033683 0.003233 -0.006233 0.000000 0.009156 -0.000001
# 2 0.003233 0.014170 -0.007830 0.000000 0.004254 0.000000
# 3 -0.006233 -0.007830 0.024811 0.000000 -0.002304 0.000000
# 4 0.000000 0.000000 0.000000 0.022122 0.000000 0.006509
# 5 0.009156 0.004254 -0.002304 0.000000 0.037122 0.000000
# 6 -0.000001 0.000000 0.000000 0.006509 0.000000 0.093620
#
#
# Mechanical properties :
#
#
# Convention : Reuss Voigt Hill
#
# Bulk Modulus (GPa) = 19.60634 26.32636 22.96635
# Shear Modulus (GPa) = 18.92572 26.60629 22.76600
#
# Velocity S-wave (km/s) = 2.84425 3.37236 3.11950
# Velocity P-wave (km/s) = 4.37801 5.13973 4.77409
#
# Compressibility (1/GPa) = 0.05100391
#
# Stress axis : x y z
#
# Youngs Moduli (GPa) = 29.68846 70.56935 40.30474
#
# Poissons Ratio (x) = -0.22813 0.25121
# Poissons Ratio (y) = -0.09598 0.31560
# Poissons Ratio (z) = 0.18504 0.55257
#
# Static dielectric constant tensor:
#      x y z
#    x 1.880970 0.000000 -0.000390 
#    y 0.000000 1.939530 0.000000 
#    z -0.000390 0.000000 1.923310 
# 
# From -- ./inp_files/67683.got.cif
#   From: 2010.05.17/outbox.cif.g08.bks.cpg/sg5_34_cif.got.tgz:67683.got - 2010.06.03 18:56:24.
