data_PCOD9123836
_publ_section_title
;
Structure prediction by ZEFSAII (Michael W. Deem and Ramdas Pophale) SiO2 
 PCOD9123836
Probable space group: C 2
;
_chemical_formula_sum "Si O2"
_cell_formula_units_Z 28
_cell_length_a 14.688521
_cell_length_b 11.093356
_cell_length_c 9.513948
_cell_angle_alpha 90.000000
_cell_angle_beta 69.442103
_cell_angle_gamma 90.000000
_cell_volume 1451.526889
_symmetry_space_group_name_H-M "C 2"
_symmetry_group_IT_number 5
_symmetry_cell_setting 'monoclinic'
loop_
_space_group_symop_operation_xyz
x,y,z
-x,y,-z
1/2+x,1/2+y,z
1/2-x,1/2+y,-z
loop_
_atom_site_type_symbol
_atom_site_label
_atom_site_fract_x
_atom_site_fract_y
_atom_site_fract_z
Si Si1 0.586089 0.644070 0.057107
Si Si2 0.257139 0.862035 0.358734
Si Si3 0.770473 0.083752 0.419945
Si Si4 0.012595 0.010864 0.659607
Si Si5 0.801513 0.577608 0.846943
Si Si6 0.939466 0.769212 0.664664
Si Si7 0.102468 0.408909 0.980991
O O1 0.571510 0.577715 0.211096
O O2 0.571112 0.786377 0.076110
O O3 0.500000 0.598805 0.000000
O O4 0.695152 0.626521 0.944091
O O5 0.262345 0.730903 0.436265
O O6 0.150758 0.847983 0.346564
O O7 0.261679 0.985845 0.445323
O O8 0.337340 0.873392 0.191807
O O9 0.885335 0.062706 0.345482
O O10 0.713307 0.045909 0.309296
O O11 0.000000 0.027479 0.500000
O O12 0.008796 0.868583 0.695153
O O13 0.888562 0.674862 0.793524
O O14 0.831254 0.480741 0.945945
O O15 0.000000 0.715297 0.500000
O O16 0.000000 0.472485 0.000000
#
# Coordination Sequence:
#
# PCOD9123836 Si02
#       7
#     4   4   4   4   4   4   4
#     4  11  21  41  66  90 133 172 218 275 329 404
#     4  11  22  44  67  99 136 178 217 285 339 404
#     4  11  22  42  67 103 131 171 230 273 339 393
#     4  11  21  38  68  97 124 177 225 272 328 401
#     4  11  24  41  65  97 130 179 219 271 347 393
#     4  10  20  40  65  90 135 171 216 276 341 383
#     4  11  24  45  64  90 135 180 214 274 351 400
#
# _framework density 19.290033000000001
#
# number of rings (size 3 to 8) (size 9 to 14) (size 15 to 20)
#    0.000    1.143    7.143    1.714    0.000    3.429 
#    0.000    1.429    0.000    0.000    0.000    0.000 
#    0.000    0.000    0.000    0.000    0.000    0.000 
#
# Total GULP energy -77977.257888 kJ/mol
# GULP energy per Si atom -5569.804135 kJ/mol
# Density = 1.924613 g / cm^3
# Si number density = 19.290033 Si / 1000 Ang^3
#
#
#
# Elastic Constant Matrix: (Units=GPa)
#
#
# Indices 1 2 3 4 5 6 
#
# 1 56.6430 7.6279 5.1334 0.0000 -9.2876 0.0000
# 2 7.6279 94.5954 50.0610 0.0000 3.0978 0.0000
# 3 5.1334 50.0610 98.1876 0.0000 -15.7873 0.0000
# 4 0.0000 0.0000 0.0000 31.9608 0.0000 -2.2248
# 5 -9.2876 3.0978 -15.7873 0.0000 32.5035 0.0000
# 6 0.0000 0.0000 0.0000 -2.2248 0.0000 35.7814
#
#
#
# Elastic Compliance Matrix: (Units=1/GPa)
#
#
# Indices 1 2 3 4 5 6 
#
# 1 0.018882 -0.002373 0.001222 0.000000 0.006215 0.000000
# 2 -0.002373 0.015701 -0.008928 0.000000 -0.006511 0.000000
# 3 0.001222 -0.008928 0.016125 0.000000 0.009032 0.000000
# 4 0.000000 0.000000 0.000000 0.031424 0.000000 0.001954
# 5 0.006215 -0.006511 0.009032 0.000000 0.037549 0.000000
# 6 0.000000 0.000000 0.000000 0.001954 0.000000 0.028069
#
#
# Mechanical properties :
#
#
# Convention : Reuss Voigt Hill
#
# Bulk Modulus (GPa) = 32.73283 41.67449 37.20366
# Shear Modulus (GPa) = 28.07556 32.48939 30.28247
#
# Velocity S-wave (km/s) = 3.81917 4.10842 3.96643
# Velocity P-wave (km/s) = 6.03769 6.64504 6.34863
#
# Compressibility (1/GPa) = 0.03055037
#
# Stress axis : x y z
#
# Youngs Moduli (GPa) = 52.95961 63.69212 62.01657
#
# Poissons Ratio (x) = 0.15113 -0.07578
# Poissons Ratio (y) = 0.12566 0.55367
# Poissons Ratio (z) = -0.06471 0.56862
#
# Static dielectric constant tensor:
#      x y z
#    x 1.706380 0.000000 -0.011800 
#    y 0.000000 1.702560 0.000000 
#    z -0.011800 0.000000 1.702030 
# 
# From -- ./inp_files/23595.got.cif
#   From: 2010.05.17/outbox.cif.g08.bks.cpg/sg5_12_cif.got.tgz:23595.got - 2010.06.03 18:56:24.
