data_PCOD9123494
_publ_section_title
;
Structure prediction by ZEFSAII (Michael W. Deem and Ramdas Pophale) SiO2 
 PCOD9123494
Probable space group: C 2
;
_chemical_formula_sum "Si O2"
_cell_formula_units_Z 32
_cell_length_a 11.471929
_cell_length_b 14.578367
_cell_length_c 15.005138
_cell_angle_alpha 90.000000
_cell_angle_beta 140.169162
_cell_angle_gamma 90.000000
_cell_volume 1607.385814
_symmetry_space_group_name_H-M "C 2"
_symmetry_group_IT_number 5
_symmetry_cell_setting 'monoclinic'
loop_
_space_group_symop_operation_xyz
x,y,z
-x,y,-z
1/2+x,1/2+y,z
1/2-x,1/2+y,-z
loop_
_atom_site_type_symbol
_atom_site_label
_atom_site_fract_x
_atom_site_fract_y
_atom_site_fract_z
Si Si1 0.855898 0.882930 0.093546
Si Si2 0.961182 0.089071 0.190727
Si Si3 0.486546 0.084504 0.741986
Si Si4 0.029054 0.436662 0.114675
Si Si5 0.090895 0.034067 0.461192
Si Si6 0.073977 0.849474 0.667973
Si Si7 0.353103 0.140454 0.341884
Si Si8 0.402521 0.205906 0.033761
O O1 0.949069 0.849421 0.239301
O O2 0.639690 0.867569 0.982359
O O3 0.904574 0.815531 0.043328
O O4 0.903000 0.990601 0.114042
O O5 0.989455 0.067725 0.312650
O O6 0.150691 0.125764 0.261344
O O7 0.797862 0.160688 0.082581
O O8 0.292865 0.073200 0.580503
O O9 0.628430 0.094414 0.744835
O O10 0.501745 0.998951 0.817653
O O11 0.499497 0.166630 0.820489
O O12 0.230205 0.396588 0.235539
O O13 0.000000 0.482605 0.000000
O O14 0.000000 0.065494 0.500000
O O15 0.076520 0.922449 0.453696
O O16 0.089348 0.746856 0.640768
O O17 0.500000 0.103134 0.500000
O O18 0.500000 0.179900 0.000000
#
# Coordination Sequence:
#
# PCOD9123494 Si02
#       8
#     4   4   4   4   4   4   4   4
#     4  10  22  41  63  97 133 169 216 271 337 394
#     4  11  25  44  68  97 134 177 221 270 337 399
#     4  12  23  40  64  97 129 175 213 274 331 390
#     4  10  20  38  66  99 127 167 229 274 321 387
#     4  11  21  39  67  95 125 172 220 272 331 381
#     4  10  21  39  67  93 130 173 221 277 320 387
#     4  12  25  43  63  97 137 173 222 274 325 400
#     4  12  25  44  69  99 134 172 222 280 332 399
#
# _framework density 19.908100999999998
#
# number of rings (size 3 to 8) (size 9 to 14) (size 15 to 20)
#    0.000    1.000    5.000    2.250    1.750    1.500 
#    0.000    0.000    0.000    0.750    0.000    0.000 
#    0.000    0.000    0.000    0.000    0.000    0.000 
#
# Total GULP energy -89246.785903 kJ/mol
# GULP energy per Si atom -5577.924119 kJ/mol
# Density = 1.986279 g / cm^3
# Si number density = 19.908101 Si / 1000 Ang^3
#
#
#
# Elastic Constant Matrix: (Units=GPa)
#
#
# Indices 1 2 3 4 5 6 
#
# 1 108.5018 28.4783 17.9518 0.0001 -8.7539 0.0001
# 2 28.4783 55.9340 29.6731 0.0001 -13.4118 0.0001
# 3 17.9518 29.6731 84.8002 0.0003 -0.3005 0.0002
# 4 0.0001 0.0001 0.0003 12.5519 0.0002 -7.0637
# 5 -8.7539 -13.4118 -0.3005 0.0002 36.6821 0.0001
# 6 0.0001 0.0001 0.0002 -7.0637 0.0001 23.1344
#
#
#
# Elastic Compliance Matrix: (Units=1/GPa)
#
#
# Indices 1 2 3 4 5 6 
#
# 1 0.010668 -0.004989 -0.000510 0.000000 0.000718 0.000000
# 2 -0.004989 0.026889 -0.008322 0.000000 0.008572 0.000000
# 3 -0.000510 -0.008322 0.014802 0.000000 -0.003043 0.000000
# 4 0.000000 0.000000 0.000000 0.096199 -0.000001 0.029373
# 5 0.000718 0.008572 -0.003043 -0.000001 0.030542 0.000000
# 6 0.000000 0.000000 0.000000 0.029373 0.000000 0.052194
#
#
# Mechanical properties :
#
#
# Convention : Reuss Voigt Hill
#
# Bulk Modulus (GPa) = 40.45977 44.60472 42.53224
# Shear Modulus (GPa) = 18.71431 26.01585 22.36508
#
# Velocity S-wave (km/s) = 3.06933 3.61889 3.35538
# Velocity P-wave (km/s) = 5.73833 6.31789 6.03507
#
# Compressibility (1/GPa) = 0.02471591
#
# Stress axis : x y z
#
# Youngs Moduli (GPa) = 93.73682 37.19023 67.55937
#
# Poissons Ratio (x) = 0.18554 0.03447
# Poissons Ratio (y) = 0.46764 0.56225
# Poissons Ratio (z) = 0.04782 0.30951
#
# Static dielectric constant tensor:
#      x y z
#    x 1.703710 0.000000 -0.013070 
#    y 0.000000 1.741030 0.000000 
#    z -0.013070 0.000000 1.728270 
# 
# From -- ./inp_files/53206.got.cif
#   From: 2010.05.17/outbox.cif.g08.bks.cpg/sg5_27_cif.got.tgz:53206.got - 2010.06.03 18:56:24.
