data_PCOD9123892
_publ_section_title
;
Structure prediction by ZEFSAII (Michael W. Deem and Ramdas Pophale) SiO2 
 PCOD9123892
Probable space group: C 2
;
_chemical_formula_sum "Si O2"
_cell_formula_units_Z 24
_cell_length_a 15.199450
_cell_length_b 8.165591
_cell_length_c 9.898418
_cell_angle_alpha 90.000000
_cell_angle_beta 80.159211
_cell_angle_gamma 90.000000
_cell_volume 1210.441507
_symmetry_space_group_name_H-M "C 2"
_symmetry_group_IT_number 5
_symmetry_cell_setting 'monoclinic'
loop_
_space_group_symop_operation_xyz
x,y,z
-x,y,-z
1/2+x,1/2+y,z
1/2-x,1/2+y,-z
loop_
_atom_site_type_symbol
_atom_site_label
_atom_site_fract_x
_atom_site_fract_y
_atom_site_fract_z
Si Si1 0.925784 0.659520 0.261114
Si Si2 0.945248 0.296216 0.154610
Si Si3 0.500000 0.367453 0.000000
Si Si4 0.183387 0.072976 0.943966
Si Si5 0.500000 0.330019 0.500000
Si Si6 0.764207 0.261309 0.801077
Si Si7 0.054851 0.150745 0.360866
O O1 0.939319 0.468295 0.231132
O O2 0.950918 0.721285 0.402502
O O3 0.824459 0.708219 0.253170
O O4 0.985674 0.755494 0.135031
O O5 0.849255 0.221900 0.141697
O O6 0.996338 0.172211 0.241237
O O7 0.000000 0.315946 0.000000
O O8 0.590560 0.473102 0.991317
O O9 0.250373 0.946458 0.856522
O O10 0.222131 0.146925 0.070886
O O11 0.562768 0.460266 0.402472
O O12 0.851689 0.236211 0.689091
O O13 0.000000 0.226493 0.500000
#
# Coordination Sequence:
#
# PCOD9123892 Si02
#       7
#     4   4   2   4   2   4   4
#     4  11  24  40  68 101 134 179 231 277 338 405
#     4  12  22  43  70 100 137 184 227 281 344 410
#     4  10  20  40  68 100 132 180 220 280 342 412
#     4  11  21  36  70 101 139 170 224 296 343 388
#     4  10  24  48  64  94 138 190 222 270 348 420
#     4  11  22  41  66 106 135 174 235 287 337 397
#     4  10  24  45  70  92 144 185 225 270 349 414
#
# _framework density 19.827476000000001
#
# number of rings (size 3 to 8) (size 9 to 14) (size 15 to 20)
#    0.500    0.667    3.333    4.000    1.167    0.000 
#    3.000    1.667    0.000    0.000    0.000    0.000 
#    0.000    0.000    0.000    0.000    0.000    0.000 
#
# Total GULP energy -67040.424546 kJ/mol
# GULP energy per Si atom -5586.702045 kJ/mol
# Density = 1.978235 g / cm^3
# Si number density = 19.827476 Si / 1000 Ang^3
#
#
#
# Elastic Constant Matrix: (Units=GPa)
#
#
# Indices 1 2 3 4 5 6 
#
# 1 88.3981 43.9087 70.4697 0.0000 5.0182 0.0000
# 2 43.9087 136.2131 70.9201 0.0000 4.4070 0.0000
# 3 70.4697 70.9201 151.2249 0.0000 18.8823 0.0000
# 4 0.0000 0.0000 0.0000 33.8175 0.0000 -0.8946
# 5 5.0182 4.4070 18.8823 0.0000 36.6121 0.0000
# 6 0.0000 0.0000 0.0000 -0.8946 0.0000 21.6201
#
#
#
# Elastic Compliance Matrix: (Units=1/GPa)
#
#
# Indices 1 2 3 4 5 6 
#
# 1 0.018487 -0.001873 -0.007961 0.000000 0.001797 0.000000
# 2 -0.001873 0.009958 -0.003933 0.000000 0.001086 0.000000
# 3 -0.007961 -0.003933 0.012795 0.000000 -0.005035 0.000000
# 4 0.000000 0.000000 0.000000 0.029603 0.000000 0.001225
# 5 0.001797 0.001086 -0.005035 0.000000 0.029533 0.000000
# 6 0.000000 0.000000 0.000000 0.001225 0.000000 0.046304
#
#
# Mechanical properties :
#
#
# Convention : Reuss Voigt Hill
#
# Bulk Modulus (GPa) = 72.95469 82.93700 77.94585
# Shear Modulus (GPa) = 27.96707 31.11244 29.53976
#
# Velocity S-wave (km/s) = 3.75976 3.96556 3.86403
# Velocity P-wave (km/s) = 7.46474 7.93017 7.70098
#
# Compressibility (1/GPa) = 0.01370714
#
# Stress axis : x y z
#
# Youngs Moduli (GPa) = 54.09211 100.42602 78.15249
#
# Poissons Ratio (x) = 0.18805 0.62218
# Poissons Ratio (y) = 0.10129 0.30737
# Poissons Ratio (z) = 0.43063 0.39496
#
# Static dielectric constant tensor:
#      x y z
#    x 1.681340 0.000000 -0.007890 
#    y 0.000000 1.728900 0.000000 
#    z -0.007890 0.000000 1.687470 
# 
# From -- ./inp_files/22887.got.cif
#   From: 2010.05.17/outbox.cif.g08.bks.cpg/sg5_12_cif.got.tgz:22887.got - 2010.06.03 18:56:24.
