data_PCOD9123941
_publ_section_title
;
Structure prediction by ZEFSAII (Michael W. Deem and Ramdas Pophale) SiO2 
 PCOD9123941
Probable space group: C 2
;
_chemical_formula_sum "Si O2"
_cell_formula_units_Z 26
_cell_length_a 20.243766
_cell_length_b 9.508856
_cell_length_c 7.308034
_cell_angle_alpha 90.000000
_cell_angle_beta 51.667409
_cell_angle_gamma 90.000000
_cell_volume 1103.496209
_symmetry_space_group_name_H-M "C 2"
_symmetry_group_IT_number 5
_symmetry_cell_setting 'monoclinic'
loop_
_space_group_symop_operation_xyz
x,y,z
-x,y,-z
1/2+x,1/2+y,z
1/2-x,1/2+y,-z
loop_
_atom_site_type_symbol
_atom_site_label
_atom_site_fract_x
_atom_site_fract_y
_atom_site_fract_z
Si Si1 0.000000 0.620651 0.500000
Si Si2 0.433666 0.302232 0.952044
Si Si3 0.843199 0.124423 0.470113
Si Si4 0.768392 0.855088 0.433944
Si Si5 0.820664 0.526363 0.724692
Si Si6 0.529627 0.612447 0.238491
Si Si7 0.194238 0.250189 0.061890
O O1 0.960403 0.712993 0.730848
O O2 0.921328 0.534870 0.555234
O O3 0.434494 0.465161 0.893363
O O4 0.500000 0.278393 0.000000
O O5 0.341470 0.278232 0.191516
O O6 0.795210 0.228905 0.413423
O O7 0.820394 0.179757 0.712200
O O8 0.943502 0.141637 0.278771
O O9 0.815658 0.962068 0.489663
O O10 0.714117 0.959746 0.400796
O O11 0.793513 0.414828 0.926815
O O12 0.775242 0.673547 0.839954
O O13 0.500000 0.594703 0.500000
O O14 0.606280 0.721311 0.109796
#
# Coordination Sequence:
#
# PCOD9123941 Si02
#       7
#     2   4   4   4   4   4   4
#     4  12  28  44  70 102 142 182 230 296 354 404
#     4  12  24  45  69 104 138 182 233 282 345 427
#     4  10  23  40  66  96 136 180 227 290 344 406
#     4  11  24  42  67  99 139 179 231 286 348 414
#     4  11  25  43  69  98 135 183 233 285 355 411
#     4  10  20  40  70  96 133 184 228 282 341 407
#     4  10  23  43  70  98 139 181 241 282 346 423
#
# _framework density 23.561477
#
# number of rings (size 3 to 8) (size 9 to 14) (size 15 to 20)
#    0.000    1.231    3.846    1.846    7.538    1.231 
#    0.000    0.000    0.000    0.923    0.000    0.000 
#    0.000    0.000    0.000    0.000    0.000    0.000 
#
# Total GULP energy -72749.451735 kJ/mol
# GULP energy per Si atom -5596.111672 kJ/mol
# Density = 2.350785 g / cm^3
# Si number density = 23.561477 Si / 1000 Ang^3
#
#
#
# Elastic Constant Matrix: (Units=GPa)
#
#
# Indices 1 2 3 4 5 6 
#
# 1 131.7454 28.8094 28.5841 0.0000 -25.7125 0.0000
# 2 28.8094 80.1162 2.1404 0.0000 -6.6973 0.0000
# 3 28.5841 2.1404 67.4922 0.0000 0.9849 0.0000
# 4 0.0000 0.0000 0.0000 20.3358 0.0000 -5.9478
# 5 -25.7125 -6.6973 0.9849 0.0000 35.5670 0.0000
# 6 0.0000 0.0000 0.0000 -5.9478 0.0000 31.3804
#
#
#
# Elastic Compliance Matrix: (Units=1/GPa)
#
#
# Indices 1 2 3 4 5 6 
#
# 1 0.010667 -0.003109 -0.004525 0.000000 0.007252 0.000000
# 2 -0.003109 0.013600 0.000881 0.000000 0.000289 0.000000
# 3 -0.004525 0.000881 0.016757 0.000000 -0.003569 0.000000
# 4 0.000000 0.000000 0.000000 0.052060 0.000000 0.009868
# 5 0.007252 0.000289 -0.003569 0.000000 0.033512 0.000000
# 6 0.000000 0.000000 0.000000 0.009868 0.000000 0.033737
#
#
# Mechanical properties :
#
#
# Convention : Reuss Voigt Hill
#
# Bulk Modulus (GPa) = 36.33807 44.26908 40.30358
# Shear Modulus (GPa) = 27.32051 32.11129 29.71590
#
# Velocity S-wave (km/s) = 3.40890 3.69572 3.55520
# Velocity P-wave (km/s) = 5.56330 6.08610 5.83056
#
# Compressibility (1/GPa) = 0.02751935
#
# Stress axis : x y z
#
# Youngs Moduli (GPa) = 93.74473 73.52720 59.67622
#
# Poissons Ratio (x) = 0.22858 0.27003
# Poissons Ratio (y) = 0.29143 -0.05258
# Poissons Ratio (z) = 0.42419 -0.06478
#
# Static dielectric constant tensor:
#      x y z
#    x 1.944550 0.000000 0.051080 
#    y 0.000000 1.865870 0.000000 
#    z 0.051080 0.000000 1.895940 
# 
# From -- ./inp_files/29082.got.cif
#   From: 2010.05.17/outbox.cif.g08.bks.cpg/sg5_15_cif.got.tgz:29082.got - 2010.06.03 18:56:24.
