data_PCOD9123712
_publ_section_title
;
Structure prediction by ZEFSAII (Michael W. Deem and Ramdas Pophale) SiO2 
 PCOD9123712
Probable space group: C 2
;
_chemical_formula_sum "Si O2"
_cell_formula_units_Z 32
_cell_length_a 9.403974
_cell_length_b 21.962815
_cell_length_c 11.697472
_cell_angle_alpha 90.000000
_cell_angle_beta 41.127126
_cell_angle_gamma 90.000000
_cell_volume 1589.060264
_symmetry_space_group_name_H-M "C 2"
_symmetry_group_IT_number 5
_symmetry_cell_setting 'monoclinic'
loop_
_space_group_symop_operation_xyz
x,y,z
-x,y,-z
1/2+x,1/2+y,z
1/2-x,1/2+y,-z
loop_
_atom_site_type_symbol
_atom_site_label
_atom_site_fract_x
_atom_site_fract_y
_atom_site_fract_z
Si Si1 0.822000 0.681410 0.857397
Si Si2 0.239977 0.321756 0.465492
Si Si3 0.745786 0.494990 0.681472
Si Si4 0.123673 0.401260 0.219328
Si Si5 0.330569 0.437802 0.514919
Si Si6 0.084782 0.128218 0.788625
Si Si7 0.184765 0.180709 0.484741
Si Si8 0.413426 0.302366 0.930134
O O1 0.729087 0.671071 0.785534
O O2 0.805869 0.749638 0.918790
O O3 0.075343 0.665115 0.706089
O O4 0.663264 0.641209 0.030517
O O5 0.988147 0.356107 0.385053
O O6 0.374383 0.365578 0.468538
O O7 0.201270 0.251344 0.514876
O O8 0.376983 0.322469 0.267175
O O9 0.735549 0.446258 0.789436
O O10 0.653329 0.468446 0.619143
O O11 0.644497 0.558759 0.776610
O O12 0.000000 0.504392 0.500000
O O13 0.920012 0.439375 0.291981
O O14 0.257970 0.358873 0.053238
O O15 0.500000 0.464304 0.500000
O O16 0.132006 0.141997 0.628370
O O17 0.000000 0.176348 0.500000
O O18 0.500000 0.277916 0.000000
#
# Coordination Sequence:
#
# PCOD9123712 Si02
#       8
#     4   4   4   4   4   4   4   4
#     4  10  25  42  62  97 135 172 224 274 331 402
#     4   9  22  36  61  95 127 164 211 266 335 397
#     4  10  20  39  71  89 125 178 231 268 317 400
#     4   9  21  40  63  95 129 168 216 274 323 390
#     4   9  20  37  62  93 128 162 209 271 334 385
#     4  11  24  46  62  96 135 182 224 274 333 396
#     4  11  24  39  72  97 133 178 224 274 341 394
#     4  11  22  36  66  98 129 169 222 267 336 399
#
# _framework density 20.137688000000001
#
# number of rings (size 3 to 8) (size 9 to 14) (size 15 to 20)
#    0.750    1.250    0.000    2.625   10.500    2.500 
#   11.250    0.000    0.000    0.000    0.000    0.000 
#    0.000    0.000    0.000    0.000    0.000    0.000 
#
# Total GULP energy -89202.449461 kJ/mol
# GULP energy per Si atom -5575.153091 kJ/mol
# Density = 2.009185 g / cm^3
# Si number density = 20.137688 Si / 1000 Ang^3
#
#
#
# Elastic Constant Matrix: (Units=GPa)
#
#
# Indices 1 2 3 4 5 6 
#
# 1 123.4840 46.3667 30.2140 0.0000 -0.1133 0.0000
# 2 46.3667 102.7379 41.4178 0.0000 0.1880 0.0000
# 3 30.2140 41.4178 94.2503 0.0000 -9.4295 0.0000
# 4 0.0000 0.0000 0.0000 8.0154 0.0000 -2.9843
# 5 -0.1133 0.1880 -9.4295 0.0000 24.5736 0.0000
# 6 0.0000 0.0000 0.0000 -2.9843 0.0000 22.8337
#
#
#
# Elastic Compliance Matrix: (Units=1/GPa)
#
#
# Indices 1 2 3 4 5 6 
#
# 1 0.009922 -0.003857 -0.001537 0.000000 -0.000515 0.000000
# 2 -0.003857 0.013441 -0.004869 0.000000 -0.001989 0.000000
# 3 -0.001537 -0.004869 0.013774 0.000000 0.005316 0.000000
# 4 0.000000 0.000000 0.000000 0.131141 0.000000 0.017140
# 5 -0.000515 -0.001989 0.005316 0.000000 0.042747 0.000000
# 6 0.000000 0.000000 0.000000 0.017140 0.000000 0.046035
#
#
# Mechanical properties :
#
#
# Convention : Reuss Voigt Hill
#
# Bulk Modulus (GPa) = 60.20321 61.82993 61.01657
# Shear Modulus (GPa) = 17.66009 24.58280 21.12144
#
# Velocity S-wave (km/s) = 2.96458 3.49769 3.24211
# Velocity P-wave (km/s) = 6.45593 6.86164 6.66187
#
# Compressibility (1/GPa) = 0.01661041
#
# Stress axis : x y z
#
# Youngs Moduli (GPa) = 100.78353 74.39976 72.59909
#
# Poissons Ratio (x) = 0.28699 0.11160
# Poissons Ratio (y) = 0.38876 0.35348
# Poissons Ratio (z) = 0.15492 0.36225
#
# Static dielectric constant tensor:
#      x y z
#    x 1.724820 0.000000 -0.005080 
#    y 0.000000 1.734050 0.000000 
#    z -0.005080 0.000000 1.709930 
# 
# From -- ./inp_files/37348.got.cif
#   From: 2010.05.17/outbox.cif.g08.bks.cpg/sg5_19_cif.got.tgz:37348.got - 2010.06.03 18:56:24.
