data_PCOD9123811
_publ_section_title
;
Structure prediction by ZEFSAII (Michael W. Deem and Ramdas Pophale) SiO2 
 PCOD9123811
Probable space group: C 2
;
_chemical_formula_sum "Si O2"
_cell_formula_units_Z 28
_cell_length_a 19.372406
_cell_length_b 13.633844
_cell_length_c 5.511511
_cell_angle_alpha 90.000000
_cell_angle_beta 64.280752
_cell_angle_gamma 90.000000
_cell_volume 1311.487725
_symmetry_space_group_name_H-M "C 2"
_symmetry_group_IT_number 5
_symmetry_cell_setting 'monoclinic'
loop_
_space_group_symop_operation_xyz
x,y,z
-x,y,-z
1/2+x,1/2+y,z
1/2-x,1/2+y,-z
loop_
_atom_site_type_symbol
_atom_site_label
_atom_site_fract_x
_atom_site_fract_y
_atom_site_fract_z
Si Si1 0.500000 0.012170 0.500000
Si Si2 0.914757 0.843881 0.626930
Si Si3 0.227180 0.077328 0.758818
Si Si4 0.416098 0.468049 0.130502
Si Si5 0.165415 0.460227 0.109545
Si Si6 0.500000 0.138317 0.000000
Si Si7 0.750119 0.268972 0.032401
Si Si8 0.332706 0.163253 0.207100
O O1 0.491626 0.074156 0.260864
O O2 0.579831 0.953148 0.346701
O O3 0.913372 0.903192 0.377426
O O4 0.000000 0.795289 0.500000
O O5 0.908776 0.910865 0.881440
O O6 0.837488 0.780225 0.737026
O O7 0.296469 0.119474 0.499531
O O8 0.151749 0.045109 0.739514
O O9 0.264452 0.981038 0.816051
O O10 0.209674 0.166667 0.963370
O O11 0.500000 0.514939 0.000000
O O12 0.196189 0.357251 0.959471
O O13 0.164229 0.563727 0.964370
O O14 0.420567 0.196619 0.094552
O O15 0.725299 0.247934 0.791298
#
# Coordination Sequence:
#
# PCOD9123811 Si02
#       8
#     2   4   4   4   4   2   4   4
#     4  10  20  40  68  90 118 174 210 250 314 364
#     4  10  22  41  65  93 124 166 207 259 317 372
#     4  11  22  39  64  90 125 169 207 260 313 373
#     4  10  22  42  68  89 123 170 212 254 312 370
#     4  10  21  42  63  86 128 165 208 259 309 377
#     4  10  20  40  64  92 126 160 210 258 314 374
#     4  11  24  38  61  97 125 164 211 257 315 377
#     4  10  23  38  62  94 123 167 207 257 320 368
#
# _framework density 21.349798
#
# number of rings (size 3 to 8) (size 9 to 14) (size 15 to 20)
#    0.000    1.714    2.857    0.857    4.000    2.286 
#    3.857    1.429    1.571    0.000    0.000    0.000 
#    0.000    0.000    0.000    0.000    0.000    0.000 
#
# Total GULP energy -77957.069763 kJ/mol
# GULP energy per Si atom -5568.362126 kJ/mol
# Density = 2.130120 g / cm^3
# Si number density = 21.349798 Si / 1000 Ang^3
#
#
#
# Elastic Constant Matrix: (Units=GPa)
#
#
# Indices 1 2 3 4 5 6 
#
# 1 118.5072 44.0173 11.0082 0.0000 -10.9276 0.0000
# 2 44.0173 69.0717 7.6284 0.0000 -7.8866 0.0000
# 3 11.0082 7.6284 61.0060 0.0000 8.0522 0.0000
# 4 0.0000 0.0000 0.0000 -8.2305 0.0000 -2.2760
# 5 -10.9276 -7.8866 8.0522 0.0000 28.8260 0.0000
# 6 0.0000 0.0000 0.0000 -2.2760 0.0000 26.0209
#
#
#
# Elastic Compliance Matrix: (Units=1/GPa)
#
#
# Indices 1 2 3 4 5 6 
#
# 1 0.011353 -0.006727 -0.001591 0.000000 0.002908 0.000000
# 2 -0.006727 0.019307 -0.001621 0.000000 0.003185 0.000000
# 3 -0.001591 -0.001621 0.017671 0.000000 -0.005983 0.000000
# 4 0.000000 0.000000 0.000000 -0.118630 0.000000 -0.010376
# 5 0.002908 0.003185 -0.005983 0.000000 0.038336 0.000000
# 6 0.000000 0.000000 0.000000 -0.010376 0.000000 0.037523
#
#
# Mechanical properties :
#
#
# Convention : Reuss Voigt Hill
#
# Bulk Modulus (GPa) = 35.14513 41.54362 38.34437
# Shear Modulus (GPa) = 143.17251 21.71869 82.44560
#
# Velocity S-wave (km/s) = 8.19792 3.19294 6.22096
# Velocity P-wave (km/s) = 10.30074 5.75273 8.34264
#
# Compressibility (1/GPa) = 0.02845344
#
# Stress axis : x y z
#
# Youngs Moduli (GPa) = 88.08329 51.79372 56.58891
#
# Poissons Ratio (x) = 0.34842 0.09004
# Poissons Ratio (y) = 0.59255 0.09172
# Poissons Ratio (z) = 0.14016 0.08395
#
# Static dielectric constant tensor:
#      x y z
#    x 1.808520 0.000000 0.072170 
#    y 0.000000 1.798430 0.000000 
#    z 0.072170 0.000000 1.885150 
# 
# From -- ./inp_files/9535.got.cif
#   From: 2010.05.17/outbox.cif.g08.bks.cpg/sg5_5_cif.got.tgz:9535.got - 2010.06.03 18:56:24.
