data_PCOD9123508
_publ_section_title
;
Structure prediction by ZEFSAII (Michael W. Deem and Ramdas Pophale) SiO2 
 PCOD9123508
Probable space group: C 2
;
_chemical_formula_sum "Si O2"
_cell_formula_units_Z 20
_cell_length_a 8.268424
_cell_length_b 25.559484
_cell_length_c 9.235908
_cell_angle_alpha 90.000000
_cell_angle_beta 148.163835
_cell_angle_gamma 90.000000
_cell_volume 1029.604455
_symmetry_space_group_name_H-M "C 2"
_symmetry_group_IT_number 5
_symmetry_cell_setting 'monoclinic'
loop_
_space_group_symop_operation_xyz
x,y,z
-x,y,-z
1/2+x,1/2+y,z
1/2-x,1/2+y,-z
loop_
_atom_site_type_symbol
_atom_site_label
_atom_site_fract_x
_atom_site_fract_y
_atom_site_fract_z
Si Si1 0.857770 0.979850 0.735966
Si Si2 0.000000 0.295868 0.000000
Si Si3 0.500000 0.225674 0.500000
Si Si4 0.550358 0.583281 0.367487
Si Si5 0.829928 0.895769 0.217873
Si Si6 0.191735 0.635143 0.855733
O O1 0.500000 0.980693 0.500000
O O2 0.969871 0.926934 0.743715
O O3 0.981380 0.026808 0.729496
O O4 0.000000 0.985816 0.000000
O O5 0.803207 0.261502 0.738306
O O6 0.766855 0.336666 0.899218
O O7 0.558420 0.189188 0.685984
O O8 0.500000 0.582070 0.500000
O O9 0.905351 0.597802 0.611896
O O10 0.321068 0.624909 0.115662
O O11 0.000000 0.892495 0.500000
O O12 0.500000 0.922644 0.000000
O O13 0.500000 0.623467 0.000000
#
# Coordination Sequence:
#
# PCOD9123508 Si02
#       6
#     4   2   2   4   4   4
#     4  12  25  39  64  93 134 172 213 256 318 380
#     4  10  20  38  68 100 120 160 220 276 312 372
#     4  12  20  38  70 102 118 164 222 276 310 370
#     4  12  25  41  61  94 137 176 210 257 316 384
#     4  10  21  40  64  94 127 160 217 259 318 375
#     4  12  22  40  65  96 127 164 221 261 315 373
#
# _framework density 19.424935999999999
#
# number of rings (size 3 to 8) (size 9 to 14) (size 15 to 20)
#    0.600    0.000    4.000    5.400    0.000    1.600 
#    0.000    0.000    0.000    6.000    5.200    0.000 
#    0.000    0.000    0.000    0.000    0.000    0.000 
#
# Total GULP energy -55732.720411 kJ/mol
# GULP energy per Si atom -5573.272041 kJ/mol
# Density = 1.938072 g / cm^3
# Si number density = 19.424936 Si / 1000 Ang^3
#
#
#
# Elastic Constant Matrix: (Units=GPa)
#
#
# Indices 1 2 3 4 5 6 
#
# 1 76.2848 54.9654 52.7902 0.0000 -18.9524 0.0000
# 2 54.9654 114.4913 64.9244 0.0000 -14.0315 0.0000
# 3 52.7902 64.9244 184.6529 0.0000 -7.3095 0.0000
# 4 0.0000 0.0000 0.0000 1.7335 0.0000 11.7483
# 5 -18.9524 -14.0315 -7.3095 0.0000 36.1776 0.0000
# 6 0.0000 0.0000 0.0000 11.7483 0.0000 16.7778
#
#
#
# Elastic Compliance Matrix: (Units=1/GPa)
#
#
# Indices 1 2 3 4 5 6 
#
# 1 0.023621 -0.008326 -0.003491 0.000000 0.008440 0.000000
# 2 -0.008326 0.014298 -0.002621 0.000000 0.000654 0.000000
# 3 -0.003491 -0.002621 0.007281 0.000000 -0.001375 0.000000
# 4 0.000000 0.000000 0.000000 -0.154012 0.000000 0.107844
# 5 0.008440 0.000654 -0.001375 0.000000 0.032039 0.000000
# 6 0.000000 0.000000 0.000000 0.107844 0.000000 -0.015913
#
#
# Mechanical properties :
#
#
# Convention : Reuss Voigt Hill
#
# Bulk Modulus (GPa) = 61.26337 80.08765 70.67551
# Shear Modulus (GPa) = -85.66075 24.45438 -30.60319
#
# Velocity S-wave (km/s) = -6.64786 3.55197 -3.97351
# Velocity P-wave (km/s) = 5.22671 7.62501 3.92571
#
# Compressibility (1/GPa) = 0.01632297
#
# Stress axis : x y z
#
# Youngs Moduli (GPa) = 42.33606 69.94092 137.34604
#
# Poissons Ratio (x) = 0.58230 0.47954
# Poissons Ratio (y) = 0.35247 0.35999
# Poissons Ratio (z) = 0.14781 0.18332
#
# Static dielectric constant tensor:
#      x y z
#    x 1.681250 0.000000 -0.027310 
#    y 0.000000 1.737510 0.000000 
#    z -0.027310 0.000000 1.727780 
# 
# From -- ./inp_files/17386.got.cif
#   From: 2010.05.17/outbox.cif.g08.bks.cpg/sg5_9_cif.got.tgz:17386.got - 2010.06.03 18:56:24.
