data_PCOD9123511
_publ_section_title
;
Structure prediction by ZEFSAII (Michael W. Deem and Ramdas Pophale) SiO2 
 PCOD9123511
Probable space group: C 2
;
_chemical_formula_sum "Si O2"
_cell_formula_units_Z 28
_cell_length_a 28.822936
_cell_length_b 5.122581
_cell_length_c 8.528891
_cell_angle_alpha 90.000000
_cell_angle_beta 117.052087
_cell_angle_gamma 90.000000
_cell_volume 1121.499558
_symmetry_space_group_name_H-M "C 2"
_symmetry_group_IT_number 5
_symmetry_cell_setting 'monoclinic'
loop_
_space_group_symop_operation_xyz
x,y,z
-x,y,-z
1/2+x,1/2+y,z
1/2-x,1/2+y,-z
loop_
_atom_site_type_symbol
_atom_site_label
_atom_site_fract_x
_atom_site_fract_y
_atom_site_fract_z
Si Si1 0.829607 0.510990 0.796517
Si Si2 0.904847 0.109349 0.891667
Si Si3 0.500000 0.320521 0.500000
Si Si4 0.254841 0.769063 0.109787
Si Si5 0.655006 0.020765 0.542959
Si Si6 0.411121 0.498387 0.572993
Si Si7 0.432023 0.213728 0.142303
Si Si8 0.500000 0.980320 0.000000
O O1 0.845437 0.204746 0.809400
O O2 0.782661 0.629163 0.821306
O O3 0.824304 0.572372 0.603176
O O4 0.880587 0.594489 0.981918
O O5 0.949179 0.306162 0.901254
O O6 0.910690 0.908896 0.756343
O O7 0.921349 0.016962 0.089077
O O8 0.466621 0.486436 0.573531
O O9 0.453969 0.158489 0.345764
O O10 0.301942 0.906326 0.274443
O O11 0.269419 0.519834 0.020984
O O12 0.612873 0.787113 0.468085
O O13 0.629421 0.289908 0.562049
O O14 0.482689 0.148580 0.118338
#
# Coordination Sequence:
#
# PCOD9123511 Si02
#       8
#     4   4   2   4   4   4   4   2
#     4  10  26  48  78 108 144 207 268 324 382 476
#     4  10  21  44  74 100 147 198 272 319 365 458
#     4  12  28  38  70 108 166 204 250 312 402 464
#     4  12  30  50  81 119 161 201 250 341 419 470
#     4  11  26  51  81 107 153 204 275 315 383 475
#     4  11  25  47  71 113 149 207 256 323 375 460
#     4  11  23  43  67 105 150 199 258 315 380 466
#     4  10  20  38  68 102 140 200 260 316 364 450
#
# _framework density 24.966570999999998
#
# number of rings (size 3 to 8) (size 9 to 14) (size 15 to 20)
#    0.000    1.143    1.429    3.000   10.000    2.857 
#    2.571    0.000    0.000    0.000    0.000    0.000 
#    0.000    0.000    0.000    0.000    0.000    0.000 
#
# Total GULP energy -78024.374667 kJ/mol
# GULP energy per Si atom -5573.169619 kJ/mol
# Density = 2.490975 g / cm^3
# Si number density = 24.966571 Si / 1000 Ang^3
#
#
#
# Elastic Constant Matrix: (Units=GPa)
#
#
# Indices 1 2 3 4 5 6 
#
# 1 94.2015 24.0477 18.5529 0.0000 -9.9440 0.0000
# 2 24.0477 71.4671 6.4597 0.0000 -1.6491 0.0000
# 3 18.5529 6.4597 108.9648 0.0000 1.7700 0.0000
# 4 0.0000 0.0000 0.0000 28.7709 0.0000 13.6297
# 5 -9.9440 -1.6491 1.7700 0.0000 30.4116 0.0000
# 6 0.0000 0.0000 0.0000 13.6297 0.0000 26.3376
#
#
#
# Elastic Compliance Matrix: (Units=1/GPa)
#
#
# Indices 1 2 3 4 5 6 
#
# 1 0.012415 -0.003910 -0.001946 0.000000 0.003961 0.000000
# 2 -0.003910 0.015319 -0.000235 0.000000 -0.000434 0.000000
# 3 -0.001946 -0.000235 0.009542 0.000000 -0.001205 0.000000
# 4 0.000000 0.000000 0.000000 0.046046 0.000000 -0.023829
# 5 0.003961 -0.000434 -0.001205 0.000000 0.034224 0.000000
# 6 0.000000 0.000000 0.000000 -0.023829 0.000000 0.050300
#
#
# Mechanical properties :
#
#
# Convention : Reuss Voigt Hill
#
# Bulk Modulus (GPa) = 39.85192 41.41711 40.63451
# Shear Modulus (GPa) = 26.54007 32.14223 29.34115
#
# Velocity S-wave (km/s) = 3.26394 3.59194 3.43186
# Velocity P-wave (km/s) = 5.49556 5.81617 5.65813
#
# Compressibility (1/GPa) = 0.02509290
#
# Stress axis : x y z
#
# Youngs Moduli (GPa) = 80.54651 65.27654 104.79767
#
# Poissons Ratio (x) = 0.25525 0.20398
# Poissons Ratio (y) = 0.31495 0.02466
# Poissons Ratio (z) = 0.15678 0.01536
#
# Static dielectric constant tensor:
#      x y z
#    x 1.940680 0.000000 -0.045040 
#    y 0.000000 2.181070 0.000000 
#    z -0.045040 0.000000 2.132250 
# 
# From -- ./inp_files/32210.got.cif
#   From: 2010.05.17/outbox.cif.g08.bks.cpg/sg5_17_cif.got.tgz:32210.got - 2010.06.03 18:56:24.
