data_PCOD9123523
_publ_section_title
;
Structure prediction by ZEFSAII (Michael W. Deem and Ramdas Pophale) SiO2 
 PCOD9123523
Probable space group: C 2
;
_chemical_formula_sum "Si O2"
_cell_formula_units_Z 22
_cell_length_a 17.563981
_cell_length_b 8.263108
_cell_length_c 7.077522
_cell_angle_alpha 90.000000
_cell_angle_beta 72.365372
_cell_angle_gamma 90.000000
_cell_volume 978.912892
_symmetry_space_group_name_H-M "C 2"
_symmetry_group_IT_number 5
_symmetry_cell_setting 'monoclinic'
loop_
_space_group_symop_operation_xyz
x,y,z
-x,y,-z
1/2+x,1/2+y,z
1/2-x,1/2+y,-z
loop_
_atom_site_type_symbol
_atom_site_label
_atom_site_fract_x
_atom_site_fract_y
_atom_site_fract_z
Si Si1 0.734958 0.194110 0.769967
Si Si2 0.585770 0.382804 0.873205
Si Si3 0.836115 0.480034 0.501723
Si Si4 0.409345 0.291012 0.561454
Si Si5 0.000000 0.329044 0.500000
Si Si6 0.391009 0.600611 0.838457
O O1 0.655411 0.274566 0.907448
O O2 0.781236 0.335616 0.619218
O O3 0.799283 0.144513 0.875603
O O4 0.704258 0.048189 0.659432
O O5 0.597909 0.371880 0.640826
O O6 0.407721 0.560830 0.043305
O O7 0.500000 0.317646 0.000000
O O8 0.846632 0.644287 0.618919
O O9 0.928079 0.416796 0.437258
O O10 0.500000 0.226090 0.500000
O O11 0.403591 0.433239 0.715471
O O12 0.049631 0.224666 0.308490
#
# Coordination Sequence:
#
# PCOD9123523 Si02
#       6
#     4   4   4   4   2   4
#     4  10  23  40  63  97 133 170 216 269 328 380
#     4  11  22  39  62  91 123 171 215 255 317 384
#     4  10  21  39  66 100 128 171 220 265 325 391
#     4  11  20  39  71  94 126 172 210 268 324 378
#     4  10  20  38  68  98 126 174 224 262 326 386
#     4  11  22  41  65  94 130 170 216 268 323 385
#
# _framework density 22.473908999999999
#
# number of rings (size 3 to 8) (size 9 to 14) (size 15 to 20)
#    0.000    1.455    3.636    2.182    0.000    2.909 
#    0.000    5.455    0.000   27.273    0.000    0.000 
#    0.000    0.000    0.000    0.000    0.000    0.000 
#
# Total GULP energy -61393.419487 kJ/mol
# GULP energy per Si atom -5581.219953 kJ/mol
# Density = 2.242276 g / cm^3
# Si number density = 22.473909 Si / 1000 Ang^3
#
#
#
# Elastic Constant Matrix: (Units=GPa)
#
#
# Indices 1 2 3 4 5 6 
#
# 1 180.6098 46.8858 32.3540 0.0000 -23.8577 0.0000
# 2 46.8858 67.5607 27.3201 0.0000 3.2916 0.0000
# 3 32.3540 27.3201 57.8749 0.0000 3.7589 0.0000
# 4 0.0000 0.0000 0.0000 4.5580 0.0000 12.6511
# 5 -23.8577 3.2916 3.7589 0.0000 31.1418 0.0000
# 6 0.0000 0.0000 0.0000 12.6511 0.0000 49.9780
#
#
#
# Elastic Compliance Matrix: (Units=1/GPa)
#
#
# Indices 1 2 3 4 5 6 
#
# 1 0.008271 -0.004983 -0.002739 0.000000 0.007194 0.000000
# 2 -0.004983 0.021321 -0.006939 0.000000 -0.005234 0.000000
# 3 -0.002739 -0.006939 0.022349 0.000000 -0.004062 0.000000
# 4 0.000000 0.000000 0.000000 0.737667 0.000000 -0.186728
# 5 0.007194 -0.005234 -0.004062 0.000000 0.038666 0.000000
# 6 0.000000 0.000000 0.000000 -0.186728 0.000000 0.067276
#
#
# Mechanical properties :
#
#
# Convention : Reuss Voigt Hill
#
# Bulk Modulus (GPa) = 44.20986 57.68502 50.94744
# Shear Modulus (GPa) = 5.36244 30.43460 17.89852
#
# Velocity S-wave (km/s) = 1.54637 3.68396 2.82514
# Velocity P-wave (km/s) = 4.78567 6.61957 5.77587
#
# Compressibility (1/GPa) = 0.02261939
#
# Stress axis : x y z
#
# Youngs Moduli (GPa) = 120.89971 46.90307 44.74444
#
# Poissons Ratio (x) = 0.23372 0.12255
# Poissons Ratio (y) = 0.60245 0.31047
# Poissons Ratio (z) = 0.33113 0.32545
#
# Static dielectric constant tensor:
#      x y z
#    x 1.892210 0.000000 0.079860 
#    y 0.000000 1.886020 0.000000 
#    z 0.079860 0.000000 1.914880 
# 
# From -- ./inp_files/26450.got.cif
#   From: 2010.05.17/outbox.cif.g08.bks.cpg/sg5_14_cif.got.tgz:26450.got - 2010.06.03 18:56:24.
