data_PCOD9123589
_publ_section_title
;
Structure prediction by ZEFSAII (Michael W. Deem and Ramdas Pophale) SiO2 
 PCOD9123589
Probable space group: C 2
;
_chemical_formula_sum "Si O2"
_cell_formula_units_Z 26
_cell_length_a 24.728499
_cell_length_b 5.372161
_cell_length_c 12.205563
_cell_angle_alpha 90.000000
_cell_angle_beta 132.615617
_cell_angle_gamma 90.000000
_cell_volume 1193.248262
_symmetry_space_group_name_H-M "C 2"
_symmetry_group_IT_number 5
_symmetry_cell_setting 'monoclinic'
loop_
_space_group_symop_operation_xyz
x,y,z
-x,y,-z
1/2+x,1/2+y,z
1/2-x,1/2+y,-z
loop_
_atom_site_type_symbol
_atom_site_label
_atom_site_fract_x
_atom_site_fract_y
_atom_site_fract_z
Si Si1 0.158112 0.345070 0.416238
Si Si2 0.253858 0.107907 0.943123
Si Si3 0.391651 0.321600 0.024011
Si Si4 0.679432 0.348325 0.304978
Si Si5 0.014248 0.553458 0.315661
Si Si6 0.000000 0.818029 0.500000
Si Si7 0.603961 0.680192 0.771213
O O1 0.231865 0.358664 0.592500
O O2 0.164716 0.583702 0.343831
O O3 0.078062 0.376928 0.359897
O O4 0.162298 0.081661 0.360137
O O5 0.176079 0.217304 0.797314
O O6 0.263871 0.320131 0.052381
O O7 0.326333 0.132537 0.971114
O O8 0.380463 0.560317 0.087705
O O9 0.472879 0.215566 0.164933
O O10 0.371729 0.374087 0.871730
O O11 0.045888 0.689290 0.465801
O O12 0.945019 0.418090 0.276838
O O13 0.944591 0.981892 0.355994
#
# Coordination Sequence:
#
# PCOD9123589 Si02
#       7
#     4   4   4   4   4   2   4
#     4  10  25  47  71  94 139 173 232 282 342 401
#     4  10  20  39  62  92 135 170 207 268 324 395
#     4  10  23  40  67 100 133 175 229 275 340 399
#     4  10  24  48  68 100 128 182 229 284 338 408
#     4  11  23  44  65 102 135 179 221 287 332 413
#     4  10  24  40  64  98 136 174 226 262 346 408
#     4  10  22  41  62  97 138 174 220 271 337 412
#
# _framework density 21.789262999999998
#
# number of rings (size 3 to 8) (size 9 to 14) (size 15 to 20)
#    0.000    1.846    1.538    0.462    6.462    3.077 
#   11.077    0.000    0.000    0.000    0.000    0.000 
#    0.000    0.000    0.000    0.000    0.000    0.000 
#
# Total GULP energy -72395.428403 kJ/mol
# GULP energy per Si atom -5568.879108 kJ/mol
# Density = 2.173967 g / cm^3
# Si number density = 21.789263 Si / 1000 Ang^3
#
#
#
# Elastic Constant Matrix: (Units=GPa)
#
#
# Indices 1 2 3 4 5 6 
#
# 1 46.5336 -6.9238 7.9328 0.0000 19.1641 0.0000
# 2 -6.9238 65.1117 8.6801 0.0000 -6.9943 0.0000
# 3 7.9328 8.6801 77.7957 0.0000 -19.0391 0.0000
# 4 0.0000 0.0000 0.0000 23.1011 0.0000 6.2092
# 5 19.1641 -6.9943 -19.0391 0.0000 27.1416 0.0000
# 6 0.0000 0.0000 0.0000 6.2092 0.0000 22.1810
#
#
#
# Elastic Compliance Matrix: (Units=1/GPa)
#
#
# Indices 1 2 3 4 5 6 
#
# 1 0.038842 0.001993 -0.013001 0.000000 -0.036032 0.000000
# 2 0.001993 0.015953 -0.001595 0.000000 0.001585 0.000000
# 3 -0.013001 -0.001595 0.019924 0.000000 0.022745 0.000000
# 4 0.000000 0.000000 0.000000 0.046810 0.000000 -0.013104
# 5 -0.036032 0.001585 0.022745 0.000000 0.078649 0.000000
# 6 0.000000 0.000000 0.000000 -0.013104 0.000000 0.048752
#
#
# Mechanical properties :
#
#
# Convention : Reuss Voigt Hill
#
# Bulk Modulus (GPa) = 20.19702 23.20211 21.69957
# Shear Modulus (GPa) = 17.20327 26.46817 21.83572
#
# Velocity S-wave (km/s) = 2.81291 3.48909 3.16908
# Velocity P-wave (km/s) = 4.45413 5.18683 4.83438
#
# Compressibility (1/GPa) = 0.04951225
#
# Stress axis : x y z
#
# Youngs Moduli (GPa) = 25.74527 62.68385 50.18956
#
# Poissons Ratio (x) = -0.12493 0.65253
# Poissons Ratio (y) = -0.05131 0.08007
# Poissons Ratio (z) = 0.33472 0.10000
#
# Static dielectric constant tensor:
#      x y z
#    x 1.865390 0.000000 0.032950 
#    y 0.000000 1.871940 0.000000 
#    z 0.032950 0.000000 1.815960 
# 
# From -- ./inp_files/45401.got.cif
#   From: 2010.05.17/outbox.cif.g08.bks.cpg/sg5_23_cif.got.tgz:45401.got - 2010.06.03 18:56:24.
