data_PCOD9123174
_publ_section_title
;
Structure prediction by ZEFSAII (Michael W. Deem and Ramdas Pophale) SiO2 
 PCOD9123174
Probable space group: C 2
;
_chemical_formula_sum "Si O2"
_cell_formula_units_Z 28
_cell_length_a 15.306129
_cell_length_b 13.900749
_cell_length_c 9.095034
_cell_angle_alpha 90.000000
_cell_angle_beta 131.984957
_cell_angle_gamma 90.000000
_cell_volume 1438.414315
_symmetry_space_group_name_H-M "C 2"
_symmetry_group_IT_number 5
_symmetry_cell_setting 'monoclinic'
loop_
_space_group_symop_operation_xyz
x,y,z
-x,y,-z
1/2+x,1/2+y,z
1/2-x,1/2+y,-z
loop_
_atom_site_type_symbol
_atom_site_label
_atom_site_fract_x
_atom_site_fract_y
_atom_site_fract_z
Si Si1 0.355963 0.151690 0.002722
Si Si2 0.623005 0.442113 0.573582
Si Si3 0.692117 0.070910 0.368693
Si Si4 0.901003 0.759843 0.657675
Si Si5 0.245768 0.825996 0.244861
Si Si6 0.209021 0.452789 0.961399
Si Si7 0.040571 0.422825 0.385995
O O1 0.365247 0.099565 0.853599
O O2 0.257641 0.232196 0.861842
O O3 0.472828 0.208199 0.182734
O O4 0.319871 0.066242 0.069745
O O5 0.500000 0.478342 0.500000
O O6 0.687137 0.517130 0.535993
O O7 0.602552 0.339875 0.471448
O O8 0.710297 0.430041 0.809432
O O9 0.691689 0.171313 0.456740
O O10 0.610560 0.997959 0.365924
O O11 0.860430 0.813324 0.761243
O O12 0.233302 0.916817 0.124194
O O13 0.367179 0.839387 0.469793
O O14 0.082714 0.399563 0.829090
O O15 0.000000 0.463158 0.500000
#
# Coordination Sequence:
#
# PCOD9123174 Si02
#       7
#     4   4   4   4   4   4   4
#     4  10  21  37  69  91 126 174 222 255 317 394
#     4  11  24  40  62  99 132 165 209 273 325 376
#     4  10  20  39  63  95 123 168 214 263 315 381
#     4  11  21  39  65  97 125 171 219 264 312 389
#     4  10  20  38  58  98 126 163 203 277 319 368
#     4  10  22  41  63  97 126 168 220 266 316 385
#     4  10  20  37  64  96 126 161 214 274 314 371
#
# _framework density 19.465879000000001
#
# number of rings (size 3 to 8) (size 9 to 14) (size 15 to 20)
#    0.000    1.714    2.857    2.571    2.000    0.571 
#    5.143   19.286    0.000    0.000   22.286    0.000 
#    0.000    0.000    0.000    0.000    0.000    0.000 
#
# Total GULP energy -78047.508406 kJ/mol
# GULP energy per Si atom -5574.822029 kJ/mol
# Density = 1.942157 g / cm^3
# Si number density = 19.465879 Si / 1000 Ang^3
#
#
#
# Elastic Constant Matrix: (Units=GPa)
#
#
# Indices 1 2 3 4 5 6 
#
# 1 110.8420 58.8916 28.4182 0.0000 8.2747 0.0000
# 2 58.8916 107.1712 57.5884 0.0000 18.0293 0.0000
# 3 28.4182 57.5884 87.6114 0.0000 20.4211 0.0000
# 4 0.0000 0.0000 0.0000 42.5393 0.0000 -1.3756
# 5 8.2747 18.0293 20.4211 0.0000 13.3845 0.0000
# 6 0.0000 0.0000 0.0000 -1.3756 0.0000 38.6912
#
#
#
# Elastic Compliance Matrix: (Units=1/GPa)
#
#
# Indices 1 2 3 4 5 6 
#
# 1 0.012792 -0.007525 0.000431 0.000000 0.001571 0.000000
# 2 -0.007525 0.019384 -0.008223 0.000000 -0.008912 0.000000
# 3 0.000431 -0.008223 0.021974 0.000000 -0.022717 0.000000
# 4 0.000000 0.000000 0.000000 0.023535 0.000000 0.000837
# 5 0.001571 -0.008912 -0.022717 0.000000 0.120407 0.000000
# 6 0.000000 0.000000 0.000000 0.000837 0.000000 0.025875
#
#
# Mechanical properties :
#
#
# Convention : Reuss Voigt Hill
#
# Bulk Modulus (GPa) = 42.52440 66.15790 54.34115
# Shear Modulus (GPa) = 19.05182 29.63808 24.34495
#
# Velocity S-wave (km/s) = 3.13186 3.90624 3.54029
# Velocity P-wave (km/s) = 5.91364 7.37600 6.68492
#
# Compressibility (1/GPa) = 0.02351591
#
# Stress axis : x y z
#
# Youngs Moduli (GPa) = 78.17126 51.58840 45.50742
#
# Poissons Ratio (x) = 0.38822 -0.01962
# Poissons Ratio (y) = 0.58827 0.37422
# Poissons Ratio (z) = -0.03370 0.42422
#
# Static dielectric constant tensor:
#      x y z
#    x 1.711890 0.000000 -0.005300 
#    y 0.000000 1.712200 0.000000 
#    z -0.005300 0.000000 1.725430 
# 
# From -- ./inp_files/24683.got.cif
#   From: 2010.05.17/outbox.cif.g08.bks.cpg/sg5_13_cif.got.tgz:24683.got - 2010.06.03 18:56:24.
