data_PCOD9123984
_publ_section_title
;
Structure prediction by ZEFSAII (Michael W. Deem and Ramdas Pophale) SiO2 
 PCOD9123984
Probable space group: C 2
;
_chemical_formula_sum "Si O2"
_cell_formula_units_Z 24
_cell_length_a 21.471461
_cell_length_b 7.654783
_cell_length_c 11.062934
_cell_angle_alpha 90.000000
_cell_angle_beta 31.329052
_cell_angle_gamma 90.000000
_cell_volume 945.427664
_symmetry_space_group_name_H-M "C 2"
_symmetry_group_IT_number 5
_symmetry_cell_setting 'monoclinic'
loop_
_space_group_symop_operation_xyz
x,y,z
-x,y,-z
1/2+x,1/2+y,z
1/2-x,1/2+y,-z
loop_
_atom_site_type_symbol
_atom_site_label
_atom_site_fract_x
_atom_site_fract_y
_atom_site_fract_z
Si Si1 0.857275 0.584420 0.925275
Si Si2 0.130082 0.321934 0.317108
Si Si3 0.626716 0.760340 0.670022
Si Si4 0.874348 0.260388 0.048908
Si Si5 0.120486 0.672334 0.737018
Si Si6 0.615085 0.165155 0.478129
O O1 0.841587 0.448707 0.842597
O O2 0.973259 0.697618 0.689451
O O3 0.738275 0.690567 0.146698
O O4 0.884654 0.466861 0.998761
O O5 0.117502 0.455122 0.450723
O O6 0.000000 0.243063 0.500000
O O7 0.630256 0.693598 0.804268
O O8 0.755860 0.717696 0.403033
O O9 0.618001 0.965922 0.714389
O O10 0.509045 0.694827 0.794223
O O11 0.744834 0.214841 0.206608
O O12 0.125544 0.748727 0.593634
O O13 0.000000 0.731328 0.000000
#
# Coordination Sequence:
#
# PCOD9123984 Si02
#       6
#     4   4   4   4   4   4
#     4  11  21  42  65  90 126 159 205 256 313 371
#     4  10  24  41  63  92 121 159 207 258 313 370
#     4  10  21  40  60  89 128 165 204 252 302 359
#     4  10  20  41  61  88 129 163 200 256 305 360
#     4  11  21  41  60  89 127 167 207 251 301 362
#     4  10  22  40  61  89 125 162 205 257 304 362
#
# _framework density 25.385338000000001
#
# number of rings (size 3 to 8) (size 9 to 14) (size 15 to 20)
#    0.000    1.667    3.333    1.000    0.000    4.000 
#   12.000    0.000    0.000    0.000    0.000    0.000 
#    0.000    0.000    0.000    0.000    0.000    0.000 
#
# Total GULP energy -66859.004916 kJ/mol
# GULP energy per Si atom -5571.583743 kJ/mol
# Density = 2.532756 g / cm^3
# Si number density = 25.385338 Si / 1000 Ang^3
#
#
#
# Elastic Constant Matrix: (Units=GPa)
#
#
# Indices 1 2 3 4 5 6 
#
# 1 96.2000 26.0820 82.5642 0.0000 -29.5281 0.0000
# 2 26.0820 20.0431 40.4378 0.0000 -29.6343 0.0000
# 3 82.5642 40.4378 217.3743 0.0000 -69.4274 0.0000
# 4 0.0000 0.0000 0.0000 43.0988 0.0000 -11.9901
# 5 -29.5281 -29.6343 -69.4274 0.0000 73.2772 0.0000
# 6 0.0000 0.0000 0.0000 -11.9901 0.0000 24.7895
#
#
#
# Elastic Compliance Matrix: (Units=1/GPa)
#
#
# Indices 1 2 3 4 5 6 
#
# 1 0.019482 -0.026774 -0.004832 0.000000 -0.007555 0.000000
# 2 -0.026774 0.178622 -0.004923 0.000000 0.056784 0.000000
# 3 -0.004832 -0.004923 0.008738 0.000000 0.004341 0.000000
# 4 0.000000 0.000000 0.000000 0.026810 0.000000 0.012967
# 5 -0.007555 0.056784 0.004341 0.000000 0.037679 0.000000
# 6 0.000000 0.000000 0.000000 0.012967 0.000000 0.046612
#
#
# Mechanical properties :
#
#
# Convention : Reuss Voigt Hill
#
# Bulk Modulus (GPa) = 7.47473 70.19836 38.83654
# Shear Modulus (GPa) = 11.47851 40.53531 26.00691
#
# Velocity S-wave (km/s) = 2.12874 4.00033 3.20423
# Velocity P-wave (km/s) = 2.99882 7.00357 5.38716
#
# Compressibility (1/GPa) = 0.13378418
#
# Stress axis : x y z
#
# Youngs Moduli (GPa) = 51.32883 5.59840 114.44223
#
# Poissons Ratio (x) = 0.14989 0.55302
# Poissons Ratio (y) = 1.37426 0.56343
# Poissons Ratio (z) = 0.24804 0.02756
#
# Static dielectric constant tensor:
#      x y z
#    x 2.178490 0.000000 0.043810 
#    y 0.000000 1.978660 0.000000 
#    z 0.043810 0.000000 2.103640 
# 
# From -- ./inp_files/47228.got.cif
#   From: 2010.05.17/outbox.cif.g08.bks.cpg/sg5_24_cif.got.tgz:47228.got - 2010.06.03 18:56:24.
