data_PCOD9123784
_publ_section_title
;
Structure prediction by ZEFSAII (Michael W. Deem and Ramdas Pophale) SiO2 
 PCOD9123784
Probable space group: C 2
;
_chemical_formula_sum "Si O2"
_cell_formula_units_Z 22
_cell_length_a 6.069895
_cell_length_b 23.476252
_cell_length_c 7.635029
_cell_angle_alpha 90.000000
_cell_angle_beta 117.388874
_cell_angle_gamma 90.000000
_cell_volume 966.021969
_symmetry_space_group_name_H-M "C 2"
_symmetry_group_IT_number 5
_symmetry_cell_setting 'monoclinic'
loop_
_space_group_symop_operation_xyz
x,y,z
-x,y,-z
1/2+x,1/2+y,z
1/2-x,1/2+y,-z
loop_
_atom_site_type_symbol
_atom_site_label
_atom_site_fract_x
_atom_site_fract_y
_atom_site_fract_z
Si Si1 0.748126 0.648430 0.209760
Si Si2 0.751363 0.930147 0.701224
Si Si3 0.000000 0.863578 0.500000
Si Si4 0.527335 0.544353 0.304581
Si Si5 0.000000 0.585513 0.000000
Si Si6 0.749562 0.778040 0.205316
Si Si7 0.500000 0.344139 0.000000
O O1 0.678953 0.603247 0.334058
O O2 0.793342 0.713321 0.278449
O O3 0.956914 0.624229 0.156147
O O4 0.500000 0.649744 0.000000
O O5 0.500000 0.926494 0.500000
O O6 0.959228 0.904027 0.648949
O O7 0.775540 0.888528 0.876306
O O8 0.822875 0.995898 0.745852
O O9 0.771472 0.821254 0.375303
O O10 0.500000 0.530879 0.500000
O O11 0.251438 0.550672 0.124871
O O12 0.500000 0.780930 0.000000
O O13 0.955025 0.802123 0.145845
#
# Coordination Sequence:
#
# PCOD9123784 Si02
#       7
#     4   4   2   4   2   4   2
#     4   9  21  40  64  93 126 165 208 258 313 371
#     4  11  24  41  61  91 127 160 213 260 303 379
#     4  10  22  40  58  94 118 166 206 250 314 362
#     4  11  25  40  62  94 129 171 207 254 317 366
#     4  10  23  42  62  90 130 161 212 256 312 374
#     4  10  20  40  63  89 123 158 206 257 309 372
#     4  10  23  38  66  92 116 167 206 252 328 350
#
# _framework density 22.773810000000001
#
# number of rings (size 3 to 8) (size 9 to 14) (size 15 to 20)
#    0.000    1.818    0.909    1.636    6.364    1.455 
#    6.545    4.545    0.000    0.000    0.000    0.000 
#    0.000    0.000    0.000    0.000    0.000    0.000 
#
# Total GULP energy -61419.551899 kJ/mol
# GULP energy per Si atom -5583.595627 kJ/mol
# Density = 2.272198 g / cm^3
# Si number density = 22.773810 Si / 1000 Ang^3
#
#
#
# Elastic Constant Matrix: (Units=GPa)
#
#
# Indices 1 2 3 4 5 6 
#
# 1 42.1853 24.6666 10.2946 0.0000 9.0591 0.0000
# 2 24.6666 152.6276 30.5879 0.0000 9.4612 0.0000
# 3 10.2946 30.5879 82.5572 0.0000 17.1717 0.0000
# 4 0.0000 0.0000 0.0000 24.4252 0.0000 -0.9270
# 5 9.0591 9.4612 17.1717 0.0000 40.3038 0.0000
# 6 0.0000 0.0000 0.0000 -0.9270 0.0000 25.9997
#
#
#
# Elastic Compliance Matrix: (Units=1/GPa)
#
#
# Indices 1 2 3 4 5 6 
#
# 1 0.027259 -0.003917 -0.000949 0.000000 -0.004803 0.000000
# 2 -0.003917 0.007654 -0.002366 0.000000 0.000092 0.000000
# 3 -0.000949 -0.002366 0.014207 0.000000 -0.005284 0.000000
# 4 0.000000 0.000000 0.000000 0.040997 0.000000 0.001462
# 5 -0.004803 0.000092 -0.005284 0.000000 0.028121 0.000000
# 6 0.000000 0.000000 0.000000 0.001462 0.000000 0.038514
#
#
# Mechanical properties :
#
#
# Convention : Reuss Voigt Hill
#
# Bulk Modulus (GPa) = 28.85651 45.38539 37.12095
# Shear Modulus (GPa) = 27.35722 32.26712 29.81217
#
# Velocity S-wave (km/s) = 3.46968 3.76819 3.62201
# Velocity P-wave (km/s) = 5.36190 6.23734 5.81611
#
# Compressibility (1/GPa) = 0.03465422
#
# Stress axis : x y z
#
# Youngs Moduli (GPa) = 36.68580 130.65856 70.38815
#
# Poissons Ratio (x) = 0.51185 0.06677
# Poissons Ratio (y) = 0.14372 0.16656
# Poissons Ratio (z) = 0.03480 0.30918
#
# Static dielectric constant tensor:
#      x y z
#    x 1.862510 0.000000 -0.008450 
#    y 0.000000 1.837580 0.000000 
#    z -0.008450 0.000000 1.926980 
# 
# From -- ./inp_files/12464.got.cif
#   From: 2010.05.17/outbox.cif.g08.bks.cpg/sg5_7_cif.got.tgz:12464.got - 2010.06.03 18:56:24.
