data_PCOD9123107
_publ_section_title
;
Structure prediction by ZEFSAII (Michael W. Deem and Ramdas Pophale) SiO2 
 PCOD9123107
Probable space group: C 2
;
_chemical_formula_sum "Si O2"
_cell_formula_units_Z 30
_cell_length_a 11.158800
_cell_length_b 17.319438
_cell_length_c 9.345850
_cell_angle_alpha 90.000000
_cell_angle_beta 120.571767
_cell_angle_gamma 90.000000
_cell_volume 1555.140364
_symmetry_space_group_name_H-M "C 2"
_symmetry_group_IT_number 5
_symmetry_cell_setting 'monoclinic'
loop_
_space_group_symop_operation_xyz
x,y,z
-x,y,-z
1/2+x,1/2+y,z
1/2-x,1/2+y,-z
loop_
_atom_site_type_symbol
_atom_site_label
_atom_site_fract_x
_atom_site_fract_y
_atom_site_fract_z
Si Si1 0.769282 0.949340 0.338727
Si Si2 0.764141 0.037562 0.062297
Si Si3 0.914588 0.796759 0.309142
Si Si4 0.535063 0.909385 0.863755
Si Si5 0.852302 0.902928 0.683946
Si Si6 0.500000 0.508101 0.000000
Si Si7 0.876843 0.294073 0.325693
Si Si8 0.145585 0.703572 0.007825
O O1 0.810293 0.862634 0.308050
O O2 0.603710 0.957386 0.254156
O O3 0.832872 0.955884 0.533283
O O4 0.817521 0.009807 0.249687
O O5 0.669222 0.964882 0.954143
O O6 0.894635 0.052749 0.038914
O O7 0.668369 0.112208 0.012228
O O8 0.000000 0.764326 0.500000
O O9 0.026800 0.844078 0.285155
O O10 0.851486 0.739433 0.151690
O O11 0.556091 0.844107 0.760491
O O12 0.500000 0.877144 0.000000
O O13 0.715183 0.853940 0.636443
O O14 0.902693 0.953072 0.846155
O O15 0.768993 0.237192 0.182189
O O16 0.000000 0.260968 0.500000
O O17 0.000000 0.721058 0.000000
#
# Coordination Sequence:
#
# PCOD9123107 Si02
#       8
#     4   4   4   4   4   2   4   4
#     4  10  20  38  64  93 123 158 206 266 314 363
#     4  11  24  41  61  92 126 166 211 256 323 382
#     4  10  21  39  68  97 121 162 217 264 313 376
#     4  10  20  37  62  88 122 158 207 265 313 365
#     4  11  20  38  68  92 122 153 216 273 310 370
#     4  12  22  40  62  94 118 164 218 266 318 364
#     4  12  23  40  64  99 130 162 215 268 317 377
#     4  12  24  44  65  88 132 176 213 256 319 391
#
# _framework density 19.290862000000001
#
# number of rings (size 3 to 8) (size 9 to 14) (size 15 to 20)
#    0.000    1.067    5.333    3.600    0.000    0.000 
#    6.000    3.333    0.000    0.000    0.000    0.000 
#    0.000    0.000    0.000    0.000    0.000    0.000 
#
# Total GULP energy -83695.266116 kJ/mol
# GULP energy per Si atom -5579.684408 kJ/mol
# Density = 1.924696 g / cm^3
# Si number density = 19.290862 Si / 1000 Ang^3
#
#
#
# Elastic Constant Matrix: (Units=GPa)
#
#
# Indices 1 2 3 4 5 6 
#
# 1 91.3233 -2.3233 14.3587 0.0000 -0.7638 0.0000
# 2 -2.3233 17.8180 31.3614 0.0000 -8.6145 0.0000
# 3 14.3587 31.3614 128.6135 0.0000 2.6266 0.0000
# 4 0.0000 0.0000 0.0000 12.4270 0.0000 3.3298
# 5 -0.7638 -8.6145 2.6266 0.0000 28.1902 0.0000
# 6 0.0000 0.0000 0.0000 3.3298 0.0000 20.2111
#
#
#
# Elastic Compliance Matrix: (Units=1/GPa)
#
#
# Indices 1 2 3 4 5 6 
#
# 1 0.011857 0.010270 -0.003906 0.000000 0.003823 0.000000
# 2 0.010270 0.149216 -0.038542 0.000000 0.049468 0.000000
# 3 -0.003906 -0.038542 0.017886 0.000000 -0.013550 0.000000
# 4 0.000000 0.000000 0.000000 0.084186 0.000000 -0.013870
# 5 0.003823 0.049468 -0.013550 0.000000 0.051956 0.000000
# 6 0.000000 0.000000 0.000000 -0.013870 0.000000 0.051763
#
#
# Mechanical properties :
#
#
# Convention : Reuss Voigt Hill
#
# Bulk Modulus (GPa) = 8.72578 36.06096 22.39337
# Shear Modulus (GPa) = 10.65138 25.12285 17.88711
#
# Velocity S-wave (km/s) = 2.35233 3.61268 3.04835
# Velocity P-wave (km/s) = 3.45123 6.01131 4.90137
#
# Compressibility (1/GPa) = 0.11460299
#
# Stress axis : x y z
#
# Youngs Moduli (GPa) = 84.33485 6.70170 55.90900
#
# Poissons Ratio (x) = -0.06882 0.21838
# Poissons Ratio (y) = -0.86609 2.15484
# Poissons Ratio (z) = 0.32942 0.25830
#
# Static dielectric constant tensor:
#      x y z
#    x 1.686040 0.000000 0.011020 
#    y 0.000000 1.644520 0.000000 
#    z 0.011020 0.000000 1.726810 
# 
# From -- ./inp_files/21480.got.cif
#   From: 2010.05.17/outbox.cif.g08.bks.cpg/sg5_11_cif.got.tgz:21480.got - 2010.06.03 18:56:24.
