data_PCOD9123094
_publ_section_title
;
Structure prediction by ZEFSAII (Michael W. Deem and Ramdas Pophale) SiO2 
 PCOD9123094
Probable space group: C 2
;
_chemical_formula_sum "Si O2"
_cell_formula_units_Z 28
_cell_length_a 8.620227
_cell_length_b 16.631283
_cell_length_c 11.523050
_cell_angle_alpha 90.000000
_cell_angle_beta 61.607420
_cell_angle_gamma 90.000000
_cell_volume 1453.287407
_symmetry_space_group_name_H-M "C 2"
_symmetry_group_IT_number 5
_symmetry_cell_setting 'monoclinic'
loop_
_space_group_symop_operation_xyz
x,y,z
-x,y,-z
1/2+x,1/2+y,z
1/2-x,1/2+y,-z
loop_
_atom_site_type_symbol
_atom_site_label
_atom_site_fract_x
_atom_site_fract_y
_atom_site_fract_z
Si Si1 0.738495 0.127210 0.577369
Si Si2 0.000000 0.667861 0.000000
Si Si3 0.000000 0.822258 0.500000
Si Si4 0.854536 0.595920 0.819370
Si Si5 0.683984 0.751474 0.247028
Si Si6 0.351300 0.936438 0.709308
Si Si7 0.702472 0.707273 0.692184
Si Si8 0.748422 0.456586 0.491937
O O1 0.533308 0.114045 0.681918
O O2 0.814351 0.193534 0.639333
O O3 0.764203 0.157093 0.437746
O O4 0.810299 0.036148 0.555722
O O5 0.154438 0.719595 0.886826
O O6 0.905851 0.617120 0.931979
O O7 0.863756 0.771024 0.626134
O O8 0.881558 0.881961 0.466708
O O9 0.806370 0.502289 0.822164
O O10 0.717139 0.654059 0.803086
O O11 0.714518 0.845450 0.260781
O O12 0.493640 0.742632 0.253377
O O13 0.285144 0.975566 0.612907
O O14 0.563199 0.930261 0.626466
#
# Coordination Sequence:
#
# PCOD9123094 Si02
#       8
#     4   2   2   4   4   4   4   4
#     4  10  20  37  61  96 131 161 191 244 319 384
#     4  10  26  48  62  82 114 180 218 262 304 348
#     4  12  22  32  54 102 134 154 190 236 314 384
#     4  10  21  41  66  85 127 161 212 254 310 369
#     4  11  24  40  65  90 124 166 213 256 303 365
#     4  10  20  39  62  93 122 164 201 256 306 368
#     4  12  21  37  61  96 124 162 197 256 318 372
#     4  10  21  33  56  98 137 156 187 239 322 383
#
# _framework density 19.266665
#
# number of rings (size 3 to 8) (size 9 to 14) (size 15 to 20)
#    0.000    1.429    4.286    1.286    6.000    0.571 
#    0.000    2.857    0.000    0.000    0.000    0.000 
#    0.000    0.000    0.000    0.000    0.000    0.000 
#
# Total GULP energy -78090.030252 kJ/mol
# GULP energy per Si atom -5577.859304 kJ/mol
# Density = 1.922281 g / cm^3
# Si number density = 19.266665 Si / 1000 Ang^3
#
#
#
# Elastic Constant Matrix: (Units=GPa)
#
#
# Indices 1 2 3 4 5 6 
#
# 1 81.2027 50.8243 19.7303 0.0000 8.7559 0.0000
# 2 50.8243 161.2773 45.0066 0.0000 12.7660 0.0000
# 3 19.7303 45.0066 68.7602 0.0000 14.9628 0.0000
# 4 0.0000 0.0000 0.0000 4.4051 0.0000 14.6156
# 5 8.7559 12.7660 14.9628 0.0000 25.5671 0.0000
# 6 0.0000 0.0000 0.0000 14.6156 0.0000 23.9230
#
#
#
# Elastic Compliance Matrix: (Units=1/GPa)
#
#
# Indices 1 2 3 4 5 6 
#
# 1 0.015612 -0.004433 -0.001027 0.000000 -0.002532 0.000000
# 2 -0.004433 0.008868 -0.004468 0.000000 -0.000295 0.000000
# 3 -0.001027 -0.004468 0.019711 0.000000 -0.008953 0.000000
# 4 0.000000 0.000000 0.000000 -0.221033 0.000000 0.135039
# 5 -0.002532 -0.000295 -0.008953 0.000000 0.045366 0.000000
# 6 0.000000 0.000000 0.000000 0.135039 0.000000 -0.040701
#
#
# Mechanical properties :
#
#
# Convention : Reuss Voigt Hill
#
# Bulk Modulus (GPa) = 41.09485 60.26251 50.67868
# Shear Modulus (GPa) = -34.67205 23.82431 -5.42387
#
# Velocity S-wave (km/s) = -4.24676 3.52028 -1.67966
# Velocity P-wave (km/s) = 1.63425 6.91876 4.75386
#
# Compressibility (1/GPa) = 0.02433395
#
# Stress axis : x y z
#
# Youngs Moduli (GPa) = 64.05351 112.76923 50.73337
#
# Poissons Ratio (x) = 0.49988 0.05212
# Poissons Ratio (y) = 0.28394 0.22669
# Poissons Ratio (z) = 0.06580 0.50388
#
# Static dielectric constant tensor:
#      x y z
#    x 1.710960 0.000000 -0.002100 
#    y 0.000000 1.706530 0.000000 
#    z -0.002100 0.000000 1.645870 
# 
# From -- ./inp_files/35879.got.cif
#   From: 2010.05.17/outbox.cif.g08.bks.cpg/sg5_18_cif.got.tgz:35879.got - 2010.06.03 18:56:24.
