data_PCOD9123173
_publ_section_title
;
Structure prediction by ZEFSAII (Michael W. Deem and Ramdas Pophale) SiO2 
 PCOD9123173
Probable space group: C 2
;
_chemical_formula_sum "Si O2"
_cell_formula_units_Z 28
_cell_length_a 7.550175
_cell_length_b 33.854031
_cell_length_c 5.285379
_cell_angle_alpha 90.000000
_cell_angle_beta 64.376327
_cell_angle_gamma 90.000000
_cell_volume 1218.101330
_symmetry_space_group_name_H-M "C 2"
_symmetry_group_IT_number 5
_symmetry_cell_setting 'monoclinic'
loop_
_space_group_symop_operation_xyz
x,y,z
-x,y,-z
1/2+x,1/2+y,z
1/2-x,1/2+y,-z
loop_
_atom_site_type_symbol
_atom_site_label
_atom_site_fract_x
_atom_site_fract_y
_atom_site_fract_z
Si Si1 0.262847 0.672860 0.153321
Si Si2 0.730075 0.714652 0.350177
Si Si3 0.000000 0.029591 0.000000
Si Si4 0.000000 0.522073 0.000000
Si Si5 0.709292 0.473491 0.528394
Si Si6 0.196076 0.582129 0.219910
Si Si7 0.136389 0.887376 0.665163
Si Si8 0.633495 0.301779 0.667647
O O1 0.192499 0.687563 0.470483
O O2 0.209426 0.627524 0.138192
O O3 0.500000 0.674255 0.000000
O O4 0.196606 0.702168 0.971655
O O5 0.500000 0.706226 0.500000
O O6 0.752413 0.760815 0.394053
O O7 0.111206 0.064418 0.762283
O O8 0.161787 0.996269 0.816574
O O9 0.833131 0.552224 0.996557
O O10 0.116904 0.494806 0.729930
O O11 0.500000 0.476365 0.500000
O O12 0.753930 0.427856 0.558636
O O13 0.000000 0.576868 0.500000
O O14 0.240139 0.844491 0.607399
O O15 0.000000 0.885811 0.500000
O O16 0.000000 0.891085 0.000000
O O17 0.500000 0.300477 0.500000
O O18 0.500000 0.301836 0.000000
#
# Coordination Sequence:
#
# PCOD9123173 Si02
#       8
#     4   4   2   2   4   4   4   4
#     4  10  23  42  63  88 124 173 215 260 323 392
#     4  10  22  41  65  89 126 168 208 257 323 391
#     4  12  22  42  66  86 126 178 210 268 336 386
#     4  12  26  40  62 100 126 164 232 276 314 398
#     4  11  22  40  66  90 130 173 214 266 332 380
#     4  12  26  41  62  95 128 165 221 273 323 386
#     4   9  19  36  65  93 124 170 214 254 319 396
#     4  10  20  37  64  96 125 160 210 262 313 384
#
# _framework density 22.98659
#
# number of rings (size 3 to 8) (size 9 to 14) (size 15 to 20)
#    0.000    1.429    4.286    0.857    2.000    1.714 
#    2.571    0.000   23.571    0.000    0.000    0.000 
#    0.000    0.000    0.000    0.000    0.000    0.000 
#
# Total GULP energy -78005.103108 kJ/mol
# GULP energy per Si atom -5571.793079 kJ/mol
# Density = 2.293427 g / cm^3
# Si number density = 22.986590 Si / 1000 Ang^3
#
#
#
# Elastic Constant Matrix: (Units=GPa)
#
#
# Indices 1 2 3 4 5 6 
#
# 1 79.9523 33.4140 26.8652 0.0000 -0.9338 0.0000
# 2 33.4140 215.7155 39.8803 0.0000 15.7551 0.0000
# 3 26.8652 39.8803 123.1114 0.0000 10.2904 0.0000
# 4 0.0000 0.0000 0.0000 43.7018 0.0000 -4.7431
# 5 -0.9338 15.7551 10.2904 0.0000 33.2975 0.0000
# 6 0.0000 0.0000 0.0000 -4.7431 0.0000 24.7481
#
#
#
# Elastic Compliance Matrix: (Units=1/GPa)
#
#
# Indices 1 2 3 4 5 6 
#
# 1 0.014208 -0.001860 -0.002674 0.000000 0.002105 0.000000
# 2 -0.001860 0.005293 -0.001124 0.000000 -0.002209 0.000000
# 3 -0.002674 -0.001124 0.009272 0.000000 -0.002408 0.000000
# 4 0.000000 0.000000 0.000000 0.023368 0.000000 0.004479
# 5 0.002105 -0.002209 -0.002408 0.000000 0.031881 0.000000
# 6 0.000000 0.000000 0.000000 0.004479 0.000000 0.041266
#
#
# Mechanical properties :
#
#
# Convention : Reuss Voigt Hill
#
# Bulk Modulus (GPa) = 57.28509 68.78870 63.03689
# Shear Modulus (GPa) = 35.10685 41.59079 38.34882
#
# Velocity S-wave (km/s) = 3.91228 4.25826 4.08893
# Velocity P-wave (km/s) = 6.73670 7.35986 7.05516
#
# Compressibility (1/GPa) = 0.01745655
#
# Stress axis : x y z
#
# Youngs Moduli (GPa) = 70.38335 188.92747 107.85598
#
# Poissons Ratio (x) = 0.35144 0.28838
# Poissons Ratio (y) = 0.13093 0.12123
# Poissons Ratio (z) = 0.18819 0.21236
#
# Static dielectric constant tensor:
#      x y z
#    x 1.570090 0.000000 0.003060 
#    y 0.000000 1.850380 0.000000 
#    z 0.003060 0.000000 1.824750 
# 
# From -- ./inp_files/3825.got.cif
#   From: 2010.05.17/outbox.cif.g08.bks.cpg/sg5_2_cif.got.tgz:3825.got - 2010.06.03 18:56:24.
