data_PCOD9123302
_publ_section_title
;
Structure prediction by ZEFSAII (Michael W. Deem and Ramdas Pophale) SiO2 
 PCOD9123302
Probable space group: C 2
;
_chemical_formula_sum "Si O2"
_cell_formula_units_Z 30
_cell_length_a 5.119919
_cell_length_b 24.420811
_cell_length_c 12.175976
_cell_angle_alpha 90.000000
_cell_angle_beta 74.414708
_cell_angle_gamma 90.000000
_cell_volume 1466.417596
_symmetry_space_group_name_H-M "C 2"
_symmetry_group_IT_number 5
_symmetry_cell_setting 'monoclinic'
loop_
_space_group_symop_operation_xyz
x,y,z
-x,y,-z
1/2+x,1/2+y,z
1/2-x,1/2+y,-z
loop_
_atom_site_type_symbol
_atom_site_label
_atom_site_fract_x
_atom_site_fract_y
_atom_site_fract_z
Si Si1 0.500000 0.899650 0.500000
Si Si2 0.957884 0.769876 0.372499
Si Si3 0.774795 0.372588 0.304127
Si Si4 0.706789 0.835268 0.077779
Si Si5 0.202054 0.088011 0.577863
Si Si6 0.948417 0.974851 0.373659
Si Si7 0.470089 0.702785 0.315846
Si Si8 0.783075 0.206074 0.927961
O O1 0.341418 0.865287 0.426887
O O2 0.676905 0.939250 0.403608
O O3 0.017257 0.831051 0.319758
O O4 0.227002 0.739764 0.297042
O O5 0.000000 0.765751 0.500000
O O6 0.682838 0.738701 0.365237
O O7 0.673852 0.434847 0.298413
O O8 0.033830 0.359355 0.199420
O O9 0.750702 0.770751 0.096770
O O10 0.500000 0.839503 0.000000
O O11 0.000000 0.856712 0.000000
O O12 0.500000 0.074940 0.500000
O O13 0.000000 0.088225 0.500000
O O14 0.181612 0.150262 0.618490
O O15 0.102062 0.036291 0.661904
O O16 0.000000 0.977509 0.500000
O O17 0.634460 0.679377 0.194867
O O18 0.500000 0.183929 0.000000
O O19 0.000000 0.201430 0.000000
#
# Coordination Sequence:
#
# PCOD9123302 Si02
#       8
#     2   4   4   4   4   4   4   4
#     4  10  20  38  60  96 126 168 208 256 324 372
#     4  12  25  37  55  92 133 163 196 245 325 392
#     4  11  24  37  63  92 130 166 212 264 317 389
#     4  10  23  39  59  85 120 166 209 254 305 367
#     4  11  22  41  63  89 126 164 213 253 302 384
#     4   9  20  37  60  91 121 167 211 260 306 371
#     4  12  24  39  61  88 123 168 202 255 320 373
#     4  10  21  38  59  83 115 153 211 261 302 365
#
# _framework density 20.458020000000001
#
# number of rings (size 3 to 8) (size 9 to 14) (size 15 to 20)
#    0.000    1.333    2.000    4.400    9.333    0.000 
#    0.000    0.000    0.000    0.800    0.000    0.000 
#    0.000    0.000    0.000    0.000    0.000    0.000 
#
# Total GULP energy -83636.366723 kJ/mol
# GULP energy per Si atom -5575.757782 kJ/mol
# Density = 2.041146 g / cm^3
# Si number density = 20.458020 Si / 1000 Ang^3
#
#
#
# Elastic Constant Matrix: (Units=GPa)
#
#
# Indices 1 2 3 4 5 6 
#
# 1 79.3002 17.8291 0.4042 0.0000 -12.4468 0.0000
# 2 17.8291 96.1440 0.7211 0.0000 -1.1836 0.0000
# 3 0.4042 0.7211 53.0021 0.0000 -14.4619 0.0000
# 4 0.0000 0.0000 0.0000 12.0735 0.0000 -10.6233
# 5 -12.4468 -1.1836 -14.4619 0.0000 30.3889 0.0000
# 6 0.0000 0.0000 0.0000 -10.6233 0.0000 24.7576
#
#
#
# Elastic Compliance Matrix: (Units=1/GPa)
#
#
# Indices 1 2 3 4 5 6 
#
# 1 0.014204 -0.002566 0.001709 0.000000 0.006531 0.000000
# 2 -0.002566 0.010870 -0.000344 0.000000 -0.000792 0.000000
# 3 0.001709 -0.000344 0.021888 0.000000 0.011103 0.000000
# 4 0.000000 0.000000 0.000000 0.133066 0.000000 0.057098
# 5 0.006531 -0.000792 0.011103 0.000000 0.040835 0.000000
# 6 0.000000 0.000000 0.000000 0.057098 0.000000 0.064892
#
#
# Mechanical properties :
#
#
# Convention : Reuss Voigt Hill
#
# Bulk Modulus (GPa) = 22.44293 29.59502 26.01898
# Shear Modulus (GPa) = 16.50103 27.41011 21.95557
#
# Velocity S-wave (km/s) = 2.84312 3.66433 3.27953
# Velocity P-wave (km/s) = 4.66603 5.69216 5.20445
#
# Compressibility (1/GPa) = 0.04455747
#
# Stress axis : x y z
#
# Youngs Moduli (GPa) = 70.40442 91.99793 45.68647
#
# Poissons Ratio (x) = 0.23610 -0.07806
# Poissons Ratio (y) = 0.18068 0.01573
# Poissons Ratio (z) = -0.12029 0.03168
#
# Static dielectric constant tensor:
#      x y z
#    x 1.812770 0.000000 -0.016400 
#    y 0.000000 1.814220 0.000000 
#    z -0.016400 0.000000 1.751160 
# 
# From -- ./inp_files/34186.got.cif
#   From: 2010.05.17/outbox.cif.g08.bks.cpg/sg5_18_cif.got.tgz:34186.got - 2010.06.03 18:56:24.
