data_PCOD9123996
_publ_section_title
;
Structure prediction by ZEFSAII (Michael W. Deem and Ramdas Pophale) SiO2 
 PCOD9123996
Probable space group: C 2
;
_chemical_formula_sum "Si O2"
_cell_formula_units_Z 32
_cell_length_a 13.501509
_cell_length_b 5.477526
_cell_length_c 16.761483
_cell_angle_alpha 90.000000
_cell_angle_beta 94.904001
_cell_angle_gamma 90.000000
_cell_volume 1235.055496
_symmetry_space_group_name_H-M "C 2"
_symmetry_group_IT_number 5
_symmetry_cell_setting 'monoclinic'
loop_
_space_group_symop_operation_xyz
x,y,z
-x,y,-z
1/2+x,1/2+y,z
1/2-x,1/2+y,-z
loop_
_atom_site_type_symbol
_atom_site_label
_atom_site_fract_x
_atom_site_fract_y
_atom_site_fract_z
Si Si1 0.358672 0.424360 0.359724
Si Si2 0.586932 0.976933 0.137555
Si Si3 0.609067 0.925627 0.542331
Si Si4 0.681517 0.388029 0.252939
Si Si5 0.103423 0.843674 0.000168
Si Si6 0.264865 0.109746 0.115137
Si Si7 0.347574 0.017006 0.630463
Si Si8 0.497587 0.730901 0.259597
O O1 0.366650 0.661285 0.418463
O O2 0.243346 0.375330 0.333782
O O3 0.417087 0.541911 0.288523
O O4 0.390355 0.168936 0.401871
O O5 0.569550 0.135489 0.059165
O O6 0.674805 0.796970 0.120400
O O7 0.488742 0.873499 0.175353
O O8 0.639226 0.152130 0.205225
O O9 0.500000 0.899394 0.500000
O O10 0.667565 0.981770 0.464531
O O11 0.772233 0.480311 0.203703
O O12 0.591769 0.571140 0.242887
O O13 0.678324 0.294323 0.344121
O O14 0.208520 0.934577 0.047152
O O15 0.141301 0.746446 0.917226
O O16 0.000000 0.006196 0.000000
O O17 0.453099 0.910803 0.669580
#
# Coordination Sequence:
#
# PCOD9123996 Si02
#       8
#     4   4   4   4   4   4   4   4
#     4  12  27  42  69 101 136 180 233 289 340 415
#     4   9  20  41  63  93 128 174 213 279 330 398
#     4  12  25  45  68  99 136 179 230 288 348 407
#     4   9  21  40  68  90 130 176 217 270 342 395
#     4  11  22  37  66  97 127 174 219 272 335 401
#     4  10  20  41  62  91 135 163 222 274 328 401
#     4  11  24  42  66  98 134 175 229 281 342 407
#     4  10  22  43  66  93 131 181 216 279 342 405
#
# _framework density 25.909765
#
# number of rings (size 3 to 8) (size 9 to 14) (size 15 to 20)
#    0.000    1.500    2.500    1.875    5.250    1.500 
#    0.000   11.250    0.000    0.000    0.000    0.000 
#    0.000    0.000    0.000    0.000    0.000    0.000 
#
# Total GULP energy -89155.614248 kJ/mol
# GULP energy per Si atom -5572.225890 kJ/mol
# Density = 2.585079 g / cm^3
# Si number density = 25.909765 Si / 1000 Ang^3
#
#
#
# Elastic Constant Matrix: (Units=GPa)
#
#
# Indices 1 2 3 4 5 6 
#
# 1 96.4579 -1.0854 9.3155 0.0000 -36.2349 0.0000
# 2 -1.0854 78.6190 29.4138 0.0000 -6.7119 0.0000
# 3 9.3155 29.4138 88.2765 0.0000 -36.3654 0.0000
# 4 0.0000 0.0000 0.0000 129.9228 0.0000 26.2940
# 5 -36.2349 -6.7119 -36.3654 0.0000 53.3198 0.0000
# 6 0.0000 0.0000 0.0000 26.2940 0.0000 41.5625
#
#
#
# Elastic Compliance Matrix: (Units=1/GPa)
#
#
# Indices 1 2 3 4 5 6 
#
# 1 0.014685 -0.000082 0.003594 0.000000 0.012421 0.000000
# 2 -0.000082 0.014694 -0.005769 0.000000 -0.002141 0.000000
# 3 0.003594 -0.005769 0.018884 0.000000 0.014595 0.000000
# 4 0.000000 0.000000 0.000000 0.008827 0.000000 -0.005584
# 5 0.012421 -0.002141 0.014595 0.000000 0.036881 0.000000
# 6 0.000000 0.000000 0.000000 -0.005584 0.000000 0.027593
#
#
# Mechanical properties :
#
#
# Convention : Reuss Voigt Hill
#
# Bulk Modulus (GPa) = 22.85733 37.62680 30.24206
# Shear Modulus (GPa) = 35.54671 60.00833 47.77752
#
# Velocity S-wave (km/s) = 3.70799 4.81776 4.29884
# Velocity P-wave (km/s) = 5.21280 6.74548 6.02805
#
# Compressibility (1/GPa) = 0.04374964
#
# Stress axis : x y z
#
# Youngs Moduli (GPa) = 68.09623 68.05421 52.95588
#
# Poissons Ratio (x) = 0.00555 -0.19033
# Poissons Ratio (y) = 0.00555 0.30552
# Poissons Ratio (z) = -0.24475 0.39262
#
# Static dielectric constant tensor:
#      x y z
#    x 1.197190 0.000000 -0.327090 
#    y 0.000000 2.313490 0.000000 
#    z -0.327090 0.000000 2.118830 
# 
# From -- ./inp_files/61222.got.cif
#   From: 2010.05.17/outbox.cif.g08.bks.cpg/sg5_31_cif.got.tgz:61222.got - 2010.06.03 18:56:24.
