data_PCOD9123910
_publ_section_title
;
Structure prediction by ZEFSAII (Michael W. Deem and Ramdas Pophale) SiO2 
 PCOD9123910
Probable space group: C 2
;
_chemical_formula_sum "Si O2"
_cell_formula_units_Z 24
_cell_length_a 21.408378
_cell_length_b 6.803400
_cell_length_c 20.908104
_cell_angle_alpha 90.000000
_cell_angle_beta 21.288831
_cell_angle_gamma 90.000000
_cell_volume 1105.641452
_symmetry_space_group_name_H-M "C 2"
_symmetry_group_IT_number 5
_symmetry_cell_setting 'monoclinic'
loop_
_space_group_symop_operation_xyz
x,y,z
-x,y,-z
1/2+x,1/2+y,z
1/2-x,1/2+y,-z
loop_
_atom_site_type_symbol
_atom_site_label
_atom_site_fract_x
_atom_site_fract_y
_atom_site_fract_z
Si Si1 0.797350 0.402850 0.794826
Si Si2 0.175285 0.219828 0.730378
Si Si3 0.458005 0.469516 0.853859
Si Si4 0.500000 0.434899 0.000000
Si Si5 0.093182 0.543869 0.714532
Si Si6 0.027258 0.209435 0.674013
Si Si7 0.000000 0.671582 0.500000
O O1 0.928122 0.258724 0.704104
O O2 0.898005 0.540958 0.649519
O O3 0.693977 0.513457 0.950747
O O4 0.644135 0.311111 0.898608
O O5 0.091818 0.414535 0.780523
O O6 0.357463 0.271929 0.589704
O O7 0.140017 0.069219 0.703850
O O8 0.084659 0.086122 0.869767
O O9 0.424418 0.557086 0.816566
O O10 0.479899 0.237260 0.829456
O O11 0.043522 0.404680 0.702447
O O12 0.287465 0.618012 0.517401
#
# Coordination Sequence:
#
# PCOD9123910 Si02
#       7
#     4   4   4   2   4   4   2
#     4  10  22  39  68  93 128 176 212 262 327 375
#     4   9  20  40  65  90 125 172 207 265 320 374
#     4  10  22  41  62  94 131 164 215 265 320 387
#     4   8  18  44  64  92 132 168 216 266 310 380
#     4  11  22  40  62  92 129 167 213 265 326 380
#     4  11  23  39  65  94 128 171 209 269 325 381
#     4  10  20  40  68  94 132 168 220 268 310 386
#
# _framework density 21.706855999999998
#
# number of rings (size 3 to 8) (size 9 to 14) (size 15 to 20)
#    0.000    2.000    1.667    1.000    4.667    0.000 
#    0.000   16.667    0.000    0.000    0.000    0.000 
#    0.000    0.000    0.000    0.000    0.000    0.000 
#
# Total GULP energy -66867.556066 kJ/mol
# GULP energy per Si atom -5572.296339 kJ/mol
# Density = 2.165745 g / cm^3
# Si number density = 21.706856 Si / 1000 Ang^3
#
#
#
# Elastic Constant Matrix: (Units=GPa)
#
#
# Indices 1 2 3 4 5 6 
#
# 1 115.8596 44.4565 20.9658 -0.0016 -16.7720 0.0005
# 2 44.4565 100.2771 9.3932 -0.0077 -9.2085 0.0040
# 3 20.9658 9.3932 58.5958 -0.0054 4.9386 0.0028
# 4 -0.0016 -0.0077 -0.0054 4.3984 0.0024 7.1548
# 5 -16.7720 -9.2085 4.9386 0.0024 44.6745 -0.0008
# 6 0.0005 0.0040 0.0028 7.1548 -0.0008 22.4811
#
#
#
# Elastic Compliance Matrix: (Units=1/GPa)
#
#
# Indices 1 2 3 4 5 6 
#
# 1 0.011564 -0.004422 -0.003753 -0.000025 0.003845 0.000009
# 2 -0.004422 0.012052 -0.000423 0.000045 0.000871 -0.000016
# 3 -0.003753 -0.000423 0.018778 0.000055 -0.003572 -0.000020
# 4 -0.000025 0.000045 0.000055 0.471415 -0.000034 -0.150033
# 5 0.003845 0.000871 -0.003572 -0.000034 0.024402 0.000012
# 6 0.000009 -0.000016 -0.000020 -0.150033 0.000012 0.092231
#
#
# Mechanical properties :
#
#
# Convention : Reuss Voigt Hill
#
# Bulk Modulus (GPa) = 39.68591 47.15152 43.41871
# Shear Modulus (GPa) = 7.62152 27.63858 17.63005
#
# Velocity S-wave (km/s) = 1.87583 3.57215 2.85298
# Velocity P-wave (km/s) = 4.79729 6.22759 5.55863
#
# Compressibility (1/GPa) = 0.02519786
#
# Stress axis : x y z
#
# Youngs Moduli (GPa) = 86.47891 82.97087 53.25470
#
# Poissons Ratio (x) = 0.36689 0.19985
# Poissons Ratio (y) = 0.38241 0.02254
# Poissons Ratio (z) = 0.32453 0.03512
#
# Static dielectric constant tensor:
#      x y z
#    x 1.870370 0.000000 -0.033090 
#    y 0.000000 1.774880 0.000000 
#    z -0.033090 0.000000 1.845210 
# 
# From -- ./inp_files/30345.got.cif
#   From: 2010.05.17/outbox.cif.g08.bks.cpg/sg5_16_cif.got.tgz:30345.got - 2010.06.03 18:56:24.
