data_PCOD9123917
_publ_section_title
;
Structure prediction by ZEFSAII (Michael W. Deem and Ramdas Pophale) SiO2 
 PCOD9123917
Probable space group: C 2
;
_chemical_formula_sum "Si O2"
_cell_formula_units_Z 32
_cell_length_a 11.673869
_cell_length_b 15.268293
_cell_length_c 18.245388
_cell_angle_alpha 90.000000
_cell_angle_beta 152.790698
_cell_angle_gamma 90.000000
_cell_volume 1486.978956
_symmetry_space_group_name_H-M "C 2"
_symmetry_group_IT_number 5
_symmetry_cell_setting 'monoclinic'
loop_
_space_group_symop_operation_xyz
x,y,z
-x,y,-z
1/2+x,1/2+y,z
1/2-x,1/2+y,-z
loop_
_atom_site_type_symbol
_atom_site_label
_atom_site_fract_x
_atom_site_fract_y
_atom_site_fract_z
Si Si1 0.687406 0.224360 0.675804
Si Si2 0.847501 0.217277 0.162763
Si Si3 0.489724 0.173878 0.839877
Si Si4 0.283826 0.357045 0.683001
Si Si5 0.367447 0.900536 0.249005
Si Si6 0.997250 0.092295 0.380809
Si Si7 0.049005 0.894193 0.381641
Si Si8 0.409250 0.094784 0.247987
O O1 0.500000 0.207744 0.500000
O O2 0.598465 0.311805 0.668704
O O3 0.689325 0.145918 0.736447
O O4 0.952776 0.236826 0.787632
O O5 0.780025 0.310663 0.161490
O O6 0.965910 0.152876 0.290756
O O7 0.623607 0.167854 0.994014
O O8 0.439109 0.274759 0.796916
O O9 0.218581 0.128413 0.689305
O O10 0.646969 0.141012 0.860569
O O11 0.243475 0.413519 0.732496
O O12 0.414709 0.393519 0.685425
O O13 0.000000 0.329367 0.500000
O O14 0.667402 0.887480 0.426536
O O15 0.327487 0.994513 0.190692
O O16 0.287443 0.099106 0.568846
O O17 0.943944 0.989228 0.341368
#
# Coordination Sequence:
#
# PCOD9123917 Si02
#       8
#     4   4   4   4   4   4   4   4
#     4  12  23  42  70  96 136 174 219 279 339 401
#     4  12  26  44  63  99 140 181 217 279 348 399
#     4  12  25  43  65  97 139 177 223 273 338 401
#     4  10  20  40  68  97 132 173 230 277 323 396
#     4  10  22  40  70  99 133 173 226 280 334 392
#     4  11  23  42  72  99 132 173 230 280 330 398
#     4  10  22  40  69 106 126 171 227 281 333 387
#     4  11  24  43  70 103 128 178 229 279 334 398
#
# _framework density 21.520144999999999
#
# number of rings (size 3 to 8) (size 9 to 14) (size 15 to 20)
#    0.000    1.000    5.000    1.500    3.500    1.000 
#    2.250    2.500    0.000    0.000    0.000    0.000 
#    0.000    0.000    0.000    0.000    0.000    0.000 
#
# Total GULP energy -89383.900948 kJ/mol
# GULP energy per Si atom -5586.493809 kJ/mol
# Density = 2.147116 g / cm^3
# Si number density = 21.520145 Si / 1000 Ang^3
#
#
#
# Elastic Constant Matrix: (Units=GPa)
#
#
# Indices 1 2 3 4 5 6 
#
# 1 82.6749 7.0138 10.9788 0.0046 -9.6740 -0.0024
# 2 7.0138 83.6845 13.1132 0.0063 -8.0813 0.0077
# 3 10.9788 13.1132 54.3638 0.0165 -12.0677 0.0100
# 4 0.0046 0.0063 0.0165 10.5556 0.0046 -43.0226
# 5 -9.6740 -8.0813 -12.0677 0.0046 32.0016 0.0012
# 6 -0.0024 0.0077 0.0100 -43.0226 0.0012 88.9198
#
#
#
# Elastic Compliance Matrix: (Units=1/GPa)
#
#
# Indices 1 2 3 4 5 6 
#
# 1 0.012730 -0.000494 -0.001774 0.000002 0.003055 0.000001
# 2 -0.000494 0.012580 -0.002469 0.000008 0.002096 0.000003
# 3 -0.001774 -0.002469 0.020835 0.000044 0.006697 0.000019
# 4 0.000002 0.000008 0.000044 -0.097463 0.000035 -0.047156
# 5 0.003055 0.002096 0.006697 0.000035 0.035227 0.000015
# 6 0.000001 0.000003 0.000019 -0.047156 0.000015 -0.011570
#
#
# Mechanical properties :
#
#
# Convention : Reuss Voigt Hill
#
# Bulk Modulus (GPa) = 27.26899 31.43719 29.35309
# Shear Modulus (GPa) = -838.58185 38.93656 -399.82265
#
# Velocity S-wave (km/s) = -19.76155 4.25821 -13.64527
# Velocity P-wave (km/s) = 22.53870 6.23028 15.31627
#
# Compressibility (1/GPa) = 0.03667169
#
# Stress axis : x y z
#
# Youngs Moduli (GPa) = 78.55174 79.48848 47.99608
#
# Poissons Ratio (x) = 0.03927 0.08513
# Poissons Ratio (y) = 0.03881 0.11852
# Poissons Ratio (z) = 0.13932 0.19629
#
# Static dielectric constant tensor:
#      x y z
#    x 1.789500 0.000000 0.023340 
#    y 0.000000 1.743600 0.000000 
#    z 0.023340 0.000000 1.784040 
# 
# From -- ./inp_files/44974.got.cif
#   From: 2010.05.17/outbox.cif.g08.bks.cpg/sg5_23_cif.got.tgz:44974.got - 2010.06.03 18:56:24.
