data_PCOD9123646
_publ_section_title
;
Structure prediction by ZEFSAII (Michael W. Deem and Ramdas Pophale) SiO2 
 PCOD9123646
Probable space group: C 2
;
_chemical_formula_sum "Si O2"
_cell_formula_units_Z 30
_cell_length_a 11.838887
_cell_length_b 7.514728
_cell_length_c 13.449045
_cell_angle_alpha 90.000000
_cell_angle_beta 99.626750
_cell_angle_gamma 90.000000
_cell_volume 1179.658806
_symmetry_space_group_name_H-M "C 2"
_symmetry_group_IT_number 5
_symmetry_cell_setting 'monoclinic'
loop_
_space_group_symop_operation_xyz
x,y,z
-x,y,-z
1/2+x,1/2+y,z
1/2-x,1/2+y,-z
loop_
_atom_site_type_symbol
_atom_site_label
_atom_site_fract_x
_atom_site_fract_y
_atom_site_fract_z
Si Si1 0.414417 0.706540 0.899002
Si Si2 0.283102 0.779106 0.224407
Si Si3 0.012009 0.062148 0.288109
Si Si4 0.756060 0.198973 0.425797
Si Si5 0.212092 0.319652 0.362188
Si Si6 0.675478 0.172064 0.820070
Si Si7 0.000000 0.016631 0.500000
Si Si8 0.048612 0.620746 0.117776
O O1 0.430477 0.560145 0.814015
O O2 0.280585 0.716617 0.909477
O O3 0.443410 0.906560 0.866464
O O4 0.500000 0.663083 0.000000
O O5 0.384003 0.633133 0.246615
O O6 0.253804 0.835162 0.334689
O O7 0.174037 0.696655 0.154841
O O8 0.324698 0.958827 0.181579
O O9 0.090130 0.225210 0.340243
O O10 0.014995 0.936205 0.388345
O O11 0.719392 0.263795 0.528048
O O12 0.886620 0.133296 0.461245
O O13 0.691922 0.028309 0.372901
O O14 0.282656 0.260870 0.276178
O O15 0.545753 0.216752 0.826667
O O16 0.000000 0.646561 0.000000
#
# Coordination Sequence:
#
# PCOD9123646 Si02
#       8
#     4   4   4   4   4   4   2   4
#     4  10  22  43  67  94 135 174 219 283 339 400
#     4  11  22  41  67  93 132 175 221 275 332 397
#     4   9  18  37  63  88 128 173 214 261 337 386
#     4  10  20  39  65  96 136 177 222 268 337 395
#     4  10  21  41  64 100 137 176 222 274 330 404
#     4  11  24  43  64  99 134 171 228 275 332 406
#     4   8  18  34  58  92 126 174 214 262 322 392
#     4  11  26  45  67  97 132 173 227 280 338 400
#
# _framework density 25.431082
#
# number of rings (size 3 to 8) (size 9 to 14) (size 15 to 20)
#    0.000    1.867    1.333    2.400    1.867    0.533 
#   19.200    0.000    0.000    0.000    0.000    0.000 
#    0.000    0.000    0.000    0.000    0.000    0.000 
#
# Total GULP energy -83783.209986 kJ/mol
# GULP energy per Si atom -5585.547332 kJ/mol
# Density = 2.537320 g / cm^3
# Si number density = 25.431082 Si / 1000 Ang^3
#
#
#
# Elastic Constant Matrix: (Units=GPa)
#
#
# Indices 1 2 3 4 5 6 
#
# 1 122.9741 20.0160 12.6104 0.0000 20.8545 0.0000
# 2 20.0160 69.8569 1.4109 0.0000 9.6872 0.0000
# 3 12.6104 1.4109 83.7414 0.0000 27.4336 0.0000
# 4 0.0000 0.0000 0.0000 29.0698 0.0000 8.9602
# 5 20.8545 9.6872 27.4336 0.0000 44.3675 0.0000
# 6 0.0000 0.0000 0.0000 8.9602 0.0000 27.8692
#
#
#
# Elastic Compliance Matrix: (Units=1/GPa)
#
#
# Indices 1 2 3 4 5 6 
#
# 1 0.009121 -0.002089 -0.000104 0.000000 -0.003767 0.000000
# 2 -0.002089 0.015309 0.001041 0.000000 -0.003004 0.000000
# 3 -0.000104 0.001041 0.015046 0.000000 -0.009481 0.000000
# 4 0.000000 0.000000 0.000000 0.038184 0.000000 -0.012277
# 5 -0.003767 -0.003004 -0.009481 0.000000 0.030828 0.000000
# 6 0.000000 0.000000 0.000000 -0.012277 0.000000 0.039829
#
#
# Mechanical properties :
#
#
# Convention : Reuss Voigt Hill
#
# Bulk Modulus (GPa) = 26.90267 38.29411 32.59839
# Shear Modulus (GPa) = 30.67244 36.43030 33.55137
#
# Velocity S-wave (km/s) = 3.47666 3.78896 3.63617
# Velocity P-wave (km/s) = 5.16893 5.85084 5.52042
#
# Compressibility (1/GPa) = 0.03717103
#
# Stress axis : x y z
#
# Youngs Moduli (GPa) = 109.63345 65.32046 66.46364
#
# Poissons Ratio (x) = 0.13646 0.00694
# Poissons Ratio (y) = 0.22903 -0.06918
# Poissons Ratio (z) = 0.01144 -0.06799
#
# Static dielectric constant tensor:
#      x y z
#    x 2.070230 0.000000 -0.094080 
#    y 0.000000 2.002810 0.000000 
#    z -0.094080 0.000000 2.081120 
# 
# From -- ./inp_files/52416.got.cif
#   From: 2010.05.17/outbox.cif.g08.bks.cpg/sg5_27_cif.got.tgz:52416.got - 2010.06.03 18:56:24.
