data_PCOD9123666
_publ_section_title
;
Structure prediction by ZEFSAII (Michael W. Deem and Ramdas Pophale) SiO2 
 PCOD9123666
Probable space group: C 2
;
_chemical_formula_sum "Si O2"
_cell_formula_units_Z 32
_cell_length_a 14.448773
_cell_length_b 15.147037
_cell_length_c 10.013202
_cell_angle_alpha 90.000000
_cell_angle_beta 40.435866
_cell_angle_gamma 90.000000
_cell_volume 1421.366974
_symmetry_space_group_name_H-M "C 2"
_symmetry_group_IT_number 5
_symmetry_cell_setting 'monoclinic'
loop_
_space_group_symop_operation_xyz
x,y,z
-x,y,-z
1/2+x,1/2+y,z
1/2-x,1/2+y,-z
loop_
_atom_site_type_symbol
_atom_site_label
_atom_site_fract_x
_atom_site_fract_y
_atom_site_fract_z
Si Si1 0.410472 0.714690 0.887895
Si Si2 0.290790 0.740397 0.318893
Si Si3 0.168691 0.938570 0.828847
Si Si4 0.597341 0.067298 0.525967
Si Si5 0.134617 0.012508 0.145884
Si Si6 0.603152 0.061290 0.000281
Si Si7 0.675990 0.264060 0.944301
Si Si8 0.460037 0.351775 0.393101
O O1 0.575309 0.734526 0.730421
O O2 0.396566 0.611561 0.865485
O O3 0.340077 0.733923 0.109862
O O4 0.322873 0.763278 0.867849
O O5 0.183160 0.658286 0.453267
O O6 0.203325 0.828264 0.443849
O O7 0.280321 0.992184 0.618355
O O8 0.179952 0.832947 0.818253
O O9 0.000000 0.962943 0.000000
O O10 0.205236 0.966531 0.940146
O O11 0.500000 0.071762 0.500000
O O12 0.486909 0.054501 0.765886
O O13 0.247347 0.012622 0.141923
O O14 0.999089 0.953685 0.329877
O O15 0.640699 0.164892 0.938406
O O16 0.500000 0.026924 0.000000
O O17 0.555771 0.298184 0.180999
O O18 0.500000 0.324785 0.500000
#
# Coordination Sequence:
#
# PCOD9123666 Si02
#       8
#     4   4   4   4   4   4   4   4
#     4  10  20  39  66  97 139 181 234 295 348 407
#     4  11  20  36  68 104 128 183 248 285 336 434
#     4  11  22  40  68 103 136 175 235 296 346 405
#     4  12  21  40  71 103 132 182 241 286 338 422
#     4  10  22  41  65  98 143 180 220 302 351 406
#     4  11  23  44  71 100 141 185 233 284 359 421
#     4  10  21  41  68  93 138 183 221 290 353 411
#     4  11  21  39  64  98 135 182 239 279 351 419
#
# _framework density 22.513538
#
# number of rings (size 3 to 8) (size 9 to 14) (size 15 to 20)
#    0.000    1.250    5.000    2.250    0.000    0.000 
#    6.750    6.250    0.000    0.000    0.000    0.000 
#    0.000    0.000    0.000    0.000    0.000    0.000 
#
# Total GULP energy -89508.648593 kJ/mol
# GULP energy per Si atom -5594.290537 kJ/mol
# Density = 2.246230 g / cm^3
# Si number density = 22.513538 Si / 1000 Ang^3
#
#
#
# Elastic Constant Matrix: (Units=GPa)
#
#
# Indices 1 2 3 4 5 6 
#
# 1 119.7754 16.0813 26.6672 0.0000 -32.1518 0.0000
# 2 16.0813 85.7408 44.3921 0.0000 -19.9327 0.0000
# 3 26.6672 44.3921 77.3127 0.0000 -28.7074 0.0000
# 4 0.0000 0.0000 0.0000 36.3091 0.0000 -0.1590
# 5 -32.1518 -19.9327 -28.7074 0.0000 38.0742 0.0000
# 6 0.0000 0.0000 0.0000 -0.1590 0.0000 14.3370
#
#
#
# Elastic Compliance Matrix: (Units=1/GPa)
#
#
# Indices 1 2 3 4 5 6 
#
# 1 0.010817 0.000367 -0.000665 0.000000 0.008825 0.000000
# 2 0.000367 0.016730 -0.008841 0.000000 0.002403 0.000000
# 3 -0.000665 -0.008841 0.022656 0.000000 0.011893 0.000000
# 4 0.000000 0.000000 0.000000 0.027543 0.000000 0.000306
# 5 0.008825 0.002403 0.011893 0.000000 0.043941 0.000000
# 6 0.000000 0.000000 0.000000 0.000306 0.000000 0.069753
#
#
# Mechanical properties :
#
#
# Convention : Reuss Voigt Hill
#
# Bulk Modulus (GPa) = 31.32265 50.78999 41.05632
# Shear Modulus (GPa) = 22.69031 30.78995 26.74013
#
# Velocity S-wave (km/s) = 3.17811 3.70215 3.45009
# Velocity P-wave (km/s) = 5.23548 6.39400 5.84352
#
# Compressibility (1/GPa) = 0.03192578
#
# Stress axis : x y z
#
# Youngs Moduli (GPa) = 92.45020 59.77292 44.13870
#
# Poissons Ratio (x) = -0.02194 0.02935
# Poissons Ratio (y) = -0.03394 0.39021
# Poissons Ratio (z) = 0.06147 0.52843
#
# Static dielectric constant tensor:
#      x y z
#    x 1.820460 0.000000 0.000720 
#    y 0.000000 1.861200 0.000000 
#    z 0.000720 0.000000 1.811770 
# 
# From -- ./inp_files/43071.got.cif
#   From: 2010.05.17/outbox.cif.g08.bks.cpg/sg5_22_cif.got.tgz:43071.got - 2010.06.03 18:56:24.
