data_PCOD9123809
_publ_section_title
;
Structure prediction by ZEFSAII (Michael W. Deem and Ramdas Pophale) SiO2 
 PCOD9123809
Probable space group: C 2
;
_chemical_formula_sum "Si O2"
_cell_formula_units_Z 28
_cell_length_a 27.730689
_cell_length_b 7.740516
_cell_length_c 8.761013
_cell_angle_alpha 90.000000
_cell_angle_beta 46.757776
_cell_angle_gamma 90.000000
_cell_volume 1369.912929
_symmetry_space_group_name_H-M "C 2"
_symmetry_group_IT_number 5
_symmetry_cell_setting 'monoclinic'
loop_
_space_group_symop_operation_xyz
x,y,z
-x,y,-z
1/2+x,1/2+y,z
1/2-x,1/2+y,-z
loop_
_atom_site_type_symbol
_atom_site_label
_atom_site_fract_x
_atom_site_fract_y
_atom_site_fract_z
Si Si1 0.016490 0.373340 0.728374
Si Si2 0.110695 0.895127 0.239794
Si Si3 0.254166 0.760117 0.378179
Si Si4 0.232247 0.864207 0.752561
Si Si5 0.828966 0.060706 0.590174
Si Si6 0.000000 0.135920 0.500000
Si Si7 0.500000 0.126496 0.500000
Si Si8 0.101594 0.273384 0.799326
O O1 0.990164 0.529754 0.683322
O O2 0.075178 0.402732 0.722634
O O3 0.037289 0.249266 0.544398
O O4 0.957913 0.282221 0.951121
O O5 0.067695 0.730244 0.377766
O O6 0.139129 0.987832 0.326976
O O7 0.053854 0.020770 0.297488
O O8 0.169106 0.859881 0.997230
O O9 0.250537 0.566497 0.317359
O O10 0.330357 0.804137 0.257706
O O11 0.218237 0.774191 0.619997
O O12 0.222488 0.911737 0.347929
O O13 0.290372 0.743189 0.694678
O O14 0.880871 0.102565 0.339811
#
# Coordination Sequence:
#
# PCOD9123809 Si02
#       8
#     4   4   4   4   4   2   2   4
#     4  10  21  42  73  96 127 178 225 285 342 392
#     4  11  25  44  63  97 138 177 229 275 347 400
#     4  11  23  43  66 104 140 176 229 277 335 413
#     4  11  24  43  68  99 138 181 223 279 343 402
#     4  11  25  44  65 104 140 179 224 284 329 423
#     4  10  20  40  64  90 132 172 220 280 324 402
#     4  10  26  46  68 102 134 176 232 300 328 412
#     4  10  21  41  70  98 131 176 226 275 343 397
#
# _framework density 20.439256
#
# number of rings (size 3 to 8) (size 9 to 14) (size 15 to 20)
#    0.000    1.429    4.286    0.857    4.000    2.286 
#    0.000    0.000    0.000    0.000    0.000    0.000 
#    0.000    0.000    0.000    0.000    0.000    0.000 
#
# Total GULP energy -77960.913852 kJ/mol
# GULP energy per Si atom -5568.636704 kJ/mol
# Density = 2.039274 g / cm^3
# Si number density = 20.439256 Si / 1000 Ang^3
#
#
#
# Elastic Constant Matrix: (Units=GPa)
#
#
# Indices 1 2 3 4 5 6 
#
# 1 112.9866 51.0572 25.4772 0.0000 -5.1109 0.0000
# 2 51.0572 94.5431 53.6177 0.0000 -11.3839 0.0000
# 3 25.4772 53.6177 139.2250 0.0000 -9.6537 0.0000
# 4 0.0000 0.0000 0.0000 16.0429 0.0000 10.9267
# 5 -5.1109 -11.3839 -9.6537 0.0000 15.2100 0.0000
# 6 0.0000 0.0000 0.0000 10.9267 0.0000 40.6857
#
#
#
# Elastic Compliance Matrix: (Units=1/GPa)
#
#
# Indices 1 2 3 4 5 6 
#
# 1 0.011732 -0.006631 0.000352 0.000000 -0.000798 0.000000
# 2 -0.006631 0.018064 -0.005189 0.000000 0.007999 0.000000
# 3 0.000352 -0.005189 0.009263 0.000000 0.002114 0.000000
# 4 0.000000 0.000000 0.000000 0.076287 0.000000 -0.020488
# 5 -0.000798 0.007999 0.002114 0.000000 0.072807 0.000000
# 6 0.000000 0.000000 0.000000 -0.020488 0.000000 0.030081
#
#
# Mechanical properties :
#
#
# Convention : Reuss Voigt Hill
#
# Bulk Modulus (GPa) = 62.02509 67.45097 64.73803
# Shear Modulus (GPa) = 20.28037 28.82789 24.55413
#
# Velocity S-wave (km/s) = 3.15338 3.75963 3.46977
# Velocity P-wave (km/s) = 6.60835 7.20547 6.91336
#
# Compressibility (1/GPa) = 0.01612251
#
# Stress axis : x y z
#
# Youngs Moduli (GPa) = 85.23884 55.35881 107.95541
#
# Poissons Ratio (x) = 0.36709 -0.03796
# Poissons Ratio (y) = 0.56523 0.56014
# Poissons Ratio (z) = -0.02997 0.28724
#
# Static dielectric constant tensor:
#      x y z
#    x 1.786090 0.000000 -0.006990 
#    y 0.000000 1.782350 0.000000 
#    z -0.006990 0.000000 1.733390 
# 
# From -- ./inp_files/32511.got.cif
#   From: 2010.05.17/outbox.cif.g08.bks.cpg/sg5_17_cif.got.tgz:32511.got - 2010.06.03 18:56:24.
