data_PCOD9123801
_publ_section_title
;
Structure prediction by ZEFSAII (Michael W. Deem and Ramdas Pophale) SiO2 
 PCOD9123801
Probable space group: C 2
;
_chemical_formula_sum "Si O2"
_cell_formula_units_Z 18
_cell_length_a 8.920234
_cell_length_b 15.569601
_cell_length_c 7.177791
_cell_angle_alpha 90.000000
_cell_angle_beta 126.012705
_cell_angle_gamma 90.000000
_cell_volume 806.365985
_symmetry_space_group_name_H-M "C 2"
_symmetry_group_IT_number 5
_symmetry_cell_setting 'monoclinic'
loop_
_space_group_symop_operation_xyz
x,y,z
-x,y,-z
1/2+x,1/2+y,z
1/2-x,1/2+y,-z
loop_
_atom_site_type_symbol
_atom_site_label
_atom_site_fract_x
_atom_site_fract_y
_atom_site_fract_z
Si Si1 0.660989 0.908600 0.360760
Si Si2 0.246837 0.929866 0.006237
Si Si3 0.441923 0.544148 0.678049
Si Si4 0.000000 0.778732 0.000000
Si Si5 0.685865 0.719521 0.512040
O O1 0.708262 0.925790 0.180599
O O2 0.697921 0.808556 0.413774
O O3 0.797786 0.965893 0.583958
O O4 0.447774 0.929922 0.245511
O O5 0.133895 0.844854 0.985332
O O6 0.120321 0.015152 0.926347
O O7 0.500000 0.547734 0.500000
O O8 0.345250 0.635617 0.636798
O O9 0.132599 0.719777 0.224463
O O10 0.500000 0.727089 0.500000
#
# Coordination Sequence:
#
# PCOD9123801 Si02
#       5
#     4   4   4   2   4
#     4  10  20  40  64  86 123 165 201 251 306 365
#     4  10  21  38  64  87 120 160 205 247 309 357
#     4   9  20  37  60  89 122 158 202 245 306 361
#     4  12  22  36  66  92 118 164 206 250 302 360
#     4  11  22  37  64  93 127 157 206 254 303 360
#
# _framework density 22.322371
#
# number of rings (size 3 to 8) (size 9 to 14) (size 15 to 20)
#    0.000    1.778    4.444    0.000    0.000    5.333 
#    0.000    2.222    9.778    0.000    0.000    0.000 
#    0.000    0.000    0.000    0.000    0.000    0.000 
#
# Total GULP energy -50289.353749 kJ/mol
# GULP energy per Si atom -5587.705972 kJ/mol
# Density = 2.227156 g / cm^3
# Si number density = 22.322371 Si / 1000 Ang^3
#
#
#
# Elastic Constant Matrix: (Units=GPa)
#
#
# Indices 1 2 3 4 5 6 
#
# 1 78.9498 10.9424 15.8515 0.0000 14.0139 0.0000
# 2 10.9424 173.9726 55.5848 0.0000 25.3749 0.0000
# 3 15.8515 55.5848 127.4153 0.0000 38.6402 0.0000
# 4 0.0000 0.0000 0.0000 34.0773 0.0000 4.5200
# 5 14.0139 25.3749 38.6402 0.0000 34.6607 0.0000
# 6 0.0000 0.0000 0.0000 4.5200 0.0000 8.6116
#
#
#
# Elastic Compliance Matrix: (Units=1/GPa)
#
#
# Indices 1 2 3 4 5 6 
#
# 1 0.013646 -0.000057 -0.000019 0.000000 -0.005455 0.000000
# 2 -0.000057 0.006823 -0.002208 0.000000 -0.002511 0.000000
# 3 -0.000019 -0.002208 0.012572 0.000000 -0.012391 0.000000
# 4 0.000000 0.000000 0.000000 0.031541 0.000000 -0.016555
# 5 -0.005455 -0.002511 -0.012391 0.000000 0.046708 0.000000
# 6 0.000000 0.000000 0.000000 -0.016555 0.000000 0.124812
#
#
# Mechanical properties :
#
#
# Convention : Reuss Voigt Hill
#
# Bulk Modulus (GPa) = 35.11968 60.56610 47.84289
# Shear Modulus (GPa) = 19.98715 35.33385 27.66050
#
# Velocity S-wave (km/s) = 2.99555 3.98287 3.52396
# Velocity P-wave (km/s) = 5.26607 6.95287 6.16741
#
# Compressibility (1/GPa) = 0.02847406
#
# Stress axis : x y z
#
# Youngs Moduli (GPa) = 73.28060 146.55607 79.54366
#
# Poissons Ratio (x) = 0.00831 0.00148
# Poissons Ratio (y) = 0.00415 0.17565
# Poissons Ratio (z) = 0.00137 0.32363
#
# Static dielectric constant tensor:
#      x y z
#    x 1.859050 0.000000 -0.022670 
#    y 0.000000 1.812610 0.000000 
#    z -0.022670 0.000000 1.844090 
# 
# From -- ./inp_files/15518.got.cif
#   From: 2010.05.17/outbox.cif.g08.bks.cpg/sg5_8_cif.got.tgz:15518.got - 2010.06.03 18:56:24.
