data_PCOD9123000
_publ_section_title
;
Structure prediction by ZEFSAII (Michael W. Deem and Ramdas Pophale) SiO2 
 PCOD9123000
Probable space group: C 2
;
_chemical_formula_sum "Si O2"
_cell_formula_units_Z 32
_cell_length_a 27.858983
_cell_length_b 9.171011
_cell_length_c 9.160797
_cell_angle_alpha 90.000000
_cell_angle_beta 48.690999
_cell_angle_gamma 90.000000
_cell_volume 1758.119698
_symmetry_space_group_name_H-M "C 2"
_symmetry_group_IT_number 5
_symmetry_cell_setting 'monoclinic'
loop_
_space_group_symop_operation_xyz
x,y,z
-x,y,-z
1/2+x,1/2+y,z
1/2-x,1/2+y,-z
loop_
_atom_site_type_symbol
_atom_site_label
_atom_site_fract_x
_atom_site_fract_y
_atom_site_fract_z
Si Si1 0.236813 0.211880 0.865982
Si Si2 0.875953 0.370947 0.070096
Si Si3 0.377667 0.181799 0.910743
Si Si4 0.375726 0.878018 0.419792
Si Si5 0.998218 0.189993 0.178646
Si Si6 0.499177 0.379967 0.676591
Si Si7 0.119643 0.686823 0.445646
Si Si8 0.248024 0.864907 0.855601
O O1 0.181478 0.270639 0.873388
O O2 0.308536 0.237748 0.661439
O O3 0.233377 0.037482 0.897483
O O4 0.232491 0.298686 0.026933
O O5 0.871930 0.383807 0.252775
O O6 0.872679 0.528461 0.001512
O O7 0.943586 0.296289 0.896655
O O8 0.440784 0.271219 0.827991
O O9 0.380454 0.159032 0.729341
O O10 0.315219 0.279284 0.065589
O O11 0.430407 0.763000 0.353401
O O12 0.307139 0.843538 0.627863
O O13 0.394309 0.036548 0.444497
O O14 0.007719 0.034803 0.233845
O O15 0.000000 0.173172 0.000000
O O16 0.500000 0.399788 0.500000
O O17 0.565715 0.304627 0.586606
#
# Coordination Sequence:
#
# PCOD9123000 Si02
#       8
#     4   4   4   4   4   4   4   4
#     4  10  20  37  57  82 114 144 179 226 274 324
#     4  11  22  37  57  80 111 148 186 224 268 327
#     4  10  21  37  59  84 111 144 182 227 277 323
#     4  10  22  38  56  80 110 148 186 222 271 328
#     4  10  23  39  54  79 114 147 180 226 279 324
#     4  10  21  37  60  86 108 139 187 231 270 325
#     4   9  20  38  57  82 111 141 180 227 275 325
#     4  10  21  37  58  83 113 145 180 225 278 324
#
# _framework density 18.201263999999998
#
# number of rings (size 3 to 8) (size 9 to 14) (size 15 to 20)
#    0.000    2.000    0.000    3.750    0.000    9.000 
#    0.000    2.500    0.000    0.000    0.000    0.000 
#    0.000    0.000    0.000    0.000    0.000    0.000 
#
# Total GULP energy -89361.821460 kJ/mol
# GULP energy per Si atom -5585.113841 kJ/mol
# Density = 1.815984 g / cm^3
# Si number density = 18.201264 Si / 1000 Ang^3
#
#
#
# Elastic Constant Matrix: (Units=GPa)
#
#
# Indices 1 2 3 4 5 6 
#
# 1 101.9423 75.8082 40.7119 0.0000 -22.9657 0.0000
# 2 75.8082 145.5302 69.1754 0.0000 -17.0881 0.0000
# 3 40.7119 69.1754 73.7703 0.0000 -17.6505 0.0000
# 4 0.0000 0.0000 0.0000 29.9322 0.0000 -4.2136
# 5 -22.9657 -17.0881 -17.6505 0.0000 14.4867 0.0000
# 6 0.0000 0.0000 0.0000 -4.2136 0.0000 30.5927
#
#
#
# Elastic Compliance Matrix: (Units=1/GPa)
#
#
# Indices 1 2 3 4 5 6 
#
# 1 0.021973 -0.010066 0.003961 0.000000 0.027786 0.000000
# 2 -0.010066 0.017013 -0.013288 0.000000 -0.012080 0.000000
# 3 0.003961 -0.013288 0.030463 0.000000 0.027720 0.000000
# 4 0.000000 0.000000 0.000000 0.034069 0.000000 0.004692
# 5 0.027786 -0.012080 0.027720 0.000000 0.132602 0.000000
# 6 0.000000 0.000000 0.000000 0.004692 0.000000 0.033334
#
#
# Mechanical properties :
#
#
# Convention : Reuss Voigt Hill
#
# Bulk Modulus (GPa) = 32.61415 76.95932 54.78673
# Shear Modulus (GPa) = 15.70049 24.03881 19.86965
#
# Velocity S-wave (km/s) = 2.94020 3.63812 3.30762
# Velocity P-wave (km/s) = 5.42991 7.74739 6.68977
#
# Compressibility (1/GPa) = 0.03066154
#
# Stress axis : x y z
#
# Youngs Moduli (GPa) = 45.51102 58.77893 32.82689
#
# Poissons Ratio (x) = 0.59167 -0.13003
# Poissons Ratio (y) = 0.45811 0.43622
# Poissons Ratio (z) = -0.18027 0.78108
#
# Static dielectric constant tensor:
#      x y z
#    x 1.618070 0.000000 -0.011160 
#    y 0.000000 1.587630 0.000000 
#    z -0.011160 0.000000 1.610600 
# 
# From -- ./inp_files/31648.got.cif
#   From: 2010.05.17/outbox.cif.g08.bks.cpg/sg5_16_cif.got.tgz:31648.got - 2010.06.03 18:56:24.
