data_PCOD9123951
_publ_section_title
;
Structure prediction by ZEFSAII (Michael W. Deem and Ramdas Pophale) SiO2 
 PCOD9123951
Probable space group: C 2
;
_chemical_formula_sum "Si O2"
_cell_formula_units_Z 26
_cell_length_a 15.272880
_cell_length_b 13.283780
_cell_length_c 10.079759
_cell_angle_alpha 90.000000
_cell_angle_beta 35.295644
_cell_angle_gamma 90.000000
_cell_volume 1181.590454
_symmetry_space_group_name_H-M "C 2"
_symmetry_group_IT_number 5
_symmetry_cell_setting 'monoclinic'
loop_
_space_group_symop_operation_xyz
x,y,z
-x,y,-z
1/2+x,1/2+y,z
1/2-x,1/2+y,-z
loop_
_atom_site_type_symbol
_atom_site_label
_atom_site_fract_x
_atom_site_fract_y
_atom_site_fract_z
Si Si1 0.903802 0.800400 0.854268
Si Si2 0.118608 0.595522 0.234524
Si Si3 0.554627 0.516336 0.082248
Si Si4 0.000000 0.234041 0.500000
Si Si5 0.000000 0.897124 0.500000
Si Si6 0.816232 0.059247 0.618391
Si Si7 0.000000 0.461540 0.000000
Si Si8 0.083478 0.374180 0.165373
O O1 0.904614 0.679775 0.852117
O O2 0.029845 0.831455 0.591205
O O3 0.913839 0.893518 0.946049
O O4 0.748610 0.824478 0.968494
O O5 0.080222 0.486387 0.226130
O O6 0.000000 0.617607 0.500000
O O7 0.292082 0.579025 0.072262
O O8 0.427976 0.544460 0.351975
O O9 0.500000 0.537364 0.000000
O O10 0.859162 0.161348 0.640983
O O11 0.001809 0.304211 0.625427
O O12 0.862422 0.975745 0.671094
O O13 0.644983 0.033208 0.797089
O O14 0.979831 0.387207 0.901393
#
# Coordination Sequence:
#
# PCOD9123951 Si02
#       8
#     4   4   4   2   2   4   2   4
#     4  10  20  40  71  95 133 187 230 273 358 427
#     4  11  23  43  73 102 134 188 243 286 350 431
#     4  10  24  45  70 106 149 184 233 302 360 412
#     4  11  24  49  76  94 140 203 236 273 378 438
#     4   9  16  39  64  96 126 183 222 269 348 424
#     4  10  23  44  72 101 141 188 236 290 357 426
#     4  12  26  44  72 108 146 174 244 316 342 400
#     4  11  25  44  69 104 143 182 239 298 353 422
#
# _framework density 22.004238999999998
#
# number of rings (size 3 to 8) (size 9 to 14) (size 15 to 20)
#    0.000    1.538    3.077    0.923    6.462    0.000 
#    6.923    3.077    0.000    0.000    0.000    0.000 
#    0.000    0.000    0.000    0.000    0.000    0.000 
#
# Total GULP energy -72397.892788 kJ/mol
# GULP energy per Si atom -5569.068676 kJ/mol
# Density = 2.195416 g / cm^3
# Si number density = 22.004239 Si / 1000 Ang^3
#
#
#
# Elastic Constant Matrix: (Units=GPa)
#
#
# Indices 1 2 3 4 5 6 
#
# 1 102.2092 14.5100 32.6526 0.0000 6.5082 0.0000
# 2 14.5100 135.1746 24.9179 0.0000 0.7527 0.0000
# 3 32.6526 24.9179 114.6719 0.0000 -1.7857 0.0000
# 4 0.0000 0.0000 0.0000 1.5857 0.0000 -1.1491
# 5 6.5082 0.7527 -1.7857 0.0000 33.9631 0.0000
# 6 0.0000 0.0000 0.0000 -1.1491 0.0000 7.4704
#
#
#
# Elastic Compliance Matrix: (Units=1/GPa)
#
#
# Indices 1 2 3 4 5 6 
#
# 1 0.010981 -0.000608 -0.003030 0.000000 -0.002250 0.000000
# 2 -0.000608 0.007742 -0.001511 0.000000 -0.000135 0.000000
# 3 -0.003030 -0.001511 0.009929 0.000000 0.001136 0.000000
# 4 0.000000 0.000000 0.000000 0.709740 0.000000 0.109175
# 5 -0.002250 -0.000135 0.001136 0.000000 0.029938 0.000000
# 6 0.000000 0.000000 0.000000 0.109175 0.000000 0.150656
#
#
# Mechanical properties :
#
#
# Convention : Reuss Voigt Hill
#
# Bulk Modulus (GPa) = 54.48086 55.13518 54.80802
# Shear Modulus (GPa) = 5.34529 27.26885 16.30707
#
# Velocity S-wave (km/s) = 1.56028 3.52412 2.72525
# Velocity P-wave (km/s) = 5.29707 6.45525 5.90463
#
# Compressibility (1/GPa) = 0.01835507
#
# Stress axis : x y z
#
# Youngs Moduli (GPa) = 91.06334 129.15816 100.71076
#
# Poissons Ratio (x) = 0.07849 0.30514
# Poissons Ratio (y) = 0.05534 0.15222
# Poissons Ratio (z) = 0.27591 0.19522
#
# Static dielectric constant tensor:
#      x y z
#    x 1.818630 0.000000 0.038830 
#    y 0.000000 1.853700 0.000000 
#    z 0.038830 0.000000 2.347470 
# 
# From -- ./inp_files/44671.got.cif
#   From: 2010.05.17/outbox.cif.g08.bks.cpg/sg5_23_cif.got.tgz:44671.got - 2010.06.03 18:56:24.
