data_PCOD9123220
_publ_section_title
;
Structure prediction by ZEFSAII (Michael W. Deem and Ramdas Pophale) SiO2 
 PCOD9123220
Probable space group: C 2
;
_chemical_formula_sum "Si O2"
_cell_formula_units_Z 30
_cell_length_a 15.253735
_cell_length_b 12.865824
_cell_length_c 9.764714
_cell_angle_alpha 90.000000
_cell_angle_beta 141.654942
_cell_angle_gamma 90.000000
_cell_volume 1188.891761
_symmetry_space_group_name_H-M "C 2"
_symmetry_group_IT_number 5
_symmetry_cell_setting 'monoclinic'
loop_
_space_group_symop_operation_xyz
x,y,z
-x,y,-z
1/2+x,1/2+y,z
1/2-x,1/2+y,-z
loop_
_atom_site_type_symbol
_atom_site_label
_atom_site_fract_x
_atom_site_fract_y
_atom_site_fract_z
Si Si1 0.615917 0.730470 0.256274
Si Si2 0.693220 0.441243 0.761396
Si Si3 0.627154 0.235231 0.964127
Si Si4 0.500000 0.397750 0.000000
Si Si5 0.025849 0.509592 0.880409
Si Si6 0.610282 0.219689 0.544871
Si Si7 0.427219 0.649174 0.270345
Si Si8 0.235015 0.949255 0.494850
O O1 0.742295 0.675813 0.326382
O O2 0.533460 0.673242 0.276896
O O3 0.699360 0.831852 0.415432
O O4 0.500000 0.754170 0.000000
O O5 0.645692 0.323588 0.677042
O O6 0.391653 0.526223 0.253979
O O7 0.701850 0.480161 0.612805
O O8 0.847281 0.440849 0.020744
O O9 0.613382 0.325259 0.058394
O O10 0.777827 0.211510 0.078026
O O11 0.591056 0.122749 0.981255
O O12 0.489075 0.254235 0.701814
O O13 0.599152 0.456347 0.231161
O O14 0.876721 0.510574 0.624501
O O15 0.000000 0.467954 0.000000
O O16 0.500000 0.152632 0.500000
O O17 0.500000 0.685283 0.500000
#
# Coordination Sequence:
#
# PCOD9123220 Si02
#       8
#     4   4   4   2   4   4   4   4
#     4  11  22  41  67 107 149 193 251 316 374 445
#     4   9  19  38  65 101 136 186 251 303 363 441
#     4  11  22  38  66 101 140 185 251 305 370 437
#     4  12  20  38  66 106 142 200 250 314 368 452
#     4   9  18  34  63  96 136 186 238 297 365 440
#     4  11  22  40  69 101 138 187 247 306 370 451
#     4  11  24  40  68 105 150 194 249 308 376 454
#     4  10  20  37  68 102 146 196 252 305 375 450
#
# _framework density 25.233585000000001
#
# number of rings (size 3 to 8) (size 9 to 14) (size 15 to 20)
#    0.000    1.600    3.333    4.000    0.000    0.000 
#    0.000    0.000    8.800    2.400    0.000    0.000 
#    0.000    0.000    0.000    0.000    0.000    0.000 
#
# Total GULP energy -83730.641216 kJ/mol
# GULP energy per Si atom -5582.042748 kJ/mol
# Density = 2.517615 g / cm^3
# Si number density = 25.233585 Si / 1000 Ang^3
#
#
#
# Elastic Constant Matrix: (Units=GPa)
#
#
# Indices 1 2 3 4 5 6 
#
# 1 188.0651 55.6644 62.8747 0.0000 38.8592 0.0000
# 2 55.6644 87.2731 46.0272 0.0000 6.8315 0.0000
# 3 62.8747 46.0272 187.5833 0.0000 23.0267 0.0000
# 4 0.0000 0.0000 0.0000 813.9953 0.0000 -37.4216
# 5 38.8592 6.8315 23.0267 0.0000 52.8820 0.0000
# 6 0.0000 0.0000 0.0000 -37.4216 0.0000 36.6440
#
#
#
# Elastic Compliance Matrix: (Units=1/GPa)
#
#
# Indices 1 2 3 4 5 6 
#
# 1 0.007870 -0.004093 -0.001044 0.000000 -0.004799 0.000000
# 2 -0.004093 0.015295 -0.002649 0.000000 0.002185 0.000000
# 3 -0.001044 -0.002649 0.006545 0.000000 -0.001740 0.000000
# 4 0.000000 0.000000 0.000000 0.001289 0.000000 0.001316
# 5 -0.004799 0.002185 -0.001740 0.000000 0.022912 0.000000
# 6 0.000000 0.000000 0.000000 0.001316 0.000000 0.028634
#
#
# Mechanical properties :
#
#
# Convention : Reuss Voigt Hill
#
# Bulk Modulus (GPa) = 70.74073 88.00600 79.37337
# Shear Modulus (GPa) = 48.62423 200.59461 124.60942
#
# Velocity S-wave (km/s) = 4.39448 8.92567 7.03488
# Velocity P-wave (km/s) = 7.33784 11.88174 9.87471
#
# Compressibility (1/GPa) = 0.01413613
#
# Stress axis : x y z
#
# Youngs Moduli (GPa) = 127.07205 65.38090 152.79595
#
# Poissons Ratio (x) = 0.26760 0.15957
# Poissons Ratio (y) = 0.52009 0.40480
# Poissons Ratio (z) = 0.13270 0.17321
#
# Static dielectric constant tensor:
#      x y z
#    x 1.510410 0.000000 0.799580 
#    y 0.000000 2.051610 0.000000 
#    z 0.799580 0.000000 1.017030 
# 
# From -- ./inp_files/44937.got.cif
#   From: 2010.05.17/outbox.cif.g08.bks.cpg/sg5_23_cif.got.tgz:44937.got - 2010.06.03 18:56:24.
