data_PCOD9123813
_publ_section_title
;
Structure prediction by ZEFSAII (Michael W. Deem and Ramdas Pophale) SiO2 
 PCOD9123813
Probable space group: C 2
;
_chemical_formula_sum "Si O2"
_cell_formula_units_Z 26
_cell_length_a 12.487400
_cell_length_b 20.260399
_cell_length_c 7.370337
_cell_angle_alpha 90.000000
_cell_angle_beta 38.027269
_cell_angle_gamma 90.000000
_cell_volume 1148.718910
_symmetry_space_group_name_H-M "C 2"
_symmetry_group_IT_number 5
_symmetry_cell_setting 'monoclinic'
loop_
_space_group_symop_operation_xyz
x,y,z
-x,y,-z
1/2+x,1/2+y,z
1/2-x,1/2+y,-z
loop_
_atom_site_type_symbol
_atom_site_label
_atom_site_fract_x
_atom_site_fract_y
_atom_site_fract_z
Si Si1 0.457016 0.736640 0.362563
Si Si2 0.810230 0.843560 0.312406
Si Si3 0.332939 0.977293 0.444440
Si Si4 0.697817 0.299794 0.259175
Si Si5 0.283757 0.944010 0.078098
Si Si6 0.849502 0.108092 0.348646
Si Si7 0.500000 0.541371 0.500000
O O1 0.500000 0.705926 0.500000
O O2 0.346146 0.801306 0.560895
O O3 0.337143 0.686475 0.404531
O O4 0.638103 0.755099 0.019857
O O5 0.789036 0.921504 0.304466
O O6 0.786524 0.824066 0.555019
O O7 0.000000 0.821318 0.000000
O O8 0.307614 0.959581 0.263332
O O9 0.295595 0.054954 0.517998
O O10 0.526348 0.959334 0.247327
O O11 0.500000 0.273586 0.500000
O O12 0.720527 0.369911 0.125336
O O13 0.136751 0.994422 0.214994
O O14 0.906653 0.081185 0.467945
O O15 0.000000 0.101336 0.000000
#
# Coordination Sequence:
#
# PCOD9123813 Si02
#       7
#     4   4   4   4   4   4   2
#     4  12  25  45  66  96 138 182 227 283 339 409
#     4  11  22  40  65  99 134 171 224 281 339 403
#     4   9  19  37  63  96 129 172 219 277 334 398
#     4  11  21  39  67  98 133 175 224 277 342 402
#     4   9  17  35  64  94 128 168 218 277 337 388
#     4  11  23  43  65  91 134 177 221 272 338 402
#     4  10  20  40  64  92 128 172 222 276 328 406
#
# _framework density 22.633908999999999
#
# number of rings (size 3 to 8) (size 9 to 14) (size 15 to 20)
#    0.000    1.538    3.077    2.769    0.000    0.000 
#    8.308    2.308    0.000    0.000    0.000    0.000 
#    0.000    0.000    0.000    0.000    0.000    0.000 
#
# Total GULP energy -72529.093281 kJ/mol
# GULP energy per Si atom -5579.161022 kJ/mol
# Density = 2.258239 g / cm^3
# Si number density = 22.633909 Si / 1000 Ang^3
#
#
#
# Elastic Constant Matrix: (Units=GPa)
#
#
# Indices 1 2 3 4 5 6 
#
# 1 26.6998 16.6612 16.0127 0.0000 -5.1978 0.0000
# 2 16.6612 122.1353 47.2218 0.0000 -11.3723 0.0000
# 3 16.0127 47.2218 118.1367 0.0000 -15.6331 0.0000
# 4 0.0000 0.0000 0.0000 20.6266 0.0000 13.2822
# 5 -5.1978 -11.3723 -15.6331 0.0000 42.3634 0.0000
# 6 0.0000 0.0000 0.0000 13.2822 0.0000 -17.3480
#
#
#
# Elastic Compliance Matrix: (Units=1/GPa)
#
#
# Indices 1 2 3 4 5 6 
#
# 1 0.042836 -0.004120 -0.003795 0.000000 0.002749 0.000000
# 2 -0.004120 0.010142 -0.003367 0.000000 0.000975 0.000000
# 3 -0.003795 -0.003367 0.010664 0.000000 0.002566 0.000000
# 4 0.000000 0.000000 0.000000 0.032472 0.000000 0.024862
# 5 0.002749 0.000975 0.002566 0.000000 0.025151 0.000000
# 6 0.000000 0.000000 0.000000 0.024862 0.000000 -0.038609
#
#
# Mechanical properties :
#
#
# Convention : Reuss Voigt Hill
#
# Bulk Modulus (GPa) = 24.34377 47.41815 35.88096
# Shear Modulus (GPa) = 42.04727 21.60014 31.82370
#
# Velocity S-wave (km/s) = 4.31479 3.09257 3.75376
# Velocity P-wave (km/s) = 5.96675 5.80926 5.88853
#
# Compressibility (1/GPa) = 0.04107826
#
# Stress axis : x y z
#
# Youngs Moduli (GPa) = 23.34489 98.59910 93.76923
#
# Poissons Ratio (x) = 0.40624 0.35590
# Poissons Ratio (y) = 0.09618 0.31568
# Poissons Ratio (z) = 0.08860 0.33194
#
# Static dielectric constant tensor:
#      x y z
#    x 1.962000 0.000000 0.039420 
#    y 0.000000 1.882220 0.000000 
#    z 0.039420 0.000000 1.870130 
# 
# From -- ./inp_files/25390.got.cif
#   From: 2010.05.17/outbox.cif.g08.bks.cpg/sg5_13_cif.got.tgz:25390.got - 2010.06.03 18:56:24.
