data_PCOD9123025
_publ_section_title
;
Structure prediction by ZEFSAII (Michael W. Deem and Ramdas Pophale) SiO2 
 PCOD9123025
Probable space group: C 2
;
_chemical_formula_sum "Si O2"
_cell_formula_units_Z 28
_cell_length_a 12.907373
_cell_length_b 13.238450
_cell_length_c 8.710615
_cell_angle_alpha 90.000000
_cell_angle_beta 104.219676
_cell_angle_gamma 90.000000
_cell_volume 1442.810801
_symmetry_space_group_name_H-M "C 2"
_symmetry_group_IT_number 5
_symmetry_cell_setting 'monoclinic'
loop_
_space_group_symop_operation_xyz
x,y,z
-x,y,-z
1/2+x,1/2+y,z
1/2-x,1/2+y,-z
loop_
_atom_site_type_symbol
_atom_site_label
_atom_site_fract_x
_atom_site_fract_y
_atom_site_fract_z
Si Si1 0.322135 0.505980 0.554296
Si Si2 0.110320 0.581235 0.611077
Si Si3 0.114381 0.648052 0.955835
Si Si4 0.712206 0.654218 0.740536
Si Si5 0.136144 0.780686 0.412289
Si Si6 0.973846 0.072768 0.169553
Si Si7 0.061747 0.852469 0.861969
O O1 0.212176 0.514715 0.606787
O O2 0.311269 0.577847 0.405638
O O3 0.338873 0.390345 0.511409
O O4 0.418621 0.547404 0.696026
O O5 0.104066 0.592414 0.791054
O O6 0.127595 0.690087 0.531301
O O7 0.000000 0.541390 0.500000
O O8 0.145677 0.764335 0.924413
O O9 0.203144 0.611230 0.105776
O O10 0.000000 0.648248 0.000000
O O11 0.775069 0.746834 0.681193
O O12 0.598943 0.661539 0.786696
O O13 0.023666 0.801672 0.285255
O O14 0.908478 0.966574 0.166512
O O15 0.000000 0.090206 0.000000
O O16 0.000000 0.866646 0.000000
#
# Coordination Sequence:
#
# PCOD9123025 Si02
#       7
#     4   4   4   4   4   4   4
#     4  10  23  39  56  89 119 156 198 246 290 349
#     4  11  21  36  61  88 115 155 198 244 295 346
#     4  11  19  35  57  88 118 149 192 245 295 342
#     4  11  21  36  60  88 118 161 189 245 298 349
#     4  10  20  37  59  87 118 150 199 242 293 341
#     4  10  21  36  58  89 119 152 200 242 295 344
#     4   9  16  32  57  86 117 146 191 249 282 332
#
# _framework density 19.406563999999999
#
# number of rings (size 3 to 8) (size 9 to 14) (size 15 to 20)
#    0.000    1.714    4.286    2.143    2.000    0.000 
#    0.000    2.857    0.000    0.857    0.000    0.000 
#    0.000    0.000    0.000    0.000    0.000    0.000 
#
# Total GULP energy -78046.763020 kJ/mol
# GULP energy per Si atom -5574.768787 kJ/mol
# Density = 1.936239 g / cm^3
# Si number density = 19.406564 Si / 1000 Ang^3
#
#
#
# Elastic Constant Matrix: (Units=GPa)
#
#
# Indices 1 2 3 4 5 6 
#
# 1 90.6724 6.3945 19.5184 0.0000 2.3500 0.0000
# 2 6.3945 29.3344 7.5307 0.0000 5.3357 0.0000
# 3 19.5184 7.5307 109.9734 0.0000 5.2141 0.0000
# 4 0.0000 0.0000 0.0000 17.7371 0.0000 2.6002
# 5 2.3500 5.3357 5.2141 0.0000 34.0439 0.0000
# 6 0.0000 0.0000 0.0000 2.6002 0.0000 21.2739
#
#
#
# Elastic Compliance Matrix: (Units=1/GPa)
#
#
# Indices 1 2 3 4 5 6 
#
# 1 0.011586 -0.002000 -0.001910 0.000000 -0.000194 0.000000
# 2 -0.002000 0.035951 -0.001860 0.000000 -0.005212 0.000000
# 3 -0.001910 -0.001860 0.009609 0.000000 -0.001048 0.000000
# 4 0.000000 0.000000 0.000000 0.057408 0.000000 -0.007017
# 5 -0.000194 -0.005212 -0.001048 0.000000 0.030365 0.000000
# 6 0.000000 0.000000 0.000000 -0.007017 0.000000 0.047864
#
#
# Mechanical properties :
#
#
# Convention : Reuss Voigt Hill
#
# Bulk Modulus (GPa) = 21.92680 32.98528 27.45604
# Shear Modulus (GPa) = 22.77657 27.71343 25.24500
#
# Velocity S-wave (km/s) = 3.42958 3.78305 3.61064
# Velocity P-wave (km/s) = 5.19672 6.00964 5.61790
#
# Compressibility (1/GPa) = 0.04560629
#
# Stress axis : x y z
#
# Youngs Moduli (GPa) = 86.31126 27.81566 104.06707
#
# Poissons Ratio (x) = 0.05563 0.19879
# Poissons Ratio (y) = 0.17262 0.19354
# Poissons Ratio (z) = 0.16487 0.05173
#
# Static dielectric constant tensor:
#      x y z
#    x 1.723390 0.000000 -0.031850 
#    y 0.000000 1.710010 0.000000 
#    z -0.031850 0.000000 1.699400 
# 
# From -- ./inp_files/20347.got.cif
#   From: 2010.05.17/outbox.cif.g08.bks.cpg/sg5_11_cif.got.tgz:20347.got - 2010.06.03 18:56:24.
