data_PCOD9123792
_publ_section_title
;
Structure prediction by ZEFSAII (Michael W. Deem and Ramdas Pophale) SiO2 
 PCOD9123792
Probable space group: C 2
;
_chemical_formula_sum "Si O2"
_cell_formula_units_Z 26
_cell_length_a 6.393375
_cell_length_b 19.083126
_cell_length_c 11.366489
_cell_angle_alpha 90.000000
_cell_angle_beta 62.057681
_cell_angle_gamma 90.000000
_cell_volume 1225.104536
_symmetry_space_group_name_H-M "C 2"
_symmetry_group_IT_number 5
_symmetry_cell_setting 'monoclinic'
loop_
_space_group_symop_operation_xyz
x,y,z
-x,y,-z
1/2+x,1/2+y,z
1/2-x,1/2+y,-z
loop_
_atom_site_type_symbol
_atom_site_label
_atom_site_fract_x
_atom_site_fract_y
_atom_site_fract_z
Si Si1 0.500000 0.955180 0.500000
Si Si2 0.730483 0.538833 0.369392
Si Si3 0.004677 0.922470 0.261638
Si Si4 0.174708 0.275540 0.168544
Si Si5 0.500000 0.681834 0.000000
Si Si6 0.014299 0.671846 0.219420
Si Si7 0.000000 0.898406 0.000000
Si Si8 0.833051 0.789389 0.651640
O O1 0.733950 0.918019 0.382938
O O2 0.401067 0.001749 0.418694
O O3 0.500000 0.563651 0.500000
O O4 0.639687 0.481594 0.300257
O O5 0.850718 0.605841 0.281947
O O6 0.126767 0.848065 0.258704
O O7 0.025777 0.937942 0.117088
O O8 0.377462 0.229301 0.176383
O O9 0.943525 0.288817 0.309443
O O10 0.282734 0.346309 0.087821
O O11 0.069729 0.230980 0.089710
O O12 0.741298 0.644382 0.901484
O O13 0.083516 0.714611 0.319057
O O14 0.000000 0.809447 0.500000
#
# Coordination Sequence:
#
# PCOD9123792 Si02
#       8
#     2   4   4   4   2   4   2   4
#     4  10  24  50  72  92 140 190 226 296 350 410
#     4  10  25  45  70  98 140 184 233 284 356 424
#     4  11  25  45  69 104 138 187 237 289 348 423
#     4  11  22  42  66  99 143 179 220 292 353 400
#     4  10  20  40  63  96 137 178 230 270 350 412
#     4  11  23  41  68 102 137 184 220 294 347 417
#     4  12  22  44  73  98 137 190 226 294 354 406
#     4  11  25  38  69 109 136 172 242 289 342 423
#
# _framework density 21.222677000000001
#
# number of rings (size 3 to 8) (size 9 to 14) (size 15 to 20)
#    0.000    1.231    3.077    2.308    7.538    3.692 
#    0.000    4.615    0.000    0.000    0.000    0.000 
#    0.000    0.000    0.000    0.000    0.000    0.000 
#
# Total GULP energy -72635.465698 kJ/mol
# GULP energy per Si atom -5587.343515 kJ/mol
# Density = 2.117437 g / cm^3
# Si number density = 21.222677 Si / 1000 Ang^3
#
#
#
# Elastic Constant Matrix: (Units=GPa)
#
#
# Indices 1 2 3 4 5 6 
#
# 1 114.4024 35.6198 55.5100 0.0000 -11.7065 0.0000
# 2 35.6198 74.4934 35.3726 0.0000 -12.6555 0.0000
# 3 55.5100 35.3726 114.7121 0.0000 -1.5343 0.0000
# 4 0.0000 0.0000 0.0000 8.7337 0.0000 -10.8122
# 5 -11.7065 -12.6555 -1.5343 0.0000 41.5220 0.0000
# 6 0.0000 0.0000 0.0000 -10.8122 0.0000 12.3247
#
#
#
# Elastic Compliance Matrix: (Units=1/GPa)
#
#
# Indices 1 2 3 4 5 6 
#
# 1 0.012384 -0.003154 -0.004989 0.000000 0.002346 0.000000
# 2 -0.003154 0.017467 -0.003802 0.000000 0.004294 0.000000
# 3 -0.004989 -0.003802 0.012276 0.000000 -0.002112 0.000000
# 4 0.000000 0.000000 0.000000 -1.330601 0.000000 -1.167305
# 5 0.002346 0.004294 -0.002112 0.000000 0.025976 0.000000
# 6 0.000000 0.000000 0.000000 -1.167305 0.000000 -0.942911
#
#
# Mechanical properties :
#
#
# Convention : Reuss Voigt Hill
#
# Bulk Modulus (GPa) = 54.83535 61.84586 58.34061
# Shear Modulus (GPa) = -2.29839 24.32310 11.01236
#
# Velocity S-wave (km/s) = -1.04180 3.38907 2.28040
# Velocity P-wave (km/s) = 4.94440 6.67226 5.87223
#
# Compressibility (1/GPa) = 0.01823641
#
# Stress axis : x y z
#
# Youngs Moduli (GPa) = 80.75122 57.24996 81.46122
#
# Poissons Ratio (x) = 0.18057 0.40638
# Poissons Ratio (y) = 0.25470 0.30975
# Poissons Ratio (z) = 0.40284 0.21769
#
# Static dielectric constant tensor:
#      x y z
#    x 1.799710 0.000000 -0.009310 
#    y 0.000000 1.717100 0.000000 
#    z -0.009310 0.000000 1.825270 
# 
# From -- ./inp_files/33895.got.cif
#   From: 2010.05.17/outbox.cif.g08.bks.cpg/sg5_17_cif.got.tgz:33895.got - 2010.06.03 18:56:24.
