data_PCOD9123979
_publ_section_title
;
Structure prediction by ZEFSAII (Michael W. Deem and Ramdas Pophale) SiO2 
 PCOD9123979
Probable space group: C 2
;
_chemical_formula_sum "Si O2"
_cell_formula_units_Z 30
_cell_length_a 12.319085
_cell_length_b 8.679126
_cell_length_c 14.129638
_cell_angle_alpha 90.000000
_cell_angle_beta 127.806296
_cell_angle_gamma 90.000000
_cell_volume 1193.605354
_symmetry_space_group_name_H-M "C 2"
_symmetry_group_IT_number 5
_symmetry_cell_setting 'monoclinic'
loop_
_space_group_symop_operation_xyz
x,y,z
-x,y,-z
1/2+x,1/2+y,z
1/2-x,1/2+y,-z
loop_
_atom_site_type_symbol
_atom_site_label
_atom_site_fract_x
_atom_site_fract_y
_atom_site_fract_z
Si Si1 0.720580 0.980830 0.135818
Si Si2 0.998497 0.444459 0.357066
Si Si3 0.379302 0.569570 0.765626
Si Si4 0.034949 0.364257 0.874639
Si Si5 0.238521 0.759992 0.281511
Si Si6 0.821682 0.169206 0.524521
Si Si7 0.000000 0.962186 0.500000
Si Si8 0.628740 0.243343 0.694664
O O1 0.604012 0.918523 0.147012
O O2 0.854567 0.872714 0.216759
O O3 0.741662 0.150302 0.190865
O O4 0.655034 0.941242 0.000068
O O5 0.957928 0.427429 0.226563
O O6 0.881147 0.357571 0.355051
O O7 0.997073 0.625135 0.378684
O O8 0.137598 0.348945 0.442558
O O9 0.512524 0.678027 0.853127
O O10 0.381281 0.387656 0.783829
O O11 0.312618 0.605952 0.626586
O O12 0.261398 0.635706 0.772344
O O13 0.233733 0.669416 0.379426
O O14 0.951750 0.069254 0.558206
O O15 0.879414 0.851053 0.401632
#
# Coordination Sequence:
#
# PCOD9123979 Si02
#       8
#     4   4   4   4   4   4   2   4
#     4  10  20  41  61  84 121 156 209 252 309 357
#     4  10  21  38  58  88 123 159 206 243 314 364
#     4   9  23  38  59  86 121 163 210 242 313 369
#     4   9  21  41  62  83 118 162 200 265 296 364
#     4  11  21  37  60  90 120 162 205 256 309 373
#     4  11  21  37  56  88 127 163 192 256 301 375
#     4  12  22  34  54  84 124 156 190 244 308 352
#     4  10  22  37  56  88 116 162 199 246 300 374
#
# _framework density 25.133935000000001
#
# number of rings (size 3 to 8) (size 9 to 14) (size 15 to 20)
#    0.000    1.867    2.667    0.000    5.600    3.200 
#    0.000    8.000    0.000    0.000    0.000    0.000 
#    0.000    0.000    0.000    0.000    0.000    0.000 
#
# Total GULP energy -83689.589109 kJ/mol
# GULP energy per Si atom -5579.305941 kJ/mol
# Density = 2.507673 g / cm^3
# Si number density = 25.133935 Si / 1000 Ang^3
#
#
#
# Elastic Constant Matrix: (Units=GPa)
#
#
# Indices 1 2 3 4 5 6 
#
# 1 43.7198 -0.1685 -1.2399 0.0000 -17.3834 0.0000
# 2 -0.1685 159.6682 53.7120 0.0000 4.3203 0.0000
# 3 -1.2399 53.7120 131.3273 0.0000 -11.8367 0.0000
# 4 0.0000 0.0000 0.0000 29.1849 0.0000 2.4498
# 5 -17.3834 4.3203 -11.8367 0.0000 34.2487 0.0000
# 6 0.0000 0.0000 0.0000 2.4498 0.0000 18.1512
#
#
#
# Elastic Compliance Matrix: (Units=1/GPa)
#
#
# Indices 1 2 3 4 5 6 
#
# 1 0.029166 -0.001115 0.002145 0.000000 0.015686 0.000000
# 2 -0.001115 0.007441 -0.003292 0.000000 -0.002642 0.000000
# 3 0.002145 -0.003292 0.009410 0.000000 0.004756 0.000000
# 4 0.000000 0.000000 0.000000 0.034657 0.000000 -0.004677
# 5 0.015686 -0.002642 0.004756 0.000000 0.039137 0.000000
# 6 0.000000 0.000000 0.000000 -0.004677 0.000000 0.055724
#
#
# Mechanical properties :
#
#
# Convention : Reuss Voigt Hill
#
# Bulk Modulus (GPa) = 24.10037 48.81362 36.45700
# Shear Modulus (GPa) = 25.78787 35.14442 30.46614
#
# Velocity S-wave (km/s) = 3.20663 3.74342 3.48537
# Velocity P-wave (km/s) = 4.82903 6.17639 5.54380
#
# Compressibility (1/GPa) = 0.04149314
#
# Stress axis : x y z
#
# Youngs Moduli (GPa) = 34.28607 134.39609 106.27136
#
# Poissons Ratio (x) = 0.14990 -0.22799
# Poissons Ratio (y) = 0.03824 0.34983
# Poissons Ratio (z) = -0.07355 0.44242
#
# Static dielectric constant tensor:
#      x y z
#    x 2.037010 0.000000 0.076450 
#    y 0.000000 2.048500 0.000000 
#    z 0.076450 0.000000 2.003790 
# 
# From -- ./inp_files/55654.got.cif
#   From: 2010.05.17/outbox.cif.g08.bks.cpg/sg5_28_cif.got.tgz:55654.got - 2010.06.03 18:56:24.
