data_PCOD9123414
_publ_section_title
;
Structure prediction by ZEFSAII (Michael W. Deem and Ramdas Pophale) SiO2 
 PCOD9123414
Probable space group: C 2
;
_chemical_formula_sum "Si O2"
_cell_formula_units_Z 20
_cell_length_a 12.425764
_cell_length_b 8.247664
_cell_length_c 24.366268
_cell_angle_alpha 90.000000
_cell_angle_beta 159.267851
_cell_angle_gamma 90.000000
_cell_volume 883.987118
_symmetry_space_group_name_H-M "C 2"
_symmetry_group_IT_number 5
_symmetry_cell_setting 'monoclinic'
loop_
_space_group_symop_operation_xyz
x,y,z
-x,y,-z
1/2+x,1/2+y,z
1/2-x,1/2+y,-z
loop_
_atom_site_type_symbol
_atom_site_label
_atom_site_fract_x
_atom_site_fract_y
_atom_site_fract_z
Si Si1 0.876707 0.251320 0.589656
Si Si2 0.310657 0.765202 0.988272
Si Si3 0.746063 0.806648 0.664947
Si Si4 0.079119 0.622752 0.099863
Si Si5 0.171193 0.576070 0.711656
O O1 0.531025 0.216579 0.411522
O O2 0.054057 0.206547 0.618041
O O3 0.056804 0.143563 0.719194
O O4 0.954750 0.439709 0.635664
O O5 0.089250 0.738047 0.829872
O O6 0.092015 0.740287 0.937845
O O7 0.576641 0.638469 0.127052
O O8 0.468477 0.940594 0.059878
O O9 0.500000 0.825524 0.500000
O O10 0.802849 0.979145 0.722108
O O11 0.000000 0.664013 0.000000
#
# Coordination Sequence:
#
# PCOD9123414 Si02
#       5
#     4   4   4   4   4
#     4   9  21  38  61  96 134 165 226 277 330 404
#     4  11  21  42  64  98 136 174 230 281 319 417
#     4   9  21  37  63  91 124 171 214 262 339 391
#     4  11  23  41  67  96 136 186 221 274 349 396
#     4  10  20  38  64  91 134 168 215 283 327 388
#
# _framework density 22.624765
#
# number of rings (size 3 to 8) (size 9 to 14) (size 15 to 20)
#    1.200    0.800    2.000    1.200    2.800    0.000 
#    0.000   10.000    0.000    6.000    0.000    0.000 
#    0.000    0.000    0.000    0.000    0.000    0.000 
#
# Total GULP energy -55671.728500 kJ/mol
# GULP energy per Si atom -5567.172850 kJ/mol
# Density = 2.257327 g / cm^3
# Si number density = 22.624765 Si / 1000 Ang^3
#
#
#
# Elastic Constant Matrix: (Units=GPa)
#
#
# Indices 1 2 3 4 5 6 
#
# 1 45.4426 14.9299 18.0131 0.0036 -14.7131 0.0018
# 2 14.9299 62.1579 74.3282 -0.0007 -11.8957 -0.0001
# 3 18.0131 74.3282 218.8878 0.0092 -17.5935 0.0046
# 4 0.0036 -0.0007 0.0092 48.8395 0.0012 6.5922
# 5 -14.7131 -11.8957 -17.5935 0.0012 26.5780 0.0010
# 6 0.0018 -0.0001 0.0046 6.5922 0.0010 17.1229
#
#
#
# Elastic Compliance Matrix: (Units=1/GPa)
#
#
# Indices 1 2 3 4 5 6 
#
# 1 0.027735 -0.004444 0.000318 -0.000002 0.013575 -0.000003
# 2 -0.004444 0.028861 -0.009077 0.000002 0.004449 0.000002
# 3 0.000318 -0.009077 0.007723 -0.000001 0.001226 -0.000002
# 4 -0.000002 0.000002 -0.000001 0.021598 -0.000002 -0.008315
# 5 0.013575 0.004449 0.001226 -0.000002 0.047943 -0.000004
# 6 -0.000003 0.000002 -0.000002 -0.008315 -0.000004 0.061603
#
#
# Mechanical properties :
#
#
# Convention : Reuss Voigt Hill
#
# Bulk Modulus (GPa) = 26.37595 60.11450 43.24523
# Shear Modulus (GPa) = 21.32134 33.12253 27.22193
#
# Velocity S-wave (km/s) = 3.07317 3.83037 3.47247
# Velocity P-wave (km/s) = 4.92705 6.79634 5.93574
#
# Compressibility (1/GPa) = 0.03791333
#
# Stress axis : x y z
#
# Youngs Moduli (GPa) = 36.05544 34.64838 129.47846
#
# Poissons Ratio (x) = 0.15396 -0.04112
# Poissons Ratio (y) = 0.16022 1.17531
# Poissons Ratio (z) = -0.01145 0.31451
#
# Static dielectric constant tensor:
#      x y z
#    x 1.910680 0.000000 0.036960 
#    y 0.000000 1.855720 0.000000 
#    z 0.036960 0.000000 1.963910 
# 
# From -- ./inp_files/70544.got.cif
#   From: 2010.05.17/outbox.cif.g08.bks.cpg/sg5_36_cif.got.tgz:70544.got - 2010.06.03 18:56:24.
