data_PCOD9123397
_publ_section_title
;
Structure prediction by ZEFSAII (Michael W. Deem and Ramdas Pophale) SiO2 
 PCOD9123397
Probable space group: C 2
;
_chemical_formula_sum "Si O2"
_cell_formula_units_Z 20
_cell_length_a 8.982694
_cell_length_b 14.370917
_cell_length_c 11.736841
_cell_angle_alpha 90.000000
_cell_angle_beta 45.459182
_cell_angle_gamma 90.000000
_cell_volume 1079.891451
_symmetry_space_group_name_H-M "C 2"
_symmetry_group_IT_number 5
_symmetry_cell_setting 'monoclinic'
loop_
_space_group_symop_operation_xyz
x,y,z
-x,y,-z
1/2+x,1/2+y,z
1/2-x,1/2+y,-z
loop_
_atom_site_type_symbol
_atom_site_label
_atom_site_fract_x
_atom_site_fract_y
_atom_site_fract_z
Si Si1 0.923298 0.958360 0.411925
Si Si2 0.852057 0.622858 0.469740
Si Si3 0.000000 0.739614 0.000000
Si Si4 0.921494 0.126029 0.797254
Si Si5 0.500000 0.705637 0.000000
Si Si6 0.952883 0.777020 0.774130
O O1 0.933181 0.854071 0.362481
O O2 0.000000 0.964263 0.500000
O O3 0.072948 0.019724 0.248509
O O4 0.705092 0.014782 0.520927
O O5 0.624245 0.665764 0.621385
O O6 0.000000 0.632553 0.500000
O O7 0.953021 0.676525 0.310623
O O8 0.792585 0.676626 0.116062
O O9 0.015959 0.795440 0.109138
O O10 0.968624 0.142680 0.904775
O O11 0.292632 0.768238 0.121816
#
# Coordination Sequence:
#
# PCOD9123397 Si02
#       6
#     4   4   2   4   2   4
#     4  10  22  37  60  91 114 155 208 241 289 346
#     4  10  20  41  62  87 118 158 200 244 291 351
#     4  10  22  38  58  88 124 160 190 248 300 354
#     4   9  21  38  60  87 119 160 195 242 302 344
#     4  10  20  38  64  82 120 164 190 246 306 350
#     4  11  21  39  62  88 121 157 202 242 298 353
#
# _framework density 18.520382000000001
#
# number of rings (size 3 to 8) (size 9 to 14) (size 15 to 20)
#    1.200    0.800    2.000    1.800    0.000    1.600 
#    3.600    0.000    0.000    0.000    0.000    0.000 
#    0.000    0.000    0.000    0.000    0.000    0.000 
#
# Total GULP energy -55670.361618 kJ/mol
# GULP energy per Si atom -5567.036162 kJ/mol
# Density = 1.847823 g / cm^3
# Si number density = 18.520382 Si / 1000 Ang^3
#
#
#
# Elastic Constant Matrix: (Units=GPa)
#
#
# Indices 1 2 3 4 5 6 
#
# 1 108.8195 21.1570 35.9317 0.0000 5.8881 0.0000
# 2 21.1570 65.9266 19.3106 0.0000 4.0851 0.0000
# 3 35.9317 19.3106 57.1351 0.0000 -10.1860 0.0000
# 4 0.0000 0.0000 0.0000 31.5919 0.0000 2.0757
# 5 5.8881 4.0851 -10.1860 0.0000 42.9663 0.0000
# 6 0.0000 0.0000 0.0000 2.0757 0.0000 7.0059
#
#
#
# Elastic Compliance Matrix: (Units=1/GPa)
#
#
# Indices 1 2 3 4 5 6 
#
# 1 0.012231 -0.001426 -0.007815 0.000000 -0.003393 0.000000
# 2 -0.001426 0.017401 -0.005476 0.000000 -0.002757 0.000000
# 3 -0.007815 -0.005476 0.025635 0.000000 0.007669 0.000000
# 4 0.000000 0.000000 0.000000 0.032282 0.000000 -0.009565
# 5 -0.003393 -0.002757 0.007669 0.000000 0.025819 0.000000
# 6 0.000000 0.000000 0.000000 -0.009565 0.000000 0.145571
#
#
# Mechanical properties :
#
#
# Convention : Reuss Voigt Hill
#
# Bulk Modulus (GPa) = 38.70975 42.74218 40.72597
# Shear Modulus (GPa) = 16.83597 26.67828 21.75712
#
# Velocity S-wave (km/s) = 3.01832 3.79949 3.43121
# Velocity P-wave (km/s) = 5.75270 6.50974 6.14289
#
# Compressibility (1/GPa) = 0.02583328
#
# Stress axis : x y z
#
# Youngs Moduli (GPa) = 81.76111 57.46875 39.00906
#
# Poissons Ratio (x) = 0.08194 0.30485
# Poissons Ratio (y) = 0.11657 0.21362
# Poissons Ratio (z) = 0.63895 0.31470
#
# Static dielectric constant tensor:
#      x y z
#    x 1.630920 0.000000 -0.001050 
#    y 0.000000 1.621870 0.000000 
#    z -0.001050 0.000000 1.648180 
# 
# From -- ./inp_files/14634.got.cif
#   From: 2010.05.17/outbox.cif.g08.bks.cpg/sg5_8_cif.got.tgz:14634.got - 2010.06.03 18:56:24.
