data_PCOD9123066
_publ_section_title
;
Structure prediction by ZEFSAII (Michael W. Deem and Ramdas Pophale) SiO2 
 PCOD9123066
Probable space group: C 2
;
_chemical_formula_sum "Si O2"
_cell_formula_units_Z 30
_cell_length_a 24.794051
_cell_length_b 8.627151
_cell_length_c 15.748930
_cell_angle_alpha 90.000000
_cell_angle_beta 152.936357
_cell_angle_gamma 90.000000
_cell_volume 1532.703621
_symmetry_space_group_name_H-M "C 2"
_symmetry_group_IT_number 5
_symmetry_cell_setting 'monoclinic'
loop_
_space_group_symop_operation_xyz
x,y,z
-x,y,-z
1/2+x,1/2+y,z
1/2-x,1/2+y,-z
loop_
_atom_site_type_symbol
_atom_site_label
_atom_site_fract_x
_atom_site_fract_y
_atom_site_fract_z
Si Si1 0.335509 0.979300 0.688488
Si Si2 0.053203 0.994509 0.314750
Si Si3 0.406980 0.839166 0.444816
Si Si4 0.585766 0.463280 0.543506
Si Si5 0.855608 0.949399 0.909427
Si Si6 0.337561 0.817954 0.872156
Si Si7 0.500000 0.231634 0.000000
Si Si8 0.529663 0.857590 0.275969
O O1 0.360112 0.878375 0.808124
O O2 0.363491 0.904698 0.636524
O O3 0.193441 0.000025 0.492079
O O4 0.425358 0.123079 0.829949
O O5 0.018107 0.173558 0.267703
O O6 0.031988 0.922866 0.376986
O O7 0.964094 0.916284 0.125172
O O8 0.500000 0.874680 0.500000
O O9 0.394655 0.650572 0.430941
O O10 0.275269 0.903113 0.243831
O O11 0.450909 0.904904 0.598578
O O12 0.500000 0.426597 0.500000
O O13 0.707034 0.369789 0.716135
O O14 0.895473 0.842394 0.887661
O O15 0.854241 0.133286 0.891119
O O16 0.419306 0.896399 0.059451
#
# Coordination Sequence:
#
# PCOD9123066 Si02
#       8
#     4   4   4   4   4   4   2   4
#     4  11  22  39  62  90 123 166 206 251 306 386
#     4   9  22  37  58  90 127 156 206 250 310 364
#     4  10  23  43  63  89 128 165 209 258 306 363
#     4   9  19  41  67  88 119 165 210 252 297 374
#     4  11  25  39  59  92 130 161 200 264 318 362
#     4  10  21  39  60  91 123 160 205 255 310 371
#     4  12  24  38  62  92 128 160 210 258 310 382
#     4  10  20  37  61  85 116 167 200 246 306 361
#
# _framework density 19.573255
#
# number of rings (size 3 to 8) (size 9 to 14) (size 15 to 20)
#    0.000    1.867    1.333    2.400    7.467    1.600 
#    2.400    0.000    0.000    0.000    0.000    0.000 
#    0.000    0.000    0.000    0.000    0.000    0.000 
#
# Total GULP energy -83545.563177 kJ/mol
# GULP energy per Si atom -5569.704212 kJ/mol
# Density = 1.952871 g / cm^3
# Si number density = 19.573255 Si / 1000 Ang^3
#
#
#
# Elastic Constant Matrix: (Units=GPa)
#
#
# Indices 1 2 3 4 5 6 
#
# 1 124.6601 32.6015 48.1682 0.0000 0.9995 0.0000
# 2 32.6015 41.5560 32.9548 0.0000 6.1170 0.0000
# 3 48.1682 32.9548 109.3153 0.0000 -8.0363 0.0000
# 4 0.0000 0.0000 0.0000 27.5942 0.0000 0.8529
# 5 0.9995 6.1170 -8.0363 0.0000 28.0787 0.0000
# 6 0.0000 0.0000 0.0000 0.8529 0.0000 43.2138
#
#
#
# Elastic Compliance Matrix: (Units=1/GPa)
#
#
# Indices 1 2 3 4 5 6 
#
# 1 0.010742 -0.006181 -0.002859 0.000000 0.000146 0.000000
# 2 -0.006181 0.038078 -0.009550 0.000000 -0.010809 0.000000
# 3 -0.002859 -0.009550 0.013736 0.000000 0.006114 0.000000
# 4 0.000000 0.000000 0.000000 0.036262 0.000000 -0.000716
# 5 0.000146 -0.010809 0.006114 0.000000 0.039713 0.000000
# 6 0.000000 0.000000 0.000000 -0.000716 0.000000 0.023155
#
#
# Mechanical properties :
#
#
# Convention : Reuss Voigt Hill
#
# Bulk Modulus (GPa) = 39.40912 55.88670 47.64791
# Shear Modulus (GPa) = 24.11674 30.56449 27.34062
#
# Velocity S-wave (km/s) = 3.51398 3.95592 3.74148
# Velocity P-wave (km/s) = 6.05326 7.03423 6.56210
#
# Compressibility (1/GPa) = 0.02537484
#
# Stress axis : x y z
#
# Youngs Moduli (GPa) = 93.09276 26.26206 72.80099
#
# Poissons Ratio (x) = 0.16234 0.20814
# Poissons Ratio (y) = 0.57545 0.69524
# Poissons Ratio (z) = 0.26616 0.25080
#
# Static dielectric constant tensor:
#      x y z
#    x 1.663310 0.000000 -0.020350 
#    y 0.000000 1.692990 0.000000 
#    z -0.020350 0.000000 1.733510 
# 
# From -- ./inp_files/41990.got.cif
#   From: 2010.05.17/outbox.cif.g08.bks.cpg/sg5_21_cif.got.tgz:41990.got - 2010.06.03 18:56:24.
