data_PCOD9123454
_publ_section_title
;
Structure prediction by ZEFSAII (Michael W. Deem and Ramdas Pophale) SiO2 
 PCOD9123454
Probable space group: C 2
;
_chemical_formula_sum "Si O2"
_cell_formula_units_Z 28
_cell_length_a 14.276411
_cell_length_b 9.539633
_cell_length_c 11.812801
_cell_angle_alpha 90.000000
_cell_angle_beta 132.967931
_cell_angle_gamma 90.000000
_cell_volume 1177.219937
_symmetry_space_group_name_H-M "C 2"
_symmetry_group_IT_number 5
_symmetry_cell_setting 'monoclinic'
loop_
_space_group_symop_operation_xyz
x,y,z
-x,y,-z
1/2+x,1/2+y,z
1/2-x,1/2+y,-z
loop_
_atom_site_type_symbol
_atom_site_label
_atom_site_fract_x
_atom_site_fract_y
_atom_site_fract_z
Si Si1 0.871492 0.887220 0.334569
Si Si2 0.982476 0.998110 0.190422
Si Si3 0.611308 0.865549 0.435457
Si Si4 0.663461 0.866448 0.729200
Si Si5 0.722117 0.568293 0.530634
Si Si6 0.739149 0.651101 0.088511
Si Si7 0.899617 0.722770 0.997527
O O1 0.826738 0.999897 0.391958
O O2 0.772122 0.767830 0.210545
O O3 0.000000 0.823736 0.500000
O O4 0.126528 0.019465 0.350802
O O5 0.965056 0.313759 0.315297
O O6 0.409135 0.462949 0.247981
O O7 0.908564 0.126979 0.069246
O O8 0.972129 0.863638 0.100089
O O9 0.629821 0.916759 0.577576
O O10 0.707654 0.734484 0.505443
O O11 0.642821 0.994046 0.380310
O O12 0.776238 0.755262 0.819574
O O13 0.719357 0.998428 0.838207
O O14 0.831392 0.673608 0.056268
O O15 0.000000 0.642118 0.000000
#
# Coordination Sequence:
#
# PCOD9123454 Si02
#       7
#     4   4   4   4   4   4   4
#     4   9  21  37  67  99 134 178 228 287 342 414
#     4   9  20  40  63  95 133 177 221 273 353 406
#     4  11  26  41  68  94 138 175 228 290 343 409
#     4  10  24  41  64  97 136 178 219 281 353 405
#     4  11  24  42  68 100 132 177 236 288 345 410
#     4  10  21  39  68  96 139 177 228 278 347 416
#     4  10  20  38  65  96 130 177 223 277 332 416
#
# _framework density 23.784852000000001
#
# number of rings (size 3 to 8) (size 9 to 14) (size 15 to 20)
#    0.000    2.000    0.000    1.714   12.000    3.429 
#    0.000    0.000    3.143    0.000    0.000    0.000 
#    0.000    0.000    0.000    0.000    0.000    0.000 
#
# Total GULP energy -78143.846411 kJ/mol
# GULP energy per Si atom -5581.703315 kJ/mol
# Density = 2.373072 g / cm^3
# Si number density = 23.784852 Si / 1000 Ang^3
#
#
#
# Elastic Constant Matrix: (Units=GPa)
#
#
# Indices 1 2 3 4 5 6 
#
# 1 41.4190 11.4590 1.8136 0.0000 25.9748 0.0000
# 2 11.4590 43.5921 4.4668 0.0000 3.9673 0.0000
# 3 1.8136 4.4668 89.8189 0.0000 -2.3944 0.0000
# 4 0.0000 0.0000 0.0000 36.7634 0.0000 -4.3341
# 5 25.9748 3.9673 -2.3944 0.0000 24.1860 0.0000
# 6 0.0000 0.0000 0.0000 -4.3341 0.0000 19.7919
#
#
#
# Elastic Compliance Matrix: (Units=1/GPa)
#
#
# Indices 1 2 3 4 5 6 
#
# 1 0.082147 -0.013398 -0.003294 0.000000 -0.086351 0.000000
# 2 -0.013398 0.025616 -0.000734 0.000000 0.010114 0.000000
# 3 -0.003294 -0.000734 0.011364 0.000000 0.004783 0.000000
# 4 0.000000 0.000000 0.000000 0.027922 0.000000 0.006114
# 5 -0.086351 0.010114 0.004783 0.000000 0.132898 0.000000
# 6 0.000000 0.000000 0.000000 0.006114 0.000000 0.051865
#
#
# Mechanical properties :
#
#
# Convention : Reuss Voigt Hill
#
# Bulk Modulus (GPa) = 11.86574 23.36764 17.61669
# Shear Modulus (GPa) = 12.66605 26.62096 19.64351
#
# Velocity S-wave (km/s) = 2.31016 3.34913 2.87694
# Velocity P-wave (km/s) = 3.48071 4.98011 4.29633
#
# Compressibility (1/GPa) = 0.08427622
#
# Stress axis : x y z
#
# Youngs Moduli (GPa) = 12.17327 39.03744 87.99687
#
# Poissons Ratio (x) = 0.52301 0.28989
# Poissons Ratio (y) = 0.16309 0.06457
# Poissons Ratio (z) = 0.04010 0.02865
#
# Static dielectric constant tensor:
#      x y z
#    x 1.930520 0.000000 0.042260 
#    y 0.000000 1.903830 0.000000 
#    z 0.042260 0.000000 1.927400 
# 
# From -- ./inp_files/54221.got.cif
#   From: 2010.05.17/outbox.cif.g08.bks.cpg/sg5_28_cif.got.tgz:54221.got - 2010.06.03 18:56:24.
