data_PCOD9123960
_publ_section_title
;
Structure prediction by ZEFSAII (Michael W. Deem and Ramdas Pophale) SiO2 
 PCOD9123960
Probable space group: C 2
;
_chemical_formula_sum "Si O2"
_cell_formula_units_Z 18
_cell_length_a 18.461707
_cell_length_b 5.183022
_cell_length_c 8.046406
_cell_angle_alpha 90.000000
_cell_angle_beta 62.288039
_cell_angle_gamma 90.000000
_cell_volume 681.625185
_symmetry_space_group_name_H-M "C 2"
_symmetry_group_IT_number 5
_symmetry_cell_setting 'monoclinic'
loop_
_space_group_symop_operation_xyz
x,y,z
-x,y,-z
1/2+x,1/2+y,z
1/2-x,1/2+y,-z
loop_
_atom_site_type_symbol
_atom_site_label
_atom_site_fract_x
_atom_site_fract_y
_atom_site_fract_z
Si Si1 0.878439 0.109720 0.748195
Si Si2 0.566064 0.584748 0.667840
Si Si3 0.207349 0.750499 0.617666
Si Si4 0.651210 0.118097 0.033581
Si Si5 0.500000 0.958491 0.000000
O O1 0.885002 0.177266 0.547711
O O2 0.840294 0.337292 0.896830
O O3 0.972643 0.076770 0.708239
O O4 0.840190 0.835463 0.835584
O O5 0.614015 0.325544 0.666188
O O6 0.561726 0.772624 0.830725
O O7 0.243910 0.512465 0.476627
O O8 0.204676 0.679822 0.814855
O O9 0.557680 0.116085 0.062122
#
# Coordination Sequence:
#
# PCOD9123960 Si02
#       5
#     4   4   4   4   2
#     4  10  23  40  69  98 129 158 206 284 334 367
#     4  10  22  42  66 100 129 164 213 266 330 377
#     4  12  25  42  66  93 131 179 220 255 304 393
#     4  11  22  41  63  96 127 166 215 263 325 375
#     4  10  20  40  72  98 128 164 212 280 322 376
#
# _framework density 26.407474000000001
#
# number of rings (size 3 to 8) (size 9 to 14) (size 15 to 20)
#    0.000    1.333    0.000    6.667    0.000   13.333 
#    0.000    4.444    0.000    2.667    0.000    0.000 
#    0.000    0.000    0.000    0.000    0.000    0.000 
#
# Total GULP energy -50486.765818 kJ/mol
# GULP energy per Si atom -5609.640646 kJ/mol
# Density = 2.634737 g / cm^3
# Si number density = 26.407474 Si / 1000 Ang^3
#
#
#
# Elastic Constant Matrix: (Units=GPa)
#
#
# Indices 1 2 3 4 5 6 
#
# 1 114.4594 33.2437 31.5449 0.0000 -10.6724 0.0000
# 2 33.2437 180.5123 85.9461 0.0000 -2.5962 0.0000
# 3 31.5449 85.9461 199.6342 0.0000 -2.0710 0.0000
# 4 0.0000 0.0000 0.0000 53.7378 0.0000 -9.1998
# 5 -10.6724 -2.5962 -2.0710 0.0000 52.8962 0.0000
# 6 0.0000 0.0000 0.0000 -9.1998 0.0000 10.4131
#
#
#
# Elastic Compliance Matrix: (Units=1/GPa)
#
#
# Indices 1 2 3 4 5 6 
#
# 1 0.009538 -0.001285 -0.000935 0.000000 0.001825 0.000000
# 2 -0.001285 0.007144 -0.002873 0.000000 -0.000021 0.000000
# 3 -0.000935 -0.002873 0.006393 0.000000 -0.000079 0.000000
# 4 0.000000 0.000000 0.000000 0.021925 0.000000 0.019370
# 5 0.001825 -0.000021 -0.000079 0.000000 0.019269 0.000000
# 6 0.000000 0.000000 0.000000 0.019370 0.000000 0.113146
#
#
# Mechanical properties :
#
#
# Convention : Reuss Voigt Hill
#
# Bulk Modulus (GPa) = 77.58560 88.45282 83.01921
# Shear Modulus (GPa) = 26.05575 46.33417 36.19496
#
# Velocity S-wave (km/s) = 3.14456 4.19332 3.70622
# Velocity P-wave (km/s) = 6.52903 7.55072 7.05839
#
# Compressibility (1/GPa) = 0.01288899
#
# Stress axis : x y z
#
# Youngs Moduli (GPa) = 104.84635 139.97870 156.42512
#
# Poissons Ratio (x) = 0.17989 0.14624
# Poissons Ratio (y) = 0.13474 0.44937
# Poissons Ratio (z) = 0.09802 0.40212
#
# Static dielectric constant tensor:
#      x y z
#    x 2.169780 0.000000 -0.059040 
#    y 0.000000 1.950930 0.000000 
#    z -0.059040 0.000000 2.051930 
# 
# From -- ./inp_files/30227.got.cif
#   From: 2010.05.17/outbox.cif.g08.bks.cpg/sg5_16_cif.got.tgz:30227.got - 2010.06.03 18:56:24.
