data_PCOD9123635
_publ_section_title
;
Structure prediction by ZEFSAII (Michael W. Deem and Ramdas Pophale) SiO2 
 PCOD9123635
Probable space group: C 2
;
_chemical_formula_sum "Si O2"
_cell_formula_units_Z 24
_cell_length_a 11.034839
_cell_length_b 11.993934
_cell_length_c 22.464433
_cell_angle_alpha 90.000000
_cell_angle_beta 24.268365
_cell_angle_gamma 90.000000
_cell_volume 1222.015305
_symmetry_space_group_name_H-M "C 2"
_symmetry_group_IT_number 5
_symmetry_cell_setting 'monoclinic'
loop_
_space_group_symop_operation_xyz
x,y,z
-x,y,-z
1/2+x,1/2+y,z
1/2-x,1/2+y,-z
loop_
_atom_site_type_symbol
_atom_site_label
_atom_site_fract_x
_atom_site_fract_y
_atom_site_fract_z
Si Si1 0.401665 0.320350 0.883597
Si Si2 0.651018 0.204426 0.656231
Si Si3 0.754740 0.858083 0.772415
Si Si4 0.853942 0.023702 0.831091
Si Si5 0.193623 0.444969 0.666232
Si Si6 0.753490 0.259005 0.838103
O O1 0.465652 0.257290 0.793608
O O2 0.473969 0.450208 0.832808
O O3 0.594033 0.254792 0.845997
O O4 0.064609 0.322656 0.057791
O O5 0.480602 0.253856 0.675034
O O6 0.000000 0.236300 0.500000
O O7 0.640859 0.072865 0.672340
O O8 0.706149 0.914808 0.730485
O O9 0.893340 0.951207 0.754032
O O10 0.934074 0.150794 0.780040
O O11 0.500000 0.028947 0.000000
O O12 0.500000 0.411745 0.500000
O O13 0.946390 0.368066 0.749515
O O14 0.500000 0.276949 0.000000
#
# Coordination Sequence:
#
# PCOD9123635 Si02
#       6
#     4   4   4   4   4   4
#     4  10  20  39  65  90 119 156 211 256 306 367
#     4  10  23  41  65  90 122 167 204 254 314 368
#     4  10  20  42  63  88 122 159 208 259 304 363
#     4   8  18  35  59  86 116 150 195 260 304 347
#     4  11  25  41  57  91 132 163 202 255 310 371
#     4  11  21  37  59  90 121 160 204 252 309 364
#
# _framework density 19.639689000000001
#
# number of rings (size 3 to 8) (size 9 to 14) (size 15 to 20)
#    0.000    2.000    1.667    2.500    2.333    2.667 
#    3.000    3.333    0.000    0.000    0.000    0.000 
#    0.000    0.000    0.000    0.000    0.000    0.000 
#
# Total GULP energy -66829.763087 kJ/mol
# GULP energy per Si atom -5569.146924 kJ/mol
# Density = 1.959499 g / cm^3
# Si number density = 19.639689 Si / 1000 Ang^3
#
#
#
# Elastic Constant Matrix: (Units=GPa)
#
#
# Indices 1 2 3 4 5 6 
#
# 1 24.4434 5.8103 -6.4564 0.0073 -4.2140 0.0039
# 2 5.8103 71.5379 32.1869 0.0192 -14.4065 -0.0003
# 3 -6.4564 32.1869 56.3602 0.0485 2.4741 -0.0227
# 4 0.0073 0.0192 0.0485 28.8065 -0.0203 -4.1758
# 5 -4.2140 -14.4065 2.4741 -0.0203 17.6207 0.0007
# 6 0.0039 -0.0003 -0.0227 -4.1758 0.0007 26.7965
#
#
#
# Elastic Compliance Matrix: (Units=1/GPa)
#
#
# Indices 1 2 3 4 5 6 
#
# 1 0.045638 -0.006983 0.009043 -0.000020 0.003935 -0.000002
# 2 -0.006983 0.026798 -0.017098 0.000027 0.022641 -0.000009
# 3 0.009043 -0.017098 0.029243 -0.000049 -0.015922 0.000016
# 4 -0.000020 0.000027 -0.000049 0.035517 0.000065 0.005535
# 5 0.003935 0.022641 -0.015922 0.000065 0.078439 -0.000006
# 6 -0.000002 -0.000009 0.000016 0.005535 -0.000006 0.038181
#
#
# Mechanical properties :
#
#
# Convention : Reuss Voigt Hill
#
# Bulk Modulus (GPa) = 13.96588 23.93588 18.95088
# Shear Modulus (GPa) = 16.24651 22.69812 19.47231
#
# Velocity S-wave (km/s) = 2.87928 3.40329 3.15219
# Velocity P-wave (km/s) = 4.26382 5.25900 4.78734
#
# Compressibility (1/GPa) = 0.07160310
#
# Stress axis : x y z
#
# Youngs Moduli (GPa) = 21.91161 37.31614 34.19677
#
# Poissons Ratio (x) = 0.26058 -0.30925
# Poissons Ratio (y) = 0.15301 0.58470
# Poissons Ratio (z) = -0.19815 0.63803
#
# Static dielectric constant tensor:
#      x y z
#    x 1.771330 0.000010 -0.003950 
#    y 0.000010 1.755670 0.000000 
#    z -0.003950 0.000000 1.654710 
# 
# From -- ./inp_files/30904.got.cif
#   From: 2010.05.17/outbox.cif.g08.bks.cpg/sg5_16_cif.got.tgz:30904.got - 2010.06.03 18:56:24.
