data_PCOD9123595
_publ_section_title
;
Structure prediction by ZEFSAII (Michael W. Deem and Ramdas Pophale) SiO2 
 PCOD9123595
Probable space group: C 2
;
_chemical_formula_sum "Si O2"
_cell_formula_units_Z 26
_cell_length_a 14.105122
_cell_length_b 4.900009
_cell_length_c 18.057065
_cell_angle_alpha 90.000000
_cell_angle_beta 121.734911
_cell_angle_gamma 90.000000
_cell_volume 1061.427886
_symmetry_space_group_name_H-M "C 2"
_symmetry_group_IT_number 5
_symmetry_cell_setting 'monoclinic'
loop_
_space_group_symop_operation_xyz
x,y,z
-x,y,-z
1/2+x,1/2+y,z
1/2-x,1/2+y,-z
loop_
_atom_site_type_symbol
_atom_site_label
_atom_site_fract_x
_atom_site_fract_y
_atom_site_fract_z
Si Si1 0.066303 0.242900 0.792194
Si Si2 0.739302 0.927971 0.751114
Si Si3 0.113473 0.424711 0.168768
Si Si4 0.632087 0.741135 0.396969
Si Si5 0.500000 0.583964 0.000000
Si Si6 0.826581 0.871028 0.044416
Si Si7 0.716390 0.748342 0.582202
O O1 0.153528 0.421395 0.782638
O O2 0.127902 0.997168 0.860040
O O3 0.994264 0.403237 0.823558
O O4 0.975438 0.156550 0.693645
O O5 0.840537 0.727715 0.815240
O O6 0.688106 0.790251 0.656366
O O7 0.790845 0.224844 0.759146
O O8 0.081425 0.284660 0.078730
O O9 0.620684 0.712343 0.481203
O O10 0.729767 0.533978 0.418040
O O11 0.683738 0.029782 0.390841
O O12 0.425742 0.408071 0.025816
O O13 0.726069 0.072609 0.977869
#
# Coordination Sequence:
#
# PCOD9123595 Si02
#       7
#     4   4   4   4   2   4   4
#     4  11  24  40  68  92 124 167 212 250 315 376
#     4  12  23  40  65  92 125 165 203 262 305 372
#     4  11  25  42  61  94 125 161 213 255 312 364
#     4  10  21  39  62  92 120 166 203 253 311 368
#     4  10  24  42  66  86 126 170 202 260 314 370
#     4  11  25  43  62  93 127 162 209 263 306 368
#     4  10  20  39  63  87 130 157 202 261 307 362
#
# _framework density 24.495304999999998
#
# number of rings (size 3 to 8) (size 9 to 14) (size 15 to 20)
#    0.000    1.231    3.077    1.846    0.000   10.462 
#    0.000    0.000    0.000    7.385    0.000    0.000 
#    0.000    0.000    0.000    0.000    0.000    0.000 
#
# Total GULP energy -72838.255990 kJ/mol
# GULP energy per Si atom -5602.942768 kJ/mol
# Density = 2.443955 g / cm^3
# Si number density = 24.495305 Si / 1000 Ang^3
#
#
#
# Elastic Constant Matrix: (Units=GPa)
#
#
# Indices 1 2 3 4 5 6 
#
# 1 109.3189 6.0730 22.2989 0.0000 -18.8073 0.0001
# 2 6.0730 62.1477 -1.3105 -0.0001 -12.0981 0.0001
# 3 22.2989 -1.3105 171.6741 0.0000 -0.7263 -0.0001
# 4 0.0000 -0.0001 0.0000 26.0622 0.0000 -0.4614
# 5 -18.8073 -12.0981 -0.7263 0.0000 38.5556 0.0000
# 6 0.0001 0.0001 -0.0001 -0.4614 0.0000 13.7385
#
#
#
# Elastic Compliance Matrix: (Units=1/GPa)
#
#
# Indices 1 2 3 4 5 6 
#
# 1 0.010274 -0.000065 -0.001314 0.000000 0.004966 0.000000
# 2 -0.000065 0.017142 0.000162 0.000000 0.005350 0.000000
# 3 -0.001314 0.000162 0.005995 0.000000 -0.000477 0.000000
# 4 0.000000 0.000000 0.000000 0.038393 0.000000 0.001289
# 5 0.004966 0.005350 -0.000477 0.000000 0.030029 0.000000
# 6 0.000000 0.000000 0.000000 0.001289 0.000000 0.072831
#
#
# Mechanical properties :
#
#
# Convention : Reuss Voigt Hill
#
# Bulk Modulus (GPa) = 32.28232 44.14039 38.21135
# Shear Modulus (GPa) = 26.67768 36.74321 31.71044
#
# Velocity S-wave (km/s) = 3.30372 3.87720 3.60189
# Velocity P-wave (km/s) = 5.26881 6.17273 5.73860
#
# Compressibility (1/GPa) = 0.03097670
#
# Stress axis : x y z
#
# Youngs Moduli (GPa) = 97.33710 58.33629 166.80917
#
# Poissons Ratio (x) = 0.00378 0.21917
# Poissons Ratio (y) = 0.00631 -0.02701
# Poissons Ratio (z) = 0.12789 -0.00945
#
# Static dielectric constant tensor:
#      x y z
#    x 1.899070 0.000000 -0.020570 
#    y 0.000000 1.873350 0.000000 
#    z -0.020570 0.000000 2.075130 
# 
# From -- ./inp_files/61036.got.cif
#   From: 2010.05.17/outbox.cif.g08.bks.cpg/sg5_31_cif.got.tgz:61036.got - 2010.06.03 18:56:24.
