data_PCOD9123373
_publ_section_title
;
Structure prediction by ZEFSAII (Michael W. Deem and Ramdas Pophale) SiO2 
 PCOD9123373
Probable space group: C 2
;
_chemical_formula_sum "Si O2"
_cell_formula_units_Z 16
_cell_length_a 5.026502
_cell_length_b 18.672800
_cell_length_c 8.781247
_cell_angle_alpha 90.000000
_cell_angle_beta 56.031487
_cell_angle_gamma 90.000000
_cell_volume 683.544196
_symmetry_space_group_name_H-M "C 2"
_symmetry_group_IT_number 5
_symmetry_cell_setting 'monoclinic'
loop_
_space_group_symop_operation_xyz
x,y,z
-x,y,-z
1/2+x,1/2+y,z
1/2-x,1/2+y,-z
loop_
_atom_site_type_symbol
_atom_site_label
_atom_site_fract_x
_atom_site_fract_y
_atom_site_fract_z
Si Si1 0.623096 0.447310 0.626534
Si Si2 0.265287 0.224348 0.721399
Si Si3 0.374744 0.578203 0.879226
Si Si4 0.237293 0.306297 0.276526
O O1 0.500000 0.421864 0.500000
O O2 0.435950 0.518151 0.733137
O O3 0.600165 0.383505 0.757624
O O4 0.000000 0.465616 0.500000
O O5 0.500000 0.222372 0.500000
O O6 0.496122 0.245539 0.785508
O O7 0.085292 0.149346 0.788817
O O8 0.998376 0.285956 0.783569
O O9 0.500000 0.547617 0.000000
O O10 0.000000 0.594803 0.000000
O O11 0.000000 0.304484 0.500000
#
# Coordination Sequence:
#
# PCOD9123373 Si02
#       4
#     4   4   4   4
#     4  11  22  41  66  91 118 159 206 251 300 360
#     4  10  20  38  63  88 115 155 201 247 297 355
#     4  12  26  42  58  89 130 165 200 247 300 360
#     4   9  18  35  63  92 114 143 200 259 296 343
#
# _framework density 23.407409999999999
#
# number of rings (size 3 to 8) (size 9 to 14) (size 15 to 20)
#    0.000    1.500    0.000    7.500    0.000    3.000 
#    0.000    7.500    0.000    0.000    0.000    0.000 
#    0.000    0.000    0.000    0.000    0.000    0.000 
#
# Total GULP energy -44752.899634 kJ/mol
# GULP energy per Si atom -5594.112454 kJ/mol
# Density = 2.335413 g / cm^3
# Si number density = 23.407410 Si / 1000 Ang^3
#
#
#
# Elastic Constant Matrix: (Units=GPa)
#
#
# Indices 1 2 3 4 5 6 
#
# 1 133.6237 23.9981 24.5128 0.0000 -25.0413 0.0000
# 2 23.9981 137.3502 25.2557 0.0000 -31.0755 0.0000
# 3 24.5128 25.2557 59.8553 0.0000 -13.2903 0.0000
# 4 0.0000 0.0000 0.0000 1276.7629 0.0000 558.1013
# 5 -25.0413 -31.0755 -13.2903 0.0000 30.6570 0.0000
# 6 0.0000 0.0000 0.0000 558.1013 0.0000 275.1351
#
#
#
# Elastic Compliance Matrix: (Units=1/GPa)
#
#
# Indices 1 2 3 4 5 6 
#
# 1 0.009129 0.000385 -0.002389 0.000000 0.006812 0.000000
# 2 0.000385 0.009698 -0.002210 0.000000 0.009187 0.000000
# 3 -0.002389 -0.002210 0.019571 0.000000 0.004293 0.000000
# 4 0.000000 0.000000 0.000000 0.006912 0.000000 -0.014021
# 5 0.006812 0.009187 0.004293 0.000000 0.049357 0.000000
# 6 0.000000 0.000000 0.000000 -0.014021 0.000000 0.032075
#
#
# Mechanical properties :
#
#
# Convention : Reuss Voigt Hill
#
# Bulk Modulus (GPa) = 33.36487 53.15140 43.25813
# Shear Modulus (GPa) = 34.44467 333.64852 184.04660
#
# Velocity S-wave (km/s) = 3.84021 11.95195 8.87683
# Velocity P-wave (km/s) = 5.82648 14.60212 11.11687
#
# Compressibility (1/GPa) = 0.02997164
#
# Stress axis : x y z
#
# Youngs Moduli (GPa) = 109.53748 103.11019 51.09612
#
# Poissons Ratio (x) = -0.03974 0.12206
# Poissons Ratio (y) = -0.04222 0.11292
# Poissons Ratio (z) = 0.26167 0.22788
#
# Static dielectric constant tensor:
#      x y z
#    x -0.155320 0.000000 0.240400 
#    y 0.000000 1.875540 0.000000 
#    z 0.240400 0.000000 1.893790 
# 
# From -- ./inp_files/11631.got.cif
#   From: 2010.05.17/outbox.cif.g08.bks.cpg/sg5_6_cif.got.tgz:11631.got - 2010.06.03 18:56:24.
