data_PCOD9123078
_publ_section_title
;
Structure prediction by ZEFSAII (Michael W. Deem and Ramdas Pophale) SiO2 
 PCOD9123078
Probable space group: C 2
;
_chemical_formula_sum "Si O2"
_cell_formula_units_Z 32
_cell_length_a 11.428188
_cell_length_b 15.200193
_cell_length_c 14.680378
_cell_angle_alpha 90.000000
_cell_angle_beta 40.360501
_cell_angle_gamma 90.000000
_cell_volume 1651.456115
_symmetry_space_group_name_H-M "C 2"
_symmetry_group_IT_number 5
_symmetry_cell_setting 'monoclinic'
loop_
_space_group_symop_operation_xyz
x,y,z
-x,y,-z
1/2+x,1/2+y,z
1/2-x,1/2+y,-z
loop_
_atom_site_type_symbol
_atom_site_label
_atom_site_fract_x
_atom_site_fract_y
_atom_site_fract_z
Si Si1 0.789499 0.590500 0.606391
Si Si2 0.265185 0.239517 0.285519
Si Si3 0.103912 0.213088 0.578507
Si Si4 0.664390 0.185523 0.073876
Si Si5 0.162354 0.940386 0.787189
Si Si6 0.979702 0.317312 0.822008
Si Si7 0.326924 0.710621 0.159610
Si Si8 0.248104 0.986428 0.937270
O O1 0.711507 0.632975 0.561343
O O2 0.739331 0.489656 0.653486
O O3 0.698743 0.645510 0.741799
O O4 0.000000 0.602599 0.500000
O O5 0.207234 0.241323 0.425962
O O6 0.463180 0.198869 0.156703
O O7 0.278655 0.339723 0.243224
O O8 0.101742 0.191778 0.329933
O O9 0.080050 0.288461 0.669746
O O10 0.671340 0.214366 0.176970
O O11 0.716855 0.082762 0.043170
O O12 0.812461 0.247974 0.936863
O O13 0.235899 0.988370 0.834426
O O14 0.946323 0.949810 0.915992
O O15 0.899164 0.414290 0.869834
O O16 0.113989 0.300828 0.827216
O O17 0.500000 0.678650 0.000000
#
# Coordination Sequence:
#
# PCOD9123078 Si02
#       8
#     4   4   4   4   4   4   4   4
#     4  11  22  37  63  93 116 157 210 257 302 371
#     4  11  23  41  60  88 128 166 199 251 316 371
#     4  10  23  39  58  88 127 161 198 252 312 367
#     4  11  21  38  65  90 124 165 206 251 314 366
#     4  11  22  37  62  96 122 153 208 267 300 362
#     4  10  20  37  61  89 125 160 202 257 307 360
#     4   9  18  35  59  86 121 155 196 252 302 352
#     4  11  21  37  63  97 121 157 211 262 304 363
#
# _framework density 19.376840000000001
#
# number of rings (size 3 to 8) (size 9 to 14) (size 15 to 20)
#    0.000    1.500    3.750    3.000    3.500    0.500 
#    0.000    1.250    5.500    0.000    0.000    0.000 
#    0.000    0.000    0.000    0.000    0.000    0.000 
#
# Total GULP energy -89296.558928 kJ/mol
# GULP energy per Si atom -5581.034933 kJ/mol
# Density = 1.933274 g / cm^3
# Si number density = 19.376840 Si / 1000 Ang^3
#
#
#
# Elastic Constant Matrix: (Units=GPa)
#
#
# Indices 1 2 3 4 5 6 
#
# 1 73.2396 24.7740 13.9944 -0.0003 -15.5505 0.0001
# 2 24.7740 79.5239 1.7363 -0.0004 -6.9969 0.0002
# 3 13.9944 1.7363 42.5794 -0.0006 3.2758 0.0004
# 4 -0.0003 -0.0004 -0.0006 8.4884 0.0004 3.5081
# 5 -15.5505 -6.9969 3.2758 0.0004 30.7777 -0.0002
# 6 0.0001 0.0002 0.0004 3.5081 -0.0002 28.8712
#
#
#
# Elastic Compliance Matrix: (Units=1/GPa)
#
#
# Indices 1 2 3 4 5 6 
#
# 1 0.018424 -0.004813 -0.006545 0.000000 0.008911 0.000000
# 2 -0.004813 0.014113 0.000954 0.000001 0.000675 0.000000
# 3 -0.006545 0.000954 0.026049 0.000002 -0.005862 -0.000001
# 4 0.000000 0.000001 0.000002 0.124037 -0.000002 -0.015072
# 5 0.008911 0.000675 -0.005862 -0.000002 0.037771 0.000001
# 6 0.000000 0.000000 -0.000001 -0.015072 0.000001 0.036468
#
#
# Mechanical properties :
#
#
# Convention : Reuss Voigt Hill
#
# Bulk Modulus (GPa) = 26.46947 30.70582 28.58765
# Shear Modulus (GPa) = 17.22588 23.95003 20.58796
#
# Velocity S-wave (km/s) = 2.98483 3.51951 3.26314
# Velocity P-wave (km/s) = 5.05658 5.69184 5.38359
#
# Compressibility (1/GPa) = 0.03777938
#
# Stress axis : x y z
#
# Youngs Moduli (GPa) = 54.27565 70.85811 38.38967
#
# Poissons Ratio (x) = 0.34102 0.25125
# Poissons Ratio (y) = 0.26122 -0.03664
# Poissons Ratio (z) = 0.35523 -0.06762
#
# Static dielectric constant tensor:
#      x y z
#    x 1.724190 0.000000 0.001400 
#    y 0.000000 1.676230 0.000000 
#    z 0.001400 0.000000 1.695800 
# 
# From -- ./inp_files/29861.got.cif
#   From: 2010.05.17/outbox.cif.g08.bks.cpg/sg5_15_cif.got.tgz:29861.got - 2010.06.03 18:56:24.
