data_PCOD9123497
_publ_section_title
;
Structure prediction by ZEFSAII (Michael W. Deem and Ramdas Pophale) SiO2 
 PCOD9123497
Probable space group: C 2
;
_chemical_formula_sum "Si O2"
_cell_formula_units_Z 28
_cell_length_a 27.878441
_cell_length_b 9.369124
_cell_length_c 9.096364
_cell_angle_alpha 90.000000
_cell_angle_beta 145.049271
_cell_angle_gamma 90.000000
_cell_volume 1361.108503
_symmetry_space_group_name_H-M "C 2"
_symmetry_group_IT_number 5
_symmetry_cell_setting 'monoclinic'
loop_
_space_group_symop_operation_xyz
x,y,z
-x,y,-z
1/2+x,1/2+y,z
1/2-x,1/2+y,-z
loop_
_atom_site_type_symbol
_atom_site_label
_atom_site_fract_x
_atom_site_fract_y
_atom_site_fract_z
Si Si1 0.396153 0.529650 0.924068
Si Si2 0.704599 0.336009 0.533511
Si Si3 0.504316 0.316386 0.338975
Si Si4 0.924572 0.638546 0.913892
Si Si5 0.246607 0.935651 0.192053
Si Si6 0.366543 0.843679 0.747476
Si Si7 0.808011 0.725864 0.197147
O O1 0.363828 0.444776 0.699723
O O2 0.326691 0.495109 0.879757
O O3 0.400885 0.690965 0.881671
O O4 0.482765 0.462856 0.200381
O O5 0.663607 0.185225 0.378812
O O6 0.788590 0.366826 0.659939
O O7 0.723355 0.328885 0.750843
O O8 0.500000 0.342382 0.500000
O O9 0.591925 0.238398 0.531576
O O10 0.434063 0.211729 0.095334
O O11 0.930446 0.470241 0.937788
O O12 0.000000 0.692291 0.000000
O O13 0.324052 0.871782 0.481789
O O14 0.274342 0.068500 0.156291
O O15 0.214618 0.803205 0.012044
#
# Coordination Sequence:
#
# PCOD9123497 Si02
#       7
#     4   4   4   4   4   4   4
#     4  10  22  40  64  95 126 171 213 262 324 386
#     4  10  20  38  67  90 125 171 217 257 314 391
#     4  11  23  42  65  90 129 173 211 261 329 395
#     4  11  21  41  66  91 128 167 215 267 317 384
#     4  11  24  41  65  99 131 169 214 275 316 384
#     4  11  21  42  64  95 131 164 219 269 319 379
#     4  12  23  43  66  96 133 167 218 268 326 382
#
# _framework density 20.571470000000001
#
# number of rings (size 3 to 8) (size 9 to 14) (size 15 to 20)
#    0.000    1.143    5.714    0.857    2.000    1.143 
#    2.571    2.143    0.000    0.000    0.000    0.000 
#    0.000    0.000    0.000    0.000    0.000    0.000 
#
# Total GULP energy -78072.042026 kJ/mol
# GULP energy per Si atom -5576.574430 kJ/mol
# Density = 2.052465 g / cm^3
# Si number density = 20.571470 Si / 1000 Ang^3
#
#
#
# Elastic Constant Matrix: (Units=GPa)
#
#
# Indices 1 2 3 4 5 6 
#
# 1 49.0838 31.1178 13.1352 0.0000 -3.4649 0.0000
# 2 31.1178 124.2626 33.3975 0.0000 -19.8914 0.0000
# 3 13.1352 33.3975 74.0907 0.0000 -22.5589 0.0000
# 4 0.0000 0.0000 0.0000 24.8221 0.0000 -5.6427
# 5 -3.4649 -19.8914 -22.5589 0.0000 37.4781 0.0000
# 6 0.0000 0.0000 0.0000 -5.6427 0.0000 37.2569
#
#
#
# Elastic Compliance Matrix: (Units=1/GPa)
#
#
# Indices 1 2 3 4 5 6 
#
# 1 0.024581 -0.005876 -0.002408 0.000000 -0.002296 0.000000
# 2 -0.005876 0.010828 -0.002761 0.000000 0.003542 0.000000
# 3 -0.002408 -0.002761 0.017943 0.000000 0.009112 0.000000
# 4 0.000000 0.000000 0.000000 0.041723 0.000000 0.006319
# 5 -0.002296 0.003542 0.009112 0.000000 0.033835 0.000000
# 6 0.000000 0.000000 0.000000 0.006319 0.000000 0.027798
#
#
# Mechanical properties :
#
#
# Convention : Reuss Voigt Hill
#
# Bulk Modulus (GPa) = 31.98751 44.74867 38.36809
# Shear Modulus (GPa) = 26.42469 31.23054 28.82762
#
# Velocity S-wave (km/s) = 3.58792 3.90057 3.74751
# Velocity P-wave (km/s) = 5.72254 6.48737 6.11692
#
# Compressibility (1/GPa) = 0.03126220
#
# Stress axis : x y z
#
# Youngs Moduli (GPa) = 40.68223 92.35467 55.73260
#
# Poissons Ratio (x) = 0.54265 0.13421
# Poissons Ratio (y) = 0.23904 0.15386
# Poissons Ratio (z) = 0.09797 0.25496
#
# Static dielectric constant tensor:
#      x y z
#    x 1.778570 0.000000 0.006030 
#    y 0.000000 1.786170 0.000000 
#    z 0.006030 0.000000 1.727850 
# 
# From -- ./inp_files/26695.got.cif
#   From: 2010.05.17/outbox.cif.g08.bks.cpg/sg5_14_cif.got.tgz:26695.got - 2010.06.03 18:56:24.
