data_PCOD9123817
_publ_section_title
;
Structure prediction by ZEFSAII (Michael W. Deem and Ramdas Pophale) SiO2 
 PCOD9123817
Probable space group: C 2
;
_chemical_formula_sum "Si O2"
_cell_formula_units_Z 28
_cell_length_a 9.203952
_cell_length_b 11.270272
_cell_length_c 15.208452
_cell_angle_alpha 90.000000
_cell_angle_beta 49.281232
_cell_angle_gamma 90.000000
_cell_volume 1195.687029
_symmetry_space_group_name_H-M "C 2"
_symmetry_group_IT_number 5
_symmetry_cell_setting 'monoclinic'
loop_
_space_group_symop_operation_xyz
x,y,z
-x,y,-z
1/2+x,1/2+y,z
1/2-x,1/2+y,-z
loop_
_atom_site_type_symbol
_atom_site_label
_atom_site_fract_x
_atom_site_fract_y
_atom_site_fract_z
Si Si1 0.276869 0.002550 0.115693
Si Si2 0.174476 0.188754 0.299773
Si Si3 0.986671 0.331922 0.783637
Si Si4 0.705222 0.515947 0.956297
Si Si5 0.237310 0.693785 0.538906
Si Si6 0.699852 0.439421 0.465444
Si Si7 0.313221 0.738184 0.136147
O O1 0.225632 0.071411 0.224874
O O2 0.220389 0.865371 0.152949
O O3 0.500000 0.016342 0.000000
O O4 0.174859 0.053808 0.069165
O O5 0.171399 0.284472 0.222742
O O6 0.287680 0.200262 0.345852
O O7 0.956505 0.202888 0.419422
O O8 0.861782 0.412743 0.897083
O O9 0.144172 0.404292 0.668149
O O10 0.113172 0.242205 0.792739
O O11 0.785136 0.619272 0.860543
O O12 0.500000 0.476844 0.000000
O O13 0.204082 0.554987 0.525107
O O14 0.149805 0.816028 0.535438
O O15 0.500000 0.480034 0.500000
O O16 0.500000 0.736467 0.000000
#
# Coordination Sequence:
#
# PCOD9123817 Si02
#       7
#     4   4   4   4   4   4   4
#     4  11  22  40  69  96 138 190 226 281 352 407
#     4  10  21  43  68  94 139 174 222 293 337 405
#     4  11  23  44  65  99 138 180 227 289 343 408
#     4  11  24  42  64 100 141 182 234 279 339 417
#     4  10  23  45  71  99 134 177 232 288 347 411
#     4  11  24  47  72  99 138 178 232 292 353 416
#     4  10  20  40  64  92 140 175 225 283 332 403
#
# _framework density 23.417497999999998
#
# number of rings (size 3 to 8) (size 9 to 14) (size 15 to 20)
#    0.000    1.429    4.286    2.571    0.000    1.714 
#   12.857    0.000    0.000    0.000    0.000    0.000 
#    0.000    0.000    0.000    0.000    0.000    0.000 
#
# Total GULP energy -78020.230759 kJ/mol
# GULP energy per Si atom -5572.873626 kJ/mol
# Density = 2.336420 g / cm^3
# Si number density = 23.417498 Si / 1000 Ang^3
#
#
#
# Elastic Constant Matrix: (Units=GPa)
#
#
# Indices 1 2 3 4 5 6 
#
# 1 65.4218 25.4430 21.7590 0.0000 17.3584 0.0000
# 2 25.4430 100.7965 12.3473 0.0000 17.1602 0.0000
# 3 21.7590 12.3473 69.7035 0.0000 22.2462 0.0000
# 4 0.0000 0.0000 0.0000 32.3834 0.0000 10.4271
# 5 17.3584 17.1602 22.2462 0.0000 33.8598 0.0000
# 6 0.0000 0.0000 0.0000 10.4271 0.0000 36.6209
#
#
#
# Elastic Compliance Matrix: (Units=1/GPa)
#
#
# Indices 1 2 3 4 5 6 
#
# 1 0.019365 -0.003458 -0.003573 0.000000 -0.005828 0.000000
# 2 -0.003458 0.011478 0.000426 0.000000 -0.004324 0.000000
# 3 -0.003573 0.000426 0.018816 0.000000 -0.010747 0.000000
# 4 0.000000 0.000000 0.000000 0.033997 0.000000 -0.009680
# 5 -0.005828 -0.004324 -0.010747 0.000000 0.041773 0.000000
# 6 0.000000 0.000000 0.000000 -0.009680 0.000000 0.030063
#
#
# Mechanical properties :
#
#
# Convention : Reuss Voigt Hill
#
# Bulk Modulus (GPa) = 27.43475 39.44673 33.44074
# Shear Modulus (GPa) = 27.64709 32.33099 29.98904
#
# Velocity S-wave (km/s) = 3.43974 3.71972 3.58246
# Velocity P-wave (km/s) = 5.24563 5.94390 5.60565
#
# Compressibility (1/GPa) = 0.03645012
#
# Stress axis : x y z
#
# Youngs Moduli (GPa) = 51.63994 87.12414 53.14601
#
# Poissons Ratio (x) = 0.30130 0.18986
# Poissons Ratio (y) = 0.17859 -0.02267
# Poissons Ratio (z) = 0.18448 -0.03716
#
# Static dielectric constant tensor:
#      x y z
#    x 1.948660 0.000000 0.014560 
#    y 0.000000 2.008870 0.000000 
#    z 0.014560 0.000000 1.835490 
# 
# From -- ./inp_files/50401.got.cif
#   From: 2010.05.17/outbox.cif.g08.bks.cpg/sg5_26_cif.got.tgz:50401.got - 2010.06.03 18:56:24.
