data_PCOD9123522
_publ_section_title
;
Structure prediction by ZEFSAII (Michael W. Deem and Ramdas Pophale) SiO2 
 PCOD9123522
Probable space group: C 2
;
_chemical_formula_sum "Si O2"
_cell_formula_units_Z 20
_cell_length_a 9.477006
_cell_length_b 21.541195
_cell_length_c 5.797691
_cell_angle_alpha 90.000000
_cell_angle_beta 52.283114
_cell_angle_gamma 90.000000
_cell_volume 936.259535
_symmetry_space_group_name_H-M "C 2"
_symmetry_group_IT_number 5
_symmetry_cell_setting 'monoclinic'
loop_
_space_group_symop_operation_xyz
x,y,z
-x,y,-z
1/2+x,1/2+y,z
1/2-x,1/2+y,-z
loop_
_atom_site_type_symbol
_atom_site_label
_atom_site_fract_x
_atom_site_fract_y
_atom_site_fract_z
Si Si1 0.293486 0.915980 0.962294
Si Si2 0.341825 0.731258 0.492060
Si Si3 0.500000 0.628026 0.000000
Si Si4 0.841828 0.554537 0.824288
Si Si5 0.500000 0.157770 0.000000
Si Si6 0.793484 0.369816 0.450736
O O1 0.224627 0.892899 0.775372
O O2 0.500000 0.892897 0.755920
O O3 0.286365 0.990428 0.996417
O O4 0.213633 0.892898 0.286366
O O5 0.500000 0.752508 0.500000
O O6 0.432432 0.675417 0.261480
O O7 0.166561 0.700954 0.774642
O O8 0.286358 0.795368 0.430867
O O9 0.333441 0.584841 0.107749
O O10 0.000000 0.533286 0.500000
O O11 0.932442 0.610378 0.873639
#
# Coordination Sequence:
#
# PCOD9123522 Si02
#       6
#     4   4   2   4   2   4
#     4  10  20  38  68  96 129 187 231 285 360 414
#     4  12  24  43  69 101 144 183 240 295 357 430
#     4  12  26  42  70 104 140 190 234 296 362 426
#     4  12  24  43  69 101 144 183 240 295 357 430
#     4  12  26  42  70 104 140 190 234 296 362 426
#     4  10  20  38  68  96 129 187 231 285 360 414
#
# _framework density 21.361598000000001
#
# number of rings (size 3 to 8) (size 9 to 14) (size 15 to 20)
#    0.000    0.800    8.000    2.400    0.000    0.000 
#    0.000    1.000    0.000    4.800    0.000    0.000 
#    0.000    0.000    0.000    0.000    0.000    0.000 
#
# Total GULP energy -55742.375114 kJ/mol
# GULP energy per Si atom -5574.237511 kJ/mol
# Density = 2.131298 g / cm^3
# Si number density = 21.361598 Si / 1000 Ang^3
#
#
#
# Elastic Constant Matrix: (Units=GPa)
#
#
# Indices 1 2 3 4 5 6 
#
# 1 64.4712 14.9155 49.0823 0.0000 2.3360 0.0000
# 2 14.9155 152.8906 22.6119 0.0000 11.1814 0.0000
# 3 49.0823 22.6119 79.6437 0.0000 19.6941 0.0000
# 4 0.0000 0.0000 0.0000 69.3686 0.0000 -11.4906
# 5 2.3360 11.1814 19.6941 0.0000 33.7328 0.0000
# 6 0.0000 0.0000 0.0000 -11.4906 0.0000 77.2631
#
#
#
# Elastic Compliance Matrix: (Units=1/GPa)
#
#
# Indices 1 2 3 4 5 6 
#
# 1 0.032428 -0.000642 -0.022556 0.000000 0.011136 0.000000
# 2 -0.000642 0.006891 -0.001177 0.000000 -0.001553 0.000000
# 3 -0.022556 -0.001177 0.030747 0.000000 -0.015999 0.000000
# 4 0.000000 0.000000 0.000000 0.014780 0.000000 0.002198
# 5 0.011136 -0.001553 -0.015999 0.000000 0.038729 0.000000
# 6 0.000000 0.000000 0.000000 0.002198 0.000000 0.013270
#
#
# Mechanical properties :
#
#
# Convention : Reuss Voigt Hill
#
# Bulk Modulus (GPa) = 46.91292 52.24719 49.58006
# Shear Modulus (GPa) = 25.94744 50.09928 38.02336
#
# Velocity S-wave (km/s) = 3.48900 4.84808 4.22357
# Velocity P-wave (km/s) = 6.18384 7.47329 6.85893
#
# Compressibility (1/GPa) = 0.02131609
#
# Stress axis : x y z
#
# Youngs Moduli (GPa) = 30.83799 145.11992 32.52399
#
# Poissons Ratio (x) = 0.09317 0.73360
# Poissons Ratio (y) = 0.01980 0.03827
# Poissons Ratio (z) = 0.69557 0.17078
#
# Static dielectric constant tensor:
#      x y z
#    x 1.713560 0.000000 0.109630 
#    y 0.000000 1.779660 0.000000 
#    z 0.109630 0.000000 1.788940 
# 
# From -- ./inp_files/2825.got.cif
#   From: 2010.05.17/outbox.cif.g08.bks.cpg/sg5_2_cif.got.tgz:2825.got - 2010.06.03 18:56:24.
