data_PCOD9123592
_publ_section_title
;
Structure prediction by ZEFSAII (Michael W. Deem and Ramdas Pophale) SiO2 
 PCOD9123592
Probable space group: C 2
;
_chemical_formula_sum "Si O2"
_cell_formula_units_Z 26
_cell_length_a 20.490159
_cell_length_b 8.620608
_cell_length_c 7.722595
_cell_angle_alpha 90.000000
_cell_angle_beta 107.235164
_cell_angle_gamma 90.000000
_cell_volume 1302.848234
_symmetry_space_group_name_H-M "C 2"
_symmetry_group_IT_number 5
_symmetry_cell_setting 'monoclinic'
loop_
_space_group_symop_operation_xyz
x,y,z
-x,y,-z
1/2+x,1/2+y,z
1/2-x,1/2+y,-z
loop_
_atom_site_type_symbol
_atom_site_label
_atom_site_fract_x
_atom_site_fract_y
_atom_site_fract_z
Si Si1 0.254235 0.677010 0.657843
Si Si2 0.686648 0.647489 0.917129
Si Si3 0.936552 0.546058 0.333653
Si Si4 0.532518 0.757114 0.842265
Si Si5 0.500000 0.547104 0.500000
Si Si6 0.134881 0.852548 0.693724
Si Si7 0.185454 0.356797 0.588560
O O1 0.186348 0.783682 0.591343
O O2 0.234125 0.503122 0.592381
O O3 0.311868 0.749908 0.579778
O O4 0.271138 0.669678 0.875212
O O5 0.610646 0.703018 0.903513
O O6 0.677693 0.470749 0.846289
O O7 0.709029 0.751238 0.770011
O O8 0.965725 0.437588 0.206654
O O9 0.895107 0.696978 0.240919
O O10 0.886095 0.434712 0.407225
O O11 0.000000 0.597707 0.500000
O O12 0.496342 0.658334 0.663604
O O13 0.500000 0.728255 0.000000
O O14 0.569217 0.446807 0.571951
#
# Coordination Sequence:
#
# PCOD9123592 Si02
#       7
#     4   4   4   4   2   4   4
#     4  11  22  39  63  91 127 162 211 255 310 377
#     4  10  22  39  61  88 126 160 206 260 308 366
#     4  10  20  39  63  85 125 163 204 257 308 364
#     4  10  22  36  62  91 117 166 205 251 314 368
#     4  10  20  40  62  90 130 160 210 258 306 372
#     4  10  21  39  66  91 121 170 206 258 317 362
#     4  10  23  38  61  94 118 167 206 250 319 364
#
# _framework density 19.956278999999999
#
# number of rings (size 3 to 8) (size 9 to 14) (size 15 to 20)
#    0.000    1.846    1.538    1.846    2.154    1.231 
#    0.000    4.615    3.385    0.000    0.000    0.000 
#    0.000    0.000    0.000    0.000    0.000    0.000 
#
# Total GULP energy -72541.469824 kJ/mol
# GULP energy per Si atom -5580.113063 kJ/mol
# Density = 1.991086 g / cm^3
# Si number density = 19.956279 Si / 1000 Ang^3
#
#
#
# Elastic Constant Matrix: (Units=GPa)
#
#
# Indices 1 2 3 4 5 6 
#
# 1 40.9701 38.1091 30.0242 0.0000 0.1855 0.0000
# 2 38.1091 130.2525 58.9519 0.0000 -8.5979 0.0000
# 3 30.0242 58.9519 98.0146 0.0000 -12.4310 0.0000
# 4 0.0000 0.0000 0.0000 18.8054 0.0000 -3.3019
# 5 0.1855 -8.5979 -12.4310 0.0000 24.7605 0.0000
# 6 0.0000 0.0000 0.0000 -3.3019 0.0000 29.1308
#
#
#
# Elastic Compliance Matrix: (Units=1/GPa)
#
#
# Indices 1 2 3 4 5 6 
#
# 1 0.037370 -0.007985 -0.007510 0.000000 -0.006823 0.000000
# 2 -0.007985 0.012261 -0.004679 0.000000 0.001968 0.000000
# 3 -0.007510 -0.004679 0.016146 0.000000 0.006538 0.000000
# 4 0.000000 0.000000 0.000000 0.054256 0.000000 0.006150
# 5 -0.006823 0.001968 0.006538 0.000000 0.044404 0.000000
# 6 0.000000 0.000000 0.000000 0.006150 0.000000 0.035025
#
#
# Mechanical properties :
#
#
# Convention : Reuss Voigt Hill
#
# Bulk Modulus (GPa) = 39.32419 58.15640 48.74030
# Shear Modulus (GPa) = 20.13797 24.01613 22.07705
#
# Velocity S-wave (km/s) = 3.18009 3.47282 3.32967
# Velocity P-wave (km/s) = 5.76471 6.72948 6.26569
#
# Compressibility (1/GPa) = 0.02542964
#
# Stress axis : x y z
#
# Youngs Moduli (GPa) = 26.75946 81.55737 61.93302
#
# Poissons Ratio (x) = 0.65124 0.46511
# Poissons Ratio (y) = 0.21368 0.28979
# Poissons Ratio (z) = 0.20096 0.38161
#
# Static dielectric constant tensor:
#      x y z
#    x 1.743470 0.000000 0.018910 
#    y 0.000000 1.736810 0.000000 
#    z 0.018910 0.000000 1.687570 
# 
# From -- ./inp_files/10176.got.cif
#   From: 2010.05.17/outbox.cif.g08.bks.cpg/sg5_6_cif.got.tgz:10176.got - 2010.06.03 18:56:24.
