data_PCOD9123537
_publ_section_title
;
Structure prediction by ZEFSAII (Michael W. Deem and Ramdas Pophale) SiO2 
 PCOD9123537
Probable space group: C 2
;
_chemical_formula_sum "Si O2"
_cell_formula_units_Z 28
_cell_length_a 11.005238
_cell_length_b 13.380226
_cell_length_c 9.714123
_cell_angle_alpha 90.000000
_cell_angle_beta 56.485766
_cell_angle_gamma 90.000000
_cell_volume 1192.618783
_symmetry_space_group_name_H-M "C 2"
_symmetry_group_IT_number 5
_symmetry_cell_setting 'monoclinic'
loop_
_space_group_symop_operation_xyz
x,y,z
-x,y,-z
1/2+x,1/2+y,z
1/2-x,1/2+y,-z
loop_
_atom_site_type_symbol
_atom_site_label
_atom_site_fract_x
_atom_site_fract_y
_atom_site_fract_z
Si Si1 0.214089 0.864490 0.075478
Si Si2 0.500000 0.979663 0.000000
Si Si3 0.275935 0.334921 0.257463
Si Si4 0.000000 0.196980 0.500000
Si Si5 0.104735 0.051340 0.241193
Si Si6 0.168244 0.158446 0.920390
Si Si7 0.829098 0.537450 0.581086
Si Si8 0.128823 0.629485 0.736421
O O1 0.209561 0.868323 0.911306
O O2 0.362870 0.911389 0.046612
O O3 0.227382 0.749806 0.107112
O O4 0.092893 0.932787 0.227315
O O5 0.504415 0.056301 0.868547
O O6 0.257492 0.431841 0.364994
O O7 0.391211 0.246775 0.219510
O O8 0.128639 0.270706 0.374602
O O9 0.021239 0.120231 0.615167
O O10 0.236955 0.083292 0.258649
O O11 0.147814 0.088586 0.064681
O O12 0.245092 0.099432 0.750119
O O13 0.000000 0.191648 0.000000
O O14 0.839477 0.605341 0.439852
O O15 0.000000 0.512442 0.500000
#
# Coordination Sequence:
#
# PCOD9123537 Si02
#       8
#     4   2   4   2   4   4   4   4
#     4  11  21  43  71 100 135 196 238 291 355 443
#     4  10  22  40  68 102 138 180 244 288 358 422
#     4  11  22  41  72  97 137 190 240 282 367 428
#     4  10  20  38  72 100 136 186 240 292 350 432
#     4  10  23  42  68 103 144 183 240 299 359 425
#     4  12  26  45  73 107 144 186 245 300 358 432
#     4  12  27  47  72 107 144 185 244 303 358 436
#     4  10  24  39  70 103 139 179 236 300 350 424
#
# _framework density 23.477746
#
# number of rings (size 3 to 8) (size 9 to 14) (size 15 to 20)
#    0.000    1.143    5.714    0.857    6.000    2.286 
#    2.571    1.429    0.000    0.000    0.000    0.000 
#    0.000    0.000    0.000    0.000    0.000    0.000 
#
# Total GULP energy -78150.713107 kJ/mol
# GULP energy per Si atom -5582.193793 kJ/mol
# Density = 2.342431 g / cm^3
# Si number density = 23.477746 Si / 1000 Ang^3
#
#
#
# Elastic Constant Matrix: (Units=GPa)
#
#
# Indices 1 2 3 4 5 6 
#
# 1 73.2244 1.6850 3.5436 0.0000 -7.9409 0.0000
# 2 1.6850 142.7655 44.1817 0.0000 4.1375 0.0000
# 3 3.5436 44.1817 150.7067 0.0000 11.0256 0.0000
# 4 0.0000 0.0000 0.0000 50.6085 0.0000 3.7087
# 5 -7.9409 4.1375 11.0256 0.0000 34.4387 0.0000
# 6 0.0000 0.0000 0.0000 3.7087 0.0000 11.4909
#
#
#
# Elastic Compliance Matrix: (Units=1/GPa)
#
#
# Indices 1 2 3 4 5 6 
#
# 1 0.014058 -0.000094 -0.000554 0.000000 0.003430 0.000000
# 2 -0.000094 0.007705 -0.002240 0.000000 -0.000230 0.000000
# 3 -0.000554 -0.002240 0.007470 0.000000 -0.002250 0.000000
# 4 0.000000 0.000000 0.000000 0.020238 0.000000 -0.006532
# 5 0.003430 -0.000230 -0.002250 0.000000 0.030576 0.000000
# 6 0.000000 0.000000 0.000000 -0.006532 0.000000 0.089133
#
#
# Mechanical properties :
#
#
# Convention : Reuss Voigt Hill
#
# Bulk Modulus (GPa) = 42.63073 51.72413 47.17743
# Shear Modulus (GPa) = 27.35605 40.46004 33.90804
#
# Velocity S-wave (km/s) = 3.41719 4.15581 3.80447
# Velocity P-wave (km/s) = 5.81093 6.71615 6.27987
#
# Compressibility (1/GPa) = 0.02345726
#
# Stress axis : x y z
#
# Youngs Moduli (GPa) = 71.13598 129.77806 133.87408
#
# Poissons Ratio (x) = 0.01218 0.07416
# Poissons Ratio (y) = 0.00668 0.29987
# Poissons Ratio (z) = 0.03941 0.29069
#
# Static dielectric constant tensor:
#      x y z
#    x 2.071820 0.000000 -0.092330 
#    y 0.000000 1.866080 0.000000 
#    z -0.092330 0.000000 1.905590 
# 
# From -- ./inp_files/23829.got.cif
#   From: 2010.05.17/outbox.cif.g08.bks.cpg/sg5_12_cif.got.tgz:23829.got - 2010.06.03 18:56:24.
