data_PCOD9123569
_publ_section_title
;
Structure prediction by ZEFSAII (Michael W. Deem and Ramdas Pophale) SiO2 
 PCOD9123569
Probable space group: C 2
;
_chemical_formula_sum "Si O2"
_cell_formula_units_Z 22
_cell_length_a 21.351138
_cell_length_b 7.246214
_cell_length_c 10.830008
_cell_angle_alpha 90.000000
_cell_angle_beta 33.403642
_cell_angle_gamma 90.000000
_cell_volume 922.454498
_symmetry_space_group_name_H-M "C 2"
_symmetry_group_IT_number 5
_symmetry_cell_setting 'monoclinic'
loop_
_space_group_symop_operation_xyz
x,y,z
-x,y,-z
1/2+x,1/2+y,z
1/2-x,1/2+y,-z
loop_
_atom_site_type_symbol
_atom_site_label
_atom_site_fract_x
_atom_site_fract_y
_atom_site_fract_z
Si Si1 0.160316 0.252720 0.029770
Si Si2 0.500000 0.074835 0.500000
Si Si3 0.956715 0.291513 0.208371
Si Si4 0.648344 0.368728 0.110723
Si Si5 0.342705 0.060629 0.548717
Si Si6 0.993920 0.853048 0.152854
O O1 0.061684 0.357266 0.121663
O O2 0.233551 0.362515 0.008938
O O3 0.238774 0.159406 0.792465
O O4 0.108136 0.079224 0.189548
O O5 0.617132 0.332327 0.018209
O O6 0.422117 0.214546 0.704603
O O7 0.155043 0.397419 0.557520
O O8 0.000000 0.334406 0.000000
O O9 0.954104 0.068354 0.222847
O O10 0.583027 0.978405 0.459566
O O11 0.407463 0.226473 0.371666
O O12 0.000000 0.800527 0.000000
#
# Coordination Sequence:
#
# PCOD9123569 Si02
#       6
#     4   2   4   4   4   4
#     4  10  22  39  59  93 120 153 216 249 304 383
#     4   8  18  36  58  82 120 150 202 248 306 360
#     4  10  22  42  61  88 124 161 204 251 310 368
#     4   9  19  37  57  84 120 151 197 259 298 362
#     4  10  20  39  61  90 117 164 198 250 311 364
#     4   9  19  39  62  84 124 157 199 256 304 362
#
# _framework density 23.849413999999999
#
# number of rings (size 3 to 8) (size 9 to 14) (size 15 to 20)
#    0.000    2.545    0.000    0.545    7.636    0.000 
#   22.909    0.909    0.000    0.000    0.000    0.000 
#    0.000    0.000    0.000    0.000    0.000    0.000 
#
# Total GULP energy -61268.872100 kJ/mol
# GULP energy per Si atom -5569.897464 kJ/mol
# Density = 2.379513 g / cm^3
# Si number density = 23.849414 Si / 1000 Ang^3
#
#
#
# Elastic Constant Matrix: (Units=GPa)
#
#
# Indices 1 2 3 4 5 6 
#
# 1 86.0388 3.6247 30.3746 0.0000 30.2322 0.0000
# 2 3.6247 77.6790 49.7255 0.0000 10.8791 0.0000
# 3 30.3746 49.7255 148.8024 0.0000 15.8121 0.0000
# 4 0.0000 0.0000 0.0000 73.2484 0.0000 -12.2056
# 5 30.2322 10.8791 15.8121 0.0000 30.6921 0.0000
# 6 0.0000 0.0000 0.0000 -12.2056 0.0000 21.0500
#
#
#
# Elastic Compliance Matrix: (Units=1/GPa)
#
#
# Indices 1 2 3 4 5 6 
#
# 1 0.019081 0.003733 -0.003179 0.000000 -0.018481 0.000000
# 2 0.003733 0.017402 -0.005851 0.000000 -0.006830 0.000000
# 3 -0.003179 -0.005851 0.009279 0.000000 0.000424 0.000000
# 4 0.000000 0.000000 0.000000 0.015112 0.000000 0.008763
# 5 -0.018481 -0.006830 0.000424 0.000000 0.052988 0.000000
# 6 0.000000 0.000000 0.000000 0.008763 0.000000 0.052587
#
#
# Mechanical properties :
#
#
# Convention : Reuss Voigt Hill
#
# Bulk Modulus (GPa) = 28.43496 53.32997 40.88247
# Shear Modulus (GPa) = 26.48776 40.25112 33.36944
#
# Velocity S-wave (km/s) = 3.33622 4.11264 3.74461
# Velocity P-wave (km/s) = 5.17582 6.70533 5.98960
#
# Compressibility (1/GPa) = 0.03516798
#
# Stress axis : x y z
#
# Youngs Moduli (GPa) = 52.40716 57.46629 107.76613
#
# Poissons Ratio (x) = -0.21450 0.34254
# Poissons Ratio (y) = -0.19561 0.63056
# Poissons Ratio (z) = 0.16658 0.33625
#
# Static dielectric constant tensor:
#      x y z
#    x 1.974250 0.000000 -0.045350 
#    y 0.000000 1.919140 0.000000 
#    z -0.045350 0.000000 1.922900 
# 
# From -- ./inp_files/31476.got.cif
#   From: 2010.05.17/outbox.cif.g08.bks.cpg/sg5_16_cif.got.tgz:31476.got - 2010.06.03 18:56:24.
