data_PCOD9123308
_publ_section_title
;
Structure prediction by ZEFSAII (Michael W. Deem and Ramdas Pophale) SiO2 
 PCOD9123308
Probable space group: C 2
;
_chemical_formula_sum "Si O2"
_cell_formula_units_Z 28
_cell_length_a 16.235914
_cell_length_b 9.327497
_cell_length_c 10.395405
_cell_angle_alpha 90.000000
_cell_angle_beta 51.844695
_cell_angle_gamma 90.000000
_cell_volume 1237.921548
_symmetry_space_group_name_H-M "C 2"
_symmetry_group_IT_number 5
_symmetry_cell_setting 'monoclinic'
loop_
_space_group_symop_operation_xyz
x,y,z
-x,y,-z
1/2+x,1/2+y,z
1/2-x,1/2+y,-z
loop_
_atom_site_type_symbol
_atom_site_label
_atom_site_fract_x
_atom_site_fract_y
_atom_site_fract_z
Si Si1 0.023486 0.465470 0.121026
Si Si2 0.359584 0.338756 0.502545
Si Si3 0.693747 0.065253 0.575522
Si Si4 0.798983 0.254553 0.972156
Si Si5 0.094703 0.032195 0.996698
Si Si6 0.913590 0.902681 0.740384
Si Si7 0.669749 0.213679 0.873324
O O1 0.917662 0.483198 0.304364
O O2 0.105751 0.363681 0.111499
O O3 0.083301 0.613786 0.027229
O O4 0.000000 0.406373 0.000000
O O5 0.305511 0.183426 0.538125
O O6 0.289473 0.453400 0.491838
O O7 0.381730 0.408629 0.621621
O O8 0.480086 0.311773 0.345165
O O9 0.690128 0.157015 0.711356
O O10 0.690991 0.336680 0.100393
O O11 0.775726 0.194152 0.853325
O O12 0.811153 0.142271 0.076253
O O13 0.060618 0.027473 0.181251
O O14 0.129682 0.877130 0.911011
O O15 0.000000 0.080755 0.000000
#
# Coordination Sequence:
#
# PCOD9123308 Si02
#       7
#     4   4   4   4   4   4   4
#     4  10  20  38  61  87 121 152 189 246 308 354
#     4  11  24  41  62  80 121 166 202 239 282 365
#     4  11  23  41  60  86 115 165 208 240 292 345
#     4  11  21  36  64  95 118 145 190 254 303 349
#     4  11  21  35  63  96 119 145 194 255 298 349
#     4  10  23  41  57  86 123 161 190 232 311 360
#     4  10  20  38  61  86 121 154 190 244 308 356
#
# _framework density 22.618558
#
# number of rings (size 3 to 8) (size 9 to 14) (size 15 to 20)
#    0.000    1.429    0.000    8.571    0.000    3.429 
#    0.000    1.429    0.000    0.000    0.000    0.000 
#    0.000    0.000    0.000    0.000    0.000    0.000 
#
# Total GULP energy -78058.309525 kJ/mol
# GULP energy per Si atom -5575.593538 kJ/mol
# Density = 2.256708 g / cm^3
# Si number density = 22.618558 Si / 1000 Ang^3
#
#
#
# Elastic Constant Matrix: (Units=GPa)
#
#
# Indices 1 2 3 4 5 6 
#
# 1 171.4574 55.2746 36.6478 0.0000 -9.5591 0.0000
# 2 55.2746 97.2536 12.2280 0.0000 -10.7629 0.0000
# 3 36.6478 12.2280 50.6491 0.0000 8.7045 0.0000
# 4 0.0000 0.0000 0.0000 162.5704 0.0000 -155.7988
# 5 -9.5591 -10.7629 8.7045 0.0000 25.2484 0.0000
# 6 0.0000 0.0000 0.0000 -155.7988 0.0000 208.7546
#
#
#
# Elastic Compliance Matrix: (Units=1/GPa)
#
#
# Indices 1 2 3 4 5 6 
#
# 1 0.008477 -0.003673 -0.005878 0.000000 0.003670 0.000000
# 2 -0.003673 0.013042 -0.001283 0.000000 0.004611 0.000000
# 3 -0.005878 -0.001283 0.026344 0.000000 -0.011855 0.000000
# 4 0.000000 0.000000 0.000000 0.021601 0.000000 0.016121
# 5 0.003670 0.004611 -0.011855 0.000000 0.047049 0.000000
# 6 0.000000 0.000000 0.000000 0.016121 0.000000 0.016822
#
#
# Mechanical properties :
#
#
# Convention : Reuss Voigt Hill
#
# Bulk Modulus (GPa) = 38.17633 58.62897 48.40265
# Shear Modulus (GPa) = 30.53711 93.66201 62.09956
#
# Velocity S-wave (km/s) = 3.67834 6.44199 5.24545
# Velocity P-wave (km/s) = 5.91230 9.01717 7.62445
#
# Compressibility (1/GPa) = 0.02619424
#
# Stress axis : x y z
#
# Youngs Moduli (GPa) = 117.95998 76.67749 37.95933
#
# Poissons Ratio (x) = 0.28163 0.22312
# Poissons Ratio (y) = 0.43326 0.04872
# Poissons Ratio (z) = 0.69337 0.09841
#
# Static dielectric constant tensor:
#      x y z
#    x 1.806450 0.000000 -0.058780 
#    y 0.000000 1.913580 0.000000 
#    z -0.058780 0.000000 1.841710 
# 
# From -- ./inp_files/41895.got.cif
#   From: 2010.05.17/outbox.cif.g08.bks.cpg/sg5_21_cif.got.tgz:41895.got - 2010.06.03 18:56:24.
