data_PCOD9123157
_publ_section_title
;
Structure prediction by ZEFSAII (Michael W. Deem and Ramdas Pophale) SiO2 
 PCOD9123157
Probable space group: C 2
;
_chemical_formula_sum "Si O2"
_cell_formula_units_Z 30
_cell_length_a 10.754920
_cell_length_b 10.562910
_cell_length_c 13.899492
_cell_angle_alpha 90.000000
_cell_angle_beta 58.967978
_cell_angle_gamma 90.000000
_cell_volume 1353.036000
_symmetry_space_group_name_H-M "C 2"
_symmetry_group_IT_number 5
_symmetry_cell_setting 'monoclinic'
loop_
_space_group_symop_operation_xyz
x,y,z
-x,y,-z
1/2+x,1/2+y,z
1/2-x,1/2+y,-z
loop_
_atom_site_type_symbol
_atom_site_label
_atom_site_fract_x
_atom_site_fract_y
_atom_site_fract_z
Si Si1 0.750118 0.666720 0.561250
Si Si2 0.773177 0.271407 0.808888
Si Si3 0.013315 0.418841 0.838014
Si Si4 0.044112 0.077993 0.371000
Si Si5 0.679594 0.315015 0.272483
Si Si6 0.536157 0.120292 0.673727
Si Si7 0.866563 0.433987 0.603268
Si Si8 0.500000 0.125844 0.000000
O O1 0.579230 0.668780 0.624822
O O2 0.804624 0.754168 0.626241
O O3 0.771934 0.514631 0.567436
O O4 0.832062 0.695026 0.428997
O O5 0.819136 0.154247 0.722981
O O6 0.768497 0.376741 0.726422
O O7 0.630263 0.218520 0.916760
O O8 0.889781 0.328534 0.839995
O O9 0.154471 0.345737 0.823338
O O10 0.954660 0.525116 0.934951
O O11 0.077773 0.508345 0.727913
O O12 0.000000 0.067010 0.500000
O O13 0.078695 0.937830 0.320127
O O14 0.589791 0.215970 0.242901
O O15 0.458524 0.043511 0.619248
O O16 0.000000 0.357042 0.500000
#
# Coordination Sequence:
#
# PCOD9123157 Si02
#       8
#     4   4   4   4   4   4   4   2
#     4  10  20  37  63  98 139 173 205 248 316 397
#     4  11  24  46  66  93 126 166 217 271 329 380
#     4  11  24  47  68  90 129 169 217 280 323 372
#     4  12  23  37  63 101 132 168 208 254 326 391
#     4  11  21  41  64  96 138 172 211 254 316 392
#     4   9  20  36  64  99 133 171 208 254 317 386
#     4   8  17  38  64  96 133 166 202 256 318 386
#     4  12  28  48  66  92 124 168 228 280 322 380
#
# _framework density 22.172359
#
# number of rings (size 3 to 8) (size 9 to 14) (size 15 to 20)
#    0.000    1.600    2.667    3.200    0.000    2.133 
#    7.200    0.000    0.000    0.000    0.000    0.000 
#    0.000    0.000    0.000    0.000    0.000    0.000 
#
# Total GULP energy -83522.950106 kJ/mol
# GULP energy per Si atom -5568.196674 kJ/mol
# Density = 2.212189 g / cm^3
# Si number density = 22.172359 Si / 1000 Ang^3
#
#
#
# Elastic Constant Matrix: (Units=GPa)
#
#
# Indices 1 2 3 4 5 6 
#
# 1 51.9408 23.7837 17.3139 0.0000 -18.5969 0.0000
# 2 23.7837 87.7455 26.6593 0.0000 -13.8207 0.0000
# 3 17.3139 26.6593 103.5797 0.0000 -27.9305 0.0000
# 4 0.0000 0.0000 0.0000 -13.2136 0.0000 -42.3930
# 5 -18.5969 -13.8207 -27.9305 0.0000 32.9126 0.0000
# 6 0.0000 0.0000 0.0000 -42.3930 0.0000 6.1308
#
#
#
# Elastic Compliance Matrix: (Units=1/GPa)
#
#
# Indices 1 2 3 4 5 6 
#
# 1 0.026114 -0.005176 0.000467 0.000000 0.012978 0.000000
# 2 -0.005176 0.013660 -0.002454 0.000000 0.000729 0.000000
# 3 0.000467 -0.002454 0.012969 0.000000 0.010239 0.000000
# 4 0.000000 0.000000 0.000000 -0.003264 0.000000 -0.022571
# 5 0.012978 0.000729 0.010239 0.000000 0.046711 0.000000
# 6 0.000000 0.000000 0.000000 -0.022571 0.000000 0.007035
#
#
# Mechanical properties :
#
#
# Convention : Reuss Voigt Hill
#
# Bulk Modulus (GPa) = 26.03082 42.08665 34.05874
# Shear Modulus (GPa) = 38.35613 16.86657 27.61135
#
# Velocity S-wave (km/s) = 4.16373 2.76108 3.53272
# Velocity P-wave (km/s) = 5.90603 5.40255 5.65989
#
# Compressibility (1/GPa) = 0.03841600
#
# Stress axis : x y z
#
# Youngs Moduli (GPa) = 38.29403 73.20668 77.10705
#
# Poissons Ratio (x) = 0.37891 -0.03598
# Poissons Ratio (y) = 0.19820 0.18922
# Poissons Ratio (z) = -0.01787 0.17965
#
# Static dielectric constant tensor:
#      x y z
#    x 1.954190 0.000000 -0.041140 
#    y 0.000000 1.865210 0.000000 
#    z -0.041140 0.000000 1.899950 
# 
# From -- ./inp_files/52874.got.cif
#   From: 2010.05.17/outbox.cif.g08.bks.cpg/sg5_27_cif.got.tgz:52874.got - 2010.06.03 18:56:24.
