data_PCOD9123300
_publ_section_title
;
Structure prediction by ZEFSAII (Michael W. Deem and Ramdas Pophale) SiO2 
 PCOD9123300
Probable space group: C 2
;
_chemical_formula_sum "Si O2"
_cell_formula_units_Z 22
_cell_length_a 16.647828
_cell_length_b 4.957524
_cell_length_c 30.506774
_cell_angle_alpha 90.000000
_cell_angle_beta 160.484148
_cell_angle_gamma 90.000000
_cell_volume 841.110604
_symmetry_space_group_name_H-M "C 2"
_symmetry_group_IT_number 5
_symmetry_cell_setting 'monoclinic'
loop_
_space_group_symop_operation_xyz
x,y,z
-x,y,-z
1/2+x,1/2+y,z
1/2-x,1/2+y,-z
loop_
_atom_site_type_symbol
_atom_site_label
_atom_site_fract_x
_atom_site_fract_y
_atom_site_fract_z
Si Si1 0.397548 0.755600 0.058536
Si Si2 0.234936 0.042843 0.695292
Si Si3 0.091877 0.344484 0.413111
Si Si4 0.978962 0.071288 0.263306
Si Si5 0.691865 0.081455 0.869087
Si Si6 0.000000 0.705267 0.500000
O O1 0.648583 0.853658 0.207485
O O2 0.280668 0.511645 0.026286
O O3 0.402005 0.659092 0.010589
O O4 0.053750 0.889082 0.570033
O O5 0.459390 0.118320 0.780718
O O6 0.106251 0.292942 0.651764
O O7 0.187347 0.646739 0.459354
O O8 0.999645 0.214624 0.320655
O O9 0.820790 0.275007 0.152455
O O10 0.252014 0.055360 0.384319
O O11 0.856826 0.783321 0.195609
#
# Coordination Sequence:
#
# PCOD9123300 Si02
#       6
#     4   4   4   4   4   2
#     4  10  20  39  65  97 125 162 215 268 316 364
#     4  10  23  40  66  94 127 169 209 263 314 379
#     4  12  26  42  59  94 137 171 204 256 327 384
#     4  11  23  39  63  92 130 161 210 263 311 375
#     4  10  22  40  66  92 120 164 218 262 306 370
#     4  10  20  38  60  96 118 164 212 254 306 368
#
# _framework density 26.155895000000001
#
# number of rings (size 3 to 8) (size 9 to 14) (size 15 to 20)
#    0.000    1.455    1.818    4.364    5.091    3.636 
#    0.000    0.909    0.000    6.545    0.000    0.000 
#    0.000    0.000    0.000    0.000    0.000    0.000 
#
# Total GULP energy -61683.960902 kJ/mol
# GULP energy per Si atom -5607.632809 kJ/mol
# Density = 2.609636 g / cm^3
# Si number density = 26.155895 Si / 1000 Ang^3
#
#
#
# Elastic Constant Matrix: (Units=GPa)
#
#
# Indices 1 2 3 4 5 6 
#
# 1 72.7620 -9.5505 16.0730 -0.0082 16.8311 -0.0110
# 2 -9.5505 99.8133 30.6466 -0.0196 13.2888 0.0031
# 3 16.0730 30.6466 113.2464 -0.1197 -25.4890 0.0213
# 4 -0.0082 -0.0196 -0.1197 41.2729 0.0107 -12.4667
# 5 16.8311 13.2888 -25.4890 0.0107 52.3181 -0.0174
# 6 -0.0110 0.0031 0.0213 -12.4667 -0.0174 15.5656
#
#
#
# Elastic Compliance Matrix: (Units=1/GPa)
#
#
# Indices 1 2 3 4 5 6 
#
# 1 0.018101 0.004978 -0.006190 -0.000009 -0.010104 0.000002
# 2 0.004978 0.013450 -0.006150 -0.000011 -0.008014 -0.000008
# 3 -0.006190 -0.006150 0.013672 0.000039 0.010215 0.000021
# 4 -0.000009 -0.000011 0.000039 0.031961 0.000027 0.025598
# 5 -0.010104 -0.008014 0.010215 0.000027 0.029376 0.000035
# 6 0.000002 -0.000008 0.000021 0.025598 0.000035 0.084746
#
#
# Mechanical properties :
#
#
# Convention : Reuss Voigt Hill
#
# Bulk Modulus (GPa) = 32.78830 40.01777 36.40303
# Shear Modulus (GPa) = 23.12685 38.40817 30.76751
#
# Velocity S-wave (km/s) = 2.97676 3.83617 3.43346
# Velocity P-wave (km/s) = 4.93738 5.91224 5.44666
#
# Compressibility (1/GPa) = 0.03049869
#
# Stress axis : x y z
#
# Youngs Moduli (GPa) = 55.24450 74.34777 73.14034
#
# Poissons Ratio (x) = -0.37009 0.45276
# Poissons Ratio (y) = -0.27500 0.44983
# Poissons Ratio (z) = 0.34198 0.45725
#
# Static dielectric constant tensor:
#      x y z
#    x 2.070480 0.000000 0.009380 
#    y 0.000000 1.970170 0.000070 
#    z 0.009380 0.000070 2.104830 
# 
# From -- ./inp_files/57377.got.cif
#   From: 2010.05.17/outbox.cif.g08.bks.cpg/sg5_29_cif.got.tgz:57377.got - 2010.06.03 18:56:24.
