data_PCOD9123293
_publ_section_title
;
Structure prediction by ZEFSAII (Michael W. Deem and Ramdas Pophale) SiO2 
 PCOD9123293
Probable space group: C 2
;
_chemical_formula_sum "Si O2"
_cell_formula_units_Z 30
_cell_length_a 10.584454
_cell_length_b 9.650246
_cell_length_c 26.321854
_cell_angle_alpha 90.000000
_cell_angle_beta 149.829634
_cell_angle_gamma 90.000000
_cell_volume 1351.208468
_symmetry_space_group_name_H-M "C 2"
_symmetry_group_IT_number 5
_symmetry_cell_setting 'monoclinic'
loop_
_space_group_symop_operation_xyz
x,y,z
-x,y,-z
1/2+x,1/2+y,z
1/2-x,1/2+y,-z
loop_
_atom_site_type_symbol
_atom_site_label
_atom_site_fract_x
_atom_site_fract_y
_atom_site_fract_z
Si Si1 0.758095 0.259650 0.557178
Si Si2 0.813810 0.125744 0.830879
Si Si3 0.109357 0.458598 0.263444
Si Si4 0.355816 0.706488 0.221489
Si Si5 0.500000 0.703847 0.000000
Si Si6 0.379285 0.556662 0.511555
Si Si7 0.896510 0.438335 0.852914
Si Si8 0.613975 0.387884 0.908900
O O1 0.500000 0.243760 0.500000
O O2 0.794329 0.424059 0.560882
O O3 0.986527 0.207475 0.671453
O O4 0.758114 0.174237 0.504663
O O5 0.783495 0.285069 0.806176
O O6 0.978931 0.121299 0.940600
O O7 0.556523 0.052152 0.756496
O O8 0.969500 0.029662 0.846587
O O9 0.022712 0.300595 0.242335
O O10 0.394429 0.486840 0.377505
O O11 0.053399 0.496178 0.186041
O O12 0.282366 0.550292 0.182731
O O13 0.094114 0.789563 0.137699
O O14 0.253155 0.801276 0.913819
O O15 0.500000 0.606621 0.500000
O O16 0.152605 0.418486 0.972718
#
# Coordination Sequence:
#
# PCOD9123293 Si02
#       8
#     4   4   4   4   2   4   4   4
#     4  11  24  48  72 104 139 180 228 291 356 411
#     4  10  22  37  60  93 125 172 226 262 327 395
#     4  11  22  42  66  91 133 176 218 279 344 396
#     4  11  22  43  69  94 141 180 218 282 344 396
#     4  10  20  38  60  90 136 172 220 276 328 384
#     4  11  24  46  73 101 136 174 231 291 348 418
#     4  11  22  39  64  98 131 173 230 268 325 414
#     4  10  22  39  64  95 135 181 221 276 333 398
#
# _framework density 22.202347
#
# number of rings (size 3 to 8) (size 9 to 14) (size 15 to 20)
#    0.000    1.333    4.000    3.200    0.000    5.333 
#    2.400    0.000    0.000    0.000    0.000    0.000 
#    0.000    0.000    0.000    0.000    0.000    0.000 
#
# Total GULP energy -83811.393231 kJ/mol
# GULP energy per Si atom -5587.426215 kJ/mol
# Density = 2.215181 g / cm^3
# Si number density = 22.202347 Si / 1000 Ang^3
#
#
#
# Elastic Constant Matrix: (Units=GPa)
#
#
# Indices 1 2 3 4 5 6 
#
# 1 93.8353 26.2164 -4.0538 0.0000 -10.6093 0.0000
# 2 26.2164 117.9577 0.3317 0.0000 4.1659 0.0000
# 3 -4.0538 0.3317 64.3783 0.0004 -8.6608 0.0001
# 4 0.0000 0.0000 0.0004 13.6819 0.0001 -4.3178
# 5 -10.6093 4.1659 -8.6608 0.0001 18.8505 0.0000
# 6 0.0000 0.0000 0.0001 -4.3178 0.0000 35.9092
#
#
#
# Elastic Compliance Matrix: (Units=1/GPa)
#
#
# Indices 1 2 3 4 5 6 
#
# 1 0.012593 -0.003111 0.001977 0.000000 0.008684 0.000000
# 2 -0.003111 0.009319 -0.000806 0.000000 -0.004181 0.000000
# 3 0.001977 -0.000806 0.016879 -0.000001 0.009046 0.000000
# 4 0.000000 0.000000 -0.000001 0.075972 -0.000001 0.009135
# 5 0.008684 -0.004181 0.009046 -0.000001 0.063016 0.000000
# 6 0.000000 0.000000 0.000000 0.009135 0.000000 0.028946
#
#
# Mechanical properties :
#
#
# Convention : Reuss Voigt Hill
#
# Bulk Modulus (GPa) = 28.64462 35.68444 32.16453
# Shear Modulus (GPa) = 22.49783 30.60013 26.54898
#
# Velocity S-wave (km/s) = 3.18670 3.71649 3.46175
# Velocity P-wave (km/s) = 5.14487 5.87568 5.52238
#
# Compressibility (1/GPa) = 0.03491058
#
# Stress axis : x y z
#
# Youngs Moduli (GPa) = 79.40656 107.30756 59.24597
#
# Poissons Ratio (x) = 0.33385 -0.11714
# Poissons Ratio (y) = 0.24705 0.04778
# Poissons Ratio (z) = -0.15701 0.08653
#
# Static dielectric constant tensor:
#      x y z
#    x 1.829590 0.000000 -0.003470 
#    y 0.000000 1.835070 0.000000 
#    z -0.003470 0.000000 1.825040 
# 
# From -- ./inp_files/71721.got.cif
#   From: 2010.05.17/outbox.cif.g08.bks.cpg/sg5_36_cif.got.tgz:71721.got - 2010.06.03 18:56:24.
