data_PCOD9123509
_publ_section_title
;
Structure prediction by ZEFSAII (Michael W. Deem and Ramdas Pophale) SiO2 
 PCOD9123509
Probable space group: C 2
;
_chemical_formula_sum "Si O2"
_cell_formula_units_Z 24
_cell_length_a 16.002045
_cell_length_b 8.449154
_cell_length_c 14.399095
_cell_angle_alpha 90.000000
_cell_angle_beta 148.745819
_cell_angle_gamma 90.000000
_cell_volume 1010.075211
_symmetry_space_group_name_H-M "C 2"
_symmetry_group_IT_number 5
_symmetry_cell_setting 'monoclinic'
loop_
_space_group_symop_operation_xyz
x,y,z
-x,y,-z
1/2+x,1/2+y,z
1/2-x,1/2+y,-z
loop_
_atom_site_type_symbol
_atom_site_label
_atom_site_fract_x
_atom_site_fract_y
_atom_site_fract_z
Si Si1 0.369803 0.324840 0.633972
Si Si2 0.113889 0.296032 0.740497
Si Si3 0.411727 0.163904 0.314869
Si Si4 0.839636 0.351203 0.820061
Si Si5 0.550695 0.688074 0.251958
Si Si6 0.727452 0.670721 0.667277
O O1 0.481121 0.240616 0.663735
O O2 0.412280 0.506944 0.689331
O O3 0.188338 0.303905 0.424219
O O4 0.362883 0.236414 0.726676
O O5 0.126581 0.484386 0.748776
O O6 0.238427 0.225249 0.784573
O O7 0.108829 0.235018 0.841732
O O8 0.941619 0.238037 0.533719
O O9 0.500000 0.157411 0.500000
O O10 0.257055 0.270242 0.189423
O O11 0.914371 0.219223 0.822724
O O12 0.724450 0.480893 0.664085
O O13 0.000000 0.445682 0.000000
#
# Coordination Sequence:
#
# PCOD9123509 Si02
#       6
#     4   4   4   4   4   4
#     4  11  21  36  67  99 122 163 218 280 313 361
#     4  10  20  38  68 101 123 155 218 277 315 362
#     4  12  22  39  66  98 126 166 217 268 314 370
#     4  12  27  43  61  94 139 177 206 256 328 396
#     4  11  21  38  62  95 132 163 214 268 323 374
#     4  10  20  39  63  96 130 159 214 263 320 371
#
# _framework density 23.760605000000002
#
# number of rings (size 3 to 8) (size 9 to 14) (size 15 to 20)
#    0.000    1.000    3.333    7.000    2.333    0.000 
#    0.000   10.000    0.000    0.000    0.000    0.000 
#    0.000    0.000    0.000    0.000    0.000    0.000 
#
# Total GULP energy -67045.235839 kJ/mol
# GULP energy per Si atom -5587.102987 kJ/mol
# Density = 2.370652 g / cm^3
# Si number density = 23.760605 Si / 1000 Ang^3
#
#
#
# Elastic Constant Matrix: (Units=GPa)
#
#
# Indices 1 2 3 4 5 6 
#
# 1 234.7619 51.9110 4.7488 0.0000 -15.6588 0.0000
# 2 51.9110 151.5886 -10.0128 0.0000 -7.2124 0.0000
# 3 4.7488 -10.0128 17.5825 0.0000 2.9513 0.0000
# 4 0.0000 0.0000 0.0000 1.3047 0.0000 -4.9286
# 5 -15.6588 -7.2124 2.9513 0.0000 19.2981 0.0000
# 6 0.0000 0.0000 0.0000 -4.9286 0.0000 41.7040
#
#
#
# Elastic Compliance Matrix: (Units=1/GPa)
#
#
# Indices 1 2 3 4 5 6 
#
# 1 0.004953 -0.001709 -0.002954 0.000000 0.003832 0.000000
# 2 -0.001709 0.007522 0.004625 0.000000 0.000717 0.000000
# 3 -0.002954 0.004625 0.062010 0.000000 -0.010152 0.000000
# 4 0.000000 0.000000 0.000000 1.384670 0.000000 0.163642
# 5 0.003832 0.000717 -0.010152 0.000000 0.056748 0.000000
# 6 0.000000 0.000000 0.000000 0.163642 0.000000 0.043318
#
#
# Mechanical properties :
#
#
# Convention : Reuss Voigt Hill
#
# Bulk Modulus (GPa) = 13.43947 55.24747 34.34347
# Shear Modulus (GPa) = 3.15636 36.28041 19.71839
#
# Velocity S-wave (km/s) = 1.15381 3.91181 2.88388
# Velocity P-wave (km/s) = 2.72828 6.61099 5.05711
#
# Compressibility (1/GPa) = 0.07440768
#
# Stress axis : x y z
#
# Youngs Moduli (GPa) = 201.90348 132.95062 16.12638
#
# Poissons Ratio (x) = 0.22720 0.04764
# Poissons Ratio (y) = 0.34503 -0.07458
# Poissons Ratio (z) = 0.59644 -0.61483
#
# Static dielectric constant tensor:
#      x y z
#    x 1.971130 0.000000 -0.076250 
#    y 0.000000 1.822860 0.000000 
#    z -0.076250 0.000000 2.081840 
# 
# From -- ./inp_files/54255.got.cif
#   From: 2010.05.17/outbox.cif.g08.bks.cpg/sg5_28_cif.got.tgz:54255.got - 2010.06.03 18:56:24.
