data_PCOD9123009
_publ_section_title
;
Structure prediction by ZEFSAII (Michael W. Deem and Ramdas Pophale) SiO2 
 PCOD9123009
Probable space group: C 2
;
_chemical_formula_sum "Si O2"
_cell_formula_units_Z 30
_cell_length_a 28.540940
_cell_length_b 8.682515
_cell_length_c 17.397679
_cell_angle_alpha 90.000000
_cell_angle_beta 158.424150
_cell_angle_gamma 90.000000
_cell_volume 1585.394279
_symmetry_space_group_name_H-M "C 2"
_symmetry_group_IT_number 5
_symmetry_cell_setting 'monoclinic'
loop_
_space_group_symop_operation_xyz
x,y,z
-x,y,-z
1/2+x,1/2+y,z
1/2-x,1/2+y,-z
loop_
_atom_site_type_symbol
_atom_site_label
_atom_site_fract_x
_atom_site_fract_y
_atom_site_fract_z
Si Si1 0.000000 0.197940 0.000000
Si Si2 0.960882 0.630512 0.055500
Si Si3 0.598484 0.488414 0.718407
Si Si4 0.903966 0.630341 0.283426
Si Si5 0.377921 0.627109 0.093026
Si Si6 0.620429 0.990722 0.907943
Si Si7 0.462102 0.476962 0.796339
Si Si8 0.819571 0.476299 0.707711
O O1 0.123085 0.310491 0.179596
O O2 0.026862 0.094463 0.115620
O O3 0.929022 0.576542 0.092652
O O4 0.998018 0.808808 0.113228
O O5 0.082425 0.537442 0.207764
O O6 0.846005 0.587177 0.821479
O O7 0.500000 0.495313 0.500000
O O8 0.609689 0.309840 0.761140
O O9 0.555166 0.589700 0.724018
O O10 0.734415 0.536532 0.891035
O O11 0.947812 0.535893 0.275880
O O12 0.000000 0.620265 0.500000
O O13 0.767252 0.580378 0.108694
O O14 0.383132 0.808144 0.083558
O O15 0.440201 0.532715 0.119912
O O16 0.321694 0.473439 0.542604
#
# Coordination Sequence:
#
# PCOD9123009 Si02
#       8
#     2   4   4   4   4   4   4   4
#     4  10  22  42  64  92 120 160 206 254 290 368
#     4  10  22  41  62  92 121 160 200 251 298 365
#     4   9  19  35  60  82 112 156 198 240 297 354
#     4   9  19  39  56  83 117 156 196 247 300 354
#     4  10  21  36  56  89 117 154 199 245 296 360
#     4  10  20  37  58  83 124 150 198 250 292 358
#     4  12  23  41  65  91 126 159 204 248 306 360
#     4  10  23  43  65  87 126 160 201 252 309 349
#
# _framework density 18.922737999999999
#
# number of rings (size 3 to 8) (size 9 to 14) (size 15 to 20)
#    0.000    2.133    0.000    4.000    1.867    1.600 
#   12.000    0.000    0.000    0.000    0.000    0.000 
#    0.000    0.000    0.000    0.000    0.000    0.000 
#
# Total GULP energy -83692.835567 kJ/mol
# GULP energy per Si atom -5579.522371 kJ/mol
# Density = 1.887967 g / cm^3
# Si number density = 18.922738 Si / 1000 Ang^3
#
#
#
# Elastic Constant Matrix: (Units=GPa)
#
#
# Indices 1 2 3 4 5 6 
#
# 1 104.8870 45.5982 43.5752 0.0000 -11.1275 0.0000
# 2 45.5982 90.2058 50.3241 0.0000 -10.1244 0.0000
# 3 43.5752 50.3241 91.6519 0.0000 -20.6530 0.0000
# 4 0.0000 0.0000 0.0000 21.2424 0.0000 -9.2129
# 5 -11.1275 -10.1244 -20.6530 0.0000 18.3873 0.0000
# 6 0.0000 0.0000 0.0000 -9.2129 0.0000 39.5154
#
#
#
# Elastic Compliance Matrix: (Units=1/GPa)
#
#
# Indices 1 2 3 4 5 6 
#
# 1 0.013081 -0.004563 -0.003342 0.000000 0.001650 0.000000
# 2 -0.004563 0.017600 -0.007944 0.000000 -0.001993 0.000000
# 3 -0.003342 -0.007944 0.020646 0.000000 0.016793 0.000000
# 4 0.000000 0.000000 0.000000 0.052371 0.000000 0.012210
# 5 0.001650 -0.001993 0.016793 0.000000 0.073149 0.000000
# 6 0.000000 0.000000 0.000000 0.012210 0.000000 0.028153
#
#
# Mechanical properties :
#
#
# Convention : Reuss Voigt Hill
#
# Bulk Modulus (GPa) = 50.94245 62.85997 56.90121
# Shear Modulus (GPa) = 20.55576 25.64551 23.10064
#
# Velocity S-wave (km/s) = 3.29948 3.68540 3.49777
# Velocity P-wave (km/s) = 6.44167 7.16945 6.81528
#
# Compressibility (1/GPa) = 0.01962999
#
# Stress axis : x y z
#
# Youngs Moduli (GPa) = 76.44553 56.81807 48.43616
#
# Poissons Ratio (x) = 0.25924 0.16189
# Poissons Ratio (y) = 0.34879 0.38475
# Poissons Ratio (z) = 0.25551 0.45134
#
# Static dielectric constant tensor:
#      x y z
#    x 1.633310 0.000000 -0.014980 
#    y 0.000000 1.674990 0.000000 
#    z -0.014980 0.000000 1.680330 
# 
# From -- ./inp_files/63812.got.cif
#   From: 2010.05.17/outbox.cif.g08.bks.cpg/sg5_32_cif.got.tgz:63812.got - 2010.06.03 18:56:24.
