data_PCOD9123043
_publ_section_title
;
Structure prediction by ZEFSAII (Michael W. Deem and Ramdas Pophale) SiO2 
 PCOD9123043
Probable space group: C 2
;
_chemical_formula_sum "Si O2"
_cell_formula_units_Z 22
_cell_length_a 13.501487
_cell_length_b 13.994059
_cell_length_c 9.910379
_cell_angle_alpha 90.000000
_cell_angle_beta 145.487908
_cell_angle_gamma 90.000000
_cell_volume 1060.906043
_symmetry_space_group_name_H-M "C 2"
_symmetry_group_IT_number 5
_symmetry_cell_setting 'monoclinic'
loop_
_space_group_symop_operation_xyz
x,y,z
-x,y,-z
1/2+x,1/2+y,z
1/2-x,1/2+y,-z
loop_
_atom_site_type_symbol
_atom_site_label
_atom_site_fract_x
_atom_site_fract_y
_atom_site_fract_z
Si Si1 0.563550 0.283030 0.858738
Si Si2 0.632383 0.488619 0.857897
Si Si3 0.811518 0.188210 0.938670
Si Si4 0.325878 0.773485 0.666153
Si Si5 0.741779 0.981860 0.302916
Si Si6 0.500000 0.143829 0.000000
O O1 0.631931 0.390836 0.943217
O O2 0.645219 0.241772 0.813875
O O3 0.352955 0.275349 0.618724
O O4 0.615735 0.211698 0.035970
O O5 0.433717 0.494560 0.580204
O O6 0.743492 0.481906 0.843937
O O7 0.682143 0.580256 0.001420
O O8 0.804507 0.202731 0.770374
O O9 0.990068 0.240965 0.189685
O O10 0.333646 0.881042 0.732962
O O11 0.625085 0.070553 0.218392
#
# Coordination Sequence:
#
# PCOD9123043 Si02
#       6
#     4   4   4   4   4   2
#     4  11  23  39  57  89 120 151 189 244 288 343
#     4  10  21  38  59  84 119 151 192 239 292 335
#     4  11  20  37  62  88 111 151 197 240 281 339
#     4  10  22  38  63  85 114 154 200 232 283 346
#     4  10  20  37  60  86 112 155 199 235 272 354
#     4  12  22  36  60  90 118 150 192 242 294 336
#
# _framework density 20.736992999999998
#
# number of rings (size 3 to 8) (size 9 to 14) (size 15 to 20)
#    0.000    1.455    3.636    2.727    0.000    1.455 
#    0.000    0.000    0.000    6.545    0.000    0.000 
#    0.000    0.000    0.000    0.000    0.000    0.000 
#
# Total GULP energy -61405.851199 kJ/mol
# GULP energy per Si atom -5582.350109 kJ/mol
# Density = 2.068979 g / cm^3
# Si number density = 20.736993 Si / 1000 Ang^3
#
#
#
# Elastic Constant Matrix: (Units=GPa)
#
#
# Indices 1 2 3 4 5 6 
#
# 1 36.5743 19.6857 -7.3388 0.0000 4.3663 0.0000
# 2 19.6857 169.7311 13.0156 0.0000 -9.2575 0.0000
# 3 -7.3388 13.0156 36.3462 0.0000 13.0203 0.0000
# 4 0.0000 0.0000 0.0000 17.2913 0.0000 -0.4300
# 5 4.3663 -9.2575 13.0203 0.0000 27.1069 0.0000
# 6 0.0000 0.0000 0.0000 -0.4300 0.0000 24.6620
#
#
#
# Elastic Compliance Matrix: (Units=1/GPa)
#
#
# Indices 1 2 3 4 5 6 
#
# 1 0.035247 -0.006005 0.014537 0.000000 -0.014711 0.000000
# 2 -0.006005 0.007416 -0.006186 0.000000 0.006471 0.000000
# 3 0.014537 -0.006186 0.041380 0.000000 -0.024330 0.000000
# 4 0.000000 0.000000 0.000000 0.057858 0.000000 0.001009
# 5 -0.014711 0.006471 -0.024330 0.000000 0.053157 0.000000
# 6 0.000000 0.000000 0.000000 0.001009 0.000000 0.040566
#
#
# Mechanical properties :
#
#
# Convention : Reuss Voigt Hill
#
# Bulk Modulus (GPa) = 11.26963 32.59738 21.93351
# Shear Modulus (GPa) = 19.19318 28.29798 23.74558
#
# Velocity S-wave (km/s) = 3.04559 3.69807 3.38758
# Velocity P-wave (km/s) = 4.22065 5.82991 5.08929
#
# Compressibility (1/GPa) = 0.08873404
#
# Stress axis : x y z
#
# Youngs Moduli (GPa) = 28.37119 134.85266 24.16647
#
# Poissons Ratio (x) = 0.80981 -0.35132
# Poissons Ratio (y) = 0.17037 0.14950
# Poissons Ratio (z) = -0.41244 0.83423
#
# Static dielectric constant tensor:
#      x y z
#    x 1.779630 0.000000 0.001190 
#    y 0.000000 1.729970 0.000000 
#    z 0.001190 0.000000 1.777570 
# 
# From -- ./inp_files/23057.got.cif
#   From: 2010.05.17/outbox.cif.g08.bks.cpg/sg5_12_cif.got.tgz:23057.got - 2010.06.03 18:56:24.
