data_PCOD9123788
_publ_section_title
;
Structure prediction by ZEFSAII (Michael W. Deem and Ramdas Pophale) SiO2 
 PCOD9123788
Probable space group: C 2
;
_chemical_formula_sum "Si O2"
_cell_formula_units_Z 20
_cell_length_a 22.308370
_cell_length_b 5.525968
_cell_length_c 12.632283
_cell_angle_alpha 90.000000
_cell_angle_beta 33.029537
_cell_angle_gamma 90.000000
_cell_volume 848.811738
_symmetry_space_group_name_H-M "C 2"
_symmetry_group_IT_number 5
_symmetry_cell_setting 'monoclinic'
loop_
_space_group_symop_operation_xyz
x,y,z
-x,y,-z
1/2+x,1/2+y,z
1/2-x,1/2+y,-z
loop_
_atom_site_type_symbol
_atom_site_label
_atom_site_fract_x
_atom_site_fract_y
_atom_site_fract_z
Si Si1 0.800871 0.770920 0.163159
Si Si2 0.110345 0.440103 0.789197
Si Si3 0.685482 0.211274 0.084307
Si Si4 0.667894 0.160188 0.490075
Si Si5 0.406578 0.443195 0.582128
O O1 0.871193 0.658691 0.154420
O O2 0.704722 0.588421 0.271257
O O3 0.733749 0.995416 0.308412
O O4 0.861083 0.789745 0.961814
O O5 0.227780 0.302543 0.615021
O O6 0.102911 0.525030 0.679193
O O7 0.000000 0.313185 0.000000
O O8 0.609732 0.252783 0.298386
O O9 0.775676 0.430576 0.967929
O O10 0.585556 0.322198 0.543720
O O11 0.500000 0.604867 0.500000
#
# Coordination Sequence:
#
# PCOD9123788 Si02
#       5
#     4   4   4   4   4
#     4  10  22  43  64  89 137 180 222 295 342 418
#     4  11  25  43  69 101 131 183 232 284 360 417
#     4  10  20  40  63  92 130 176 226 277 351 418
#     4  11  22  46  66  97 140 170 231 296 337 429
#     4  10  23  40  63  99 130 178 226 283 353 422
#
# _framework density 23.562352000000001
#
# number of rings (size 3 to 8) (size 9 to 14) (size 15 to 20)
#    0.000    1.600    4.000    0.000    2.800    1.600 
#    3.600    0.000    0.000    0.000    0.000    0.000 
#    0.000    0.000    0.000    0.000    0.000    0.000 
#
# Total GULP energy -55667.627813 kJ/mol
# GULP energy per Si atom -5566.762781 kJ/mol
# Density = 2.350872 g / cm^3
# Si number density = 23.562352 Si / 1000 Ang^3
#
#
#
# Elastic Constant Matrix: (Units=GPa)
#
#
# Indices 1 2 3 4 5 6 
#
# 1 105.1805 5.6716 29.3112 -0.0028 15.4774 0.0028
# 2 5.6716 35.1158 10.5546 -0.0135 3.0458 0.0131
# 3 29.3112 10.5546 125.7368 -0.0062 14.2548 0.0046
# 4 -0.0028 -0.0135 -0.0062 11.8365 0.0033 21.6815
# 5 15.4774 3.0458 14.2548 0.0033 38.2120 -0.0009
# 6 0.0028 0.0131 0.0046 21.6815 -0.0009 6.5150
#
#
#
# Elastic Compliance Matrix: (Units=1/GPa)
#
#
# Indices 1 2 3 4 5 6 
#
# 1 0.010625 -0.000808 -0.002014 -0.000001 -0.003488 0.000001
# 2 -0.000808 0.029356 -0.002138 -0.000027 -0.001215 0.000032
# 3 -0.002014 -0.002138 0.008865 -0.000001 -0.002321 0.000002
# 4 -0.000001 -0.000027 -0.000001 -0.016579 0.000006 0.055173
# 5 -0.003488 -0.001215 -0.002321 0.000006 0.028545 -0.000009
# 6 0.000001 0.000032 0.000002 0.055173 -0.000009 -0.030121
#
#
# Mechanical properties :
#
#
# Convention : Reuss Voigt Hill
#
# Bulk Modulus (GPa) = 25.68952 39.67863 32.68408
# Shear Modulus (GPa) = 93.30451 26.01241 59.65846
#
# Velocity S-wave (km/s) = 6.29960 3.32623 5.03730
# Velocity P-wave (km/s) = 7.98998 5.62389 6.90897
#
# Compressibility (1/GPa) = 0.03892638
#
# Stress axis : x y z
#
# Youngs Moduli (GPa) = 94.11325 34.06485 112.80132
#
# Poissons Ratio (x) = 0.02754 0.22714
# Poissons Ratio (y) = 0.07608 0.24117
# Poissons Ratio (z) = 0.18951 0.07283
#
# Static dielectric constant tensor:
#      x y z
#    x 2.027480 0.000000 -0.088590 
#    y 0.000000 1.950410 0.000000 
#    z -0.088590 0.000000 2.114530 
# 
# From -- ./inp_files/45350.got.cif
#   From: 2010.05.17/outbox.cif.g08.bks.cpg/sg5_23_cif.got.tgz:45350.got - 2010.06.03 18:56:24.
