data_PCOD9123734
_publ_section_title
;
Structure prediction by ZEFSAII (Michael W. Deem and Ramdas Pophale) SiO2 
 PCOD9123734
Probable space group: C 2
;
_chemical_formula_sum "Si O2"
_cell_formula_units_Z 18
_cell_length_a 16.783601
_cell_length_b 4.883124
_cell_length_c 12.809179
_cell_angle_alpha 90.000000
_cell_angle_beta 137.971249
_cell_angle_gamma 90.000000
_cell_volume 702.840860
_symmetry_space_group_name_H-M "C 2"
_symmetry_group_IT_number 5
_symmetry_cell_setting 'monoclinic'
loop_
_space_group_symop_operation_xyz
x,y,z
-x,y,-z
1/2+x,1/2+y,z
1/2-x,1/2+y,-z
loop_
_atom_site_type_symbol
_atom_site_label
_atom_site_fract_x
_atom_site_fract_y
_atom_site_fract_z
Si Si1 0.000000 0.511050 0.000000
Si Si2 0.606988 0.175090 0.421326
Si Si3 0.874206 0.179363 0.700777
Si Si4 0.855454 0.843796 0.213214
Si Si5 0.205812 0.840281 0.092203
O O1 0.961099 0.308021 0.869460
O O2 0.892636 0.709290 0.929895
O O3 0.736183 0.222868 0.596624
O O4 0.608340 0.368154 0.318537
O O5 0.488871 0.254394 0.367261
O O6 0.603503 0.862219 0.380906
O O7 0.752738 0.644262 0.156243
O O8 0.822042 0.148713 0.211711
O O9 0.841163 0.822104 0.072845
#
# Coordination Sequence:
#
# PCOD9123734 Si02
#       5
#     2   4   4   4   4
#     4  12  24  42  62 108 130 160 208 284 324 374
#     4  10  20  42  63  92 124 177 217 250 307 403
#     4  10  23  36  66  95 130 165 210 266 321 371
#     4  10  20  40  60  90 119 174 211 250 299 396
#     4  10  23  34  63  92 126 160 208 262 317 360
#
# _framework density 25.61035
#
# number of rings (size 3 to 8) (size 9 to 14) (size 15 to 20)
#    0.000    1.778    2.222    1.333    6.222    3.556 
#    0.000    1.111    0.000    2.667    0.000    0.000 
#    0.000    0.000    0.000    0.000    0.000    0.000 
#
# Total GULP energy -50460.574477 kJ/mol
# GULP energy per Si atom -5606.730497 kJ/mol
# Density = 2.555206 g / cm^3
# Si number density = 25.610350 Si / 1000 Ang^3
#
#
#
# Elastic Constant Matrix: (Units=GPa)
#
#
# Indices 1 2 3 4 5 6 
#
# 1 84.3032 -1.8042 32.7317 0.0003 8.3473 0.0002
# 2 -1.8042 79.0860 -4.8452 0.0014 -4.7360 0.0016
# 3 32.7317 -4.8452 92.8344 0.0001 30.7376 0.0004
# 4 0.0003 0.0014 0.0001 21.9068 0.0001 12.3727
# 5 8.3473 -4.7360 30.7376 0.0001 46.9322 0.0003
# 6 0.0002 0.0016 0.0004 12.3727 0.0003 25.1190
#
#
#
# Elastic Compliance Matrix: (Units=1/GPa)
#
#
# Indices 1 2 3 4 5 6 
#
# 1 0.013775 0.000054 -0.005165 0.000000 0.000938 0.000000
# 2 0.000054 0.012728 0.000285 0.000000 0.001088 -0.000001
# 3 -0.005165 0.000285 0.015698 0.000000 -0.009334 0.000000
# 4 0.000000 0.000000 0.000000 0.063241 0.000000 -0.031150
# 5 0.000938 0.001088 -0.009334 0.000000 0.027363 0.000000
# 6 0.000000 -0.000001 0.000000 -0.031150 0.000000 0.055154
#
#
# Mechanical properties :
#
#
# Convention : Reuss Voigt Hill
#
# Bulk Modulus (GPa) = 30.72145 34.26537 32.49341
# Shear Modulus (GPa) = 23.98516 34.13436 29.05976
#
# Velocity S-wave (km/s) = 3.06362 3.65476 3.37217
# Velocity P-wave (km/s) = 4.95339 5.58733 5.27988
#
# Compressibility (1/GPa) = 0.03255055
#
# Stress axis : x y z
#
# Youngs Moduli (GPa) = 72.59273 78.56499 63.70151
#
# Poissons Ratio (x) = -0.00424 0.32900
# Poissons Ratio (y) = -0.00392 -0.01815
# Poissons Ratio (z) = 0.37492 -0.02239
#
# Static dielectric constant tensor:
#      x y z
#    x 2.016560 0.000000 -0.016170 
#    y 0.000000 1.914890 0.000000 
#    z -0.016170 0.000000 1.994510 
# 
# From -- ./inp_files/43536.got.cif
#   From: 2010.05.17/outbox.cif.g08.bks.cpg/sg5_22_cif.got.tgz:43536.got - 2010.06.03 18:56:24.
