data_PCOD9123150
_publ_section_title
;
Structure prediction by ZEFSAII (Michael W. Deem and Ramdas Pophale) SiO2 
 PCOD9123150
Probable space group: C 2
;
_chemical_formula_sum "Si O2"
_cell_formula_units_Z 24
_cell_length_a 8.004125
_cell_length_b 14.695102
_cell_length_c 14.390722
_cell_angle_alpha 90.000000
_cell_angle_beta 38.261775
_cell_angle_gamma 90.000000
_cell_volume 1048.187082
_symmetry_space_group_name_H-M "C 2"
_symmetry_group_IT_number 5
_symmetry_cell_setting 'monoclinic'
loop_
_space_group_symop_operation_xyz
x,y,z
-x,y,-z
1/2+x,1/2+y,z
1/2-x,1/2+y,-z
loop_
_atom_site_type_symbol
_atom_site_label
_atom_site_fract_x
_atom_site_fract_y
_atom_site_fract_z
Si Si1 0.947798 0.148950 0.911579
Si Si2 0.889252 0.272576 0.321682
Si Si3 0.998680 0.786464 0.125993
Si Si4 0.174255 0.468494 0.015889
Si Si5 0.333612 0.464891 0.654514
Si Si6 0.799863 0.831011 0.407547
O O1 0.128306 0.200056 0.754563
O O2 0.662958 0.199271 0.024198
O O3 0.000000 0.157399 0.000000
O O4 0.903381 0.044105 0.905999
O O5 0.200404 0.283667 0.215520
O O6 0.784263 0.369737 0.332741
O O7 0.732373 0.265060 0.488738
O O8 0.968529 0.788345 0.250512
O O9 0.175210 0.875443 0.022840
O O10 0.938883 0.507542 0.186615
O O11 0.000000 0.449015 0.000000
O O12 0.500000 0.513611 0.500000
O O13 0.553764 0.426231 0.630640
O O14 0.500000 0.849045 0.500000
#
# Coordination Sequence:
#
# PCOD9123150 Si02
#       6
#     4   4   4   4   4   4
#     4  12  26  40  62  98 137 177 231 272 328 393
#     4  10  21  39  68  92 132 173 216 275 332 395
#     4  11  21  41  69  97 132 172 223 273 343 394
#     4  12  24  40  66  98 134 175 224 280 329 401
#     4  10  20  37  63  93 129 171 220 264 331 388
#     4   9  19  37  67  98 124 173 219 268 337 402
#
# _framework density 22.896674000000001
#
# number of rings (size 3 to 8) (size 9 to 14) (size 15 to 20)
#    0.000    1.333    3.333    3.000    2.333    0.000 
#    0.000    4.167    0.000    7.000    0.000    0.000 
#    0.000    0.000    0.000    0.000    0.000    0.000 
#
# Total GULP energy -66961.531778 kJ/mol
# GULP energy per Si atom -5580.127648 kJ/mol
# Density = 2.284456 g / cm^3
# Si number density = 22.896674 Si / 1000 Ang^3
#
#
#
# Elastic Constant Matrix: (Units=GPa)
#
#
# Indices 1 2 3 4 5 6 
#
# 1 95.0587 11.5261 23.4779 -0.0029 6.2634 0.0021
# 2 11.5261 58.5939 13.9336 -0.0018 5.0019 0.0016
# 3 23.4779 13.9336 137.5691 -0.0042 13.5164 0.0033
# 4 -0.0029 -0.0018 -0.0042 24.5923 0.0024 -2.5507
# 5 6.2634 5.0019 13.5164 0.0024 47.3993 -0.0016
# 6 0.0021 0.0016 0.0033 -2.5507 -0.0016 13.6953
#
#
#
# Elastic Compliance Matrix: (Units=1/GPa)
#
#
# Indices 1 2 3 4 5 6 
#
# 1 0.011193 -0.001738 -0.001653 0.000001 -0.000824 -0.000001
# 2 -0.001738 0.017846 -0.001387 0.000001 -0.001258 -0.000002
# 3 -0.001653 -0.001387 0.007877 0.000001 -0.001881 -0.000002
# 4 0.000001 0.000001 0.000001 0.041464 -0.000002 0.007722
# 5 -0.000824 -0.001258 -0.001881 -0.000002 0.021875 0.000003
# 6 -0.000001 -0.000002 -0.000002 0.007722 0.000003 0.074456
#
#
# Mechanical properties :
#
#
# Convention : Reuss Voigt Hill
#
# Bulk Modulus (GPa) = 36.55238 43.23301 39.89269
# Shear Modulus (GPa) = 25.85476 33.28965 29.57221
#
# Velocity S-wave (km/s) = 3.36399 3.81715 3.59771
# Velocity P-wave (km/s) = 5.57560 6.19276 5.89227
#
# Compressibility (1/GPa) = 0.02735800
#
# Stress axis : x y z
#
# Youngs Moduli (GPa) = 89.33980 56.03545 126.95896
#
# Poissons Ratio (x) = 0.09741 0.20989
# Poissons Ratio (y) = 0.15530 0.17612
# Poissons Ratio (z) = 0.14770 0.07773
#
# Static dielectric constant tensor:
#      x y z
#    x 1.902700 0.000000 0.082100 
#    y 0.000000 1.770940 0.000000 
#    z 0.082100 0.000000 1.956560 
# 
# From -- ./inp_files/50833.got.cif
#   From: 2010.05.17/outbox.cif.g08.bks.cpg/sg5_26_cif.got.tgz:50833.got - 2010.06.03 18:56:24.
