data_PCOD9123424
_publ_section_title
;
Structure prediction by ZEFSAII (Michael W. Deem and Ramdas Pophale) SiO2 
 PCOD9123424
Probable space group: C 2
;
_chemical_formula_sum "Si O2"
_cell_formula_units_Z 28
_cell_length_a 27.632909
_cell_length_b 5.730070
_cell_length_c 7.633486
_cell_angle_alpha 90.000000
_cell_angle_beta 116.077479
_cell_angle_gamma 90.000000
_cell_volume 1085.632177
_symmetry_space_group_name_H-M "C 2"
_symmetry_group_IT_number 5
_symmetry_cell_setting 'monoclinic'
loop_
_space_group_symop_operation_xyz
x,y,z
-x,y,-z
1/2+x,1/2+y,z
1/2-x,1/2+y,-z
loop_
_atom_site_type_symbol
_atom_site_label
_atom_site_fract_x
_atom_site_fract_y
_atom_site_fract_z
Si Si1 0.810244 0.750000 0.409556
Si Si2 0.697977 0.982491 0.257818
Si Si3 0.950081 0.610724 0.179505
Si Si4 0.500000 0.737446 0.000000
Si Si5 0.500000 0.428031 0.500000
Si Si6 0.883719 0.146500 0.702912
Si Si7 0.653951 0.335535 0.916404
Si Si8 0.104684 0.250037 0.660121
O O1 0.752629 0.866519 0.282247
O O2 0.795252 0.556704 0.529143
O O3 0.833961 0.709486 0.252764
O O4 0.850860 0.920698 0.583104
O O5 0.647930 0.797346 0.198757
O O6 0.690879 0.205737 0.118048
O O7 0.902586 0.794352 0.066347
O O8 0.919635 0.467764 0.280632
O O9 0.973808 0.415923 0.095122
O O10 0.998287 0.761496 0.330591
O O11 0.553192 0.605127 0.152400
O O12 0.553795 0.574207 0.577337
O O13 0.883346 0.298744 0.522758
O O14 0.650259 0.603679 0.838980
#
# Coordination Sequence:
#
# PCOD9123424 Si02
#       8
#     4   4   4   2   2   4   4   4
#     4  11  26  47  76 108 150 198 245 322 379 448
#     4  12  24  48  74 108 147 195 255 315 380 451
#     4  11  22  42  65  98 143 189 248 302 370 446
#     4  12  24  38  72 108 144 202 238 310 362 452
#     4  10  20  38  64  94 134 192 238 296 366 448
#     4  11  24  46  68 110 148 192 251 304 384 441
#     4  10  25  45  70 107 141 191 252 307 380 452
#     4  10  22  43  68  98 140 193 244 305 374 449
#
# _framework density 25.791425
#
# number of rings (size 3 to 8) (size 9 to 14) (size 15 to 20)
#    0.000    1.143    2.857    3.000    2.000    3.429 
#    5.143    3.571    0.000    0.000    0.000    0.000 
#    0.000    0.000    0.000    0.000    0.000    0.000 
#
# Total GULP energy -78163.626119 kJ/mol
# GULP energy per Si atom -5583.116151 kJ/mol
# Density = 2.573272 g / cm^3
# Si number density = 25.791425 Si / 1000 Ang^3
#
#
#
# Elastic Constant Matrix: (Units=GPa)
#
#
# Indices 1 2 3 4 5 6 
#
# 1 163.8119 35.0984 59.2602 0.0000 -11.6755 0.0000
# 2 35.0984 27.2822 20.6059 0.0000 1.2187 0.0000
# 3 59.2602 20.6059 108.8317 0.0000 -3.7472 0.0000
# 4 0.0000 0.0000 0.0000 30.9308 0.0000 -3.3095
# 5 -11.6755 1.2187 -3.7472 0.0000 57.5034 0.0000
# 6 0.0000 0.0000 0.0000 -3.3095 0.0000 47.6245
#
#
#
# Elastic Compliance Matrix: (Units=1/GPa)
#
#
# Indices 1 2 3 4 5 6 
#
# 1 0.009542 -0.009904 -0.003254 0.000000 0.001935 0.000000
# 2 -0.009904 0.053170 -0.004793 0.000000 -0.003450 0.000000
# 3 -0.003254 -0.004793 0.011875 0.000000 0.000215 0.000000
# 4 0.000000 0.000000 0.000000 0.032572 0.000000 0.002264
# 5 0.001935 -0.003450 0.000215 0.000000 0.017870 0.000000
# 6 0.000000 0.000000 0.000000 0.002264 0.000000 0.021155
#
#
# Mechanical properties :
#
#
# Convention : Reuss Voigt Hill
#
# Bulk Modulus (GPa) = 25.84987 58.87275 42.36131
# Shear Modulus (GPa) = 25.64362 39.54249 32.59306
#
# Velocity S-wave (km/s) = 3.15662 3.91981 3.55874
# Velocity P-wave (km/s) = 4.83013 6.58503 5.77463
#
# Compressibility (1/GPa) = 0.03868492
#
# Stress axis : x y z
#
# Youngs Moduli (GPa) = 104.80411 18.80772 84.21046
#
# Poissons Ratio (x) = 0.18628 0.27399
# Poissons Ratio (y) = 1.03800 0.40360
# Poissons Ratio (z) = 0.34100 0.09014
#
# Static dielectric constant tensor:
#      x y z
#    x 2.212550 0.000000 0.069760 
#    y 0.000000 2.122900 0.000000 
#    z 0.069760 0.000000 2.130970 
# 
# From -- ./inp_files/32340.got.cif
#   From: 2010.05.17/outbox.cif.g08.bks.cpg/sg5_17_cif.got.tgz:32340.got - 2010.06.03 18:56:24.
