data_PCOD9123138
_publ_section_title
;
Structure prediction by ZEFSAII (Michael W. Deem and Ramdas Pophale) SiO2 
 PCOD9123138
Probable space group: C 2
;
_chemical_formula_sum "Si O2"
_cell_formula_units_Z 32
_cell_length_a 19.891900
_cell_length_b 18.304555
_cell_length_c 11.925111
_cell_angle_alpha 90.000000
_cell_angle_beta 157.073034
_cell_angle_gamma 90.000000
_cell_volume 1691.489853
_symmetry_space_group_name_H-M "C 2"
_symmetry_group_IT_number 5
_symmetry_cell_setting 'monoclinic'
loop_
_space_group_symop_operation_xyz
x,y,z
-x,y,-z
1/2+x,1/2+y,z
1/2-x,1/2+y,-z
loop_
_atom_site_type_symbol
_atom_site_label
_atom_site_fract_x
_atom_site_fract_y
_atom_site_fract_z
Si Si1 0.181982 0.346820 0.230617
Si Si2 0.193075 0.197096 0.837996
Si Si3 0.186105 0.171421 0.247902
Si Si4 0.296528 0.928059 0.186019
Si Si5 0.499775 0.361131 0.127077
Si Si6 0.492013 0.186077 0.115745
Si Si7 0.301482 0.334893 0.163119
Si Si8 0.295790 0.099743 0.189598
O O1 0.183992 0.259235 0.252526
O O2 0.342341 0.381526 0.546402
O O3 0.202680 0.350105 0.127902
O O4 0.000000 0.374449 0.000000
O O5 0.000000 0.209430 0.500000
O O6 0.320397 0.182336 0.928524
O O7 0.246402 0.266058 0.999750
O O8 0.209840 0.127157 0.943815
O O9 0.349765 0.149605 0.574337
O O10 0.218415 0.145654 0.172219
O O11 0.000000 0.143542 0.000000
O O12 0.500000 0.910218 0.500000
O O13 0.274913 0.013691 0.175193
O O14 0.181904 0.883027 0.097563
O O15 0.223435 0.904986 0.953340
O O16 0.516397 0.273659 0.145716
O O17 0.500000 0.390115 0.000000
O O18 0.500000 0.158732 0.000000
O O19 0.500000 0.322200 0.500000
O O20 0.500000 0.115831 0.500000
#
# Coordination Sequence:
#
# PCOD9123138 Si02
#       8
#     4   4   4   4   4   4   4   4
#     4  10  21  35  62  96 119 158 197 256 311 361
#     4  12  24  37  65  96 120 161 204 258 311 363
#     4  10  20  37  63  90 121 159 202 246 310 372
#     4  11  25  40  62  92 121 170 208 256 307 364
#     4  10  21  38  59  90 126 158 196 253 311 366
#     4  10  21  36  60  93 127 151 194 261 314 356
#     4  12  21  40  66  91 124 159 208 256 308 369
#     4  11  23  43  63  86 126 166 213 254 304 367
#
# _framework density 18.918233000000001
#
# number of rings (size 3 to 8) (size 9 to 14) (size 15 to 20)
#    0.000    1.250    5.000    1.500    3.500    2.000 
#    0.000    0.000    0.000    0.750    0.000    0.000 
#    0.000    0.000    0.000    0.000    0.000    0.000 
#
# Total GULP energy -89236.780959 kJ/mol
# GULP energy per Si atom -5577.298810 kJ/mol
# Density = 1.887517 g / cm^3
# Si number density = 18.918233 Si / 1000 Ang^3
#
#
#
# Elastic Constant Matrix: (Units=GPa)
#
#
# Indices 1 2 3 4 5 6 
#
# 1 170.6869 3.4326 70.0244 0.0000 0.9991 0.0000
# 2 3.4326 20.2651 21.6160 0.0000 3.4128 0.0000
# 3 70.0244 21.6160 141.3675 0.0000 2.6838 0.0000
# 4 0.0000 0.0000 0.0000 57.4777 0.0000 3.7534
# 5 0.9991 3.4128 2.6838 0.0000 30.2202 0.0000
# 6 0.0000 0.0000 0.0000 3.7534 0.0000 1.4650
#
#
#
# Elastic Compliance Matrix: (Units=1/GPa)
#
#
# Indices 1 2 3 4 5 6 
#
# 1 0.007527 0.003272 -0.004224 0.000000 -0.000243 0.000000
# 2 0.003272 0.061442 -0.010900 0.000000 -0.006079 0.000000
# 3 -0.004224 -0.010900 0.010825 0.000000 0.000409 0.000000
# 4 0.000000 0.000000 0.000000 0.020894 0.000000 -0.053533
# 5 -0.000243 -0.006079 0.000409 0.000000 0.033749 0.000000
# 6 0.000000 0.000000 0.000000 -0.053533 0.000000 0.819775
#
#
# Mechanical properties :
#
#
# Convention : Reuss Voigt Hill
#
# Bulk Modulus (GPa) = 17.82870 58.05172 37.94021
# Shear Modulus (GPa) = 5.01699 33.64901 19.33300
#
# Velocity S-wave (km/s) = 1.63024 4.22199 3.20022
# Velocity P-wave (km/s) = 3.60390 7.38370 5.80979
#
# Compressibility (1/GPa) = 0.05608935
#
# Stress axis : x y z
#
# Youngs Moduli (GPa) = 132.85000 16.27550 92.37815
#
# Poissons Ratio (x) = -0.05325 0.39022
# Poissons Ratio (y) = -0.43465 1.00693
# Poissons Ratio (z) = 0.56118 0.17740
#
# Static dielectric constant tensor:
#      x y z
#    x 1.639330 0.000000 -0.027940 
#    y 0.000000 1.650870 0.000000 
#    z -0.027940 0.000000 1.650210 
# 
# From -- ./inp_files/37191.got.cif
#   From: 2010.05.17/outbox.cif.g08.bks.cpg/sg5_19_cif.got.tgz:37191.got - 2010.06.03 18:56:24.
