data_PCOD9123833
_publ_section_title
;
Structure prediction by ZEFSAII (Michael W. Deem and Ramdas Pophale) SiO2 
 PCOD9123833
Probable space group: C 2
;
_chemical_formula_sum "Si O2"
_cell_formula_units_Z 26
_cell_length_a 16.668688
_cell_length_b 13.389095
_cell_length_c 9.919747
_cell_angle_alpha 90.000000
_cell_angle_beta 144.211458
_cell_angle_gamma 90.000000
_cell_volume 1294.664483
_symmetry_space_group_name_H-M "C 2"
_symmetry_group_IT_number 5
_symmetry_cell_setting 'monoclinic'
loop_
_space_group_symop_operation_xyz
x,y,z
-x,y,-z
1/2+x,1/2+y,z
1/2-x,1/2+y,-z
loop_
_atom_site_type_symbol
_atom_site_label
_atom_site_fract_x
_atom_site_fract_y
_atom_site_fract_z
Si Si1 0.599017 0.086310 0.020286
Si Si2 0.787102 0.804606 0.835864
Si Si3 0.337280 0.512741 0.759026
Si Si4 0.000000 0.203775 0.500000
Si Si5 0.992827 0.840222 0.649454
Si Si6 0.585128 0.128500 0.479067
Si Si7 0.869655 0.048263 0.509540
O O1 0.515909 0.078713 0.768766
O O2 0.500000 0.045178 0.000000
O O3 0.638304 0.201982 0.108993
O O4 0.748980 0.037622 0.234649
O O5 0.806007 0.896270 0.756502
O O6 0.632720 0.773617 0.663767
O O7 0.863418 0.827289 0.080101
O O8 0.228095 0.573690 0.699517
O O9 0.304631 0.563973 0.568320
O O10 0.500000 0.528252 0.000000
O O11 0.977705 0.128138 0.597419
O O12 0.900714 0.742902 0.551299
O O13 0.935423 0.942071 0.626645
O O14 0.000000 0.852374 0.500000
O O15 0.500000 0.133327 0.500000
#
# Coordination Sequence:
#
# PCOD9123833 Si02
#       7
#     4   4   4   2   4   4   4
#     4  10  20  40  65  90 126 175 217 266 329 407
#     4  10  23  40  65  93 131 176 220 269 334 401
#     4  12  24  39  67  99 135 171 222 279 331 394
#     4  10  24  44  66  96 132 176 226 276 328 414
#     4  10  21  41  63  91 127 171 214 266 332 401
#     4  10  24  42  67  96 133 175 220 275 338 401
#     4  11  22  39  67  96 126 170 224 273 330 392
#
# _framework density 20.082422999999999
#
# number of rings (size 3 to 8) (size 9 to 14) (size 15 to 20)
#    0.000    1.538    3.846    0.462    3.231    6.154 
#    0.000    0.769    0.000    0.000    0.000    0.000 
#    0.000    0.000    0.000    0.000    0.000    0.000 
#
# Total GULP energy -72368.435579 kJ/mol
# GULP energy per Si atom -5566.802737 kJ/mol
# Density = 2.003671 g / cm^3
# Si number density = 20.082423 Si / 1000 Ang^3
#
#
#
# Elastic Constant Matrix: (Units=GPa)
#
#
# Indices 1 2 3 4 5 6 
#
# 1 73.4971 20.9227 21.4819 0.0000 12.6672 0.0000
# 2 20.9227 67.1984 29.9403 0.0000 19.5071 0.0000
# 3 21.4819 29.9403 84.4334 0.0000 17.1049 0.0000
# 4 0.0000 0.0000 0.0000 17.6727 0.0000 -0.4520
# 5 12.6672 19.5071 17.1049 0.0000 47.6167 0.0000
# 6 0.0000 0.0000 0.0000 -0.4520 0.0000 28.2353
#
#
#
# Elastic Compliance Matrix: (Units=1/GPa)
#
#
# Indices 1 2 3 4 5 6 
#
# 1 0.015563 -0.003194 -0.002430 0.000000 -0.001959 0.000000
# 2 -0.003194 0.019707 -0.005082 0.000000 -0.005398 0.000000
# 3 -0.002430 -0.005082 0.014787 0.000000 -0.002584 0.000000
# 4 0.000000 0.000000 0.000000 0.056608 0.000000 0.000906
# 5 -0.001959 -0.005398 -0.002584 0.000000 0.024662 0.000000
# 6 0.000000 0.000000 0.000000 0.000906 0.000000 0.035431
#
#
# Mechanical properties :
#
#
# Convention : Reuss Voigt Hill
#
# Bulk Modulus (GPa) = 34.91025 41.09096 38.00060
# Shear Modulus (GPa) = 25.28838 28.89054 27.08946
#
# Velocity S-wave (km/s) = 3.55241 3.79700 3.67674
# Velocity P-wave (km/s) = 5.85213 6.30306 6.08177
#
# Compressibility (1/GPa) = 0.02864489
#
# Stress axis : x y z
#
# Youngs Moduli (GPa) = 64.25420 50.74296 67.62528
#
# Poissons Ratio (x) = 0.16209 0.16434
# Poissons Ratio (y) = 0.20525 0.34366
# Poissons Ratio (z) = 0.15615 0.25787
#
# Static dielectric constant tensor:
#      x y z
#    x 1.752200 0.000000 -0.002790 
#    y 0.000000 1.762550 0.000000 
#    z -0.002790 0.000000 1.723990 
# 
# From -- ./inp_files/24820.got.cif
#   From: 2010.05.17/outbox.cif.g08.bks.cpg/sg5_13_cif.got.tgz:24820.got - 2010.06.03 18:56:24.
