data_PCOD9123321
_publ_section_title
;
Structure prediction by ZEFSAII (Michael W. Deem and Ramdas Pophale) SiO2 
 PCOD9123321
Probable space group: C 2
;
_chemical_formula_sum "Si O2"
_cell_formula_units_Z 32
_cell_length_a 23.963722
_cell_length_b 8.622538
_cell_length_c 13.889940
_cell_angle_alpha 90.000000
_cell_angle_beta 155.396077
_cell_angle_gamma 90.000000
_cell_volume 1194.926176
_symmetry_space_group_name_H-M "C 2"
_symmetry_group_IT_number 5
_symmetry_cell_setting 'monoclinic'
loop_
_space_group_symop_operation_xyz
x,y,z
-x,y,-z
1/2+x,1/2+y,z
1/2-x,1/2+y,-z
loop_
_atom_site_type_symbol
_atom_site_label
_atom_site_fract_x
_atom_site_fract_y
_atom_site_fract_z
Si Si1 0.687583 0.972290 0.775571
Si Si2 0.052890 0.292306 0.394990
Si Si3 0.808571 0.500520 0.539742
Si Si4 0.113496 0.780220 0.774475
Si Si5 0.457838 0.206135 0.143988
Si Si6 0.164704 0.180457 0.153253
Si Si7 0.223862 0.438279 0.121250
Si Si8 0.070559 0.027888 0.295685
O O1 0.592534 0.864375 0.559969
O O2 0.635414 0.110131 0.762869
O O3 0.770283 0.073820 0.828499
O O4 0.781354 0.864155 0.988221
O O5 0.158356 0.358421 0.480506
O O6 0.056739 0.107551 0.380000
O O7 0.904391 0.358580 0.136834
O O8 0.949167 0.588024 0.768819
O O9 0.720325 0.617278 0.338113
O O10 0.718441 0.484286 0.492087
O O11 0.001346 0.735746 0.679214
O O12 0.141930 0.891801 0.726096
O O13 0.483229 0.373358 0.140676
O O14 0.316811 0.115978 0.928783
O O15 0.212409 0.351622 0.203865
O O16 0.006898 0.156032 0.890899
#
# Coordination Sequence:
#
# PCOD9123321 Si02
#       8
#     4   4   4   4   4   4   4   4
#     4  10  20  38  61  92 127 174 221 264 335 393
#     4   9  21  39  59  90 127 173 220 268 323 400
#     4  10  21  39  61  91 130 175 220 272 332 385
#     4  11  20  38  62  89 132 176 211 269 333 399
#     4  11  22  38  61  96 130 168 221 275 328 399
#     4   9  19  38  62  90 125 171 222 267 328 399
#     4   9  20  38  61  87 130 173 211 264 333 390
#     4  11  20  38  66  90 128 172 221 279 328 383
#
# _framework density 26.779896999999998
#
# number of rings (size 3 to 8) (size 9 to 14) (size 15 to 20)
#    0.000    2.000    2.500    1.125    0.000    0.500 
#    4.500    3.125    0.000    3.000    0.000    0.000 
#    0.000    0.250    0.000    0.000    0.000    0.000 
#
# Total GULP energy -89310.174629 kJ/mol
# GULP energy per Si atom -5581.885914 kJ/mol
# Density = 2.671894 g / cm^3
# Si number density = 26.779897 Si / 1000 Ang^3
#
#
#
# Elastic Constant Matrix: (Units=GPa)
#
#
# Indices 1 2 3 4 5 6 
#
# 1 97.1770 23.7042 28.6013 0.0000 16.6775 0.0000
# 2 23.7042 143.2163 22.6593 0.0000 3.7807 0.0000
# 3 28.6013 22.6593 77.4890 0.0000 2.6929 0.0000
# 4 0.0000 0.0000 0.0000 20.4431 0.0000 -14.8767
# 5 16.6775 3.7807 2.6929 0.0000 52.0752 0.0000
# 6 0.0000 0.0000 0.0000 -14.8767 0.0000 27.4124
#
#
#
# Elastic Compliance Matrix: (Units=1/GPa)
#
#
# Indices 1 2 3 4 5 6 
#
# 1 0.012444 -0.001317 -0.004080 0.000000 -0.003679 0.000000
# 2 -0.001317 0.007470 -0.001697 0.000000 -0.000033 0.000000
# 3 -0.004080 -0.001697 0.014884 0.000000 0.000660 0.000000
# 4 0.000000 0.000000 0.000000 0.080844 0.000000 0.043874
# 5 -0.003679 -0.000033 0.000660 0.000000 0.020349 0.000000
# 6 0.000000 0.000000 0.000000 0.043874 0.000000 0.060290
#
#
# Mechanical properties :
#
#
# Convention : Reuss Voigt Hill
#
# Bulk Modulus (GPa) = 48.52078 51.97909 50.24993
# Shear Modulus (GPa) = 23.00546 36.18064 29.59305
#
# Velocity S-wave (km/s) = 2.93415 3.67963 3.32783
# Velocity P-wave (km/s) = 5.44396 6.12412 5.79403
#
# Compressibility (1/GPa) = 0.02060973
#
# Stress axis : x y z
#
# Youngs Moduli (GPa) = 80.36035 133.87246 67.18465
#
# Poissons Ratio (x) = 0.17631 0.27412
# Poissons Ratio (y) = 0.10583 0.11402
# Poissons Ratio (z) = 0.32788 0.22719
#
# Static dielectric constant tensor:
#      x y z
#    x 2.173630 0.000000 0.009310 
#    y 0.000000 2.121670 0.000000 
#    z 0.009310 0.000000 2.196780 
# 
# From -- ./inp_files/57714.got.cif
#   From: 2010.05.17/outbox.cif.g08.bks.cpg/sg5_29_cif.got.tgz:57714.got - 2010.06.03 18:56:24.
