data_PCOD9123694
_publ_section_title
;
Structure prediction by ZEFSAII (Michael W. Deem and Ramdas Pophale) SiO2 
 PCOD9123694
Probable space group: C 2
;
_chemical_formula_sum "Si O2"
_cell_formula_units_Z 32
_cell_length_a 22.527019
_cell_length_b 4.951370
_cell_length_c 11.704156
_cell_angle_alpha 90.000000
_cell_angle_beta 106.380558
_cell_angle_gamma 90.000000
_cell_volume 1252.487282
_symmetry_space_group_name_H-M "C 2"
_symmetry_group_IT_number 5
_symmetry_cell_setting 'monoclinic'
loop_
_space_group_symop_operation_xyz
x,y,z
-x,y,-z
1/2+x,1/2+y,z
1/2-x,1/2+y,-z
loop_
_atom_site_type_symbol
_atom_site_label
_atom_site_fract_x
_atom_site_fract_y
_atom_site_fract_z
Si Si1 0.241254 0.532430 0.912798
Si Si2 0.623914 0.839334 0.355497
Si Si3 0.107672 0.754916 0.787867
Si Si4 0.366455 0.502160 0.851798
Si Si5 0.927663 0.516921 0.987168
Si Si6 0.518004 0.105924 0.400180
Si Si7 0.615274 0.514706 0.573848
Si Si8 0.245092 0.833167 0.566918
O O1 0.175877 0.624494 0.825844
O O2 0.294467 0.519353 0.846421
O O3 0.238967 0.250937 0.979824
O O4 0.615898 0.594819 0.264995
O O5 0.561368 0.003543 0.323784
O O6 0.626393 0.763287 0.492977
O O7 0.690120 0.955915 0.352942
O O8 0.110817 0.031280 0.710226
O O9 0.048798 0.640732 0.689773
O O10 0.087230 0.684749 0.905737
O O11 0.390492 0.201868 0.879138
O O12 0.400314 0.715882 0.956795
O O13 0.000000 0.510838 0.000000
O O14 0.500000 0.919877 0.500000
O O15 0.559314 0.346399 0.481618
O O16 0.680562 0.356427 0.594667
O O17 0.261578 0.525721 0.547596
#
# Coordination Sequence:
#
# PCOD9123694 Si02
#       8
#     4   4   4   4   4   4   4   4
#     4  12  24  52  77 112 148 194 262 325 383 452
#     4  11  24  42  71 107 150 191 249 305 382 452
#     4  11  24  47  77 102 153 196 254 313 387 448
#     4  12  26  47  78 106 149 196 248 321 377 447
#     4  12  27  49  73 112 146 198 256 308 380 452
#     4  10  23  45  68 104 151 192 245 301 376 457
#     4  10  23  45  68 110 144 196 241 308 374 460
#     4  10  20  39  68  97 141 183 233 292 356 436
#
# _framework density 25.549163
#
# number of rings (size 3 to 8) (size 9 to 14) (size 15 to 20)
#    0.000    1.000    3.750    1.875    3.500    1.500 
#   11.250    2.500    0.000    0.000    0.000    0.000 
#    0.000    0.000    0.000    0.000    0.000    0.000 
#
# Total GULP energy -89206.230860 kJ/mol
# GULP energy per Si atom -5575.389429 kJ/mol
# Density = 2.549101 g / cm^3
# Si number density = 25.549163 Si / 1000 Ang^3
#
#
#
# Elastic Constant Matrix: (Units=GPa)
#
#
# Indices 1 2 3 4 5 6 
#
# 1 199.3252 15.7212 41.5471 0.0000 25.7507 0.0000
# 2 15.7212 70.9318 4.7137 0.0000 -2.3048 0.0000
# 3 41.5471 4.7137 97.9744 0.0000 0.2675 0.0000
# 4 0.0000 0.0000 0.0000 9.9771 0.0000 -1.5043
# 5 25.7507 -2.3048 0.2675 0.0000 50.1562 0.0000
# 6 0.0000 0.0000 0.0000 -1.5043 0.0000 26.1532
#
#
#
# Elastic Compliance Matrix: (Units=1/GPa)
#
#
# Indices 1 2 3 4 5 6 
#
# 1 0.006044 -0.001276 -0.002493 0.000000 -0.003148 0.000000
# 2 -0.001276 0.014434 -0.000157 0.000000 0.001319 0.000000
# 3 -0.002493 -0.000157 0.011268 0.000000 0.001213 0.000000
# 4 0.000000 0.000000 0.000000 0.101106 0.000000 0.005815
# 5 -0.003148 0.001319 0.001213 0.000000 0.021608 0.000000
# 6 0.000000 0.000000 0.000000 0.005815 0.000000 0.038571
#
#
# Mechanical properties :
#
#
# Convention : Reuss Voigt Hill
#
# Bulk Modulus (GPa) = 41.85121 54.68838 48.26979
# Shear Modulus (GPa) = 23.94081 37.67392 30.80737
#
# Velocity S-wave (km/s) = 3.06445 3.84417 3.47624
# Velocity P-wave (km/s) = 5.37934 6.41523 5.91999
#
# Compressibility (1/GPa) = 0.02389417
#
# Stress axis : x y z
#
# Youngs Moduli (GPa) = 165.45441 69.27993 88.74554
#
# Poissons Ratio (x) = 0.08842 0.22124
# Poissons Ratio (y) = 0.21115 0.01392
# Poissons Ratio (z) = 0.41248 0.01087
#
# Static dielectric constant tensor:
#      x y z
#    x 2.064460 0.000000 0.016480 
#    y 0.000000 2.109530 0.000000 
#    z 0.016480 0.000000 2.296840 
# 
# From -- ./inp_files/47046.got.cif
#   From: 2010.05.17/outbox.cif.g08.bks.cpg/sg5_24_cif.got.tgz:47046.got - 2010.06.03 18:56:24.
