data_PCOD9123287
_publ_section_title
;
Structure prediction by ZEFSAII (Michael W. Deem and Ramdas Pophale) SiO2 
 PCOD9123287
Probable space group: C 2
;
_chemical_formula_sum "Si O2"
_cell_formula_units_Z 22
_cell_length_a 10.367179
_cell_length_b 8.218211
_cell_length_c 28.549191
_cell_angle_alpha 90.000000
_cell_angle_beta 25.253247
_cell_angle_gamma 90.000000
_cell_volume 1037.702582
_symmetry_space_group_name_H-M "C 2"
_symmetry_group_IT_number 5
_symmetry_cell_setting 'monoclinic'
loop_
_space_group_symop_operation_xyz
x,y,z
-x,y,-z
1/2+x,1/2+y,z
1/2-x,1/2+y,-z
loop_
_atom_site_type_symbol
_atom_site_label
_atom_site_fract_x
_atom_site_fract_y
_atom_site_fract_z
Si Si1 0.108546 0.489720 0.830513
Si Si2 0.000000 0.906166 0.000000
Si Si3 0.624080 0.129035 0.274605
Si Si4 0.191540 0.320088 0.480618
Si Si5 0.273172 0.586091 0.878530
Si Si6 0.687440 0.584889 0.336665
O O1 0.234174 0.305161 0.785360
O O2 0.245719 0.547750 0.833691
O O3 0.205805 0.585610 0.751978
O O4 0.742143 0.498755 0.951907
O O5 0.788948 0.780997 0.097983
O O6 0.372317 0.171643 0.396277
O O7 0.461749 0.054145 0.282755
O O8 0.908089 0.038314 0.203841
O O9 0.436029 0.443376 0.420465
O O10 0.000000 0.394904 0.500000
O O11 0.969663 0.248059 0.592390
O O12 0.000000 0.515595 0.000000
#
# Coordination Sequence:
#
# PCOD9123287 Si02
#       6
#     4   2   4   4   4   4
#     4  10  20  38  60  87 120 159 202 250 296 357
#     4   8  20  36  58  82 124 156 196 248 300 340
#     4   9  20  40  57  86 123 157 197 251 303 349
#     4   9  20  40  61  88 127 158 196 256 304 354
#     4   9  20  39  57  83 123 157 195 247 297 351
#     4  10  21  39  67  89 122 163 203 249 303 362
#
# _framework density 21.200679000000001
#
# number of rings (size 3 to 8) (size 9 to 14) (size 15 to 20)
#    0.545    2.182    0.000    0.000    2.545    4.364 
#    3.273   20.909    0.000    0.000    0.000    0.000 
#    0.000    0.000    0.000    0.000    0.000    0.000 
#
# Total GULP energy -61331.346902 kJ/mol
# GULP energy per Si atom -5575.576991 kJ/mol
# Density = 2.115243 g / cm^3
# Si number density = 21.200679 Si / 1000 Ang^3
#
#
#
# Elastic Constant Matrix: (Units=GPa)
#
#
# Indices 1 2 3 4 5 6 
#
# 1 224.4530 46.3942 88.2393 0.0117 -22.4426 -0.0411
# 2 46.3942 25.0711 13.4167 0.0104 -1.2921 0.0170
# 3 88.2393 13.4167 87.7144 0.1414 -30.3014 -0.1204
# 4 0.0117 0.0104 0.1414 17.7977 0.0169 0.7670
# 5 -22.4426 -1.2921 -30.3014 0.0169 37.3198 0.0697
# 6 -0.0411 0.0170 -0.1204 0.7670 0.0697 16.1056
#
#
#
# Elastic Compliance Matrix: (Units=1/GPa)
#
#
# Indices 1 2 3 4 5 6 
#
# 1 0.011329 -0.015988 -0.009436 0.000079 -0.001402 -0.000022
# 2 -0.015988 0.066803 0.004646 -0.000060 -0.003529 -0.000059
# 3 -0.009436 0.004646 0.025404 -0.000217 0.015113 0.000106
# 4 0.000079 -0.000060 -0.000217 0.056304 -0.000151 -0.002682
# 5 -0.001402 -0.003529 0.015113 -0.000151 0.038101 -0.000044
# 6 -0.000022 -0.000059 0.000106 -0.002682 -0.000044 0.062219
#
#
# Mechanical properties :
#
#
# Convention : Reuss Voigt Hill
#
# Bulk Modulus (GPa) = 16.13395 70.37099 43.25247
# Shear Modulus (GPa) = 15.50980 26.85718 21.18349
#
# Velocity S-wave (km/s) = 2.70769 3.56309 3.16442
# Velocity P-wave (km/s) = 4.17158 7.08465 5.81353
#
# Compressibility (1/GPa) = 0.06198110
#
# Stress axis : x y z
#
# Youngs Moduli (GPa) = 88.26617 14.96930 39.36387
#
# Poissons Ratio (x) = 0.23932 0.37145
# Poissons Ratio (y) = 1.41116 -0.18288
# Poissons Ratio (z) = 0.83291 -0.06955
#
# Static dielectric constant tensor:
#      x y z
#    x 1.761240 -0.000040 -0.036330 
#    y -0.000040 1.794950 -0.000020 
#    z -0.036330 -0.000020 1.807030 
# 
# From -- ./inp_files/58088.got.cif
#   From: 2010.05.17/outbox.cif.g08.bks.cpg/sg5_30_cif.got.tgz:58088.got - 2010.06.03 18:56:24.
