data_PCOD9123559
_publ_section_title
;
Structure prediction by ZEFSAII (Michael W. Deem and Ramdas Pophale) SiO2 
 PCOD9123559
Probable space group: C 2
;
_chemical_formula_sum "Si O2"
_cell_formula_units_Z 26
_cell_length_a 15.953823
_cell_length_b 5.574014
_cell_length_c 14.311342
_cell_angle_alpha 90.000000
_cell_angle_beta 113.387334
_cell_angle_gamma 90.000000
_cell_volume 1168.103433
_symmetry_space_group_name_H-M "C 2"
_symmetry_group_IT_number 5
_symmetry_cell_setting 'monoclinic'
loop_
_space_group_symop_operation_xyz
x,y,z
-x,y,-z
1/2+x,1/2+y,z
1/2-x,1/2+y,-z
loop_
_atom_site_type_symbol
_atom_site_label
_atom_site_fract_x
_atom_site_fract_y
_atom_site_fract_z
Si Si1 0.714705 0.134590 0.600753
Si Si2 0.500000 0.295811 0.000000
Si Si3 0.325043 0.136040 0.629778
Si Si4 0.190401 0.980117 0.851313
Si Si5 0.847867 0.401191 0.251222
Si Si6 0.322308 0.606607 0.938455
Si Si7 0.979115 0.618898 0.191619
O O1 0.665324 0.135120 0.478805
O O2 0.773990 0.381483 0.631356
O O3 0.649260 0.075293 0.659619
O O4 0.774222 0.887929 0.628900
O O5 0.585749 0.475481 0.049976
O O6 0.485134 0.130513 0.083386
O O7 0.421741 0.157689 0.723187
O O8 0.174233 0.122438 0.748307
O O9 0.293175 0.872294 0.894187
O O10 0.103529 0.801578 0.819992
O O11 0.186771 0.097035 0.953622
O O12 0.760478 0.469743 0.149115
O O13 0.937892 0.390817 0.226598
#
# Coordination Sequence:
#
# PCOD9123559 Si02
#       7
#     4   2   4   4   4   4   4
#     4  10  24  44  74 102 133 183 224 287 348 411
#     4  10  22  44  62 102 132 186 220 280 336 402
#     4  10  23  48  71 101 139 175 231 283 351 405
#     4  10  21  39  63  94 131 184 221 281 332 409
#     4  11  23  41  66  96 131 177 227 277 342 406
#     4  10  20  39  60  87 136 173 225 269 338 397
#     4  10  24  42  66  97 137 176 232 279 340 404
#
# _framework density 22.258300999999999
#
# number of rings (size 3 to 8) (size 9 to 14) (size 15 to 20)
#    0.000    1.846    1.538    0.923    6.462    0.615 
#    2.769    1.538    0.000    0.000    0.000    0.000 
#    0.000    0.000    0.000    0.000    0.000    0.000 
#
# Total GULP energy -72385.930641 kJ/mol
# GULP energy per Si atom -5568.148511 kJ/mol
# Density = 2.220764 g / cm^3
# Si number density = 22.258301 Si / 1000 Ang^3
#
#
#
# Elastic Constant Matrix: (Units=GPa)
#
#
# Indices 1 2 3 4 5 6 
#
# 1 74.2721 13.2429 59.4941 0.0000 -13.1466 0.0000
# 2 13.2429 78.1524 34.6152 0.0000 -11.7817 0.0000
# 3 59.4941 34.6152 109.7012 0.0000 -14.7666 0.0000
# 4 0.0000 0.0000 0.0000 38.3886 0.0000 -1.1200
# 5 -13.1466 -11.7817 -14.7666 0.0000 37.2607 0.0000
# 6 0.0000 0.0000 0.0000 -1.1200 0.0000 14.3905
#
#
#
# Elastic Compliance Matrix: (Units=1/GPa)
#
#
# Indices 1 2 3 4 5 6 
#
# 1 0.024629 0.002458 -0.013583 0.000000 0.004084 0.000000
# 2 0.002458 0.015445 -0.005739 0.000000 0.003477 0.000000
# 3 -0.013583 -0.005739 0.018384 0.000000 0.000679 0.000000
# 4 0.000000 0.000000 0.000000 0.026109 0.000000 0.002032
# 5 0.004084 0.003477 0.000679 0.000000 0.029647 0.000000
# 6 0.000000 0.000000 0.000000 0.002032 0.000000 0.069649
#
#
# Mechanical properties :
#
#
# Convention : Reuss Voigt Hill
#
# Bulk Modulus (GPa) = 40.43424 52.98113 46.70768
# Shear Modulus (GPa) = 22.14025 28.32618 25.23322
#
# Velocity S-wave (km/s) = 3.15730 3.57124 3.37063
# Velocity P-wave (km/s) = 5.61220 6.39215 6.01483
#
# Compressibility (1/GPa) = 0.02473152
#
# Stress axis : x y z
#
# Youngs Moduli (GPa) = 40.60267 64.74635 54.39419
#
# Poissons Ratio (x) = -0.15918 0.73884
# Poissons Ratio (y) = -0.09982 0.31216
# Poissons Ratio (z) = 0.55151 0.37157
#
# Static dielectric constant tensor:
#      x y z
#    x 1.856170 0.000000 -0.101670 
#    y 0.000000 2.276130 0.000000 
#    z -0.101670 0.000000 1.841860 
# 
# From -- ./inp_files/53878.got.cif
#   From: 2010.05.17/outbox.cif.g08.bks.cpg/sg5_27_cif.got.tgz:53878.got - 2010.06.03 18:56:24.
