data_PCOD9123473
_publ_section_title
;
Structure prediction by ZEFSAII (Michael W. Deem and Ramdas Pophale) SiO2 
 PCOD9123473
Probable space group: C 2
;
_chemical_formula_sum "Si O2"
_cell_formula_units_Z 26
_cell_length_a 18.684856
_cell_length_b 11.921679
_cell_length_c 6.509583
_cell_angle_alpha 90.000000
_cell_angle_beta 125.180323
_cell_angle_gamma 90.000000
_cell_volume 1185.180770
_symmetry_space_group_name_H-M "C 2"
_symmetry_group_IT_number 5
_symmetry_cell_setting 'monoclinic'
loop_
_space_group_symop_operation_xyz
x,y,z
-x,y,-z
1/2+x,1/2+y,z
1/2-x,1/2+y,-z
loop_
_atom_site_type_symbol
_atom_site_label
_atom_site_fract_x
_atom_site_fract_y
_atom_site_fract_z
Si Si1 0.360688 0.048740 0.567791
Si Si2 0.592667 0.490556 0.535503
Si Si3 0.402555 0.285082 0.771529
Si Si4 0.092730 0.381120 0.034040
Si Si5 0.104220 0.147745 0.198919
Si Si6 0.190737 0.949478 0.091768
Si Si7 0.500000 0.953990 0.500000
O O1 0.352680 0.180970 0.586789
O O2 0.362603 0.990696 0.796011
O O3 0.287637 0.981603 0.320359
O O4 0.448259 0.027621 0.580337
O O5 0.500000 0.506059 0.500000
O O6 0.581825 0.389149 0.356391
O O7 0.619569 0.601700 0.453499
O O8 0.668295 0.453605 0.816438
O O9 0.346966 0.337110 0.866914
O O10 0.500000 0.246150 0.000000
O O11 0.139743 0.268591 0.190213
O O12 0.000000 0.379275 0.000000
O O13 0.067763 0.383620 0.753161
O O14 0.137213 0.052877 0.100983
O O15 0.000000 0.151081 0.000000
#
# Coordination Sequence:
#
# PCOD9123473 Si02
#       7
#     4   4   4   4   4   4   2
#     4  11  26  43  66 101 137 182 227 288 339 409
#     4  11  20  40  67  99 128 175 236 276 337 411
#     4  11  23  43  71  97 135 186 228 282 348 408
#     4   9  21  41  65  93 128 173 217 271 337 410
#     4  10  20  38  66  92 128 172 212 274 342 398
#     4  11  24  41  64 101 136 172 226 290 339 400
#     4  10  22  44  68  94 132 180 232 264 342 420
#
# _framework density 21.937583
#
# number of rings (size 3 to 8) (size 9 to 14) (size 15 to 20)
#    0.000    1.538    3.077    2.308    3.231    7.385 
#    4.154    0.000    0.000    0.000    0.000    0.000 
#    0.000    0.000    0.000    0.000    0.000    0.000 
#
# Total GULP energy -72583.238371 kJ/mol
# GULP energy per Si atom -5583.326029 kJ/mol
# Density = 2.188765 g / cm^3
# Si number density = 21.937583 Si / 1000 Ang^3
#
#
#
# Elastic Constant Matrix: (Units=GPa)
#
#
# Indices 1 2 3 4 5 6 
#
# 1 33.8119 21.0510 16.5104 0.0000 1.8636 0.0000
# 2 21.0510 102.5749 20.7572 0.0000 -16.4005 0.0000
# 3 16.5104 20.7572 129.1672 0.0000 -11.5681 0.0000
# 4 0.0000 0.0000 0.0000 36.6584 0.0000 18.9169
# 5 1.8636 -16.4005 -11.5681 0.0000 34.1296 0.0000
# 6 0.0000 0.0000 0.0000 18.9169 0.0000 42.0710
#
#
#
# Elastic Compliance Matrix: (Units=1/GPa)
#
#
# Indices 1 2 3 4 5 6 
#
# 1 0.036882 -0.007891 -0.004090 0.000000 -0.007192 0.000000
# 2 -0.007891 0.012459 -0.000432 0.000000 0.006271 0.000000
# 3 -0.004090 -0.000432 0.008596 0.000000 0.002930 0.000000
# 4 0.000000 0.000000 0.000000 0.035521 0.000000 -0.015972
# 5 -0.007192 0.006271 0.002930 0.000000 0.033699 0.000000
# 6 0.000000 0.000000 0.000000 -0.015972 0.000000 0.030951
#
#
# Mechanical properties :
#
#
# Convention : Reuss Voigt Hill
#
# Bulk Modulus (GPa) = 30.20210 42.46572 36.33391
# Shear Modulus (GPa) = 25.77686 36.38747 31.08217
#
# Velocity S-wave (km/s) = 3.43156 4.07711 3.76818
# Velocity P-wave (km/s) = 5.43120 6.44696 5.96076
#
# Compressibility (1/GPa) = 0.03311028
#
# Stress axis : x y z
#
# Youngs Moduli (GPa) = 27.11325 80.26599 116.32642
#
# Poissons Ratio (x) = 0.63342 0.47582
# Poissons Ratio (y) = 0.21396 0.05022
# Poissons Ratio (z) = 0.11090 0.03465
#
# Static dielectric constant tensor:
#      x y z
#    x 1.777680 0.000000 -0.037680 
#    y 0.000000 1.788680 0.000000 
#    z -0.037680 0.000000 1.723500 
# 
# From -- ./inp_files/9633.got.cif
#   From: 2010.05.17/outbox.cif.g08.bks.cpg/sg5_5_cif.got.tgz:9633.got - 2010.06.03 18:56:24.
