data_PCOD9123978
_publ_section_title
;
Structure prediction by ZEFSAII (Michael W. Deem and Ramdas Pophale) SiO2 
 PCOD9123978
Probable space group: C 2
;
_chemical_formula_sum "Si O2"
_cell_formula_units_Z 28
_cell_length_a 6.128480
_cell_length_b 22.770932
_cell_length_c 12.087994
_cell_angle_alpha 90.000000
_cell_angle_beta 120.758530
_cell_angle_gamma 90.000000
_cell_volume 1449.599170
_symmetry_space_group_name_H-M "C 2"
_symmetry_group_IT_number 5
_symmetry_cell_setting 'monoclinic'
loop_
_space_group_symop_operation_xyz
x,y,z
-x,y,-z
1/2+x,1/2+y,z
1/2-x,1/2+y,-z
loop_
_atom_site_type_symbol
_atom_site_label
_atom_site_fract_x
_atom_site_fract_y
_atom_site_fract_z
Si Si1 0.315386 0.440660 0.193535
Si Si2 0.500000 0.262930 0.000000
Si Si3 0.246938 0.864158 0.365099
Si Si4 0.000000 0.973880 0.000000
Si Si5 0.791393 0.675443 0.126318
Si Si6 0.406536 0.258071 0.353559
Si Si7 0.012662 0.549913 0.871038
Si Si8 0.953294 0.343498 0.185697
O O1 0.536115 0.414127 0.327792
O O2 0.398667 0.443276 0.086015
O O3 0.089943 0.393313 0.150010
O O4 0.219423 0.504711 0.207711
O O5 0.446141 0.220434 0.088663
O O6 0.746649 0.304146 0.070397
O O7 0.500000 0.871702 0.500000
O O8 0.315136 0.870318 0.254835
O O9 0.124030 0.800091 0.356244
O O10 0.236026 0.014109 0.096114
O O11 0.812260 0.704974 0.252138
O O12 0.941795 0.614000 0.166687
O O13 0.500000 0.669714 0.000000
O O14 0.500000 0.241335 0.500000
O O15 0.166301 0.301385 0.293069
O O16 0.000000 0.559382 0.000000
#
# Coordination Sequence:
#
# PCOD9123978 Si02
#       8
#     4   2   4   2   4   4   4   4
#     4  10  24  39  61  99 124 170 218 271 325 407
#     4  12  24  39  62 102 132 171 212 282 342 386
#     4  11  22  40  64  90 127 175 215 272 334 396
#     4  10  20  41  60  94 130 167 206 262 338 390
#     4  12  23  41  66  99 132 172 225 281 324 392
#     4  11  23  41  64  99 134 177 221 263 337 415
#     4  10  21  39  64  92 126 172 218 269 333 390
#     4  11  23  40  62  98 137 163 215 276 341 399
#
# _framework density 19.315683
#
# number of rings (size 3 to 8) (size 9 to 14) (size 15 to 20)
#    0.000    1.143    5.714    0.857    0.000    4.571 
#    2.571    0.000    0.000    5.143    3.714    0.000 
#    0.000    0.000    0.000    0.000    0.000    0.000 
#
# Total GULP energy -78104.023087 kJ/mol
# GULP energy per Si atom -5578.858792 kJ/mol
# Density = 1.927172 g / cm^3
# Si number density = 19.315683 Si / 1000 Ang^3
#
#
#
# Elastic Constant Matrix: (Units=GPa)
#
#
# Indices 1 2 3 4 5 6 
#
# 1 95.2326 53.5890 32.8801 0.0000 3.6244 0.0000
# 2 53.5890 135.3748 60.2207 0.0000 10.6687 0.0000
# 3 32.8801 60.2207 84.5624 0.0000 9.6277 0.0000
# 4 0.0000 0.0000 0.0000 6.4312 0.0000 9.3264
# 5 3.6244 10.6687 9.6277 0.0000 38.8610 0.0000
# 6 0.0000 0.0000 0.0000 9.3264 0.0000 30.7021
#
#
#
# Elastic Compliance Matrix: (Units=1/GPa)
#
#
# Indices 1 2 3 4 5 6 
#
# 1 0.013783 -0.004517 -0.002199 0.000000 0.000499 0.000000
# 2 -0.004517 0.012338 -0.006886 0.000000 -0.001260 0.000000
# 3 -0.002199 -0.006886 0.017850 0.000000 -0.002327 0.000000
# 4 0.000000 0.000000 0.000000 0.277925 0.000000 -0.084425
# 5 0.000499 -0.001260 -0.002327 0.000000 0.026608 0.000000
# 6 0.000000 0.000000 0.000000 -0.084425 0.000000 0.058217
#
#
# Mechanical properties :
#
#
# Convention : Reuss Voigt Hill
#
# Bulk Modulus (GPa) = 59.64880 67.61659 63.63270
# Shear Modulus (GPa) = 11.37620 26.43086 18.90353
#
# Velocity S-wave (km/s) = 2.42949 3.70315 3.13175
# Velocity P-wave (km/s) = 6.23040 7.30524 6.78912
#
# Compressibility (1/GPa) = 0.01676480
#
# Stress axis : x y z
#
# Youngs Moduli (GPa) = 72.55473 81.05251 56.02331
#
# Poissons Ratio (x) = 0.36612 0.12320
# Poissons Ratio (y) = 0.32773 0.38580
# Poissons Ratio (z) = 0.15956 0.55816
#
# Static dielectric constant tensor:
#      x y z
#    x 1.716780 0.000000 0.005860 
#    y 0.000000 1.683290 0.000000 
#    z 0.005860 0.000000 1.645990 
# 
# From -- ./inp_files/33994.got.cif
#   From: 2010.05.17/outbox.cif.g08.bks.cpg/sg5_17_cif.got.tgz:33994.got - 2010.06.03 18:56:24.
