data_PCOD9123442
_publ_section_title
;
Structure prediction by ZEFSAII (Michael W. Deem and Ramdas Pophale) SiO2 
 PCOD9123442
Probable space group: C 2
;
_chemical_formula_sum "Si O2"
_cell_formula_units_Z 24
_cell_length_a 23.888008
_cell_length_b 7.173712
_cell_length_c 19.048045
_cell_angle_alpha 90.000000
_cell_angle_beta 163.044454
_cell_angle_gamma 90.000000
_cell_volume 951.932070
_symmetry_space_group_name_H-M "C 2"
_symmetry_group_IT_number 5
_symmetry_cell_setting 'monoclinic'
loop_
_space_group_symop_operation_xyz
x,y,z
-x,y,-z
1/2+x,1/2+y,z
1/2-x,1/2+y,-z
loop_
_atom_site_type_symbol
_atom_site_label
_atom_site_fract_x
_atom_site_fract_y
_atom_site_fract_z
Si Si1 0.898921 0.002650 0.051514
Si Si2 0.191222 0.601762 0.195169
Si Si3 0.199043 0.039428 0.206549
Si Si4 0.981270 0.990897 0.661027
Si Si5 0.182922 0.595746 0.504766
Si Si6 0.827670 0.564361 0.985877
O O1 0.766958 0.098235 0.833318
O O2 0.945523 0.096868 0.181900
O O3 0.110417 0.012197 0.268198
O O4 0.820264 0.794991 0.977610
O O5 0.353479 0.584108 0.447967
O O6 0.165256 0.821072 0.153482
O O7 0.211305 0.519028 0.142038
O O8 0.000000 0.524044 0.000000
O O9 0.348388 0.053044 0.449612
O O10 0.000000 0.119554 0.000000
O O11 0.854185 0.818512 0.537289
O O12 0.175541 0.958625 0.851326
O O13 0.034032 0.525529 0.267841
#
# Coordination Sequence:
#
# PCOD9123442 Si02
#       6
#     4   4   4   4   4   4
#     4   9  20  41  65  91 127 178 223 260 320 407
#     4  10  20  38  65  93 126 180 227 257 316 414
#     4   8  17  36  63  89 118 162 219 263 306 378
#     4  11  23  39  63 100 135 166 214 285 338 372
#     4  10  21  41  66  95 126 168 224 277 319 381
#     4  10  22  41  62  94 136 176 213 268 339 398
#
# _framework density 25.211884999999999
#
# number of rings (size 3 to 8) (size 9 to 14) (size 15 to 20)
#    0.000    2.333    0.000    2.500    0.000    7.333 
#    0.000   14.167    0.000    0.000    0.000    0.000 
#    0.000    0.000    0.000    0.000    0.000    0.000 
#
# Total GULP energy -66868.180004 kJ/mol
# GULP energy per Si atom -5572.348334 kJ/mol
# Density = 2.515450 g / cm^3
# Si number density = 25.211885 Si / 1000 Ang^3
#
#
#
# Elastic Constant Matrix: (Units=GPa)
#
#
# Indices 1 2 3 4 5 6 
#
# 1 154.2736 5.2051 61.4564 0.0001 -65.8226 0.0000
# 2 5.2051 117.5478 8.3780 0.0001 5.1260 0.0000
# 3 61.4564 8.3780 81.2051 0.0001 -43.9241 0.0001
# 4 0.0001 0.0001 0.0001 23.3539 0.0001 -3.7794
# 5 -65.8226 5.1260 -43.9241 0.0001 69.2164 0.0001
# 6 0.0000 0.0000 0.0001 -3.7794 0.0001 -2.1016
#
#
#
# Elastic Compliance Matrix: (Units=1/GPa)
#
#
# Indices 1 2 3 4 5 6 
#
# 1 0.011888 -0.000600 -0.004257 0.000000 0.008648 0.000000
# 2 -0.000600 0.008754 -0.001688 0.000000 -0.002290 0.000000
# 3 -0.004257 -0.001688 0.020690 0.000000 0.009206 0.000001
# 4 0.000000 0.000000 0.000000 0.033167 0.000000 -0.059645
# 5 0.008648 -0.002290 0.009206 0.000000 0.028683 0.000001
# 6 0.000000 0.000000 0.000001 -0.059645 0.000001 -0.368565
#
#
# Mechanical properties :
#
#
# Convention : Reuss Voigt Hill
#
# Bulk Modulus (GPa) = 35.40815 55.90062 45.65438
# Shear Modulus (GPa) = -20.58637 36.62618 8.01991
#
# Velocity S-wave (km/s) = -2.86061 3.81561 1.78547
# Velocity P-wave (km/s) = 1.77875 6.45231 4.73267
#
# Compressibility (1/GPa) = 0.02824208
#
# Stress axis : x y z
#
# Youngs Moduli (GPa) = 84.11967 114.23487 48.33196
#
# Poissons Ratio (x) = 0.06855 0.20576
# Poissons Ratio (y) = 0.05048 0.08157
# Poissons Ratio (z) = 0.35812 0.19279
#
# Static dielectric constant tensor:
#      x y z
#    x 2.043630 0.000000 -0.079100 
#    y 0.000000 2.078300 0.000000 
#    z -0.079100 0.000000 2.315190 
# 
# From -- ./inp_files/63268.got.cif
#   From: 2010.05.17/outbox.cif.g08.bks.cpg/sg5_32_cif.got.tgz:63268.got - 2010.06.03 18:56:24.
