data_PCOD9123291
_publ_section_title
;
Structure prediction by ZEFSAII (Michael W. Deem and Ramdas Pophale) SiO2 
 PCOD9123291
Probable space group: C 2
;
_chemical_formula_sum "Si O2"
_cell_formula_units_Z 30
_cell_length_a 11.705623
_cell_length_b 7.832081
_cell_length_c 30.138798
_cell_angle_alpha 90.000000
_cell_angle_beta 32.984100
_cell_angle_gamma 90.000000
_cell_volume 1504.252544
_symmetry_space_group_name_H-M "C 2"
_symmetry_group_IT_number 5
_symmetry_cell_setting 'monoclinic'
loop_
_space_group_symop_operation_xyz
x,y,z
-x,y,-z
1/2+x,1/2+y,z
1/2-x,1/2+y,-z
loop_
_atom_site_type_symbol
_atom_site_label
_atom_site_fract_x
_atom_site_fract_y
_atom_site_fract_z
Si Si1 0.369416 0.289360 0.235590
Si Si2 0.571565 0.643495 0.617609
Si Si3 0.777497 0.071094 0.089965
Si Si4 0.729341 0.998352 0.361306
Si Si5 0.500000 0.730563 0.500000
Si Si6 0.198979 0.509530 0.537068
Si Si7 0.317378 0.223537 0.024955
Si Si8 0.530404 0.441753 0.883874
O O1 0.587689 0.199420 0.154114
O O2 0.372574 0.412129 0.277133
O O3 0.330066 0.395276 0.203720
O O4 0.179019 0.157081 0.303573
O O5 0.650483 0.610229 0.641662
O O6 0.669372 0.507276 0.551627
O O7 0.656542 0.824282 0.571628
O O8 0.825506 0.013995 0.124187
O O9 0.736034 0.901619 0.073674
O O10 0.000000 0.144105 0.000000
O O11 0.619923 0.848217 0.425535
O O12 0.530647 0.083450 0.401117
O O13 0.332356 0.617048 0.528395
O O14 0.143506 0.080441 0.074090
O O15 0.500000 0.166826 0.000000
O O16 0.415784 0.281831 0.945734
#
# Coordination Sequence:
#
# PCOD9123291 Si02
#       8
#     4   4   4   4   2   4   4   4
#     4  11  24  40  60  97 132 164 213 267 320 377
#     4  11  23  44  64  90 131 168 218 271 323 387
#     4   9  21  41  64  91 127 168 213 258 314 380
#     4  11  24  43  63  94 132 164 218 267 317 399
#     4  12  22  40  68  94 124 162 218 264 324 392
#     4  11  22  41  67  93 117 168 212 263 325 383
#     4   9  20  37  63  91 117 163 214 254 310 385
#     4  10  20  38  60  89 126 160 207 260 313 378
#
# _framework density 19.943460000000002
#
# number of rings (size 3 to 8) (size 9 to 14) (size 15 to 20)
#    0.000    1.867    4.000    1.600    1.867    6.933 
#    0.000    2.667    0.000    0.000    0.000    0.000 
#    0.000    0.000    0.000    0.000    0.000    0.000 
#
# Total GULP energy -83736.523251 kJ/mol
# GULP energy per Si atom -5582.434883 kJ/mol
# Density = 1.989807 g / cm^3
# Si number density = 19.943460 Si / 1000 Ang^3
#
#
#
# Elastic Constant Matrix: (Units=GPa)
#
#
# Indices 1 2 3 4 5 6 
#
# 1 78.2494 15.9356 20.2539 0.0001 9.3917 -0.0001
# 2 15.9356 25.1487 21.0220 0.0001 -4.6017 0.0005
# 3 20.2539 21.0220 86.0477 0.0004 12.9545 -0.0018
# 4 0.0001 0.0001 0.0004 28.3678 -0.0001 1.4245
# 5 9.3917 -4.6017 12.9545 -0.0001 38.2568 -0.0001
# 6 -0.0001 0.0005 -0.0018 1.4245 -0.0001 18.8643
#
#
#
# Elastic Compliance Matrix: (Units=1/GPa)
#
#
# Indices 1 2 3 4 5 6 
#
# 1 0.015608 -0.010499 -0.000360 0.000000 -0.004972 0.000000
# 2 -0.010499 0.061553 -0.014825 0.000000 0.015001 -0.000003
# 3 -0.000360 -0.014825 0.016420 0.000000 -0.007255 0.000002
# 4 0.000000 0.000000 0.000000 0.035385 0.000000 -0.002672
# 5 -0.004972 0.015001 -0.007255 0.000000 0.031621 -0.000001
# 6 0.000000 -0.000003 0.000002 -0.002672 -0.000001 0.053212
#
#
# Mechanical properties :
#
#
# Convention : Reuss Voigt Hill
#
# Bulk Modulus (GPa) = 23.68915 33.76321 28.72618
# Shear Modulus (GPa) = 17.90578 25.91340 21.90959
#
# Velocity S-wave (km/s) = 2.99963 3.60855 3.31809
# Velocity P-wave (km/s) = 4.88886 5.85904 5.39580
#
# Compressibility (1/GPa) = 0.04221342
#
# Stress axis : x y z
#
# Youngs Moduli (GPa) = 64.07071 16.24604 60.89974
#
# Poissons Ratio (x) = 0.17056 0.02194
# Poissons Ratio (y) = 0.67265 0.90285
# Poissons Ratio (z) = 0.02308 0.24085
#
# Static dielectric constant tensor:
#      x y z
#    x 1.734220 0.000000 -0.014020 
#    y 0.000000 1.732970 0.000000 
#    z -0.014020 0.000000 1.709140 
# 
# From -- ./inp_files/71684.got.cif
#   From: 2010.05.17/outbox.cif.g08.bks.cpg/sg5_36_cif.got.tgz:71684.got - 2010.06.03 18:56:24.
