data_PCOD9123590
_publ_section_title
;
Structure prediction by ZEFSAII (Michael W. Deem and Ramdas Pophale) SiO2 
 PCOD9123590
Probable space group: C 2
;
_chemical_formula_sum "Si O2"
_cell_formula_units_Z 28
_cell_length_a 14.456912
_cell_length_b 11.885347
_cell_length_c 8.454404
_cell_angle_alpha 90.000000
_cell_angle_beta 111.646985
_cell_angle_gamma 90.000000
_cell_volume 1350.230096
_symmetry_space_group_name_H-M "C 2"
_symmetry_group_IT_number 5
_symmetry_cell_setting 'monoclinic'
loop_
_space_group_symop_operation_xyz
x,y,z
-x,y,-z
1/2+x,1/2+y,z
1/2-x,1/2+y,-z
loop_
_atom_site_type_symbol
_atom_site_label
_atom_site_fract_x
_atom_site_fract_y
_atom_site_fract_z
Si Si1 0.737315 0.149210 0.705263
Si Si2 0.620263 0.051142 0.349744
Si Si3 0.000000 0.980588 0.500000
Si Si4 0.500000 0.068113 0.000000
Si Si5 0.463646 0.611154 0.802299
Si Si6 0.317706 0.973554 0.075443
Si Si7 0.212050 0.908358 0.715896
Si Si8 0.977118 0.336386 0.312477
O O1 0.654837 0.118546 0.523409
O O2 0.844608 0.101579 0.726246
O O3 0.750725 0.281904 0.726526
O O4 0.704465 0.087163 0.844697
O O5 0.556511 0.124422 0.182948
O O6 0.718967 0.996892 0.334544
O O7 0.548851 0.945578 0.345724
O O8 0.999981 0.048940 0.666108
O O9 0.898151 0.912033 0.422159
O O10 0.411125 0.993864 0.016964
O O11 0.497391 0.741029 0.798282
O O12 0.500000 0.573838 0.000000
O O13 0.363518 0.879246 0.220534
O O14 0.225265 0.939403 0.909230
O O15 0.000000 0.288094 0.500000
#
# Coordination Sequence:
#
# PCOD9123590 Si02
#       8
#     4   4   2   2   4   4   4   4
#     4  12  23  41  71  94 129 176 217 269 336 395
#     4  10  20  39  62  96 130 161 217 278 323 386
#     4  12  26  44  64  92 148 178 210 274 336 408
#     4   8  20  36  62  88 126 162 204 274 326 362
#     4  12  25  41  67  98 129 182 230 269 331 393
#     4  10  22  40  66  98 127 165 221 284 321 385
#     4  11  24  43  63  93 135 175 214 268 338 394
#     4  11  20  37  66  99 127 163 232 283 321 380
#
# _framework density 20.737207999999999
#
# number of rings (size 3 to 8) (size 9 to 14) (size 15 to 20)
#    0.000    1.143    5.000    1.714    4.000    2.286 
#    0.000    2.857    6.286    0.000    0.000    0.000 
#    0.000    0.000    0.000    0.000    0.000    0.000 
#
# Total GULP energy -78090.176055 kJ/mol
# GULP energy per Si atom -5577.869718 kJ/mol
# Density = 2.069001 g / cm^3
# Si number density = 20.737208 Si / 1000 Ang^3
#
#
#
# Elastic Constant Matrix: (Units=GPa)
#
#
# Indices 1 2 3 4 5 6 
#
# 1 51.5207 -2.2554 2.2698 0.0000 4.5382 0.0000
# 2 -2.2554 19.7066 12.4853 0.0000 -8.0359 0.0000
# 3 2.2698 12.4853 144.9263 0.0000 6.1233 0.0000
# 4 0.0000 0.0000 0.0000 5.5697 0.0000 1.1163
# 5 4.5382 -8.0359 6.1233 0.0000 38.4789 0.0000
# 6 0.0000 0.0000 0.0000 1.1163 0.0000 15.9253
#
#
#
# Elastic Compliance Matrix: (Units=1/GPa)
#
#
# Indices 1 2 3 4 5 6 
#
# 1 0.019669 0.001713 -0.000375 0.000000 -0.001902 0.000000
# 2 0.001713 0.059985 -0.005754 0.000000 0.013241 0.000000
# 3 -0.000375 -0.005754 0.007501 0.000000 -0.002351 0.000000
# 4 0.000000 0.000000 0.000000 0.182102 0.000000 -0.012765
# 5 -0.001902 0.013241 -0.002351 0.000000 0.029352 0.000000
# 6 0.000000 0.000000 0.000000 -0.012765 0.000000 0.063688
#
#
# Mechanical properties :
#
#
# Convention : Reuss Voigt Hill
#
# Bulk Modulus (GPa) = 12.76764 26.79478 19.78121
# Shear Modulus (GPa) = 12.58693 25.57171 19.07932
#
# Velocity S-wave (km/s) = 2.46636 3.51541 3.03653
# Velocity P-wave (km/s) = 3.77899 5.42463 4.67479
#
# Compressibility (1/GPa) = 0.07832301
#
# Stress axis : x y z
#
# Youngs Moduli (GPa) = 50.84201 16.67071 133.31600
#
# Poissons Ratio (x) = -0.02856 0.05003
# Poissons Ratio (y) = -0.08710 0.76710
# Poissons Ratio (z) = 0.01908 0.09592
#
# Static dielectric constant tensor:
#      x y z
#    x 1.741930 0.000000 -0.026410 
#    y 0.000000 1.700000 0.000000 
#    z -0.026410 0.000000 1.823270 
# 
# From -- ./inp_files/23563.got.cif
#   From: 2010.05.17/outbox.cif.g08.bks.cpg/sg5_12_cif.got.tgz:23563.got - 2010.06.03 18:56:24.
