data_PCOD9123304
_publ_section_title
;
Structure prediction by ZEFSAII (Michael W. Deem and Ramdas Pophale) SiO2 
 PCOD9123304
Probable space group: C 2
;
_chemical_formula_sum "Si O2"
_cell_formula_units_Z 24
_cell_length_a 8.124941
_cell_length_b 28.142219
_cell_length_c 7.199172
_cell_angle_alpha 90.000000
_cell_angle_beta 140.505423
_cell_angle_gamma 90.000000
_cell_volume 1046.939919
_symmetry_space_group_name_H-M "C 2"
_symmetry_group_IT_number 5
_symmetry_cell_setting 'monoclinic'
loop_
_space_group_symop_operation_xyz
x,y,z
-x,y,-z
1/2+x,1/2+y,z
1/2-x,1/2+y,-z
loop_
_atom_site_type_symbol
_atom_site_label
_atom_site_fract_x
_atom_site_fract_y
_atom_site_fract_z
Si Si1 0.718305 0.509910 0.843556
Si Si2 0.088311 0.868321 0.365994
Si Si3 0.781490 0.767836 0.654998
Si Si4 0.092472 0.414959 0.862365
Si Si5 0.562947 0.613443 0.836129
Si Si6 0.434603 0.164419 0.660226
O O1 0.500000 0.495965 0.500000
O O2 0.774584 0.466547 0.033380
O O3 0.628039 0.559114 0.852260
O O4 0.000000 0.518681 0.000000
O O5 0.194325 0.814946 0.447489
O O6 0.000000 0.877515 0.500000
O O7 0.821518 0.877472 0.023972
O O8 0.326764 0.903257 0.525677
O O9 0.500000 0.765287 0.500000
O O10 0.847340 0.718257 0.614607
O O11 0.000000 0.773617 0.000000
O O12 0.000000 0.411964 0.000000
O O13 0.305777 0.630054 0.507119
O O14 0.500000 0.617625 0.000000
O O15 0.805885 0.648066 0.009661
O O16 0.500000 0.159102 0.500000
#
# Coordination Sequence:
#
# PCOD9123304 Si02
#       6
#     4   4   4   4   4   4
#     4  11  21  35  59  89 118 149 191 238 284 332
#     4  10  20  38  61  80 109 153 194 228 274 338
#     4  12  25  39  58  88 120 145 184 242 297 339
#     4   9  18  34  58  85 109 145 195 235 267 327
#     4  10  22  39  59  85 117 152 192 235 281 339
#     4  10  22  41  61  81 112 156 198 230 274 345
#
# _framework density 22.923952
#
# number of rings (size 3 to 8) (size 9 to 14) (size 15 to 20)
#    0.000    1.667    0.000    6.000    0.000    4.000 
#    0.000    9.167    0.000    0.000    0.000    0.000 
#    0.000    0.000    0.000    0.000    0.000    0.000 
#
# Total GULP energy -67116.516200 kJ/mol
# GULP energy per Si atom -5593.043017 kJ/mol
# Density = 2.287178 g / cm^3
# Si number density = 22.923952 Si / 1000 Ang^3
#
#
#
# Elastic Constant Matrix: (Units=GPa)
#
#
# Indices 1 2 3 4 5 6 
#
# 1 68.2692 28.2982 45.8657 0.0000 32.3170 0.0000
# 2 28.2982 156.7347 41.3899 0.0000 46.4837 0.0000
# 3 45.8657 41.3899 154.1242 0.0000 40.6333 0.0000
# 4 0.0000 0.0000 0.0000 39.0117 0.0000 11.6222
# 5 32.3170 46.4837 40.6333 0.0000 39.0922 0.0000
# 6 0.0000 0.0000 0.0000 11.6222 0.0000 35.3434
#
#
#
# Elastic Compliance Matrix: (Units=1/GPa)
#
#
# Indices 1 2 3 4 5 6 
#
# 1 0.025421 0.002357 -0.002643 0.000000 -0.021071 0.000000
# 2 0.002357 0.010116 0.000368 0.000000 -0.014360 0.000000
# 3 -0.002643 0.000368 0.009250 0.000000 -0.007867 0.000000
# 4 0.000000 0.000000 0.000000 0.028417 0.000000 -0.009345
# 5 -0.021071 -0.014360 -0.007867 0.000000 0.068253 0.000000
# 6 0.000000 0.000000 0.000000 -0.009345 0.000000 0.031367
#
#
# Mechanical properties :
#
#
# Convention : Reuss Voigt Hill
#
# Bulk Modulus (GPa) = 22.24601 67.80398 45.02500
# Shear Modulus (GPa) = 26.64628 40.26107 33.45367
#
# Velocity S-wave (km/s) = 3.41306 4.19536 3.82427
# Velocity P-wave (km/s) = 5.02567 7.28766 6.25969
#
# Compressibility (1/GPa) = 0.04495187
#
# Stress axis : x y z
#
# Youngs Moduli (GPa) = 39.33764 98.84972 108.10678
#
# Poissons Ratio (x) = -0.23303 0.28571
# Poissons Ratio (y) = -0.09274 -0.03974
# Poissons Ratio (z) = 0.10396 -0.03634
#
# Static dielectric constant tensor:
#      x y z
#    x 1.870740 0.000000 -0.026960 
#    y 0.000000 1.866150 0.000000 
#    z -0.026960 0.000000 1.856610 
# 
# From -- ./inp_files/17660.got.cif
#   From: 2010.05.17/outbox.cif.g08.bks.cpg/sg5_9_cif.got.tgz:17660.got - 2010.06.03 18:56:24.
