data_PCOD9123443
_publ_section_title
;
Structure prediction by ZEFSAII (Michael W. Deem and Ramdas Pophale) SiO2 
 PCOD9123443
Probable space group: C 2
;
_chemical_formula_sum "Si O2"
_cell_formula_units_Z 32
_cell_length_a 12.306612
_cell_length_b 16.916294
_cell_length_c 15.636274
_cell_angle_alpha 90.000000
_cell_angle_beta 29.936843
_cell_angle_gamma 90.000000
_cell_volume 1624.489027
_symmetry_space_group_name_H-M "C 2"
_symmetry_group_IT_number 5
_symmetry_cell_setting 'monoclinic'
loop_
_space_group_symop_operation_xyz
x,y,z
-x,y,-z
1/2+x,1/2+y,z
1/2-x,1/2+y,-z
loop_
_atom_site_type_symbol
_atom_site_label
_atom_site_fract_x
_atom_site_fract_y
_atom_site_fract_z
Si Si1 0.074413 0.508300 0.203729
Si Si2 0.144952 0.226401 0.562462
Si Si3 0.749198 0.841243 0.141270
Si Si4 0.269893 0.267205 0.667297
Si Si5 0.075772 0.049296 0.545828
Si Si6 0.712516 0.977079 0.913033
Si Si7 0.371487 0.184322 0.768505
Si Si8 0.832154 0.313609 0.996159
O O1 0.174122 0.432874 0.185169
O O2 0.129654 0.592845 0.207760
O O3 0.812321 0.508196 0.387885
O O4 0.158630 0.504370 0.047513
O O5 0.178264 0.228928 0.642868
O O6 0.084176 0.142297 0.564270
O O7 0.401980 0.229934 0.360183
O O8 0.948995 0.289906 0.679776
O O9 0.755121 0.811960 0.039427
O O10 0.000000 0.833901 0.000000
O O11 0.500000 0.309726 0.500000
O O12 0.322843 0.202173 0.702852
O O13 0.089505 0.329797 0.817358
O O14 0.000000 0.041021 0.500000
O O15 0.912548 0.015795 0.727837
O O16 0.768568 0.884388 0.882723
O O17 0.500000 0.990321 0.000000
O O18 0.191057 0.229602 0.945134
#
# Coordination Sequence:
#
# PCOD9123443 Si02
#       8
#     4   4   4   4   4   4   4   4
#     4  10  24  42  61  97 129 164 216 259 320 385
#     4   9  22  39  63  91 124 163 217 255 312 378
#     4  10  23  43  62  89 125 173 210 263 320 377
#     4   9  18  37  61  94 123 158 202 262 314 367
#     4  11  23  42  66  93 129 168 209 268 320 372
#     4  11  22  39  62  92 126 163 206 261 326 373
#     4  10  20  38  65  93 127 163 208 263 318 373
#     4  10  22  38  59  95 120 160 217 253 315 384
#
# _framework density 19.698502000000001
#
# number of rings (size 3 to 8) (size 9 to 14) (size 15 to 20)
#    0.000    2.000    1.250    1.125    5.250    3.500 
#    6.750    0.000    0.000    0.000    0.000    0.000 
#    0.000    0.000    0.000    0.000    0.000    0.000 
#
# Total GULP energy -89123.953205 kJ/mol
# GULP energy per Si atom -5570.247075 kJ/mol
# Density = 1.965367 g / cm^3
# Si number density = 19.698502 Si / 1000 Ang^3
#
#
#
# Elastic Constant Matrix: (Units=GPa)
#
#
# Indices 1 2 3 4 5 6 
#
# 1 75.1128 29.1933 44.2155 0.0120 -28.0704 -0.0323
# 2 29.1933 67.4603 43.6598 0.0662 -15.4635 -0.0865
# 3 44.2155 43.6598 112.2216 0.0290 -17.4008 -0.0211
# 4 0.0120 0.0662 0.0290 25.0037 -0.0073 8.8467
# 5 -28.0704 -15.4635 -17.4008 -0.0073 27.4779 -0.0023
# 6 -0.0323 -0.0865 -0.0211 8.8467 -0.0023 2.3151
#
#
#
# Elastic Compliance Matrix: (Units=1/GPa)
#
#
# Indices 1 2 3 4 5 6 
#
# 1 0.025579 -0.002455 -0.005861 0.000214 0.021038 -0.000584
# 2 -0.002455 0.021316 -0.006493 0.000843 0.005377 -0.002513
# 3 -0.005861 -0.006493 0.013586 -0.000214 -0.001039 0.000616
# 4 0.000214 0.000843 -0.000214 -0.113581 0.000562 0.434051
# 5 0.021038 0.005377 -0.001039 0.000562 0.060252 -0.001605
# 6 -0.000584 -0.002513 0.000616 0.434051 -0.001605 -1.226760
#
#
# Mechanical properties :
#
#
# Convention : Reuss Voigt Hill
#
# Bulk Modulus (GPa) = 32.40096 54.32576 43.36336
# Shear Modulus (GPa) = -4.23836 20.14109 7.95137
#
# Velocity S-wave (km/s) = -1.46843 3.20107 2.01129
# Velocity P-wave (km/s) = 3.68905 6.42659 5.23976
#
# Compressibility (1/GPa) = 0.03086329
#
# Stress axis : x y z
#
# Youngs Moduli (GPa) = 39.09396 46.91223 73.60719
#
# Poissons Ratio (x) = 0.11515 0.43145
# Poissons Ratio (y) = 0.09596 0.47793
# Poissons Ratio (z) = 0.22915 0.30460
#
# Static dielectric constant tensor:
#      x y z
#    x 1.698830 -0.000010 -0.015030 
#    y -0.000010 1.672380 0.000020 
#    z -0.015030 0.000020 1.781770 
# 
# From -- ./inp_files/53460.got.cif
#   From: 2010.05.17/outbox.cif.g08.bks.cpg/sg5_27_cif.got.tgz:53460.got - 2010.06.03 18:56:24.
