data_PCOD9123176
_publ_section_title
;
Structure prediction by ZEFSAII (Michael W. Deem and Ramdas Pophale) SiO2 
 PCOD9123176
Probable space group: C 2
;
_chemical_formula_sum "Si O2"
_cell_formula_units_Z 28
_cell_length_a 9.151933
_cell_length_b 14.770120
_cell_length_c 11.636217
_cell_angle_alpha 90.000000
_cell_angle_beta 54.119574
_cell_angle_gamma 90.000000
_cell_volume 1274.451680
_symmetry_space_group_name_H-M "C 2"
_symmetry_group_IT_number 5
_symmetry_cell_setting 'monoclinic'
loop_
_space_group_symop_operation_xyz
x,y,z
-x,y,-z
1/2+x,1/2+y,z
1/2-x,1/2+y,-z
loop_
_atom_site_type_symbol
_atom_site_label
_atom_site_fract_x
_atom_site_fract_y
_atom_site_fract_z
Si Si1 0.187662 0.603670 0.259181
Si Si2 0.500000 0.273314 0.000000
Si Si3 0.000000 0.111181 0.000000
Si Si4 0.303340 0.074241 0.325486
Si Si5 0.695297 0.633234 0.131659
Si Si6 0.747786 0.902513 0.264490
Si Si7 0.681244 0.685692 0.585243
Si Si8 0.314982 0.887682 0.440252
O O1 0.275684 0.503891 0.204513
O O2 0.192717 0.624049 0.391444
O O3 0.003041 0.599885 0.277744
O O4 0.339315 0.667848 0.134941
O O5 0.342514 0.207378 0.025758
O O6 0.391262 0.335150 0.141444
O O7 0.883289 0.078606 0.940971
O O8 0.283233 0.080251 0.198346
O O9 0.189930 0.146562 0.452549
O O10 0.261285 0.972971 0.387910
O O11 0.520406 0.677291 0.273231
O O12 0.535068 0.882900 0.339285
O O13 0.756404 0.904370 0.398148
O O14 0.747868 0.788040 0.564023
#
# Coordination Sequence:
#
# PCOD9123176 Si02
#       8
#     4   2   2   4   4   4   4   4
#     4  10  21  40  66  95 133 182 223 284 349 415
#     4  12  21  38  70 107 134 188 244 277 350 437
#     4  10  23  42  64  89 136 182 226 275 366 409
#     4  11  22  41  70 101 135 183 245 286 347 418
#     4  11  24  40  68  98 137 183 230 289 345 423
#     4  10  20  37  65 100 139 179 231 285 343 417
#     4  11  21  40  67  98 140 183 223 294 351 404
#     4  10  21  39  66 101 139 184 229 295 350 405
#
# _framework density 21.970234000000001
#
# number of rings (size 3 to 8) (size 9 to 14) (size 15 to 20)
#    0.000    1.429    2.857    3.000    2.000    0.000 
#    0.000    2.857   25.143    0.857    0.000    0.000 
#    0.000    0.000    0.000    0.000    0.000    0.000 
#
# Total GULP energy -78015.686900 kJ/mol
# GULP energy per Si atom -5572.549064 kJ/mol
# Density = 2.192023 g / cm^3
# Si number density = 21.970234 Si / 1000 Ang^3
#
#
#
# Elastic Constant Matrix: (Units=GPa)
#
#
# Indices 1 2 3 4 5 6 
#
# 1 141.3699 36.9201 54.8502 0.0000 17.8868 0.0000
# 2 36.9201 112.4367 40.3849 0.0000 11.1433 0.0000
# 3 54.8502 40.3849 123.0926 0.0000 4.4915 0.0000
# 4 0.0000 0.0000 0.0000 36.9664 0.0000 -2.4382
# 5 17.8868 11.1433 4.4915 0.0000 55.5920 0.0000
# 6 0.0000 0.0000 0.0000 -2.4382 0.0000 6.9492
#
#
#
# Elastic Compliance Matrix: (Units=1/GPa)
#
#
# Indices 1 2 3 4 5 6 
#
# 1 0.009116 -0.001510 -0.003481 0.000000 -0.002349 0.000000
# 2 -0.001510 0.010507 -0.002723 0.000000 -0.001400 0.000000
# 3 -0.003481 -0.002723 0.010539 0.000000 0.000814 0.000000
# 4 0.000000 0.000000 0.000000 0.027692 0.000000 0.009716
# 5 -0.002349 -0.001400 0.000814 0.000000 0.018959 0.000000
# 6 0.000000 0.000000 0.000000 0.009716 0.000000 0.147311
#
#
# Mechanical properties :
#
#
# Convention : Reuss Voigt Hill
#
# Bulk Modulus (GPa) = 67.87503 71.24551 69.56027
# Shear Modulus (GPa) = 20.45307 36.21779 28.33543
#
# Velocity S-wave (km/s) = 3.05445 4.06457 3.59516
# Velocity P-wave (km/s) = 6.58792 7.38419 6.99739
#
# Compressibility (1/GPa) = 0.01473296
#
# Stress axis : x y z
#
# Youngs Moduli (GPa) = 109.69964 95.17816 94.88849
#
# Poissons Ratio (x) = 0.14374 0.33029
# Poissons Ratio (y) = 0.16567 0.25838
# Poissons Ratio (z) = 0.38184 0.25917
#
# Static dielectric constant tensor:
#      x y z
#    x 1.842200 0.000000 -0.039920 
#    y 0.000000 1.845140 0.000000 
#    z -0.039920 0.000000 1.896700 
# 
# From -- ./inp_files/36325.got.cif
#   From: 2010.05.17/outbox.cif.g08.bks.cpg/sg5_19_cif.got.tgz:36325.got - 2010.06.03 18:56:24.
