data_PCOD9123674
_publ_section_title
;
Structure prediction by ZEFSAII (Michael W. Deem and Ramdas Pophale) SiO2 
 PCOD9123674
Probable space group: C 2
;
_chemical_formula_sum "Si O2"
_cell_formula_units_Z 32
_cell_length_a 12.505086
_cell_length_b 7.643000
_cell_length_c 32.928689
_cell_angle_alpha 90.000000
_cell_angle_beta 25.208016
_cell_angle_gamma 90.000000
_cell_volume 1340.412954
_symmetry_space_group_name_H-M "C 2"
_symmetry_group_IT_number 5
_symmetry_cell_setting 'monoclinic'
loop_
_space_group_symop_operation_xyz
x,y,z
-x,y,-z
1/2+x,1/2+y,z
1/2-x,1/2+y,-z
loop_
_atom_site_type_symbol
_atom_site_label
_atom_site_fract_x
_atom_site_fract_y
_atom_site_fract_z
Si Si1 0.418105 0.674090 0.571986
Si Si2 0.252716 0.727610 0.061682
Si Si3 0.506752 0.999732 0.077559
Si Si4 0.600369 0.386211 0.356535
Si Si5 0.354263 0.261256 0.745853
Si Si6 0.248823 0.386734 0.250402
Si Si7 0.441482 0.718032 0.766687
Si Si8 0.927633 0.509315 0.607287
O O1 0.500000 0.603459 0.500000
O O2 0.483944 0.543267 0.585907
O O3 0.524215 0.871565 0.541508
O O4 0.116559 0.694210 0.673890
O O5 0.171384 0.588802 0.055855
O O6 0.005452 0.783176 0.171725
O O7 0.500000 0.667881 0.000000
O O8 0.331047 0.905109 0.011661
O O9 0.329568 0.856039 0.160019
O O10 0.316232 0.147167 0.126373
O O11 0.580000 0.386238 0.315195
O O12 0.899476 0.357437 0.262549
O O13 0.479814 0.204839 0.415192
O O14 0.216863 0.089428 0.774388
O O15 0.122575 0.291871 0.255600
O O16 0.079017 0.402571 0.348425
O O17 0.638174 0.558044 0.695890
#
# Coordination Sequence:
#
# PCOD9123674 Si02
#       8
#     4   4   4   4   4   4   4   4
#     4  12  25  42  67 101 131 169 220 286 337 389
#     4  11  25  41  62 101 134 169 221 285 321 385
#     4  11  23  41  62  95 129 174 223 267 335 392
#     4   9  22  40  63  98 121 168 222 267 330 400
#     4  11  21  42  67  91 128 176 223 267 329 419
#     4  10  20  39  67  90 125 177 216 266 332 393
#     4   9  18  38  63  88 122 167 214 260 319 393
#     4   9  20  39  63  91 124 174 214 257 336 398
#
# _framework density 23.873239000000002
#
# number of rings (size 3 to 8) (size 9 to 14) (size 15 to 20)
#    0.750    1.000    2.500    1.500    3.500    0.500 
#    9.000    0.625    0.000    0.000    0.000    0.000 
#    0.000    0.000    0.000    0.000    0.000    0.000 
#
# Total GULP energy -89422.711204 kJ/mol
# GULP energy per Si atom -5588.919450 kJ/mol
# Density = 2.381890 g / cm^3
# Si number density = 23.873239 Si / 1000 Ang^3
#
#
#
# Elastic Constant Matrix: (Units=GPa)
#
#
# Indices 1 2 3 4 5 6 
#
# 1 62.2614 9.7724 18.1536 -0.0608 -9.6686 -0.0177
# 2 9.7724 53.6338 8.9918 -0.1257 8.5699 -0.0789
# 3 18.1536 8.9918 39.8053 -0.2378 -12.2517 -0.0384
# 4 -0.0608 -0.1257 -0.2378 22.5536 -0.0351 6.0097
# 5 -9.6686 8.5699 -12.2517 -0.0351 39.8449 -0.0281
# 6 -0.0177 -0.0789 -0.0384 6.0097 -0.0281 42.6349
#
#
#
# Elastic Compliance Matrix: (Units=1/GPa)
#
#
# Indices 1 2 3 4 5 6 
#
# 1 0.019043 -0.002757 -0.007132 -0.000035 0.003021 0.000003
# 2 -0.002757 0.021215 -0.005683 0.000034 -0.006979 0.000024
# 3 -0.007132 -0.005683 0.032589 0.000313 0.009512 -0.000022
# 4 -0.000035 0.000034 0.000313 0.046073 0.000117 -0.006494
# 5 0.003021 -0.006979 0.009512 0.000117 0.030256 0.000000
# 6 0.000003 0.000024 -0.000022 -0.006494 0.000000 0.024370
#
#
# Mechanical properties :
#
#
# Convention : Reuss Voigt Hill
#
# Bulk Modulus (GPa) = 23.97963 25.50402 24.74182
# Shear Modulus (GPa) = 22.87376 28.92554 25.89965
#
# Velocity S-wave (km/s) = 3.09873 3.48462 3.29733
# Velocity P-wave (km/s) = 4.78218 5.18618 4.98827
#
# Compressibility (1/GPa) = 0.04170206
#
# Stress axis : x y z
#
# Youngs Moduli (GPa) = 52.51377 47.13567 30.68566
#
# Poissons Ratio (x) = 0.12994 0.21886
# Poissons Ratio (y) = 0.14476 0.17439
# Poissons Ratio (z) = 0.37455 0.26788
#
# Static dielectric constant tensor:
#      x y z
#    x 1.937080 0.000020 -0.046440 
#    y 0.000020 1.926380 0.000030 
#    z -0.046440 0.000030 1.935470 
# 
# From -- ./inp_files/71744.got.cif
#   From: 2010.05.17/outbox.cif.g08.bks.cpg/sg5_36_cif.got.tgz:71744.got - 2010.06.03 18:56:24.
