data_PCOD9123072
_publ_section_title
;
Structure prediction by ZEFSAII (Michael W. Deem and Ramdas Pophale) SiO2 
 PCOD9123072
Probable space group: C 2
;
_chemical_formula_sum "Si O2"
_cell_formula_units_Z 26
_cell_length_a 11.876369
_cell_length_b 13.195194
_cell_length_c 9.383285
_cell_angle_alpha 90.000000
_cell_angle_beta 49.959870
_cell_angle_gamma 90.000000
_cell_volume 1125.778415
_symmetry_space_group_name_H-M "C 2"
_symmetry_group_IT_number 5
_symmetry_cell_setting 'monoclinic'
loop_
_space_group_symop_operation_xyz
x,y,z
-x,y,-z
1/2+x,1/2+y,z
1/2-x,1/2+y,-z
loop_
_atom_site_type_symbol
_atom_site_label
_atom_site_fract_x
_atom_site_fract_y
_atom_site_fract_z
Si Si1 0.199255 0.274750 0.328654
Si Si2 0.908028 0.337587 0.888847
Si Si3 0.933994 0.563718 0.807357
Si Si4 0.753410 0.192685 0.249274
Si Si5 0.500000 0.210164 0.000000
Si Si6 0.709704 0.581671 0.510079
Si Si7 0.761816 0.370490 0.420777
O O1 0.117222 0.291620 0.248464
O O2 0.373945 0.277681 0.166358
O O3 0.170437 0.167061 0.427193
O O4 0.181404 0.358901 0.463660
O O5 0.861501 0.455752 0.908392
O O6 0.079665 0.358300 0.786562
O O7 0.829866 0.258419 0.059921
O O8 0.854350 0.615123 0.740061
O O9 0.111052 0.564794 0.635926
O O10 0.920083 0.637881 0.952943
O O11 0.842096 0.123770 0.293719
O O12 0.680555 0.274016 0.418406
O O13 0.665003 0.470465 0.495001
#
# Coordination Sequence:
#
# PCOD9123072 Si02
#       7
#     4   4   4   4   2   4   4
#     4  10  20  37  61  86 121 152 202 249 300 348
#     4  11  22  36  65  93 117 157 207 250 300 354
#     4  10  21  37  63  87 119 156 206 247 292 360
#     4  11  21  35  61  96 122 150 202 264 299 346
#     4  10  20  38  60  88 112 154 198 254 288 350
#     4   9  21  39  63  85 119 161 209 242 292 363
#     4  10  22  39  63  87 120 164 204 243 300 366
#
# _framework density 23.095132
#
# number of rings (size 3 to 8) (size 9 to 14) (size 15 to 20)
#    0.000    1.846    1.538    2.308    6.462    2.462 
#    0.000    0.000   20.308   20.308    0.000    0.000 
#    0.000    0.000    0.000    0.000    0.000    0.000 
#
# Total GULP energy -72428.763818 kJ/mol
# GULP energy per Si atom -5571.443371 kJ/mol
# Density = 2.304257 g / cm^3
# Si number density = 23.095132 Si / 1000 Ang^3
#
#
#
# Elastic Constant Matrix: (Units=GPa)
#
#
# Indices 1 2 3 4 5 6 
#
# 1 43.3912 0.9608 3.0596 0.0000 8.4800 0.0000
# 2 0.9608 75.3294 1.6657 0.0000 -20.9174 0.0000
# 3 3.0596 1.6657 73.8622 0.0000 3.8993 0.0000
# 4 0.0000 0.0000 0.0000 23.3187 0.0000 -2.7169
# 5 8.4800 -20.9174 3.8993 0.0000 23.3493 0.0000
# 6 0.0000 0.0000 0.0000 -2.7169 0.0000 20.5488
#
#
#
# Elastic Compliance Matrix: (Units=1/GPa)
#
#
# Indices 1 2 3 4 5 6 
#
# 1 0.025636 -0.003849 -0.000304 0.000000 -0.012708 0.000000
# 2 -0.003849 0.018363 -0.001208 0.000000 0.018050 0.000000
# 3 -0.000304 -0.001208 0.013751 0.000000 -0.003268 0.000000
# 4 0.000000 0.000000 0.000000 0.043555 0.000000 0.005759
# 5 -0.012708 0.018050 -0.003268 0.000000 0.064159 0.000000
# 6 0.000000 0.000000 0.000000 0.005759 0.000000 0.049426
#
#
# Mechanical properties :
#
#
# Convention : Reuss Voigt Hill
#
# Bulk Modulus (GPa) = 21.26360 22.66167 21.96263
# Shear Modulus (GPa) = 20.72215 25.90313 23.31264
#
# Velocity S-wave (km/s) = 2.99867 3.35264 3.18058
# Velocity P-wave (km/s) = 4.60611 4.98202 4.79775
#
# Compressibility (1/GPa) = 0.04702873
#
# Stress axis : x y z
#
# Youngs Moduli (GPa) = 39.00715 54.45764 72.72160
#
# Poissons Ratio (x) = 0.20961 0.02213
# Poissons Ratio (y) = 0.15014 0.08782
# Poissons Ratio (z) = 0.01187 0.06576
#
# Static dielectric constant tensor:
#      x y z
#    x 1.919130 0.000000 -0.028980 
#    y 0.000000 1.978620 0.000000 
#    z -0.028980 0.000000 1.930130 
# 
# From -- ./inp_files/23532.got.cif
#   From: 2010.05.17/outbox.cif.g08.bks.cpg/sg5_12_cif.got.tgz:23532.got - 2010.06.03 18:56:24.
