data_PCOD9123354
_publ_section_title
;
Structure prediction by ZEFSAII (Michael W. Deem and Ramdas Pophale) SiO2 
 PCOD9123354
Probable space group: C 2
;
_chemical_formula_sum "Si O2"
_cell_formula_units_Z 32
_cell_length_a 14.034701
_cell_length_b 8.480748
_cell_length_c 24.232344
_cell_angle_alpha 90.000000
_cell_angle_beta 149.441350
_cell_angle_gamma 90.000000
_cell_volume 1466.410133
_symmetry_space_group_name_H-M "C 2"
_symmetry_group_IT_number 5
_symmetry_cell_setting 'monoclinic'
loop_
_space_group_symop_operation_xyz
x,y,z
-x,y,-z
1/2+x,1/2+y,z
1/2-x,1/2+y,-z
loop_
_atom_site_type_symbol
_atom_site_label
_atom_site_fract_x
_atom_site_fract_y
_atom_site_fract_z
Si Si1 0.889144 0.895220 0.622604
Si Si2 0.761460 0.542651 0.067772
Si Si3 0.329416 0.601349 0.287931
Si Si4 0.014103 0.410502 0.391682
Si Si5 0.880912 0.318882 0.777450
Si Si6 0.194506 0.630453 0.784584
Si Si7 0.219146 0.010065 0.319553
Si Si8 0.978361 0.803233 0.113743
O O1 0.736568 0.912828 0.498081
O O2 0.770548 0.924147 0.617827
O O3 0.006605 0.736596 0.685340
O O4 0.044251 0.031269 0.697185
O O5 0.747340 0.607215 0.123104
O O6 0.810195 0.694948 0.053943
O O7 0.934341 0.421609 0.142334
O O8 0.587927 0.434376 0.962534
O O9 0.451432 0.735621 0.377166
O O10 0.279452 0.452482 0.300940
O O11 0.134870 0.679173 0.171627
O O12 0.885524 0.462056 0.275961
O O13 0.920222 0.523249 0.390368
O O14 0.841239 0.220445 0.815927
O O15 0.861586 0.185520 0.721785
O O16 0.079587 0.900841 0.213243
#
# Coordination Sequence:
#
# PCOD9123354 Si02
#       8
#     4   4   4   4   4   4   4   4
#     4  11  20  38  67  91 129 173 216 267 340 393
#     4  11  21  41  69  91 126 180 223 271 348 400
#     4   9  21  39  61  90 129 165 211 278 318 388
#     4  10  21  38  62  94 131 168 218 271 323 401
#     4   9  21  40  63  89 133 167 215 282 320 399
#     4  10  22  40  65  94 130 174 219 274 336 404
#     4  10  20  38  62  90 129 169 209 276 329 393
#     4  10  21  40  64  91 127 170 218 275 332 401
#
# _framework density 21.821998000000001
#
# number of rings (size 3 to 8) (size 9 to 14) (size 15 to 20)
#    0.000    2.000    1.250    1.875    1.750    0.000 
#    0.000   10.000    8.250    0.000    0.000    0.000 
#    0.000    0.000    0.000    0.000    0.000    0.000 
#
# Total GULP energy -89132.291194 kJ/mol
# GULP energy per Si atom -5570.768200 kJ/mol
# Density = 2.177233 g / cm^3
# Si number density = 21.821998 Si / 1000 Ang^3
#
#
#
# Elastic Constant Matrix: (Units=GPa)
#
#
# Indices 1 2 3 4 5 6 
#
# 1 42.5873 1.1986 8.0889 0.0000 6.3173 0.0000
# 2 1.1986 107.3436 10.4865 -0.0001 9.8611 0.0000
# 3 8.0889 10.4865 49.0810 0.0001 13.4755 0.0000
# 4 0.0000 -0.0001 0.0001 26.3291 0.0000 3.8895
# 5 6.3173 9.8611 13.4755 0.0000 22.3442 0.0000
# 6 0.0000 0.0000 0.0000 3.8895 0.0000 27.2923
#
#
#
# Elastic Compliance Matrix: (Units=1/GPa)
#
#
# Indices 1 2 3 4 5 6 
#
# 1 0.024806 0.000499 -0.002647 0.000000 -0.005637 0.000000
# 2 0.000499 0.009767 -0.001135 0.000000 -0.003767 0.000000
# 3 -0.002647 -0.001135 0.024820 0.000000 -0.013719 0.000000
# 4 0.000000 0.000000 0.000000 0.038798 0.000000 -0.005529
# 5 -0.005637 -0.003767 -0.013719 0.000000 0.056285 0.000000
# 6 0.000000 0.000000 0.000000 -0.005529 0.000000 0.037428
#
#
# Mechanical properties :
#
#
# Convention : Reuss Voigt Hill
#
# Bulk Modulus (GPa) = 18.92922 26.50664 22.71793
# Shear Modulus (GPa) = 23.13975 27.14232 25.14104
#
# Velocity S-wave (km/s) = 3.25989 3.53059 3.39794
# Velocity P-wave (km/s) = 4.78146 5.36593 5.08211
#
# Compressibility (1/GPa) = 0.05282838
#
# Stress axis : x y z
#
# Youngs Moduli (GPa) = 40.31256 102.38291 40.29019
#
# Poissons Ratio (x) = -0.05114 0.10666
# Poissons Ratio (y) = -0.02014 0.04572
# Poissons Ratio (z) = 0.10671 0.11618
#
# Static dielectric constant tensor:
#      x y z
#    x 1.846720 0.000000 0.028630 
#    y 0.000000 1.838750 0.000000 
#    z 0.028630 0.000000 1.843530 
# 
# From -- ./inp_files/68797.got.cif
#   From: 2010.05.17/outbox.cif.g08.bks.cpg/sg5_35_cif.got.tgz:68797.got - 2010.06.03 18:56:24.
