data_PCOD9123519
_publ_section_title
;
Structure prediction by ZEFSAII (Michael W. Deem and Ramdas Pophale) SiO2 
 PCOD9123519
Probable space group: C 2
;
_chemical_formula_sum "Si O2"
_cell_formula_units_Z 20
_cell_length_a 7.317995
_cell_length_b 16.385548
_cell_length_c 8.222126
_cell_angle_alpha 90.000000
_cell_angle_beta 91.461502
_cell_angle_gamma 90.000000
_cell_volume 985.589125
_symmetry_space_group_name_H-M "C 2"
_symmetry_group_IT_number 5
_symmetry_cell_setting 'monoclinic'
loop_
_space_group_symop_operation_xyz
x,y,z
-x,y,-z
1/2+x,1/2+y,z
1/2-x,1/2+y,-z
loop_
_atom_site_type_symbol
_atom_site_label
_atom_site_fract_x
_atom_site_fract_y
_atom_site_fract_z
Si Si1 0.364025 0.603220 0.650675
Si Si2 0.378090 0.422765 0.729903
Si Si3 0.865952 0.263034 0.846067
Si Si4 0.708994 0.910115 0.386965
Si Si5 0.500000 0.305487 0.000000
Si Si6 0.000000 0.559880 0.500000
O O1 0.500000 0.591238 0.500000
O O2 0.346773 0.519038 0.751138
O O3 0.420547 0.679565 0.758409
O O4 0.159959 0.614190 0.576623
O O5 0.247122 0.394210 0.579604
O O6 0.376712 0.364493 0.883752
O O7 0.588123 0.419768 0.677433
O O8 0.653305 0.257367 0.901261
O O9 0.875947 0.336959 0.717176
O O10 0.000000 0.277218 0.000000
O O11 0.599606 0.995544 0.379770
#
# Coordination Sequence:
#
# PCOD9123519 Si02
#       6
#     4   4   4   4   2   2
#     4  11  23  41  62  97 127 163 210 265 315 369
#     4   9  18  41  68  88 125 166 211 259 308 367
#     4  11  27  41  60  97 132 169 203 263 324 367
#     4   9  19  39  65  93 116 165 225 244 301 379
#     4  10  24  44  62  92 132 170 206 256 318 382
#     4  10  20  38  68  92 112 164 220 252 304 366
#
# _framework density 20.29243
#
# number of rings (size 3 to 8) (size 9 to 14) (size 15 to 20)
#    0.000    2.000    4.000    0.000    8.400    4.800 
#    0.000    0.000    0.000    0.000    0.000    0.000 
#    0.000    0.000    0.000    0.000    0.000    0.000 
#
# Total GULP energy -55765.047568 kJ/mol
# GULP energy per Si atom -5576.504757 kJ/mol
# Density = 2.024624 g / cm^3
# Si number density = 20.292430 Si / 1000 Ang^3
#
#
#
# Elastic Constant Matrix: (Units=GPa)
#
#
# Indices 1 2 3 4 5 6 
#
# 1 84.0767 1.5132 10.6271 0.0000 7.1925 0.0000
# 2 1.5132 68.2002 46.2162 0.0000 18.7865 0.0000
# 3 10.6271 46.2162 63.3753 0.0000 21.9058 0.0000
# 4 0.0000 0.0000 0.0000 22.6634 0.0000 1.4793
# 5 7.1925 18.7865 21.9058 0.0000 43.8849 0.0000
# 6 0.0000 0.0000 0.0000 1.4793 0.0000 19.0661
#
#
#
# Elastic Compliance Matrix: (Units=1/GPa)
#
#
# Indices 1 2 3 4 5 6 
#
# 1 0.012389 0.002352 -0.003315 0.000000 -0.001383 0.000000
# 2 0.002352 0.029619 -0.021122 0.000000 -0.002521 0.000000
# 3 -0.003315 -0.021122 0.034352 0.000000 -0.007562 0.000000
# 4 0.000000 0.000000 0.000000 0.044349 0.000000 -0.003441
# 5 -0.001383 -0.002521 -0.007562 0.000000 0.027867 0.000000
# 6 0.000000 0.000000 0.000000 -0.003441 0.000000 0.052716
#
#
# Mechanical properties :
#
#
# Convention : Reuss Voigt Hill
#
# Bulk Modulus (GPa) = 31.06561 36.92948 33.99754
# Shear Modulus (GPa) = 19.51664 27.60925 23.56295
#
# Velocity S-wave (km/s) = 3.10461 3.69259 3.41129
# Velocity P-wave (km/s) = 5.30977 6.03477 5.68384
#
# Compressibility (1/GPa) = 0.03218994
#
# Stress axis : x y z
#
# Youngs Moduli (GPa) = 80.71764 33.76245 29.11031
#
# Poissons Ratio (x) = -0.07942 0.09650
# Poissons Ratio (y) = -0.18988 0.61488
# Poissons Ratio (z) = 0.26758 0.71314
#
# Static dielectric constant tensor:
#      x y z
#    x 1.758850 0.000000 -0.017000 
#    y 0.000000 1.688910 0.000000 
#    z -0.017000 0.000000 1.766400 
# 
# From -- ./inp_files/12104.got.cif
#   From: 2010.05.17/outbox.cif.g08.bks.cpg/sg5_7_cif.got.tgz:12104.got - 2010.06.03 18:56:24.
