data_PCOD9123698
_publ_section_title
;
Structure prediction by ZEFSAII (Michael W. Deem and Ramdas Pophale) SiO2 
 PCOD9123698
Probable space group: C 2
;
_chemical_formula_sum "Si O2"
_cell_formula_units_Z 28
_cell_length_a 23.066093
_cell_length_b 7.883541
_cell_length_c 21.062822
_cell_angle_alpha 90.000000
_cell_angle_beta 17.936904
_cell_angle_gamma 90.000000
_cell_volume 1179.558803
_symmetry_space_group_name_H-M "C 2"
_symmetry_group_IT_number 5
_symmetry_cell_setting 'monoclinic'
loop_
_space_group_symop_operation_xyz
x,y,z
-x,y,-z
1/2+x,1/2+y,z
1/2-x,1/2+y,-z
loop_
_atom_site_type_symbol
_atom_site_label
_atom_site_fract_x
_atom_site_fract_y
_atom_site_fract_z
Si Si1 0.091668 0.119660 0.025590
Si Si2 0.199145 0.408533 0.644410
Si Si3 0.659763 0.285724 0.019176
Si Si4 0.991145 0.708584 0.386300
Si Si5 0.696948 0.987350 0.319157
Si Si6 0.000414 0.472461 0.268581
Si Si7 0.042657 0.706889 0.886836
O O1 0.285603 0.206026 0.846825
O O2 0.052208 0.966666 0.116901
O O3 0.166129 0.046238 0.880521
O O4 0.932418 0.261371 0.187632
O O5 0.414288 0.377573 0.436379
O O6 0.149774 0.392729 0.622088
O O7 0.152851 0.585233 0.724956
O O8 0.846604 0.345406 0.861175
O O9 0.649511 0.228798 0.955219
O O10 0.584810 0.128746 0.138710
O O11 0.890312 0.653514 0.555805
O O12 0.918211 0.562175 0.415376
O O13 0.500000 0.902106 0.500000
O O14 0.821497 0.864926 0.234528
O O15 0.000000 0.627609 0.000000
#
# Coordination Sequence:
#
# PCOD9123698 Si02
#       7
#     4   4   4   4   4   4   4
#     4  10  21  43  67  93 128 174 218 268 334 386
#     4  11  25  40  65  99 131 175 216 276 326 389
#     4  10  20  39  69  93 128 171 217 268 319 388
#     4  10  23  40  64  93 128 171 219 266 325 393
#     4  10  22  42  64  92 128 173 216 267 334 391
#     4  10  22  41  62 100 132 170 223 263 330 391
#     4  11  23  41  64  97 129 168 224 269 325 390
#
# _framework density 23.737690000000001
#
# number of rings (size 3 to 8) (size 9 to 14) (size 15 to 20)
#    0.000    1.714    1.429    2.571    2.000    3.429 
#    2.571    7.143    0.000    0.000    0.000    0.000 
#    0.000    0.000    0.000    0.000    0.000    0.000 
#
# Total GULP energy -77997.013578 kJ/mol
# GULP energy per Si atom -5571.215256 kJ/mol
# Density = 2.368366 g / cm^3
# Si number density = 23.737690 Si / 1000 Ang^3
#
#
#
# Elastic Constant Matrix: (Units=GPa)
#
#
# Indices 1 2 3 4 5 6 
#
# 1 182.2156 24.3187 40.7583 0.0000 -18.2601 -0.0001
# 2 24.3187 20.5566 4.3242 0.0018 -14.7956 -0.0003
# 3 40.7583 4.3242 56.8898 0.0008 -11.5087 -0.0001
# 4 0.0000 0.0018 0.0008 17.1054 -0.0006 -7.1741
# 5 -18.2601 -14.7956 -11.5087 -0.0006 29.2213 0.0001
# 6 -0.0001 -0.0003 -0.0001 -7.1741 0.0001 39.2384
#
#
#
# Elastic Compliance Matrix: (Units=1/GPa)
#
#
# Indices 1 2 3 4 5 6 
#
# 1 0.007720 -0.009507 -0.005222 0.000001 -0.002046 0.000000
# 2 -0.009507 0.088501 0.008636 -0.000009 0.042271 -0.000001
# 3 -0.005222 0.008636 0.022695 -0.000002 0.010048 0.000000
# 4 0.000001 -0.000009 -0.000002 0.063316 -0.000003 0.011576
# 5 -0.002046 0.042271 0.010048 -0.000003 0.058303 0.000000
# 6 0.000000 -0.000001 0.000000 0.011576 0.000000 0.027602
#
#
# Mechanical properties :
#
#
# Convention : Reuss Voigt Hill
#
# Bulk Modulus (GPa) = 9.36953 44.27379 26.82166
# Shear Modulus (GPa) = 15.82778 29.79708 22.81243
#
# Velocity S-wave (km/s) = 2.58501 3.54682 3.10340
# Velocity P-wave (km/s) = 3.58683 5.95525 4.91581
#
# Compressibility (1/GPa) = 0.10672889
#
# Stress axis : x y z
#
# Youngs Moduli (GPa) = 129.53608 11.29934 44.06167
#
# Poissons Ratio (x) = 0.10742 0.23010
# Poissons Ratio (y) = 1.23150 -0.38050
# Poissons Ratio (z) = 0.67646 -0.09758
#
# Static dielectric constant tensor:
#      x y z
#    x 1.997610 0.000000 -0.033840 
#    y 0.000000 2.027260 0.000000 
#    z -0.033840 0.000000 1.910380 
# 
# From -- ./inp_files/67352.got.cif
#   From: 2010.05.17/outbox.cif.g08.bks.cpg/sg5_34_cif.got.tgz:67352.got - 2010.06.03 18:56:24.
