data_PCOD9123535
_publ_section_title
;
Structure prediction by ZEFSAII (Michael W. Deem and Ramdas Pophale) SiO2 
 PCOD9123535
Probable space group: C 2
;
_chemical_formula_sum "Si O2"
_cell_formula_units_Z 28
_cell_length_a 12.926823
_cell_length_b 5.282561
_cell_length_c 17.689457
_cell_angle_alpha 90.000000
_cell_angle_beta 119.636226
_cell_angle_gamma 90.000000
_cell_volume 1049.933459
_symmetry_space_group_name_H-M "C 2"
_symmetry_group_IT_number 5
_symmetry_cell_setting 'monoclinic'
loop_
_space_group_symop_operation_xyz
x,y,z
-x,y,-z
1/2+x,1/2+y,z
1/2-x,1/2+y,-z
loop_
_atom_site_type_symbol
_atom_site_label
_atom_site_fract_x
_atom_site_fract_y
_atom_site_fract_z
Si Si1 0.432862 0.126980 0.747172
Si Si2 0.756672 0.041882 0.453419
Si Si3 0.188411 0.396854 0.797566
Si Si4 0.577934 0.629433 0.159045
Si Si5 0.443436 0.181928 0.347035
Si Si6 0.816929 0.114849 0.047012
Si Si7 0.568442 0.678623 0.611048
O O1 0.349271 0.088205 0.646167
O O2 0.433429 0.401665 0.783317
O O3 0.565839 0.086598 0.749243
O O4 0.427437 0.909604 0.807039
O O5 0.746327 0.262873 0.512424
O O6 0.874345 0.101462 0.446263
O O7 0.309075 0.548743 0.849872
O O8 0.190446 0.710567 0.681412
O O9 0.176106 0.212204 0.863670
O O10 0.165148 0.238137 0.713891
O O11 0.452584 0.607638 0.069125
O O12 0.503133 0.449442 0.376947
O O13 0.495094 0.949475 0.411007
O O14 0.741333 0.338482 0.980348
#
# Coordination Sequence:
#
# PCOD9123535 Si02
#       7
#     4   4   4   4   4   4   4
#     4  12  22  43  70 107 129 188 246 283 343 443
#     4  12  25  42  63 101 146 177 223 307 364 403
#     4  10  24  43  76  98 133 188 236 290 338 435
#     4  12  24  44  77 101 133 195 248 274 354 442
#     4  10  20  38  70  96 127 170 244 288 323 402
#     4  12  28  47  70 108 154 181 229 317 376 412
#     4  10  21  41  65  97 128 181 234 271 344 421
#
# _framework density 26.668354999999998
#
# number of rings (size 3 to 8) (size 9 to 14) (size 15 to 20)
#    0.857    0.000    2.857    5.143    2.000    0.571 
#    0.000    5.714    0.000    0.000    0.000    0.000 
#    0.000    0.000    0.000    0.000    0.000    0.000 
#
# Total GULP energy -78052.039388 kJ/mol
# GULP energy per Si atom -5575.145671 kJ/mol
# Density = 2.660766 g / cm^3
# Si number density = 26.668355 Si / 1000 Ang^3
#
#
#
# Elastic Constant Matrix: (Units=GPa)
#
#
# Indices 1 2 3 4 5 6 
#
# 1 121.1260 22.4035 13.2715 0.0000 11.1005 0.0000
# 2 22.4035 169.7754 4.5487 0.0000 -8.8643 0.0000
# 3 13.2715 4.5487 88.0474 0.0000 8.1107 0.0000
# 4 0.0000 0.0000 0.0000 59.1841 0.0000 -5.5275
# 5 11.1005 -8.8643 8.1107 0.0000 48.0709 0.0000
# 6 0.0000 0.0000 0.0000 -5.5275 0.0000 39.8021
#
#
#
# Elastic Compliance Matrix: (Units=1/GPa)
#
#
# Indices 1 2 3 4 5 6 
#
# 1 0.008793 -0.001240 -0.001070 0.000000 -0.002079 0.000000
# 2 -0.001240 0.006137 -0.000265 0.000000 0.001463 0.000000
# 3 -0.001070 -0.000265 0.011696 0.000000 -0.001775 0.000000
# 4 0.000000 0.000000 0.000000 0.017118 0.000000 0.002377
# 5 -0.002079 0.001463 -0.001775 0.000000 0.021852 0.000000
# 6 0.000000 0.000000 0.000000 0.002377 0.000000 0.025454
#
#
# Mechanical properties :
#
#
# Convention : Reuss Voigt Hill
#
# Bulk Modulus (GPa) = 46.56265 51.04402 48.80333
# Shear Modulus (GPa) = 48.37482 51.99310 50.18396
#
# Velocity S-wave (km/s) = 4.26366 4.42024 4.34265
# Velocity P-wave (km/s) = 6.46035 6.72556 6.59429
#
# Compressibility (1/GPa) = 0.02147644
#
# Stress axis : x y z
#
# Youngs Moduli (GPa) = 113.72731 162.93920 85.49947
#
# Poissons Ratio (x) = 0.20207 0.09147
# Poissons Ratio (y) = 0.14104 0.02265
# Poissons Ratio (z) = 0.12167 0.04316
#
# Static dielectric constant tensor:
#      x y z
#    x 2.338760 0.000000 0.031140 
#    y 0.000000 2.544310 0.000000 
#    z 0.031140 0.000000 3.063620 
# 
# From -- ./inp_files/61146.got.cif
#   From: 2010.05.17/outbox.cif.g08.bks.cpg/sg5_31_cif.got.tgz:61146.got - 2010.06.03 18:56:24.
