data_PCOD9123444
_publ_section_title
;
Structure prediction by ZEFSAII (Michael W. Deem and Ramdas Pophale) SiO2 
 PCOD9123444
Probable space group: C 2
;
_chemical_formula_sum "Si O2"
_cell_formula_units_Z 20
_cell_length_a 18.532017
_cell_length_b 4.900329
_cell_length_c 8.282726
_cell_angle_alpha 90.000000
_cell_angle_beta 99.003986
_cell_angle_gamma 90.000000
_cell_volume 742.910274
_symmetry_space_group_name_H-M "C 2"
_symmetry_group_IT_number 5
_symmetry_cell_setting 'monoclinic'
loop_
_space_group_symop_operation_xyz
x,y,z
-x,y,-z
1/2+x,1/2+y,z
1/2-x,1/2+y,-z
loop_
_atom_site_type_symbol
_atom_site_label
_atom_site_fract_x
_atom_site_fract_y
_atom_site_fract_z
Si Si1 0.644086 0.412990 0.229144
Si Si2 0.941289 0.057735 0.363020
Si Si3 0.167604 0.736897 0.872828
Si Si4 0.541483 0.926889 0.186341
Si Si5 0.290972 0.718369 0.302264
O O1 0.607339 0.705887 0.196771
O O2 0.719048 0.350615 0.353673
O O3 0.777294 0.926726 0.212271
O O4 0.579945 0.204972 0.252076
O O5 0.867227 0.168587 0.424620
O O6 0.000000 0.929279 0.500000
O O7 0.984324 0.298629 0.290549
O O8 0.909314 0.848456 0.221909
O O9 0.181573 0.428829 0.827348
O O10 0.168466 0.812873 0.058553
O O11 0.500000 0.954650 0.000000
#
# Coordination Sequence:
#
# PCOD9123444 Si02
#       5
#     4   4   4   4   4
#     4  12  22  39  65  98 132 161 217 277 329 372
#     4  10  25  45  65  95 132 182 216 257 325 408
#     4  10  20  38  65  93 127 167 218 258 325 380
#     4  12  24  40  64 101 130 167 214 276 332 372
#     4  10  22  39  64  95 125 175 215 267 319 390
#
# _framework density 26.921153
#
# number of rings (size 3 to 8) (size 9 to 14) (size 15 to 20)
#    1.200    0.000    2.000    5.400    2.800    0.800 
#    0.000    2.000    0.000    0.000    0.000    0.000 
#    0.000    0.000    0.000    0.000    0.000    0.000 
#
# Total GULP energy -55990.771119 kJ/mol
# GULP energy per Si atom -5599.077112 kJ/mol
# Density = 2.685988 g / cm^3
# Si number density = 26.921153 Si / 1000 Ang^3
#
#
#
# Elastic Constant Matrix: (Units=GPa)
#
#
# Indices 1 2 3 4 5 6 
#
# 1 166.1329 9.8457 45.3849 0.0000 36.6845 0.0000
# 2 9.8457 95.7326 -1.3302 0.0000 5.6846 0.0000
# 3 45.3849 -1.3302 83.6864 0.0000 33.9559 0.0000
# 4 0.0000 0.0000 0.0000 14.4789 0.0000 4.3283
# 5 36.6845 5.6846 33.9559 0.0000 52.6857 0.0000
# 6 0.0000 0.0000 0.0000 4.3283 0.0000 58.2314
#
#
#
# Elastic Compliance Matrix: (Units=1/GPa)
#
#
# Indices 1 2 3 4 5 6 
#
# 1 0.007557 -0.000610 -0.002708 0.000000 -0.003451 0.000000
# 2 -0.000610 0.010607 0.001072 0.000000 -0.001410 0.000000
# 3 -0.002708 0.001072 0.017220 0.000000 -0.009328 0.000000
# 4 0.000000 0.000000 0.000000 0.070635 0.000000 -0.005250
# 5 -0.003451 -0.001410 -0.009328 0.000000 0.027548 0.000000
# 6 0.000000 0.000000 0.000000 -0.005250 0.000000 0.017563
#
#
# Mechanical properties :
#
#
# Convention : Reuss Voigt Hill
#
# Bulk Modulus (GPa) = 32.37078 50.37251 41.37164
# Shear Modulus (GPa) = 30.13499 44.52263 37.32881
#
# Velocity S-wave (km/s) = 3.34934 4.07113 3.72774
# Velocity P-wave (km/s) = 5.19691 6.39144 5.82488
#
# Compressibility (1/GPa) = 0.03089206
#
# Stress axis : x y z
#
# Youngs Moduli (GPa) = 132.32425 94.27614 58.07203
#
# Poissons Ratio (x) = 0.05750 0.15725
# Poissons Ratio (y) = 0.08071 -0.06224
# Poissons Ratio (z) = 0.35832 -0.10103
#
# Static dielectric constant tensor:
#      x y z
#    x 2.184820 0.000000 0.039450 
#    y 0.000000 2.000320 0.000000 
#    z 0.039450 0.000000 2.136670 
# 
# From -- ./inp_files/43657.got.cif
#   From: 2010.05.17/outbox.cif.g08.bks.cpg/sg5_22_cif.got.tgz:43657.got - 2010.06.03 18:56:24.
