data_PCOD9123539
_publ_section_title
;
Structure prediction by ZEFSAII (Michael W. Deem and Ramdas Pophale) SiO2 
 PCOD9123539
Probable space group: C 2
;
_chemical_formula_sum "Si O2"
_cell_formula_units_Z 28
_cell_length_a 11.210156
_cell_length_b 18.696019
_cell_length_c 8.388718
_cell_angle_alpha 90.000000
_cell_angle_beta 49.543409
_cell_angle_gamma 90.000000
_cell_volume 1337.773886
_symmetry_space_group_name_H-M "C 2"
_symmetry_group_IT_number 5
_symmetry_cell_setting 'monoclinic'
loop_
_space_group_symop_operation_xyz
x,y,z
-x,y,-z
1/2+x,1/2+y,z
1/2-x,1/2+y,-z
loop_
_atom_site_type_symbol
_atom_site_label
_atom_site_fract_x
_atom_site_fract_y
_atom_site_fract_z
Si Si1 0.214564 0.521730 0.083533
Si Si2 0.814952 0.007550 0.639069
Si Si3 0.220798 0.141088 0.537879
Si Si4 0.500000 0.604149 0.000000
Si Si5 0.106029 0.851307 0.537812
Si Si6 0.143436 0.879896 0.985938
Si Si7 0.000000 0.612232 0.500000
Si Si8 0.817443 0.276116 0.621917
O O1 0.371319 0.556188 0.022814
O O2 0.081542 0.563236 0.294221
O O3 0.225088 0.525016 0.882202
O O4 0.221192 0.438286 0.123158
O O5 0.765679 0.060078 0.539012
O O6 0.000000 0.023203 0.500000
O O7 0.809358 0.923691 0.598391
O O8 0.372783 0.156436 0.511922
O O9 0.198126 0.192741 0.407494
O O10 0.080321 0.147713 0.787047
O O11 0.232482 0.812671 0.541217
O O12 0.000000 0.809238 0.500000
O O13 0.954231 0.876559 0.769537
O O14 0.214197 0.806289 0.857792
O O15 0.000000 0.904013 0.000000
O O16 0.000000 0.292357 0.500000
#
# Coordination Sequence:
#
# PCOD9123539 Si02
#       8
#     4   4   4   2   4   4   2   4
#     4  11  20  39  68 104 131 169 226 278 342 394
#     4  11  20  39  75 100 126 173 232 275 326 404
#     4  11  24  47  63  98 135 178 227 279 347 400
#     4  10  20  38  72  92 130 170 226 282 324 412
#     4  10  21  43  70  99 129 180 227 277 329 408
#     4  10  20  39  65  96 131 179 219 267 340 404
#     4  10  28  40  66 100 136 174 216 300 342 392
#     4  11  27  44  64  96 137 184 225 276 338 409
#
# _framework density 20.930292000000001
#
# number of rings (size 3 to 8) (size 9 to 14) (size 15 to 20)
#    0.000    1.429    5.000    0.429    8.000    0.571 
#   10.286    0.000    0.000    0.000    0.000    0.000 
#    0.000    0.000    0.000    0.000    0.000    0.000 
#
# Total GULP energy -77985.653071 kJ/mol
# GULP energy per Si atom -5570.403791 kJ/mol
# Density = 2.088265 g / cm^3
# Si number density = 20.930292 Si / 1000 Ang^3
#
#
#
# Elastic Constant Matrix: (Units=GPa)
#
#
# Indices 1 2 3 4 5 6 
#
# 1 67.6084 18.3283 -10.2188 0.0000 -15.7455 0.0000
# 2 18.3283 63.0780 21.8721 0.0000 -4.7961 0.0000
# 3 -10.2188 21.8721 98.6888 0.0000 -0.8765 0.0000
# 4 0.0000 0.0000 0.0000 5.0556 0.0000 7.1798
# 5 -15.7455 -4.7961 -0.8765 0.0000 27.1792 0.0000
# 6 0.0000 0.0000 0.0000 7.1798 0.0000 25.0304
#
#
#
# Elastic Compliance Matrix: (Units=1/GPa)
#
#
# Indices 1 2 3 4 5 6 
#
# 1 0.019329 -0.006026 0.003428 0.000000 0.010245 0.000000
# 2 -0.006026 0.019285 -0.004900 0.000000 -0.000246 0.000000
# 3 0.003428 -0.004900 0.011587 0.000000 0.001495 0.000000
# 4 0.000000 0.000000 0.000000 0.333765 0.000000 -0.095739
# 5 0.010245 -0.000246 0.001495 0.000000 0.042733 0.000000
# 6 0.000000 0.000000 0.000000 -0.095739 0.000000 0.067413
#
#
# Mechanical properties :
#
#
# Convention : Reuss Voigt Hill
#
# Bulk Modulus (GPa) = 28.40569 32.14869 30.27719
# Shear Modulus (GPa) = 9.59983 24.74597 17.17290
#
# Velocity S-wave (km/s) = 2.14395 3.44219 2.86751
# Velocity P-wave (km/s) = 4.44182 5.58494 5.04585
#
# Compressibility (1/GPa) = 0.03520421
#
# Stress axis : x y z
#
# Youngs Moduli (GPa) = 51.73651 51.85458 86.30293
#
# Poissons Ratio (x) = 0.31247 -0.29584
# Poissons Ratio (y) = 0.31176 0.42290
# Poissons Ratio (z) = -0.17735 0.25410
#
# Static dielectric constant tensor:
#      x y z
#    x 1.736950 0.000000 -0.041940 
#    y 0.000000 1.764970 0.000000 
#    z -0.041940 0.000000 1.660390 
# 
# From -- ./inp_files/21765.got.cif
#   From: 2010.05.17/outbox.cif.g08.bks.cpg/sg5_11_cif.got.tgz:21765.got - 2010.06.03 18:56:24.
