data_PCOD9123164
_publ_section_title
;
Structure prediction by ZEFSAII (Michael W. Deem and Ramdas Pophale) SiO2 
 PCOD9123164
Probable space group: C 2
;
_chemical_formula_sum "Si O2"
_cell_formula_units_Z 24
_cell_length_a 14.391715
_cell_length_b 12.586190
_cell_length_c 19.369939
_cell_angle_alpha 90.000000
_cell_angle_beta 163.300007
_cell_angle_gamma 90.000000
_cell_volume 1008.235559
_symmetry_space_group_name_H-M "C 2"
_symmetry_group_IT_number 5
_symmetry_cell_setting 'monoclinic'
loop_
_space_group_symop_operation_xyz
x,y,z
-x,y,-z
1/2+x,1/2+y,z
1/2-x,1/2+y,-z
loop_
_atom_site_type_symbol
_atom_site_label
_atom_site_fract_x
_atom_site_fract_y
_atom_site_fract_z
Si Si1 0.302669 0.909130 0.075228
Si Si2 0.624944 0.961245 0.166386
Si Si3 0.706690 0.888459 0.734264
Si Si4 0.591553 0.262502 0.489728
Si Si5 0.568616 0.070225 0.379409
Si Si6 0.843295 0.161289 0.278295
O O1 0.373432 0.931577 0.046026
O O2 0.537741 0.805755 0.258114
O O3 0.410821 0.010376 0.200395
O O4 0.926009 0.891694 0.822375
O O5 0.899240 0.872652 0.357030
O O6 0.757775 0.078206 0.276766
O O7 0.500000 0.965091 0.000000
O O8 0.525623 0.776476 0.609920
O O9 0.480509 0.985495 0.594491
O O10 0.000000 0.896520 0.000000
O O11 0.500000 0.212870 0.500000
O O12 0.465920 0.183273 0.340534
O O13 0.926503 0.098271 0.609632
O O14 0.500000 0.185733 0.000000
#
# Coordination Sequence:
#
# PCOD9123164 Si02
#       6
#     4   4   4   4   4   4
#     4  10  21  43  67  93 136 173 219 265 332 385
#     4  10  22  41  66  96 128 177 225 267 321 392
#     4   9  20  38  61  95 127 172 211 267 328 382
#     4  10  21  40  65  93 131 175 215 267 328 385
#     4  11  20  37  68  95 128 169 217 271 324 391
#     4  10  20  37  64  90 128 170 218 263 322 386
#
# _framework density 23.803961000000001
#
# number of rings (size 3 to 8) (size 9 to 14) (size 15 to 20)
#    0.000    2.000    1.667    3.000    0.000    2.000 
#   15.000    0.000    3.667    0.000    0.000    0.000 
#    0.000    0.000    0.000    0.000    0.000    0.000 
#
# Total GULP energy -66897.597315 kJ/mol
# GULP energy per Si atom -5574.799776 kJ/mol
# Density = 2.374978 g / cm^3
# Si number density = 23.803961 Si / 1000 Ang^3
#
#
#
# Elastic Constant Matrix: (Units=GPa)
#
#
# Indices 1 2 3 4 5 6 
#
# 1 119.2012 41.9640 38.6395 0.0040 21.5436 0.0201
# 2 41.9640 149.9251 25.1288 0.0391 23.6544 0.0536
# 3 38.6395 25.1288 54.6656 0.0445 15.3068 0.0346
# 4 0.0040 0.0391 0.0445 17.8807 -0.0058 -2.2425
# 5 21.5436 23.6544 15.3068 -0.0058 61.2745 -0.0019
# 6 0.0201 0.0536 0.0346 -2.2425 -0.0019 23.2515
#
#
#
# Elastic Compliance Matrix: (Units=1/GPa)
#
#
# Indices 1 2 3 4 5 6 
#
# 1 0.011555 -0.001824 -0.006869 0.000019 -0.001643 0.000006
# 2 -0.001824 0.007777 -0.001747 -0.000015 -0.001925 -0.000015
# 3 -0.006869 -0.001747 0.024823 -0.000062 -0.003111 -0.000033
# 4 0.000019 -0.000015 -0.000062 0.056611 0.000020 0.005460
# 5 -0.001643 -0.001925 -0.003111 0.000020 0.018418 0.000014
# 6 0.000006 -0.000015 -0.000033 0.005460 0.000014 0.043535
#
#
# Mechanical properties :
#
#
# Convention : Reuss Voigt Hill
#
# Bulk Modulus (GPa) = 42.96464 59.47294 51.21879
# Shear Modulus (GPa) = 26.12940 35.01865 30.57403
#
# Velocity S-wave (km/s) = 3.31674 3.83969 3.58775
# Velocity P-wave (km/s) = 5.72330 6.68553 6.22304
#
# Compressibility (1/GPa) = 0.02327495
#
# Stress axis : x y z
#
# Youngs Moduli (GPa) = 86.54505 128.58564 40.28581
#
# Poissons Ratio (x) = 0.23450 0.27672
# Poissons Ratio (y) = 0.15783 0.07038
# Poissons Ratio (z) = 0.59448 0.22463
#
# Static dielectric constant tensor:
#      x y z
#    x 1.995310 0.000020 -0.054080 
#    y 0.000020 1.955320 -0.000080 
#    z -0.054080 -0.000080 2.022150 
# 
# From -- ./inp_files/66104.got.cif
#   From: 2010.05.17/outbox.cif.g08.bks.cpg/sg5_34_cif.got.tgz:66104.got - 2010.06.03 18:56:24.
