data_PCOD9123340
_publ_section_title
;
Structure prediction by ZEFSAII (Michael W. Deem and Ramdas Pophale) SiO2 
 PCOD9123340
Probable space group: C 2
;
_chemical_formula_sum "Si O2"
_cell_formula_units_Z 22
_cell_length_a 12.557679
_cell_length_b 14.056162
_cell_length_c 10.412379
_cell_angle_alpha 90.000000
_cell_angle_beta 136.836450
_cell_angle_gamma 90.000000
_cell_volume 1257.288766
_symmetry_space_group_name_H-M "C 2"
_symmetry_group_IT_number 5
_symmetry_cell_setting 'monoclinic'
loop_
_space_group_symop_operation_xyz
x,y,z
-x,y,-z
1/2+x,1/2+y,z
1/2-x,1/2+y,-z
loop_
_atom_site_type_symbol
_atom_site_label
_atom_site_fract_x
_atom_site_fract_y
_atom_site_fract_z
Si Si1 0.934195 0.844710 0.651758
Si Si2 0.068135 0.047501 0.289472
Si Si3 0.500000 0.614503 0.500000
Si Si4 0.000000 0.509335 0.000000
Si Si5 0.500000 0.682329 0.000000
Si Si6 0.815233 0.649000 0.658552
Si Si7 0.250272 0.348255 0.225600
O O1 0.887240 0.747503 0.678396
O O2 0.818861 0.863262 0.429174
O O3 0.105875 0.836707 0.743413
O O4 0.924038 0.936685 0.733894
O O5 0.992452 0.114287 0.117035
O O6 0.236677 0.092632 0.470477
O O7 0.982627 0.054726 0.353658
O O8 0.662930 0.667228 0.615893
O O9 0.064382 0.578958 0.166694
O O10 0.141281 0.437335 0.092072
O O11 0.646669 0.753108 0.135807
#
# Coordination Sequence:
#
# PCOD9123340 Si02
#       7
#     4   4   2   2   2   4   4
#     4  11  20  38  60  86 123 159 194 246 304 346
#     4  10  20  38  62  87 119 157 192 250 296 349
#     4   8  18  40  62  82 116 168 190 242 292 356
#     4  11  20  35  60  90 110 159 212 235 282 366
#     4  11  22  39  62  92 122 151 198 253 306 340
#     4  10  21  36  63  87 117 149 206 248 287 344
#     4  10  21  36  62  88 115 162 208 234 283 375
#
# _framework density 17.497969000000001
#
# number of rings (size 3 to 8) (size 9 to 14) (size 15 to 20)
#    1.091    0.727    3.636    2.182    0.000    3.636 
#    0.000    0.000    4.000    0.000    0.000    0.000 
#    0.000    0.000    0.000    0.000    0.000    0.000 
#
# Total GULP energy -61256.629659 kJ/mol
# GULP energy per Si atom -5568.784514 kJ/mol
# Density = 1.745814 g / cm^3
# Si number density = 17.497969 Si / 1000 Ang^3
#
#
#
# Elastic Constant Matrix: (Units=GPa)
#
#
# Indices 1 2 3 4 5 6 
#
# 1 69.4591 63.6425 36.0256 0.0000 14.2851 0.0000
# 2 63.6425 151.4532 37.5829 0.0000 11.1179 0.0000
# 3 36.0256 37.5829 73.7920 0.0000 11.6968 0.0000
# 4 0.0000 0.0000 0.0000 28.8915 0.0000 -11.9927
# 5 14.2851 11.1179 11.6968 0.0000 26.4028 0.0000
# 6 0.0000 0.0000 0.0000 -11.9927 0.0000 5.7969
#
#
#
# Elastic Compliance Matrix: (Units=1/GPa)
#
#
# Indices 1 2 3 4 5 6 
#
# 1 0.029017 -0.009617 -0.007982 0.000000 -0.008114 0.000000
# 2 -0.009617 0.010808 -0.000982 0.000000 0.001087 0.000000
# 3 -0.007982 -0.000982 0.018497 0.000000 -0.003462 0.000000
# 4 0.000000 0.000000 0.000000 0.245034 0.000000 0.506926
# 5 -0.008114 0.001087 -0.003462 0.000000 0.043341 0.000000
# 6 0.000000 0.000000 0.000000 0.506926 0.000000 1.221231
#
#
# Mechanical properties :
#
#
# Convention : Reuss Voigt Hill
#
# Bulk Modulus (GPa) = 47.25786 63.24513 55.25150
# Shear Modulus (GPa) = 3.10146 22.71515 12.90830
#
# Velocity S-wave (km/s) = 1.33279 3.60691 2.71902
# Velocity P-wave (km/s) = 5.42537 7.31909 6.44220
#
# Compressibility (1/GPa) = 0.02116050
#
# Stress axis : x y z
#
# Youngs Moduli (GPa) = 34.46197 92.52652 54.06167
#
# Poissons Ratio (x) = 0.88984 0.43154
# Poissons Ratio (y) = 0.33142 0.05307
# Poissons Ratio (z) = 0.27508 0.09083
#
# Static dielectric constant tensor:
#      x y z
#    x 1.588750 0.000000 0.004960 
#    y 0.000000 1.585060 0.000000 
#    z 0.004960 0.000000 1.618720 
# 
# From -- ./inp_files/42164.got.cif
#   From: 2010.05.17/outbox.cif.g08.bks.cpg/sg5_22_cif.got.tgz:42164.got - 2010.06.03 18:56:24.
