data_PCOD9123328
_publ_section_title
;
Structure prediction by ZEFSAII (Michael W. Deem and Ramdas Pophale) SiO2 
 PCOD9123328
Probable space group: C 2
;
_chemical_formula_sum "Si O2"
_cell_formula_units_Z 26
_cell_length_a 18.047502
_cell_length_b 6.070410
_cell_length_c 24.891802
_cell_angle_alpha 90.000000
_cell_angle_beta 23.311775
_cell_angle_gamma 90.000000
_cell_volume 1079.183002
_symmetry_space_group_name_H-M "C 2"
_symmetry_group_IT_number 5
_symmetry_cell_setting 'monoclinic'
loop_
_space_group_symop_operation_xyz
x,y,z
-x,y,-z
1/2+x,1/2+y,z
1/2-x,1/2+y,-z
loop_
_atom_site_type_symbol
_atom_site_label
_atom_site_fract_x
_atom_site_fract_y
_atom_site_fract_z
Si Si1 0.538727 0.459770 0.208173
Si Si2 0.510935 0.207001 0.656215
Si Si3 0.445131 0.843985 0.932742
Si Si4 0.824738 0.364769 0.369766
Si Si5 0.213890 0.961370 0.784817
Si Si6 0.268175 0.162749 0.319936
Si Si7 0.000000 0.620083 0.000000
O O1 0.527813 0.414942 0.279642
O O2 0.482624 0.712730 0.237177
O O3 0.374444 0.329378 0.288274
O O4 0.731524 0.365647 0.055622
O O5 0.686848 0.233925 0.500297
O O6 0.342064 0.134531 0.730665
O O7 0.560796 0.024557 0.667306
O O8 0.539517 0.603178 0.876597
O O9 0.584452 0.008775 0.809581
O O10 0.426481 0.957762 0.003472
O O11 0.691562 0.488418 0.414697
O O12 0.318134 0.821115 0.668355
O O13 0.143968 0.784292 0.874828
#
# Coordination Sequence:
#
# PCOD9123328 Si02
#       7
#     4   4   4   4   4   4   2
#     4  11  23  41  69  98 134 180 230 289 330 424
#     4  11  23  43  74  96 131 180 241 289 339 413
#     4  11  23  40  67  99 135 180 219 280 349 412
#     4  11  23  46  69 103 129 185 238 286 343 416
#     4  11  23  43  65 104 142 180 226 293 348 417
#     4  10  26  41  65 101 141 177 225 281 353 412
#     4  10  20  38  62 102 134 172 224 270 342 408
#
# _framework density 24.092300000000002
#
# number of rings (size 3 to 8) (size 9 to 14) (size 15 to 20)
#    0.000    1.231    1.538    4.154    4.308    3.692 
#    0.000    4.615    0.000    0.000    0.000    0.000 
#    0.000    0.000    0.000    0.000    0.000    0.000 
#
# Total GULP energy -72598.506809 kJ/mol
# GULP energy per Si atom -5584.500524 kJ/mol
# Density = 2.403746 g / cm^3
# Si number density = 24.092300 Si / 1000 Ang^3
#
#
#
# Elastic Constant Matrix: (Units=GPa)
#
#
# Indices 1 2 3 4 5 6 
#
# 1 84.6352 23.1468 4.4896 -0.0009 18.2297 -0.0002
# 2 23.1468 88.6781 9.8550 0.0009 10.4857 -0.0054
# 3 4.4896 9.8550 41.9589 -0.0044 4.9632 -0.0003
# 4 -0.0009 0.0009 -0.0044 35.3036 0.0011 17.7275
# 5 18.2297 10.4857 4.9632 0.0011 29.1819 -0.0008
# 6 -0.0002 -0.0054 -0.0003 17.7275 -0.0008 52.1655
#
#
#
# Elastic Compliance Matrix: (Units=1/GPa)
#
#
# Indices 1 2 3 4 5 6 
#
# 1 0.014285 -0.002799 0.000067 0.000001 -0.007930 -0.000001
# 2 -0.002799 0.012549 -0.002369 -0.000001 -0.002358 0.000002
# 3 0.000067 -0.002369 0.024785 0.000004 -0.003406 -0.000002
# 4 0.000001 -0.000001 0.000004 0.034154 -0.000002 -0.011607
# 5 -0.007930 -0.002358 -0.003406 -0.000002 0.040648 0.000001
# 6 -0.000001 0.000002 -0.000002 -0.011607 0.000001 0.023114
#
#
# Mechanical properties :
#
#
# Convention : Reuss Voigt Hill
#
# Bulk Modulus (GPa) = 24.14421 32.25055 28.19738
# Shear Modulus (GPa) = 28.81128 35.18226 31.99677
#
# Velocity S-wave (km/s) = 3.46189 3.82555 3.64825
# Velocity P-wave (km/s) = 5.10126 5.73833 5.42915
#
# Compressibility (1/GPa) = 0.04141779
#
# Stress axis : x y z
#
# Youngs Moduli (GPa) = 70.00242 79.68558 40.34697
#
# Poissons Ratio (x) = 0.22300 -0.00269
# Poissons Ratio (y) = 0.19590 0.09559
# Poissons Ratio (z) = -0.00467 0.18878
#
# Static dielectric constant tensor:
#      x y z
#    x 1.940230 0.000000 -0.031450 
#    y 0.000000 1.959530 0.000000 
#    z -0.031450 0.000000 1.962490 
# 
# From -- ./inp_files/45539.got.cif
#   From: 2010.05.17/outbox.cif.g08.bks.cpg/sg5_23_cif.got.tgz:45539.got - 2010.06.03 18:56:24.
