data_PCOD9123940
_publ_section_title
;
Structure prediction by ZEFSAII (Michael W. Deem and Ramdas Pophale) SiO2 
 PCOD9123940
Probable space group: C 2
;
_chemical_formula_sum "Si O2"
_cell_formula_units_Z 28
_cell_length_a 5.352508
_cell_length_b 34.379619
_cell_length_c 9.174974
_cell_angle_alpha 90.000000
_cell_angle_beta 54.186965
_cell_angle_gamma 90.000000
_cell_volume 1369.137225
_symmetry_space_group_name_H-M "C 2"
_symmetry_group_IT_number 5
_symmetry_cell_setting 'monoclinic'
loop_
_space_group_symop_operation_xyz
x,y,z
-x,y,-z
1/2+x,1/2+y,z
1/2-x,1/2+y,-z
loop_
_atom_site_type_symbol
_atom_site_label
_atom_site_fract_x
_atom_site_fract_y
_atom_site_fract_z
Si Si1 0.688131 0.458570 0.156434
Si Si2 0.000000 0.910027 0.500000
Si Si3 0.873434 0.200383 0.378011
Si Si4 0.000000 0.893395 0.000000
Si Si5 0.867703 0.030448 0.378020
Si Si6 0.627561 0.773429 0.117886
Si Si7 0.372620 0.615132 0.378099
Si Si8 0.006358 0.344960 0.341472
O O1 0.639675 0.436826 0.326379
O O2 0.450764 0.493805 0.249016
O O3 0.672556 0.423559 0.045732
O O4 0.000000 0.478906 0.000000
O O5 0.268723 0.880063 0.448995
O O6 0.500000 0.204441 0.500000
O O7 0.958599 0.157418 0.285916
O O8 0.000000 0.201613 0.500000
O O9 0.032739 0.235267 0.238511
O O10 0.196090 0.866589 0.825281
O O11 0.500000 0.031707 0.500000
O O12 0.978383 0.072943 0.283933
O O13 0.000000 0.025216 0.500000
O O14 0.452271 0.811197 0.243505
O O15 0.500000 0.768916 0.000000
O O16 0.000000 0.779080 0.000000
O O17 0.500000 0.615421 0.500000
O O18 0.000000 0.614862 0.500000
O O19 0.000000 0.324364 0.500000
#
# Coordination Sequence:
#
# PCOD9123940 Si02
#       8
#     4   2   4   2   4   4   4   4
#     4  12  26  41  63  93 131 170 221 273 328 384
#     4  12  26  42  66  90 122 176 224 264 328 388
#     4  10  20  40  70  96 127 169 221 260 319 393
#     4  12  26  44  62  92 130 166 222 276 322 382
#     4  10  22  39  65  94 130 171 219 265 322 386
#     4  12  28  44  65  97 137 168 212 273 329 384
#     4   8  16  34  62  95 123 164 215 264 308 381
#     4  12  27  44  67  90 127 175 222 267 331 388
#
# _framework density 20.450835999999999
#
# number of rings (size 3 to 8) (size 9 to 14) (size 15 to 20)
#    0.000    1.143    4.286    1.286    9.000    0.000 
#    0.000    0.714    1.571    0.000    0.000    0.000 
#    0.000    0.000    0.000    0.000    0.000    0.000 
#
# Total GULP energy -77976.653772 kJ/mol
# GULP energy per Si atom -5569.760984 kJ/mol
# Density = 2.040429 g / cm^3
# Si number density = 20.450836 Si / 1000 Ang^3
#
#
#
# Elastic Constant Matrix: (Units=GPa)
#
#
# Indices 1 2 3 4 5 6 
#
# 1 99.3535 4.9852 26.5163 0.0000 6.2838 0.0000
# 2 4.9852 139.2163 29.4341 0.0000 -1.4904 0.0000
# 3 26.5163 29.4341 90.3549 0.0000 -0.2995 0.0000
# 4 0.0000 0.0000 0.0000 25.1543 0.0000 13.3919
# 5 6.2838 -1.4904 -0.2995 0.0000 21.8844 0.0000
# 6 0.0000 0.0000 0.0000 13.3919 0.0000 24.4927
#
#
#
# Elastic Compliance Matrix: (Units=1/GPa)
#
#
# Indices 1 2 3 4 5 6 
#
# 1 0.011156 0.000280 -0.003376 0.000000 -0.003231 0.000000
# 2 0.000280 0.007727 -0.002598 0.000000 0.000410 0.000000
# 3 -0.003376 -0.002598 0.012908 0.000000 0.000969 0.000000
# 4 0.000000 0.000000 0.000000 0.056079 0.000000 -0.030662
# 5 -0.003231 0.000410 0.000969 0.000000 0.046663 0.000000
# 6 0.000000 0.000000 0.000000 -0.030662 0.000000 0.057594
#
#
# Mechanical properties :
#
#
# Convention : Reuss Voigt Hill
#
# Bulk Modulus (GPa) = 49.01298 50.08845 49.55071
# Shear Modulus (GPa) = 23.77382 32.17223 27.97303
#
# Velocity S-wave (km/s) = 3.41322 3.97060 3.70241
# Velocity P-wave (km/s) = 6.28902 6.75027 6.52372
#
# Compressibility (1/GPa) = 0.02040276
#
# Stress axis : x y z
#
# Youngs Moduli (GPa) = 89.63521 129.42158 77.47354
#
# Poissons Ratio (x) = -0.03619 0.26154
# Poissons Ratio (y) = -0.02507 0.20126
# Poissons Ratio (z) = 0.30259 0.33621
#
# Static dielectric constant tensor:
#      x y z
#    x 1.750900 0.000000 0.008020 
#    y 0.000000 1.774370 0.000000 
#    z 0.008020 0.000000 1.736530 
# 
# From -- ./inp_files/13324.got.cif
#   From: 2010.05.17/outbox.cif.g08.bks.cpg/sg5_7_cif.got.tgz:13324.got - 2010.06.03 18:56:24.
