data_PCOD9123288
_publ_section_title
;
Structure prediction by ZEFSAII (Michael W. Deem and Ramdas Pophale) SiO2 
 PCOD9123288
Probable space group: C 2
;
_chemical_formula_sum "Si O2"
_cell_formula_units_Z 28
_cell_length_a 17.995873
_cell_length_b 6.559479
_cell_length_c 19.172140
_cell_angle_alpha 90.000000
_cell_angle_beta 147.204282
_cell_angle_gamma 90.000000
_cell_volume 1225.823401
_symmetry_space_group_name_H-M "C 2"
_symmetry_group_IT_number 5
_symmetry_cell_setting 'monoclinic'
loop_
_space_group_symop_operation_xyz
x,y,z
-x,y,-z
1/2+x,1/2+y,z
1/2-x,1/2+y,-z
loop_
_atom_site_type_symbol
_atom_site_label
_atom_site_fract_x
_atom_site_fract_y
_atom_site_fract_z
Si Si1 0.500000 0.116490 0.000000
Si Si2 0.347562 0.108228 0.008282
Si Si3 0.562734 0.750187 0.200149
Si Si4 0.884593 0.921282 0.654092
Si Si5 0.343650 0.280843 0.159825
Si Si6 0.217004 0.074880 0.568611
Si Si7 0.271188 0.767027 0.790729
Si Si8 0.500000 0.428435 0.500000
O O1 0.562858 0.221707 0.980365
O O2 0.369510 0.970181 0.876278
O O3 0.325463 0.209420 0.065745
O O4 0.434639 0.897956 0.087107
O O5 0.204339 0.016148 0.868953
O O6 0.535338 0.579149 0.234710
O O7 0.629608 0.649459 0.184070
O O8 0.680139 0.901458 0.322610
O O9 0.807733 0.036335 0.532339
O O10 0.787227 0.793257 0.627390
O O11 0.993032 0.770998 0.702806
O O12 0.263908 0.175714 0.161001
O O13 0.079095 0.057909 0.504001
O O14 0.123908 0.809875 0.637718
#
# Coordination Sequence:
#
# PCOD9123288 Si02
#       8
#     2   4   4   4   4   4   4   2
#     4   8  18  36  60  86 120 170 198 244 318 368
#     4  10  20  38  60  90 122 159 206 251 308 368
#     4  10  21  39  60  85 121 160 199 252 306 364
#     4  12  22  38  60  90 119 162 204 253 305 362
#     4  11  21  37  62  93 123 163 205 257 305 364
#     4  11  22  38  59  86 121 161 201 251 308 360
#     4   9  19  36  62  86 122 168 201 247 318 362
#     4  10  20  38  60  88 120 158 212 258 304 374
#
# _framework density 22.841791000000001
#
# number of rings (size 3 to 8) (size 9 to 14) (size 15 to 20)
#    0.000    1.714    4.286    0.857    0.000    0.000 
#    0.000    7.143    0.000    0.000    0.000    0.000 
#    0.000    0.000    0.000    0.000    0.000    0.000 
#
# Total GULP energy -78015.431603 kJ/mol
# GULP energy per Si atom -5572.530829 kJ/mol
# Density = 2.278980 g / cm^3
# Si number density = 22.841791 Si / 1000 Ang^3
#
#
#
# Elastic Constant Matrix: (Units=GPa)
#
#
# Indices 1 2 3 4 5 6 
#
# 1 205.3699 27.2308 22.6541 0.0000 4.0111 0.0000
# 2 27.2308 25.4812 -2.7853 0.0000 4.5154 0.0001
# 3 22.6541 -2.7853 58.9814 0.0000 10.2474 0.0000
# 4 0.0000 0.0000 0.0000 25.8507 0.0000 -0.1240
# 5 4.0111 4.5154 10.2474 0.0000 40.3842 0.0000
# 6 0.0000 0.0001 0.0000 -0.1240 0.0000 25.7531
#
#
#
# Elastic Compliance Matrix: (Units=1/GPa)
#
#
# Indices 1 2 3 4 5 6 
#
# 1 0.006088 -0.006972 -0.002822 0.000000 0.000891 0.000000
# 2 -0.006972 0.048467 0.006055 0.000000 -0.006263 0.000000
# 3 -0.002822 0.006055 0.019242 0.000000 -0.005279 0.000000
# 4 0.000000 0.000000 0.000000 0.038685 0.000000 0.000186
# 5 0.000891 -0.006263 -0.005279 0.000000 0.026714 0.000000
# 6 0.000000 0.000000 0.000000 0.000186 0.000000 0.038831
#
#
# Mechanical properties :
#
#
# Convention : Reuss Voigt Hill
#
# Bulk Modulus (GPa) = 15.07902 42.67020 28.87461
# Shear Modulus (GPa) = 24.08359 34.57980 29.33170
#
# Velocity S-wave (km/s) = 3.25062 3.89509 3.58736
# Velocity P-wave (km/s) = 4.55023 6.24101 5.46145
#
# Compressibility (1/GPa) = 0.06631730
#
# Stress axis : x y z
#
# Youngs Moduli (GPa) = 164.26784 20.63258 51.97072
#
# Poissons Ratio (x) = 0.14385 0.14667
# Poissons Ratio (y) = 1.14527 -0.31467
# Poissons Ratio (z) = 0.46360 -0.12492
#
# Static dielectric constant tensor:
#      x y z
#    x 1.904140 0.000000 -0.043630 
#    y 0.000000 1.849230 0.000000 
#    z -0.043630 0.000000 1.894950 
# 
# From -- ./inp_files/41510.got.cif
#   From: 2010.05.17/outbox.cif.g08.bks.cpg/sg5_21_cif.got.tgz:41510.got - 2010.06.03 18:56:24.
