data_PCOD9123001
_publ_section_title
;
Structure prediction by ZEFSAII (Michael W. Deem and Ramdas Pophale) SiO2 
 PCOD9123001
Probable space group: C 2
;
_chemical_formula_sum "Si O2"
_cell_formula_units_Z 26
_cell_length_a 5.678826
_cell_length_b 18.503206
_cell_length_c 14.229304
_cell_angle_alpha 90.000000
_cell_angle_beta 122.461160
_cell_angle_gamma 90.000000
_cell_volume 1261.553899
_symmetry_space_group_name_H-M "C 2"
_symmetry_group_IT_number 5
_symmetry_cell_setting 'monoclinic'
loop_
_space_group_symop_operation_xyz
x,y,z
-x,y,-z
1/2+x,1/2+y,z
1/2-x,1/2+y,-z
loop_
_atom_site_type_symbol
_atom_site_label
_atom_site_fract_x
_atom_site_fract_y
_atom_site_fract_z
Si Si1 0.368244 0.584070 0.272270
Si Si2 0.723050 0.126810 0.877792
Si Si3 0.435373 0.482926 0.826854
Si Si4 0.334561 0.723897 0.738174
Si Si5 0.000000 0.131365 0.500000
Si Si6 0.500000 0.927993 0.000000
Si Si7 0.782021 0.347270 0.120803
Si Si8 0.000000 0.719098 0.500000
O O1 0.473929 0.507132 0.257483
O O2 0.579713 0.647206 0.287827
O O3 0.358014 0.588040 0.382912
O O4 0.089112 0.608305 0.155666
O O5 0.696460 0.197759 0.805857
O O6 0.780636 0.052227 0.834450
O O7 0.000000 0.138247 0.000000
O O8 0.277461 0.408598 0.814013
O O9 0.722960 0.474612 0.946333
O O10 0.598079 0.773703 0.814232
O O11 0.148561 0.760420 0.617681
O O12 0.256071 0.175750 0.506138
O O13 0.504487 0.879185 0.093781
O O14 0.500000 0.335991 0.000000
#
# Coordination Sequence:
#
# PCOD9123001 Si02
#       8
#     4   4   4   4   2   2   4   2
#     4  10  21  37  61  92 124 165 213 273 320 386
#     4  11  21  33  59  93 127 152 207 267 327 379
#     4  10  20  37  57  87 122 171 208 253 321 398
#     4  10  23  36  60  92 124 163 215 266 322 388
#     4  10  20  40  66  95 125 166 218 272 340 380
#     4  10  20  38  58  78 124 172 202 250 312 404
#     4  10  22  37  58  90 128 170 210 252 334 395
#     4  10  20  44  62  93 127 174 212 272 334 392
#
# _framework density 20.609501999999999
#
# number of rings (size 3 to 8) (size 9 to 14) (size 15 to 20)
#    0.000    1.846    1.538    3.231    3.231    2.462 
#    0.000    0.000    0.000    5.538    0.000    0.000 
#    0.000    0.000    0.000    0.000    0.000    0.000 
#
# Total GULP energy -72371.645507 kJ/mol
# GULP energy per Si atom -5567.049654 kJ/mol
# Density = 2.056259 g / cm^3
# Si number density = 20.609502 Si / 1000 Ang^3
#
#
#
# Elastic Constant Matrix: (Units=GPa)
#
#
# Indices 1 2 3 4 5 6 
#
# 1 65.8656 10.1328 9.9504 0.0000 -5.0330 0.0000
# 2 10.1328 74.3632 23.2630 0.0000 -8.9972 0.0000
# 3 9.9504 23.2630 87.7728 0.0000 -3.1256 0.0000
# 4 0.0000 0.0000 0.0000 10.0761 0.0000 -0.5985
# 5 -5.0330 -8.9972 -3.1256 0.0000 26.2796 0.0000
# 6 0.0000 0.0000 0.0000 -0.5985 0.0000 16.2403
#
#
#
# Elastic Compliance Matrix: (Units=1/GPa)
#
#
# Indices 1 2 3 4 5 6 
#
# 1 0.015786 -0.001451 -0.001321 0.000000 0.002369 0.000000
# 2 -0.001451 0.015366 -0.003747 0.000000 0.004537 0.000000
# 3 -0.001321 -0.003747 0.012534 0.000000 -0.000045 0.000000
# 4 0.000000 0.000000 0.000000 0.099462 0.000000 0.003665
# 5 0.002369 0.004537 -0.000045 0.000000 0.040054 0.000000
# 6 0.000000 0.000000 0.000000 0.003665 0.000000 0.061710
#
#
# Mechanical properties :
#
#
# Convention : Reuss Voigt Hill
#
# Bulk Modulus (GPa) = 32.62655 34.96600 33.79628
# Shear Modulus (GPa) = 18.64510 22.82956 20.73733
#
# Velocity S-wave (km/s) = 3.01106 3.33185 3.17551
# Velocity P-wave (km/s) = 5.28714 5.63954 5.46618
#
# Compressibility (1/GPa) = 0.03064988
#
# Stress axis : x y z
#
# Youngs Moduli (GPa) = 63.34622 65.07768 79.78211
#
# Poissons Ratio (x) = 0.09444 0.10536
# Poissons Ratio (y) = 0.09193 0.29891
# Poissons Ratio (z) = 0.08365 0.24382
#
# Static dielectric constant tensor:
#      x y z
#    x 1.843040 0.000000 -0.050320 
#    y 0.000000 1.697280 0.000000 
#    z -0.050320 0.000000 1.823400 
# 
# From -- ./inp_files/33551.got.cif
#   From: 2010.05.17/outbox.cif.g08.bks.cpg/sg5_17_cif.got.tgz:33551.got - 2010.06.03 18:56:24.
