data_PCOD9123717
_publ_section_title
;
Structure prediction by ZEFSAII (Michael W. Deem and Ramdas Pophale) SiO2 
 PCOD9123717
Probable space group: C 2
;
_chemical_formula_sum "Si O2"
_cell_formula_units_Z 30
_cell_length_a 17.836237
_cell_length_b 5.360229
_cell_length_c 15.299939
_cell_angle_alpha 90.000000
_cell_angle_beta 77.439408
_cell_angle_gamma 90.000000
_cell_volume 1427.761662
_symmetry_space_group_name_H-M "C 2"
_symmetry_group_IT_number 5
_symmetry_cell_setting 'monoclinic'
loop_
_space_group_symop_operation_xyz
x,y,z
-x,y,-z
1/2+x,1/2+y,z
1/2-x,1/2+y,-z
loop_
_atom_site_type_symbol
_atom_site_label
_atom_site_fract_x
_atom_site_fract_y
_atom_site_fract_z
Si Si1 0.724175 0.984910 0.899839
Si Si2 0.575384 0.614842 0.651157
Si Si3 0.322801 0.984228 0.905965
Si Si4 0.269965 0.447164 0.710373
Si Si5 0.500000 0.477429 0.500000
Si Si6 0.630310 0.095656 0.410155
Si Si7 0.913176 0.251705 0.733421
Si Si8 0.664901 0.105700 0.605160
O O1 0.782136 0.750237 0.900068
O O2 0.763169 0.256406 0.903081
O O3 0.705754 0.959724 0.801944
O O4 0.662020 0.965929 0.993583
O O5 0.548035 0.630995 0.557245
O O6 0.496577 0.632935 0.724706
O O7 0.618852 0.352263 0.644276
O O8 0.627326 0.854620 0.653287
O O9 0.390121 0.931847 0.819534
O O10 0.297146 0.184749 0.665930
O O11 0.345480 0.552579 0.739058
O O12 0.247471 0.608109 0.630858
O O13 0.562571 0.302633 0.436255
O O14 0.661511 0.073196 0.501398
O O15 0.590869 0.889205 0.359557
#
# Coordination Sequence:
#
# PCOD9123717 Si02
#       8
#     4   4   4   4   2   4   4   4
#     4   9  18  35  54  87 122 147 182 249 313 348
#     4  11  23  42  57  83 119 161 200 245 298 353
#     4   9  18  32  58  89 117 143 190 251 304 348
#     4  11  24  38  60  88 121 157 203 247 297 362
#     4  10  20  40  56  84 112 158 198 252 288 338
#     4  11  22  36  60  85 121 156 206 247 294 351
#     4  11  21  37  64  89 113 154 210 252 289 355
#     4  11  28  38  57  84 128 163 193 242 304 354
#
# _framework density 21.01191
#
# number of rings (size 3 to 8) (size 9 to 14) (size 15 to 20)
#    0.000    1.600    2.667    2.400    5.600    0.533 
#    0.000    0.000    0.000    0.800    0.000    3.733 
#    0.000    0.000    0.000    0.000    0.000    0.000 
#
# Total GULP energy -83622.021023 kJ/mol
# GULP energy per Si atom -5574.801402 kJ/mol
# Density = 2.096409 g / cm^3
# Si number density = 21.011910 Si / 1000 Ang^3
#
#
#
# Elastic Constant Matrix: (Units=GPa)
#
#
# Indices 1 2 3 4 5 6 
#
# 1 25.2527 11.8705 8.7714 0.0000 0.9587 0.0000
# 2 11.8705 100.6277 18.7663 0.0000 -0.5960 0.0000
# 3 8.7714 18.7663 112.3451 0.0000 5.2271 0.0000
# 4 0.0000 0.0000 0.0000 21.3069 0.0000 -5.5067
# 5 0.9587 -0.5960 5.2271 0.0000 19.9716 0.0000
# 6 0.0000 0.0000 0.0000 -5.5067 0.0000 25.8713
#
#
#
# Elastic Compliance Matrix: (Units=1/GPa)
#
#
# Indices 1 2 3 4 5 6 
#
# 1 0.042677 -0.004578 -0.002496 0.000000 -0.001532 0.000000
# 2 -0.004578 0.010760 -0.001483 0.000000 0.000929 0.000000
# 3 -0.002496 -0.001483 0.009455 0.000000 -0.002399 0.000000
# 4 0.000000 0.000000 0.000000 0.049665 0.000000 0.010571
# 5 -0.001532 0.000929 -0.002399 0.000000 0.050800 0.000000
# 6 0.000000 0.000000 0.000000 0.010571 0.000000 0.040903
#
#
# Mechanical properties :
#
#
# Convention : Reuss Voigt Hill
#
# Bulk Modulus (GPa) = 21.84466 35.22689 28.53577
# Shear Modulus (GPa) = 21.12971 26.68446 23.90709
#
# Velocity S-wave (km/s) = 3.17457 3.56753 3.37677
# Velocity P-wave (km/s) = 4.88427 5.81131 5.36784
#
# Compressibility (1/GPa) = 0.04577778
#
# Stress axis : x y z
#
# Youngs Moduli (GPa) = 23.43193 92.93895 105.75976
#
# Poissons Ratio (x) = 0.42547 0.26398
# Poissons Ratio (y) = 0.10727 0.15686
# Poissons Ratio (z) = 0.05849 0.13784
#
# Static dielectric constant tensor:
#      x y z
#    x 1.773230 0.000000 -0.028140 
#    y 0.000000 1.807380 0.000000 
#    z -0.028140 0.000000 1.844540 
# 
# From -- ./inp_files/55294.got.cif
#   From: 2010.05.17/outbox.cif.g08.bks.cpg/sg5_28_cif.got.tgz:55294.got - 2010.06.03 18:56:24.
