data_PCOD9123851
_publ_section_title
;
Structure prediction by ZEFSAII (Michael W. Deem and Ramdas Pophale) SiO2 
 PCOD9123851
Probable space group: C 2
;
_chemical_formula_sum "Si O2"
_cell_formula_units_Z 20
_cell_length_a 18.319976
_cell_length_b 4.834278
_cell_length_c 10.894203
_cell_angle_alpha 90.000000
_cell_angle_beta 132.050080
_cell_angle_gamma 90.000000
_cell_volume 716.445814
_symmetry_space_group_name_H-M "C 2"
_symmetry_group_IT_number 5
_symmetry_cell_setting 'monoclinic'
loop_
_space_group_symop_operation_xyz
x,y,z
-x,y,-z
1/2+x,1/2+y,z
1/2-x,1/2+y,-z
loop_
_atom_site_type_symbol
_atom_site_label
_atom_site_fract_x
_atom_site_fract_y
_atom_site_fract_z
Si Si1 0.500000 0.318280 0.000000
Si Si2 0.071492 0.476732 0.314894
Si Si3 0.700618 0.321704 0.140953
Si Si4 0.671386 0.521048 0.531163
Si Si5 0.624602 0.078993 0.804089
Si Si6 0.500000 0.493704 0.500000
O O1 0.534223 0.127785 0.151198
O O2 0.598675 0.469251 0.064678
O O3 0.145664 0.217915 0.386953
O O4 0.965659 0.383568 0.254953
O O5 0.137046 0.711289 0.460797
O O6 0.732626 0.116322 0.287672
O O7 0.790380 0.510849 0.197321
O O8 0.677913 0.157781 0.989955
O O9 0.589858 0.638001 0.535537
O O10 0.558329 0.312020 0.665584
#
# Coordination Sequence:
#
# PCOD9123851 Si02
#       6
#     2   4   4   4   4   2
#     4  10  26  46  66 102 146 186 234 286 348 416
#     4  10  24  45  68 100 134 178 227 286 344 412
#     4  11  22  41  68 101 142 187 233 288 346 415
#     4  11  22  40  70  98 135 177 228 281 346 407
#     4  10  21  38  66 100 138 179 230 282 344 406
#     4  10  20  40  66 104 140 178 230 296 348 410
#
# _framework density 27.915579999999999
#
# number of rings (size 3 to 8) (size 9 to 14) (size 15 to 20)
#    0.000    1.600    0.000    4.800    0.000    6.400 
#    0.000   10.000    0.000    0.000    0.000    0.000 
#    0.000    0.000    0.000    0.000    0.000    0.000 
#
# Total GULP energy -55879.197835 kJ/mol
# GULP energy per Si atom -5587.919784 kJ/mol
# Density = 2.785204 g / cm^3
# Si number density = 27.915580 Si / 1000 Ang^3
#
#
#
# Elastic Constant Matrix: (Units=GPa)
#
#
# Indices 1 2 3 4 5 6 
#
# 1 181.9932 13.8916 30.7416 0.0001 49.6831 0.0000
# 2 13.8916 90.3427 42.9687 0.0013 14.0814 0.0002
# 3 30.7416 42.9687 160.4841 0.0002 3.9071 0.0000
# 4 0.0001 0.0013 0.0002 29.6219 0.0000 -5.7494
# 5 49.6831 14.0814 3.9071 0.0000 60.8326 -0.0001
# 6 0.0000 0.0002 0.0000 -5.7494 -0.0001 29.7125
#
#
#
# Elastic Compliance Matrix: (Units=1/GPa)
#
#
# Indices 1 2 3 4 5 6 
#
# 1 0.007333 0.000467 -0.001383 0.000000 -0.006008 0.000000
# 2 0.000467 0.013181 -0.003540 -0.000001 -0.003205 0.000000
# 3 -0.001383 -0.003540 0.007408 0.000000 0.001474 0.000000
# 4 0.000000 -0.000001 0.000000 0.035076 0.000000 0.006787
# 5 -0.006008 -0.003205 0.001474 0.000000 0.021993 0.000000
# 6 0.000000 0.000000 0.000000 0.006787 0.000000 0.034969
#
#
# Mechanical properties :
#
#
# Convention : Reuss Voigt Hill
#
# Bulk Modulus (GPa) = 52.60982 67.55821 60.08402
# Shear Modulus (GPa) = 36.97957 47.04793 42.01375
#
# Velocity S-wave (km/s) = 3.64358 4.10977 3.88368
# Velocity P-wave (km/s) = 6.04879 6.83913 6.45607
#
# Compressibility (1/GPa) = 0.01900786
#
# Stress axis : x y z
#
# Youngs Moduli (GPa) = 136.37084 75.86896 134.98548
#
# Poissons Ratio (x) = -0.03542 0.18674
# Poissons Ratio (y) = -0.06367 0.47791
# Poissons Ratio (z) = 0.18866 0.26861
#
# Static dielectric constant tensor:
#      x y z
#    x 2.364170 0.000000 -0.114820 
#    y 0.000000 2.272270 0.000000 
#    z -0.114820 0.000000 2.170310 
# 
# From -- ./inp_files/43711.got.cif
#   From: 2010.05.17/outbox.cif.g08.bks.cpg/sg5_22_cif.got.tgz:43711.got - 2010.06.03 18:56:24.
