data_PCOD9123720
_publ_section_title
;
Structure prediction by ZEFSAII (Michael W. Deem and Ramdas Pophale) SiO2 
 PCOD9123720
Probable space group: C 2
;
_chemical_formula_sum "Si O2"
_cell_formula_units_Z 28
_cell_length_a 6.422645
_cell_length_b 21.047929
_cell_length_c 11.706597
_cell_angle_alpha 90.000000
_cell_angle_beta 90.333542
_cell_angle_gamma 90.000000
_cell_volume 1582.510488
_symmetry_space_group_name_H-M "C 2"
_symmetry_group_IT_number 5
_symmetry_cell_setting 'monoclinic'
loop_
_space_group_symop_operation_xyz
x,y,z
-x,y,-z
1/2+x,1/2+y,z
1/2-x,1/2+y,-z
loop_
_atom_site_type_symbol
_atom_site_label
_atom_site_fract_x
_atom_site_fract_y
_atom_site_fract_z
Si Si1 0.705684 0.129070 0.301442
Si Si2 0.125773 0.733579 0.611240
Si Si3 0.067744 0.549646 0.863923
Si Si4 0.383658 0.904297 0.121303
Si Si5 0.195846 0.296066 0.179811
Si Si6 0.000000 0.856918 0.000000
Si Si7 0.569163 0.652621 0.129322
Si Si8 0.000000 0.154900 0.500000
O O1 0.529772 0.181167 0.333219
O O2 0.597851 0.073462 0.229972
O O3 0.872637 0.153334 0.211403
O O4 0.845000 0.116674 0.415226
O O5 0.185673 0.788606 0.699711
O O6 0.339662 0.698675 0.572342
O O7 0.000000 0.756782 0.500000
O O8 0.099936 0.475820 0.834321
O O9 0.265297 0.596475 0.846879
O O10 0.000000 0.555197 0.000000
O O11 0.499528 0.845039 0.184107
O O12 0.500000 0.905901 0.000000
O O13 0.143258 0.894002 0.089942
O O14 0.152489 0.223474 0.145765
O O15 0.343207 0.318632 0.078352
O O16 0.500000 0.643187 0.000000
#
# Coordination Sequence:
#
# PCOD9123720 Si02
#       8
#     4   4   4   4   4   2   4   2
#     4  11  21  37  58  89 119 152 190 246 298 348
#     4  10  22  36  60  87 115 151 194 250 301 348
#     4  11  22  36  56  88 123 160 198 241 295 358
#     4   9  22  38  54  81 120 164 197 231 288 368
#     4  11  22  37  56  90 119 155 192 245 299 356
#     4  10  22  36  60  80 122 156 186 234 304 352
#     4  12  23  32  58  94 121 148 192 245 299 357
#     4  10  20  40  58  88 120 152 198 242 306 352
#
# _framework density 17.693404999999998
#
# number of rings (size 3 to 8) (size 9 to 14) (size 15 to 20)
#    0.000    1.429    4.286    1.286    6.000    1.143 
#    0.000    0.000    1.571    0.000    9.286    0.000 
#    0.000    0.000    0.000    0.000    0.000    0.000 
#
# Total GULP energy -77938.501869 kJ/mol
# GULP energy per Si atom -5567.035848 kJ/mol
# Density = 1.765313 g / cm^3
# Si number density = 17.693405 Si / 1000 Ang^3
#
#
#
# Elastic Constant Matrix: (Units=GPa)
#
#
# Indices 1 2 3 4 5 6 
#
# 1 103.5597 46.3971 32.7362 0.0000 8.9819 0.0000
# 2 46.3971 89.1493 23.8472 0.0000 25.2384 0.0000
# 3 32.7362 23.8472 88.8932 0.0000 26.9885 0.0000
# 4 0.0000 0.0000 0.0000 20.1312 0.0000 10.0707
# 5 8.9819 25.2384 26.9885 0.0000 47.3611 0.0000
# 6 0.0000 0.0000 0.0000 10.0707 0.0000 18.6466
#
#
#
# Elastic Compliance Matrix: (Units=1/GPa)
#
#
# Indices 1 2 3 4 5 6 
#
# 1 0.013882 -0.007093 -0.004302 0.000000 0.003598 0.000000
# 2 -0.007093 0.017050 0.000469 0.000000 -0.008008 0.000000
# 3 -0.004302 0.000469 0.015159 0.000000 -0.008072 0.000000
# 4 0.000000 0.000000 0.000000 0.068064 0.000000 -0.036760
# 5 0.003598 -0.008008 -0.008072 0.000000 0.029299 0.000000
# 6 0.000000 0.000000 0.000000 -0.036760 0.000000 0.073483
#
#
# Mechanical properties :
#
#
# Convention : Reuss Voigt Hill
#
# Bulk Modulus (GPa) = 41.25432 54.17372 47.71402
# Shear Modulus (GPa) = 20.25386 29.13589 24.69487
#
# Velocity S-wave (km/s) = 3.38703 4.06237 3.73997
# Velocity P-wave (km/s) = 6.21794 7.25867 6.75837
#
# Compressibility (1/GPa) = 0.02423989
#
# Stress axis : x y z
#
# Youngs Moduli (GPa) = 72.03735 58.65099 65.96920
#
# Poissons Ratio (x) = 0.41599 0.28379
# Poissons Ratio (y) = 0.51093 -0.03096
# Poissons Ratio (z) = 0.30990 -0.02752
#
# Static dielectric constant tensor:
#      x y z
#    x 1.690830 0.000000 0.032890 
#    y 0.000000 1.627070 0.000000 
#    z 0.032890 0.000000 1.636160 
# 
# From -- ./inp_files/33804.got.cif
#   From: 2010.05.17/outbox.cif.g08.bks.cpg/sg5_17_cif.got.tgz:33804.got - 2010.06.03 18:56:24.
