data_PCOD9123966
_publ_section_title
;
Structure prediction by ZEFSAII (Michael W. Deem and Ramdas Pophale) SiO2 
 PCOD9123966
Probable space group: C 2
;
_chemical_formula_sum "Si O2"
_cell_formula_units_Z 26
_cell_length_a 21.517413
_cell_length_b 5.737014
_cell_length_c 11.864474
_cell_angle_alpha 90.000000
_cell_angle_beta 144.163823
_cell_angle_gamma 90.000000
_cell_volume 857.489590
_symmetry_space_group_name_H-M "C 2"
_symmetry_group_IT_number 5
_symmetry_cell_setting 'monoclinic'
loop_
_space_group_symop_operation_xyz
x,y,z
-x,y,-z
1/2+x,1/2+y,z
1/2-x,1/2+y,-z
loop_
_atom_site_type_symbol
_atom_site_label
_atom_site_fract_x
_atom_site_fract_y
_atom_site_fract_z
Si Si1 0.270017 0.909930 0.873797
Si Si2 0.522937 0.658639 0.826551
Si Si3 0.867289 0.396855 0.769768
Si Si4 0.794154 0.890145 0.677615
Si Si5 0.094790 0.404905 0.530370
Si Si6 0.894475 0.649798 0.235863
Si Si7 0.000000 0.873277 0.000000
O O1 0.284344 0.931160 0.761728
O O2 0.157129 0.845486 0.761019
O O3 0.356149 0.706894 0.027707
O O4 0.321765 0.119087 0.020812
O O5 0.480610 0.861971 0.852468
O O6 0.512930 0.424231 0.882106
O O7 0.454322 0.692311 0.613324
O O8 0.878796 0.101169 0.810049
O O9 0.774701 0.390027 0.534860
O O10 0.712375 0.918808 0.655346
O O11 0.890432 0.694789 0.819816
O O12 0.106948 0.422660 0.682022
O O13 0.018311 0.625493 0.387000
#
# Coordination Sequence:
#
# PCOD9123966 Si02
#       7
#     4   4   4   4   4   4   2
#     4  11  21  42  71 102 143 190 261 305 361 453
#     4  10  20  42  72 108 145 189 244 316 380 451
#     4  11  24  43  76 110 143 191 245 312 377 443
#     4  11  24  43  73 108 154 190 248 306 382 452
#     4  10  22  44  68 101 156 194 247 314 385 443
#     4  10  23  41  70 101 148 200 259 306 378 438
#     4  10  20  40  74 106 150 186 260 292 386 464
#
# _framework density 30.321069999999999
#
# number of rings (size 3 to 8) (size 9 to 14) (size 15 to 20)
#    0.000    1.538    4.615    0.000    4.308    2.462 
#    0.000    4.615    0.000    0.000    0.000    0.000 
#    0.000    0.000    0.000    0.000    0.000    0.000 
#
# Total GULP energy -72558.078764 kJ/mol
# GULP energy per Si atom -5581.390674 kJ/mol
# Density = 3.025206 g / cm^3
# Si number density = 30.321070 Si / 1000 Ang^3
#
#
#
# Elastic Constant Matrix: (Units=GPa)
#
#
# Indices 1 2 3 4 5 6 
#
# 1 138.2013 57.2517 44.4294 0.0000 -11.0521 0.0000
# 2 57.2517 171.8161 29.5890 0.0001 8.3149 0.0000
# 3 44.4294 29.5890 144.8338 0.0000 1.9912 0.0000
# 4 0.0000 0.0001 0.0000 40.9499 0.0000 1.1891
# 5 -11.0521 8.3149 1.9912 0.0000 80.6032 0.0000
# 6 0.0000 0.0000 0.0000 1.1891 0.0000 61.7379
#
#
#
# Elastic Compliance Matrix: (Units=1/GPa)
#
#
# Indices 1 2 3 4 5 6 
#
# 1 0.009247 -0.002764 -0.002294 0.000000 0.001610 0.000000
# 2 -0.002764 0.006887 -0.000544 0.000000 -0.001076 0.000000
# 3 -0.002294 -0.000544 0.007726 0.000000 -0.000449 0.000000
# 4 0.000000 0.000000 0.000000 0.024434 0.000000 -0.000471
# 5 0.001610 -0.001076 -0.000449 0.000000 0.012749 0.000000
# 6 0.000000 0.000000 0.000000 -0.000471 0.000000 0.016207
#
#
# Mechanical properties :
#
#
# Convention : Reuss Voigt Hill
#
# Bulk Modulus (GPa) = 79.02161 79.71014 79.36588
# Shear Modulus (GPa) = 53.95341 58.23029 56.09185
#
# Velocity S-wave (km/s) = 4.22287 4.38706 4.30575
# Velocity P-wave (km/s) = 7.06364 7.21162 7.13801
#
# Compressibility (1/GPa) = 0.01265477
#
# Stress axis : x y z
#
# Youngs Moduli (GPa) = 108.14150 145.20055 129.44014
#
# Poissons Ratio (x) = 0.40135 0.29695
# Poissons Ratio (y) = 0.29892 0.07045
# Poissons Ratio (z) = 0.24809 0.07903
#
# Static dielectric constant tensor:
#      x y z
#    x 2.304570 0.000000 0.145610 
#    y 0.000000 3.027780 0.000000 
#    z 0.145610 0.000000 2.473150 
# 
# From -- ./inp_files/46164.got.cif
#   From: 2010.05.17/outbox.cif.g08.bks.cpg/sg5_24_cif.got.tgz:46164.got - 2010.06.03 18:56:24.
