data_PCOD9123474
_publ_section_title
;
Structure prediction by ZEFSAII (Michael W. Deem and Ramdas Pophale) SiO2 
 PCOD9123474
Probable space group: C 2
;
_chemical_formula_sum "Si O2"
_cell_formula_units_Z 30
_cell_length_a 18.332888
_cell_length_b 7.497246
_cell_length_c 11.598969
_cell_angle_alpha 90.000000
_cell_angle_beta 43.782851
_cell_angle_gamma 90.000000
_cell_volume 1103.093649
_symmetry_space_group_name_H-M "C 2"
_symmetry_group_IT_number 5
_symmetry_cell_setting 'monoclinic'
loop_
_space_group_symop_operation_xyz
x,y,z
-x,y,-z
1/2+x,1/2+y,z
1/2-x,1/2+y,-z
loop_
_atom_site_type_symbol
_atom_site_label
_atom_site_fract_x
_atom_site_fract_y
_atom_site_fract_z
Si Si1 0.962067 0.572430 0.783755
Si Si2 0.003612 0.169173 0.688053
Si Si3 0.185610 0.307624 0.332497
Si Si4 0.594517 0.631530 0.816991
Si Si5 0.775694 0.169394 0.953202
Si Si6 0.399041 0.222311 0.182372
Si Si7 0.500000 0.252578 0.500000
Si Si8 0.785296 0.723354 0.711919
O O1 0.966583 0.637311 0.647291
O O2 0.979157 0.362968 0.771399
O O3 0.056686 0.675302 0.741805
O O4 0.839659 0.604550 0.956757
O O5 0.076464 0.221018 0.498089
O O6 0.073600 0.088315 0.708855
O O7 0.890081 0.067983 0.814114
O O8 0.201232 0.308443 0.176388
O O9 0.277501 0.188679 0.288674
O O10 0.183796 0.519402 0.361179
O O11 0.606307 0.430617 0.852124
O O12 0.692348 0.759696 0.728906
O O13 0.500000 0.708436 0.000000
O O14 0.760857 0.220410 0.104576
O O15 0.500000 0.141729 0.000000
O O16 0.390260 0.341481 0.588944
#
# Coordination Sequence:
#
# PCOD9123474 Si02
#       8
#     4   4   4   4   4   4   2   4
#     4  11  24  42  69 101 130 178 230 274 337 406
#     4  12  25  40  72 104 135 171 231 292 330 398
#     4  11  23  41  68  98 135 179 226 277 343 401
#     4  10  22  43  66  94 132 185 220 271 337 404
#     4  11  22  38  63  96 130 175 221 273 330 402
#     4  10  22  43  69  92 136 182 222 268 339 407
#     4  10  20  38  66  92 130 166 218 272 326 402
#     4  10  21  41  64  92 130 182 221 267 336 409
#
# _framework density 27.196238999999998
#
# number of rings (size 3 to 8) (size 9 to 14) (size 15 to 20)
#    0.000    1.333    4.000    2.000    1.867    1.600 
#    0.000    0.000   14.667    0.000    0.000    0.000 
#    0.000    0.000    0.000    0.000    0.000    0.000 
#
# Total GULP energy -83674.502316 kJ/mol
# GULP energy per Si atom -5578.300154 kJ/mol
# Density = 2.713434 g / cm^3
# Si number density = 27.196239 Si / 1000 Ang^3
#
#
#
# Elastic Constant Matrix: (Units=GPa)
#
#
# Indices 1 2 3 4 5 6 
#
# 1 163.3121 3.1877 41.2323 -0.0001 -45.4019 0.0000
# 2 3.1877 71.8367 22.4617 -0.0013 -2.9094 0.0006
# 3 41.2323 22.4617 156.0327 -0.0002 -35.3945 0.0002
# 4 -0.0001 -0.0013 -0.0002 15.0088 0.0002 7.4579
# 5 -45.4019 -2.9094 -35.3945 0.0002 55.7884 0.0000
# 6 0.0000 0.0006 0.0002 7.4579 0.0000 26.7874
#
#
#
# Elastic Compliance Matrix: (Units=1/GPa)
#
#
# Indices 1 2 3 4 5 6 
#
# 1 0.007988 0.000128 -0.000763 0.000000 0.006023 0.000000
# 2 0.000128 0.014600 -0.002265 0.000002 -0.000572 -0.000001
# 3 -0.000763 -0.002265 0.007907 0.000000 0.004277 0.000000
# 4 0.000000 0.000002 0.000000 0.077325 0.000000 -0.021528
# 5 0.006023 -0.000572 0.004277 0.000000 0.025511 0.000000
# 6 0.000000 -0.000001 0.000000 -0.021528 0.000000 0.043325
#
#
# Mechanical properties :
#
#
# Convention : Reuss Voigt Hill
#
# Bulk Modulus (GPa) = 40.49482 58.32723 49.41102
# Shear Modulus (GPa) = 26.22102 41.13692 33.67897
#
# Velocity S-wave (km/s) = 3.10843 3.89343 3.52286
# Velocity P-wave (km/s) = 5.27307 6.45795 5.89535
#
# Compressibility (1/GPa) = 0.02469452
#
# Stress axis : x y z
#
# Youngs Moduli (GPa) = 125.18925 68.49353 126.47170
#
# Poissons Ratio (x) = -0.00877 0.09649
# Poissons Ratio (y) = -0.01603 0.28649
# Poissons Ratio (z) = 0.09551 0.15515
#
# Static dielectric constant tensor:
#      x y z
#    x 2.352060 0.000000 -0.096220 
#    y 0.000000 2.165840 0.000000 
#    z -0.096220 0.000000 2.170440 
# 
# From -- ./inp_files/44697.got.cif
#   From: 2010.05.17/outbox.cif.g08.bks.cpg/sg5_23_cif.got.tgz:44697.got - 2010.06.03 18:56:24.
