data_PCOD9123152
_publ_section_title
;
Structure prediction by ZEFSAII (Michael W. Deem and Ramdas Pophale) SiO2 
 PCOD9123152
Probable space group: C 2
;
_chemical_formula_sum "Si O2"
_cell_formula_units_Z 30
_cell_length_a 10.899258
_cell_length_b 16.870970
_cell_length_c 8.011265
_cell_angle_alpha 90.000000
_cell_angle_beta 84.726130
_cell_angle_gamma 90.000000
_cell_volume 1466.883730
_symmetry_space_group_name_H-M "C 2"
_symmetry_group_IT_number 5
_symmetry_cell_setting 'monoclinic'
loop_
_space_group_symop_operation_xyz
x,y,z
-x,y,-z
1/2+x,1/2+y,z
1/2-x,1/2+y,-z
loop_
_atom_site_type_symbol
_atom_site_label
_atom_site_fract_x
_atom_site_fract_y
_atom_site_fract_z
Si Si1 0.244341 0.769580 0.679525
Si Si2 0.000000 0.096502 0.000000
Si Si3 0.891810 0.632600 0.116190
Si Si4 0.921253 0.565371 0.670507
Si Si5 0.736976 0.511533 0.922389
Si Si6 0.284841 0.237937 0.684211
Si Si7 0.997849 0.195504 0.683446
Si Si8 0.144939 0.852386 0.017162
O O1 0.181846 0.686592 0.746378
O O2 0.199166 0.782109 0.495972
O O3 0.392574 0.761557 0.666091
O O4 0.199581 0.825606 0.832058
O O5 0.898313 0.042426 0.099141
O O6 0.951893 0.148799 0.852318
O O7 0.801008 0.584901 0.009310
O O8 0.974421 0.569600 0.201773
O O9 0.000000 0.678870 0.000000
O O10 0.857997 0.653525 0.665446
O O11 0.000000 0.545801 0.500000
O O12 0.817729 0.504456 0.745283
O O13 0.716931 0.434918 0.038360
O O14 0.326884 0.290149 0.837533
O O15 0.137677 0.220356 0.710783
O O16 0.000000 0.153324 0.500000
O O17 0.000000 0.864193 0.000000
#
# Coordination Sequence:
#
# PCOD9123152 Si02
#       8
#     4   2   4   4   4   4   4   4
#     4  11  21  41  67  95 127 167 216 270 326 383
#     4  12  18  40  66  90 128 160 208 268 318 390
#     4  10  20  37  63  94 121 161 215 272 322 373
#     4  11  21  40  69  99 126 163 222 280 323 372
#     4  11  24  42  62  93 131 176 213 262 335 393
#     4  11  23  42  67  98 128 163 220 277 325 379
#     4  10  22  38  65  97 123 160 209 268 327 374
#     4  12  26  43  63  92 133 175 216 264 329 402
#
# _framework density 20.451519000000001
#
# number of rings (size 3 to 8) (size 9 to 14) (size 15 to 20)
#    0.000    1.067    4.667    3.600    0.000    0.000 
#    9.600    0.667    0.000    0.000    0.000    0.000 
#    0.000    0.000    0.000    0.000    0.000    0.000 
#
# Total GULP energy -83576.543128 kJ/mol
# GULP energy per Si atom -5571.769542 kJ/mol
# Density = 2.040497 g / cm^3
# Si number density = 20.451519 Si / 1000 Ang^3
#
#
#
# Elastic Constant Matrix: (Units=GPa)
#
#
# Indices 1 2 3 4 5 6 
#
# 1 115.1742 14.7376 38.7920 0.0000 -13.5216 0.0000
# 2 14.7376 42.9270 17.8300 0.0000 -0.0044 0.0000
# 3 38.7920 17.8300 127.6790 0.0000 -7.7201 0.0000
# 4 0.0000 0.0000 0.0000 14.9252 0.0000 -6.4201
# 5 -13.5216 -0.0044 -7.7201 0.0000 33.9331 0.0000
# 6 0.0000 0.0000 0.0000 -6.4201 0.0000 10.3476
#
#
#
# Elastic Compliance Matrix: (Units=1/GPa)
#
#
# Indices 1 2 3 4 5 6 
#
# 1 0.010274 -0.002461 -0.002565 0.000000 0.003510 0.000000
# 2 -0.002461 0.025340 -0.002890 0.000000 -0.001635 0.000000
# 3 -0.002565 -0.002890 0.009078 0.000000 0.001043 0.000000
# 4 0.000000 0.000000 0.000000 0.091392 0.000000 0.056703
# 5 0.003510 -0.001635 0.001043 0.000000 0.031105 0.000000
# 6 0.000000 0.000000 0.000000 0.056703 0.000000 0.131822
#
#
# Mechanical properties :
#
#
# Convention : Reuss Voigt Hill
#
# Bulk Modulus (GPa) = 34.65077 47.61104 41.13090
# Shear Modulus (GPa) = 15.41005 26.13588 20.77296
#
# Velocity S-wave (km/s) = 2.74796 3.57871 3.19049
# Velocity P-wave (km/s) = 5.20077 6.35663 5.80753
#
# Compressibility (1/GPa) = 0.02885939
#
# Stress axis : x y z
#
# Youngs Moduli (GPa) = 97.33736 39.46256 110.15410
#
# Poissons Ratio (x) = 0.09712 0.28259
# Poissons Ratio (y) = 0.23956 0.31833
# Poissons Ratio (z) = 0.24971 0.11404
#
# Static dielectric constant tensor:
#      x y z
#    x 1.742470 0.000000 -0.048620 
#    y 0.000000 1.771550 0.000000 
#    z -0.048620 0.000000 1.811590 
# 
# From -- ./inp_files/21251.got.cif
#   From: 2010.05.17/outbox.cif.g08.bks.cpg/sg5_11_cif.got.tgz:21251.got - 2010.06.03 18:56:24.
