data_PCOD9123552
_publ_section_title
;
Structure prediction by ZEFSAII (Michael W. Deem and Ramdas Pophale) SiO2 
 PCOD9123552
Probable space group: C 2
;
_chemical_formula_sum "Si O2"
_cell_formula_units_Z 20
_cell_length_a 16.831226
_cell_length_b 8.898117
_cell_length_c 10.207045
_cell_angle_alpha 90.000000
_cell_angle_beta 147.009637
_cell_angle_gamma 90.000000
_cell_volume 832.357992
_symmetry_space_group_name_H-M "C 2"
_symmetry_group_IT_number 5
_symmetry_cell_setting 'monoclinic'
loop_
_space_group_symop_operation_xyz
x,y,z
-x,y,-z
1/2+x,1/2+y,z
1/2-x,1/2+y,-z
loop_
_atom_site_type_symbol
_atom_site_label
_atom_site_fract_x
_atom_site_fract_y
_atom_site_fract_z
Si Si1 0.662474 0.708080 0.675865
Si Si2 0.820974 0.975692 0.511827
Si Si3 0.551175 0.292465 0.709189
Si Si4 0.182706 0.414162 0.054505
Si Si5 0.117459 0.483064 0.474098
O O1 0.500000 0.684924 0.500000
O O2 0.670205 0.640178 0.539498
O O3 0.773496 0.592300 0.898899
O O4 0.677332 0.885990 0.678016
O O5 0.722740 0.888525 0.263549
O O6 0.745428 0.993185 0.545601
O O7 0.977649 0.893072 0.721366
O O8 0.500000 0.365759 0.500000
O O9 0.722441 0.314847 0.915273
O O10 0.460956 0.136991 0.590599
O O11 0.016059 0.400392 0.785320
#
# Coordination Sequence:
#
# PCOD9123552 Si02
#       5
#     4   4   4   4   4
#     4  10  20  39  58  82 125 152 189 246 299 344
#     4   9  19  40  57  83 124 150 186 250 302 337
#     4  10  20  40  57  80 121 156 190 241 299 353
#     4   9  21  38  59  82 126 151 189 245 293 351
#     4  12  22  32  67  93 103 159 208 233 292 358
#
# _framework density 24.028122
#
# number of rings (size 3 to 8) (size 9 to 14) (size 15 to 20)
#    1.200    0.800    2.000    2.400    2.800    0.000 
#    0.000    0.000    0.000    0.000   10.400    0.000 
#    0.000    0.000    0.000    0.000    0.000    0.000 
#
# Total GULP energy -55680.728384 kJ/mol
# GULP energy per Si atom -5568.072838 kJ/mol
# Density = 2.397343 g / cm^3
# Si number density = 24.028122 Si / 1000 Ang^3
#
#
#
# Elastic Constant Matrix: (Units=GPa)
#
#
# Indices 1 2 3 4 5 6 
#
# 1 146.2146 35.0093 7.5935 0.0000 12.7221 0.0000
# 2 35.0093 120.1679 -4.7348 0.0000 -2.8042 0.0000
# 3 7.5935 -4.7348 45.8264 0.0000 -1.4110 0.0000
# 4 0.0000 0.0000 0.0000 -226.0736 0.0000 153.8186
# 5 12.7221 -2.8042 -1.4110 0.0000 29.0799 0.0000
# 6 0.0000 0.0000 0.0000 153.8186 0.0000 -79.2201
#
#
#
# Elastic Compliance Matrix: (Units=1/GPa)
#
#
# Indices 1 2 3 4 5 6 
#
# 1 0.007835 -0.002435 -0.001665 0.000000 -0.003743 0.000000
# 2 -0.002435 0.009134 0.001409 0.000000 0.002015 0.000000
# 3 -0.001665 0.001409 0.022303 0.000000 0.001947 0.000000
# 4 0.000000 0.000000 0.000000 0.013776 0.000000 0.026748
# 5 -0.003743 0.002015 0.001947 0.000000 0.036314 0.000000
# 6 0.000000 0.000000 0.000000 0.026748 0.000000 0.039313
#
#
# Mechanical properties :
#
#
# Convention : Reuss Voigt Hill
#
# Bulk Modulus (GPa) = 29.50827 43.10496 36.30662
# Shear Modulus (GPa) = 34.39887 -36.95335 -1.27724
#
# Velocity S-wave (km/s) = 3.78777 -3.92589 -0.72987
# Velocity P-wave (km/s) = 5.60687 1.60368 3.79902
#
# Compressibility (1/GPa) = 0.03388881
#
# Stress axis : x y z
#
# Youngs Moduli (GPa) = 127.63943 109.48388 44.83714
#
# Poissons Ratio (x) = 0.26664 0.07466
# Poissons Ratio (y) = 0.31086 -0.06319
# Poissons Ratio (z) = 0.21253 -0.15430
#
# Static dielectric constant tensor:
#      x y z
#    x 2.246270 0.000000 -0.728410 
#    y 0.000000 2.005250 0.000000 
#    z -0.728410 0.000000 3.425810 
# 
# From -- ./inp_files/31550.got.cif
#   From: 2010.05.17/outbox.cif.g08.bks.cpg/sg5_16_cif.got.tgz:31550.got - 2010.06.03 18:56:24.
