data_PCOD9123771
_publ_section_title
;
Structure prediction by ZEFSAII (Michael W. Deem and Ramdas Pophale) SiO2 
 PCOD9123771
Probable space group: C 2
;
_chemical_formula_sum "Si O2"
_cell_formula_units_Z 28
_cell_length_a 7.750157
_cell_length_b 11.590671
_cell_length_c 13.541547
_cell_angle_alpha 90.000000
_cell_angle_beta 71.734680
_cell_angle_gamma 90.000000
_cell_volume 1155.141242
_symmetry_space_group_name_H-M "C 2"
_symmetry_group_IT_number 5
_symmetry_cell_setting 'monoclinic'
loop_
_space_group_symop_operation_xyz
x,y,z
-x,y,-z
1/2+x,1/2+y,z
1/2-x,1/2+y,-z
loop_
_atom_site_type_symbol
_atom_site_label
_atom_site_fract_x
_atom_site_fract_y
_atom_site_fract_z
Si Si1 0.538795 0.956230 0.706503
Si Si2 0.346955 0.423233 0.946008
Si Si3 0.713048 0.176445 0.986154
Si Si4 0.933626 0.236030 0.403778
Si Si5 0.198476 0.017800 0.516081
Si Si6 0.631848 0.403754 0.734960
Si Si7 0.767046 0.655592 0.233331
O O1 0.599175 0.824116 0.678985
O O2 0.634164 0.999656 0.587864
O O3 0.320690 0.949488 0.749678
O O4 0.619388 0.038405 0.775943
O O5 0.258620 0.542480 0.002009
O O6 0.454092 0.448360 0.823995
O O7 0.500000 0.400917 0.000000
O O8 0.248209 0.295991 0.960646
O O9 0.800421 0.189500 0.862624
O O10 0.500000 0.171893 0.000000
O O11 0.000000 0.282432 0.500000
O O12 0.097507 0.156341 0.336009
O O13 0.773944 0.148034 0.450572
O O14 0.170378 0.935553 0.615103
O O15 0.000000 0.007396 0.500000
O O16 0.618673 0.266071 0.750906
#
# Coordination Sequence:
#
# PCOD9123771 Si02
#       7
#     4   4   4   4   4   4   4
#     4  11  23  39  70  98 135 192 234 275 357 415
#     4  11  25  48  73 109 141 186 239 305 361 423
#     4  11  25  46  76 101 143 186 237 301 362 423
#     4  10  20  40  62  92 140 181 223 289 339 404
#     4  11  22  42  66 101 146 188 232 287 343 420
#     4  11  24  44  70 100 145 183 237 293 351 420
#     4  11  21  43  69  98 137 187 232 284 355 414
#
# _framework density 24.239459
#
# number of rings (size 3 to 8) (size 9 to 14) (size 15 to 20)
#    0.000    1.143    5.714    3.000    2.000    0.571 
#    2.571    2.143    0.000    0.000    0.000    0.000 
#    0.000    0.000    0.000    0.000    0.000    0.000 
#
# Total GULP energy -77956.778090 kJ/mol
# GULP energy per Si atom -5568.341292 kJ/mol
# Density = 2.418429 g / cm^3
# Si number density = 24.239459 Si / 1000 Ang^3
#
#
#
# Elastic Constant Matrix: (Units=GPa)
#
#
# Indices 1 2 3 4 5 6 
#
# 1 41.4253 37.1594 10.6150 0.0000 -11.5621 0.0000
# 2 37.1594 167.0915 23.1172 0.0000 -16.6145 0.0000
# 3 10.6150 23.1172 113.5064 0.0000 -11.8500 0.0000
# 4 0.0000 0.0000 0.0000 66.1988 0.0000 -41.9328
# 5 -11.5621 -16.6145 -11.8500 0.0000 23.6965 0.0000
# 6 0.0000 0.0000 0.0000 -41.9328 0.0000 100.7672
#
#
#
# Elastic Compliance Matrix: (Units=1/GPa)
#
#
# Indices 1 2 3 4 5 6 
#
# 1 0.032989 -0.006105 -0.000642 0.000000 0.011495 0.000000
# 2 -0.006105 0.007648 -0.000779 0.000000 0.001995 0.000000
# 3 -0.000642 -0.000779 0.009431 0.000000 0.003857 0.000000
# 4 0.000000 0.000000 0.000000 0.020513 0.000000 0.008536
# 5 0.011495 0.001995 0.003857 0.000000 0.051137 0.000000
# 6 0.000000 0.000000 0.000000 0.008536 0.000000 0.013476
#
#
# Mechanical properties :
#
#
# Convention : Reuss Voigt Hill
#
# Bulk Modulus (GPa) = 28.55622 51.53404 40.04513
# Shear Modulus (GPa) = 30.88006 54.87459 42.87733
#
# Velocity S-wave (km/s) = 3.57313 4.76316 4.21040
# Velocity P-wave (km/s) = 5.36931 7.18031 6.33980
#
# Compressibility (1/GPa) = 0.03501864
#
# Stress axis : x y z
#
# Youngs Moduli (GPa) = 30.31354 130.74649 106.02914
#
# Poissons Ratio (x) = 0.79815 0.06804
# Poissons Ratio (y) = 0.18505 0.08255
# Poissons Ratio (z) = 0.01945 0.10179
#
# Static dielectric constant tensor:
#      x y z
#    x 1.833530 0.000000 0.353720 
#    y 0.000000 2.091110 0.000000 
#    z 0.353720 0.000000 1.216350 
# 
# From -- ./inp_files/50421.got.cif
#   From: 2010.05.17/outbox.cif.g08.bks.cpg/sg5_26_cif.got.tgz:50421.got - 2010.06.03 18:56:24.
