data_PCOD9123709
_publ_section_title
;
Structure prediction by ZEFSAII (Michael W. Deem and Ramdas Pophale) SiO2 
 PCOD9123709
Probable space group: C 2
;
_chemical_formula_sum "Si O2"
_cell_formula_units_Z 32
_cell_length_a 23.131779
_cell_length_b 15.952322
_cell_length_c 8.981776
_cell_angle_alpha 90.000000
_cell_angle_beta 151.768726
_cell_angle_gamma 90.000000
_cell_volume 1567.781171
_symmetry_space_group_name_H-M "C 2"
_symmetry_group_IT_number 5
_symmetry_cell_setting 'monoclinic'
loop_
_space_group_symop_operation_xyz
x,y,z
-x,y,-z
1/2+x,1/2+y,z
1/2-x,1/2+y,-z
loop_
_atom_site_type_symbol
_atom_site_label
_atom_site_fract_x
_atom_site_fract_y
_atom_site_fract_z
Si Si1 0.720570 0.220470 0.165015
Si Si2 0.289461 0.049036 0.738557
Si Si3 0.583240 0.897786 0.821609
Si Si4 0.521887 0.517948 0.219599
Si Si5 0.711692 0.258108 0.797401
Si Si6 0.511201 0.768075 0.179471
Si Si7 0.970451 0.822177 0.102409
Si Si8 0.317613 0.629377 0.806124
O O1 0.658679 0.133243 0.070565
O O2 0.864609 0.216409 0.526644
O O3 0.711368 0.239096 0.970787
O O4 0.657980 0.290366 0.126628
O O5 0.255654 0.077948 0.490512
O O6 0.166690 0.027609 0.556161
O O7 0.371613 0.968007 0.958858
O O8 0.500000 0.934708 0.500000
O O9 0.494303 0.831698 0.699020
O O10 0.696267 0.836708 0.028462
O O11 0.481487 0.422020 0.133454
O O12 0.500000 0.548348 0.000000
O O13 0.428751 0.569198 0.110794
O O14 0.577068 0.285213 0.444849
O O15 0.746191 0.175504 0.777346
O O16 0.500000 0.816773 0.000000
O O17 0.394294 0.707444 0.914011
O O18 0.000000 0.796039 0.000000
#
# Coordination Sequence:
#
# PCOD9123709 Si02
#       8
#     4   4   4   4   4   4   4   4
#     4  12  24  42  66  96 140 177 229 281 349 418
#     4  11  21  42  67  97 132 176 220 284 341 400
#     4  11  24  42  68  99 142 180 223 286 357 407
#     4   9  18  36  64  98 124 159 219 283 329 381
#     4  11  24  44  64  97 137 184 225 277 350 420
#     4  11  21  39  70 102 129 177 235 281 335 415
#     4  11  24  42  67  97 131 178 229 280 343 409
#     4  10  20  39  70  99 128 166 233 280 336 405
#
# _framework density 20.411013000000001
#
# number of rings (size 3 to 8) (size 9 to 14) (size 15 to 20)
#    0.000    1.250    5.000    1.500    1.750    1.000 
#    2.250    4.375    0.000    0.000    0.000    0.000 
#    0.000    0.000    0.000    0.000    0.000    0.000 
#
# Total GULP energy -89168.761070 kJ/mol
# GULP energy per Si atom -5573.047567 kJ/mol
# Density = 2.036456 g / cm^3
# Si number density = 20.411013 Si / 1000 Ang^3
#
#
#
# Elastic Constant Matrix: (Units=GPa)
#
#
# Indices 1 2 3 4 5 6 
#
# 1 68.6050 19.1425 1.6575 0.0000 -13.8750 0.0000
# 2 19.1425 73.4357 -6.2679 0.0000 -4.8347 0.0000
# 3 1.6575 -6.2679 46.6759 0.0000 -16.4882 0.0000
# 4 0.0000 0.0000 0.0000 32.4559 0.0000 5.4267
# 5 -13.8750 -4.8347 -16.4882 0.0000 27.4528 0.0000
# 6 0.0000 0.0000 0.0000 5.4267 0.0000 22.3572
#
#
#
# Elastic Compliance Matrix: (Units=1/GPa)
#
#
# Indices 1 2 3 4 5 6 
#
# 1 0.017493 -0.003741 0.002243 0.000000 0.009529 0.000000
# 2 -0.003741 0.015026 0.003068 0.000000 0.002598 0.000000
# 3 0.002243 0.003068 0.028366 0.000000 0.018711 0.000000
# 4 0.000000 0.000000 0.000000 0.032114 0.000000 -0.007795
# 5 0.009529 0.002598 0.018711 0.000000 0.052938 0.000000
# 6 0.000000 0.000000 0.000000 -0.007795 0.000000 0.046620
#
#
# Mechanical properties :
#
#
# Convention : Reuss Voigt Hill
#
# Bulk Modulus (GPa) = 15.61899 24.19788 19.90844
# Shear Modulus (GPa) = 23.72377 28.06548 25.89463
#
# Velocity S-wave (km/s) = 3.41295 3.71214 3.56569
# Velocity P-wave (km/s) = 4.81662 5.50040 5.16983
#
# Compressibility (1/GPa) = 0.06402461
#
# Stress axis : x y z
#
# Youngs Moduli (GPa) = 57.16522 66.55344 35.25318
#
# Poissons Ratio (x) = 0.24899 -0.07906
# Poissons Ratio (y) = 0.21386 -0.10817
# Poissons Ratio (z) = -0.12820 -0.20421
#
# Static dielectric constant tensor:
#      x y z
#    x 1.789890 0.000000 -0.004080 
#    y 0.000000 1.718190 0.000000 
#    z -0.004080 0.000000 1.745150 
# 
# From -- ./inp_files/31036.got.cif
#   From: 2010.05.17/outbox.cif.g08.bks.cpg/sg5_16_cif.got.tgz:31036.got - 2010.06.03 18:56:24.
