data_PCOD9123990
_publ_section_title
;
Structure prediction by ZEFSAII (Michael W. Deem and Ramdas Pophale) SiO2 
 PCOD9123990
Probable space group: C 2
;
_chemical_formula_sum "Si O2"
_cell_formula_units_Z 22
_cell_length_a 21.776272
_cell_length_b 8.486487
_cell_length_c 7.976001
_cell_angle_alpha 90.000000
_cell_angle_beta 133.927092
_cell_angle_gamma 90.000000
_cell_volume 1061.606980
_symmetry_space_group_name_H-M "C 2"
_symmetry_group_IT_number 5
_symmetry_cell_setting 'monoclinic'
loop_
_space_group_symop_operation_xyz
x,y,z
-x,y,-z
1/2+x,1/2+y,z
1/2-x,1/2+y,-z
loop_
_atom_site_type_symbol
_atom_site_label
_atom_site_fract_x
_atom_site_fract_y
_atom_site_fract_z
Si Si1 0.167219 0.278150 0.868377
Si Si2 0.170488 0.603898 0.730840
Si Si3 0.366811 0.624347 0.671938
Si Si4 0.000000 0.787273 0.500000
Si Si5 0.750360 0.332469 0.638522
Si Si6 0.967549 0.077808 0.208578
O O1 0.163264 0.416927 0.727902
O O2 0.084161 0.175414 0.749550
O O3 0.248725 0.163242 0.003432
O O4 0.188253 0.364042 0.086284
O O5 0.083408 0.683132 0.626907
O O6 0.195354 0.681564 0.599501
O O7 0.309745 0.478345 0.507174
O O8 0.307694 0.774426 0.594271
O O9 0.443284 0.648183 0.686617
O O10 0.408081 0.578838 0.930522
O O11 0.016033 0.904730 0.686678
#
# Coordination Sequence:
#
# PCOD9123990 Si02
#       6
#     4   4   4   2   4   4
#     4   9  20  39  61  89 121 156 204 248 307 350
#     4  10  21  39  59  91 121 158 204 254 298 361
#     4  10  20  41  62  87 123 160 206 242 312 360
#     4  12  22  38  60  94 122 156 214 248 308 350
#     4   9  21  39  61  90 118 160 204 246 302 367
#     4  10  21  39  63  87 119 166 196 257 301 365
#
# _framework density 20.723299000000001
#
# number of rings (size 3 to 8) (size 9 to 14) (size 15 to 20)
#    1.091    1.091    1.818    1.091    0.000    2.182 
#    6.545    0.000    0.000    0.000    0.000    0.000 
#    0.000    0.000    0.000    0.000    0.000    0.000 
#
# Total GULP energy -61377.804064 kJ/mol
# GULP energy per Si atom -5579.800369 kJ/mol
# Density = 2.067613 g / cm^3
# Si number density = 20.723299 Si / 1000 Ang^3
#
#
#
# Elastic Constant Matrix: (Units=GPa)
#
#
# Indices 1 2 3 4 5 6 
#
# 1 95.4508 10.6971 43.2477 0.0000 23.2404 0.0000
# 2 10.6971 48.2702 32.0066 0.0000 7.7928 0.0000
# 3 43.2477 32.0066 71.1950 0.0000 19.9241 0.0000
# 4 0.0000 0.0000 0.0000 30.6905 0.0000 2.7304
# 5 23.2404 7.7928 19.9241 0.0000 43.6167 0.0000
# 6 0.0000 0.0000 0.0000 2.7304 0.0000 38.6349
#
#
#
# Elastic Compliance Matrix: (Units=1/GPa)
#
#
# Indices 1 2 3 4 5 6 
#
# 1 0.015666 0.003890 -0.010015 0.000000 -0.004468 0.000000
# 2 0.003890 0.030512 -0.016023 0.000000 -0.000205 0.000000
# 3 -0.010015 -0.016023 0.028708 0.000000 -0.004915 0.000000
# 4 0.000000 0.000000 0.000000 0.032790 0.000000 -0.002317
# 5 -0.004468 -0.000205 -0.004915 0.000000 0.027589 0.000000
# 6 0.000000 0.000000 0.000000 -0.002317 0.000000 0.026047
#
#
# Mechanical properties :
#
#
# Convention : Reuss Voigt Hill
#
# Bulk Modulus (GPa) = 32.68922 42.97986 37.83454
# Shear Modulus (GPa) = 23.16910 31.18606 27.17758
#
# Velocity S-wave (km/s) = 3.34731 3.88349 3.62532
# Velocity P-wave (km/s) = 5.54506 6.39480 5.98503
#
# Compressibility (1/GPa) = 0.03059113
#
# Stress axis : x y z
#
# Youngs Moduli (GPa) = 63.83206 32.77398 34.83310
#
# Poissons Ratio (x) = -0.12750 0.34886
# Poissons Ratio (y) = -0.24832 0.55812
# Poissons Ratio (z) = 0.63928 0.52513
#
# Static dielectric constant tensor:
#      x y z
#    x 1.748510 0.000000 -0.027810 
#    y 0.000000 1.689840 0.000000 
#    z -0.027810 0.000000 1.770290 
# 
# From -- ./inp_files/26271.got.cif
#   From: 2010.05.17/outbox.cif.g08.bks.cpg/sg5_14_cif.got.tgz:26271.got - 2010.06.03 18:56:24.
