data_PCOD9123608
_publ_section_title
;
Structure prediction by ZEFSAII (Michael W. Deem and Ramdas Pophale) SiO2 
 PCOD9123608
Probable space group: C 2
;
_chemical_formula_sum "Si O2"
_cell_formula_units_Z 20
_cell_length_a 11.102366
_cell_length_b 12.096364
_cell_length_c 10.353120
_cell_angle_alpha 90.000000
_cell_angle_beta 139.807600
_cell_angle_gamma 90.000000
_cell_volume 897.307370
_symmetry_space_group_name_H-M "C 2"
_symmetry_group_IT_number 5
_symmetry_cell_setting 'monoclinic'
loop_
_space_group_symop_operation_xyz
x,y,z
-x,y,-z
1/2+x,1/2+y,z
1/2-x,1/2+y,-z
loop_
_atom_site_type_symbol
_atom_site_label
_atom_site_fract_x
_atom_site_fract_y
_atom_site_fract_z
Si Si1 0.788468 0.129830 0.871954
Si Si2 0.726144 0.393438 0.165308
Si Si3 0.610295 0.574390 0.757094
Si Si4 0.091192 0.821701 0.788887
Si Si5 0.757390 0.197150 0.370850
O O1 0.690658 0.245190 0.765666
O O2 0.702923 0.016177 0.749507
O O3 0.793039 0.104323 0.029364
O O4 0.000000 0.137391 0.000000
O O5 0.804402 0.306731 0.328652
O O6 0.500000 0.398248 0.000000
O O7 0.733343 0.347660 0.025241
O O8 0.546931 0.445819 0.706209
O O9 0.423933 0.649241 0.593251
O O10 0.745914 0.605695 0.748137
O O11 0.923925 0.741619 0.702170
#
# Coordination Sequence:
#
# PCOD9123608 Si02
#       5
#     4   4   4   4   4
#     4  10  20  39  63  93 128 165 215 266 314 385
#     4   8  16  34  65  85 115 160 208 253 311 377
#     4  10  22  41  63  95 126 164 218 268 311 388
#     4  10  20  40  63  92 128 165 211 263 314 384
#     4  10  20  42  66  87 129 167 207 269 329 362
#
# _framework density 22.288905
#
# number of rings (size 3 to 8) (size 9 to 14) (size 15 to 20)
#    0.000    2.400    2.000    1.200    0.000    0.000 
#   21.600    0.000    0.000    0.000    0.000    0.000 
#    0.000    0.000    0.000    0.000    0.000    0.000 
#
# Total GULP energy -55696.046050 kJ/mol
# GULP energy per Si atom -5569.604605 kJ/mol
# Density = 2.223817 g / cm^3
# Si number density = 22.288905 Si / 1000 Ang^3
#
#
#
# Elastic Constant Matrix: (Units=GPa)
#
#
# Indices 1 2 3 4 5 6 
#
# 1 56.0647 41.8125 2.1320 0.0000 12.6276 0.0000
# 2 41.8125 204.0511 38.8835 0.0000 25.3271 0.0000
# 3 2.1320 38.8835 49.9007 0.0000 11.6566 0.0000
# 4 0.0000 0.0000 0.0000 36.0606 0.0000 4.0862
# 5 12.6276 25.3271 11.6566 0.0000 18.5453 0.0000
# 6 0.0000 0.0000 0.0000 4.0862 0.0000 10.0697
#
#
#
# Elastic Compliance Matrix: (Units=1/GPa)
#
#
# Indices 1 2 3 4 5 6 
#
# 1 0.023929 -0.004220 0.005539 0.000000 -0.014012 0.000000
# 2 -0.004220 0.007110 -0.004411 0.000000 -0.004065 0.000000
# 3 0.005539 -0.004411 0.026623 0.000000 -0.014481 0.000000
# 4 0.000000 0.000000 0.000000 0.029068 0.000000 -0.011795
# 5 -0.014012 -0.004065 -0.014481 0.000000 0.078117 0.000000
# 6 0.000000 0.000000 0.000000 -0.011795 0.000000 0.104094
#
#
# Mechanical properties :
#
#
# Convention : Reuss Voigt Hill
#
# Bulk Modulus (GPa) = 19.42539 52.85248 36.13894
# Shear Modulus (GPa) = 17.10671 28.08103 22.59387
#
# Velocity S-wave (km/s) = 2.77338 3.55331 3.18729
# Velocity P-wave (km/s) = 4.35772 6.37170 5.45840
#
# Compressibility (1/GPa) = 0.05147901
#
# Stress axis : x y z
#
# Youngs Moduli (GPa) = 41.79067 140.63846 37.56176
#
# Poissons Ratio (x) = 0.59343 -0.20804
# Poissons Ratio (y) = 0.17634 0.16567
# Poissons Ratio (z) = -0.23147 0.62031
#
# Static dielectric constant tensor:
#      x y z
#    x 1.909250 0.000000 -0.007840 
#    y 0.000000 1.854100 0.000000 
#    z -0.007840 0.000000 1.851400 
# 
# From -- ./inp_files/18678.got.cif
#   From: 2010.05.17/outbox.cif.g08.bks.cpg/sg5_10_cif.got.tgz:18678.got - 2010.06.03 18:56:24.
