data_PCOD9123062
_publ_section_title
;
Structure prediction by ZEFSAII (Michael W. Deem and Ramdas Pophale) SiO2 
 PCOD9123062
Probable space group: C 2
;
_chemical_formula_sum "Si O2"
_cell_formula_units_Z 24
_cell_length_a 12.824110
_cell_length_b 14.333242
_cell_length_c 7.276080
_cell_angle_alpha 90.000000
_cell_angle_beta 128.712575
_cell_angle_gamma 90.000000
_cell_volume 1043.582855
_symmetry_space_group_name_H-M "C 2"
_symmetry_group_IT_number 5
_symmetry_cell_setting 'monoclinic'
loop_
_space_group_symop_operation_xyz
x,y,z
-x,y,-z
1/2+x,1/2+y,z
1/2-x,1/2+y,-z
loop_
_atom_site_type_symbol
_atom_site_label
_atom_site_fract_x
_atom_site_fract_y
_atom_site_fract_z
Si Si1 0.953531 0.813410 0.657281
Si Si2 0.805697 0.204787 0.558656
Si Si3 0.384761 0.514138 0.530395
Si Si4 0.536681 0.834966 0.757152
Si Si5 0.119744 0.531606 0.003254
Si Si6 0.216217 0.718117 0.039211
O O1 0.836504 0.736895 0.522426
O O2 0.000000 0.825146 0.500000
O O3 0.908822 0.917165 0.662551
O O4 0.083437 0.779145 0.907168
O O5 0.866512 0.101681 0.648004
O O6 0.777634 0.204231 0.308320
O O7 0.912926 0.284640 0.717965
O O8 0.500000 0.531868 0.500000
O O9 0.245684 0.503010 0.266936
O O10 0.500000 0.834761 0.500000
O O11 0.668632 0.772897 0.939352
O O12 0.563594 0.940162 0.845239
O O13 0.171071 0.614920 0.928489
O O14 0.000000 0.569815 0.000000
#
# Coordination Sequence:
#
# PCOD9123062 Si02
#       6
#     4   4   4   4   4   4
#     4  11  22  36  59  88 114 143 187 239 279 321
#     4  10  20  38  60  82 112 152 189 225 276 340
#     4  10  20  37  61  84 109 150 193 226 271 339
#     4  10  21  36  58  87 115 143 186 238 280 321
#     4  11  21  37  59  83 112 152 190 225 275 339
#     4  10  21  38  59  82 113 152 188 225 277 340
#
# _framework density 22.997696000000001
#
# number of rings (size 3 to 8) (size 9 to 14) (size 15 to 20)
#    0.000    1.667    0.000    8.000    0.000    0.667 
#    0.000    1.667    0.000   13.000    0.000    2.333 
#    0.000    0.000    0.000    0.000    0.000    0.000 
#
# Total GULP energy -67072.674669 kJ/mol
# GULP energy per Si atom -5589.389556 kJ/mol
# Density = 2.294535 g / cm^3
# Si number density = 22.997696 Si / 1000 Ang^3
#
#
#
# Elastic Constant Matrix: (Units=GPa)
#
#
# Indices 1 2 3 4 5 6 
#
# 1 68.0501 24.0103 14.4986 0.0000 27.4007 0.0000
# 2 24.0103 179.1915 35.9243 0.0000 17.2347 0.0000
# 3 14.4986 35.9243 70.5267 0.0000 32.7433 0.0000
# 4 0.0000 0.0000 0.0000 38.5911 0.0000 12.1280
# 5 27.4007 17.2347 32.7433 0.0000 38.4518 0.0000
# 6 0.0000 0.0000 0.0000 12.1280 0.0000 28.5432
#
#
#
# Elastic Compliance Matrix: (Units=1/GPa)
#
#
# Indices 1 2 3 4 5 6 
#
# 1 0.022184 -0.002224 0.005704 0.000000 -0.019669 0.000000
# 2 -0.002224 0.006439 -0.003669 0.000000 0.001823 0.000000
# 3 0.005704 -0.003669 0.026460 0.000000 -0.024952 0.000000
# 4 0.000000 0.000000 0.000000 0.029906 0.000000 -0.012707
# 5 -0.019669 0.001823 -0.024952 0.000000 0.060453 0.000000
# 6 0.000000 0.000000 0.000000 -0.012707 0.000000 0.040434
#
#
# Mechanical properties :
#
#
# Convention : Reuss Voigt Hill
#
# Bulk Modulus (GPa) = 18.28019 51.84830 35.06425
# Shear Modulus (GPa) = 24.45124 37.33957 30.89540
#
# Velocity S-wave (km/s) = 3.26422 4.03379 3.66924
# Velocity P-wave (km/s) = 4.70880 6.65502 5.76463
#
# Compressibility (1/GPa) = 0.05470402
#
# Stress axis : x y z
#
# Youngs Moduli (GPa) = 45.07693 155.30696 37.79347
#
# Poissons Ratio (x) = 0.34546 -0.21558
# Poissons Ratio (y) = 0.10027 0.13867
# Poissons Ratio (z) = -0.25712 0.56983
#
# Static dielectric constant tensor:
#      x y z
#    x 1.884780 0.000000 -0.013290 
#    y 0.000000 1.920800 0.000000 
#    z -0.013290 0.000000 1.919850 
# 
# From -- ./inp_files/24740.got.cif
#   From: 2010.05.17/outbox.cif.g08.bks.cpg/sg5_13_cif.got.tgz:24740.got - 2010.06.03 18:56:24.
