data_PCOD9123048
_publ_section_title
;
Structure prediction by ZEFSAII (Michael W. Deem and Ramdas Pophale) SiO2 
 PCOD9123048
Probable space group: C 2
;
_chemical_formula_sum "Si O2"
_cell_formula_units_Z 24
_cell_length_a 15.955326
_cell_length_b 12.335632
_cell_length_c 5.538113
_cell_angle_alpha 90.000000
_cell_angle_beta 81.849134
_cell_angle_gamma 90.000000
_cell_volume 1078.994982
_symmetry_space_group_name_H-M "C 2"
_symmetry_group_IT_number 5
_symmetry_cell_setting 'monoclinic'
loop_
_space_group_symop_operation_xyz
x,y,z
-x,y,-z
1/2+x,1/2+y,z
1/2-x,1/2+y,-z
loop_
_atom_site_type_symbol
_atom_site_label
_atom_site_fract_x
_atom_site_fract_y
_atom_site_fract_z
Si Si1 0.156509 0.403350 0.671115
Si Si2 0.918526 0.705940 0.659340
Si Si3 0.601818 0.399795 0.982150
Si Si4 0.727757 0.563561 0.114665
Si Si5 0.280552 0.257944 0.379485
Si Si6 0.391114 0.984675 0.814284
O O1 0.231039 0.491261 0.688079
O O2 0.208854 0.294689 0.596499
O O3 0.105850 0.426196 0.444631
O O4 0.102938 0.414615 0.941849
O O5 0.883747 0.797259 0.847729
O O6 0.851259 0.684710 0.477731
O O7 0.945124 0.594794 0.779061
O O8 0.000000 0.754793 0.500000
O O9 0.639851 0.510365 0.074010
O O10 0.500000 0.406849 0.000000
O O11 0.663128 0.359778 0.738701
O O12 0.734790 0.687738 0.191141
O O13 0.796425 0.535787 0.880584
#
# Coordination Sequence:
#
# PCOD9123048 Si02
#       6
#     4   4   4   4   4   4
#     4  10  20  37  60  86 128 171 226 281 326 383
#     4  12  22  35  62  99 140 179 214 290 359 408
#     4  12  23  38  60 102 149 175 217 293 353 408
#     4  10  22  36  62  93 136 177 229 269 339 407
#     4  12  21  38  63  95 136 184 231 272 343 416
#     4  10  20  38  57  92 133 170 227 277 333 404
#
# _framework density 22.242920000000002
#
# number of rings (size 3 to 8) (size 9 to 14) (size 15 to 20)
#    1.000    0.000    8.333    0.000    0.000    0.000 
#    0.000    0.000    0.000    0.000    4.333    1.167 
#   10.000    0.000    0.000    0.000    0.000    0.000 
#
# Total GULP energy -66836.683537 kJ/mol
# GULP energy per Si atom -5569.723628 kJ/mol
# Density = 2.219229 g / cm^3
# Si number density = 22.242920 Si / 1000 Ang^3
#
#
#
# Elastic Constant Matrix: (Units=GPa)
#
#
# Indices 1 2 3 4 5 6 
#
# 1 60.4165 38.6836 27.2604 0.0000 8.0414 0.0000
# 2 38.6836 43.2292 17.5186 0.0000 7.3456 0.0000
# 3 27.2604 17.5186 124.6022 0.0000 2.3316 0.0000
# 4 0.0000 0.0000 0.0000 34.8736 0.0000 -0.4095
# 5 8.0414 7.3456 2.3316 0.0000 24.8202 0.0000
# 6 0.0000 0.0000 0.0000 -0.4095 0.0000 29.6782
#
#
#
# Elastic Compliance Matrix: (Units=1/GPa)
#
#
# Indices 1 2 3 4 5 6 
#
# 1 0.040718 -0.034354 -0.004029 0.000000 -0.002646 0.000000
# 2 -0.034354 0.054773 -0.000090 0.000000 -0.005071 0.000000
# 3 -0.004029 -0.000090 0.008910 0.000000 0.000495 0.000000
# 4 0.000000 0.000000 0.000000 0.028680 0.000000 0.000396
# 5 -0.002646 -0.005071 0.000495 0.000000 0.042602 0.000000
# 6 0.000000 0.000000 0.000000 0.000396 0.000000 0.033700
#
#
# Mechanical properties :
#
#
# Convention : Reuss Voigt Hill
#
# Bulk Modulus (GPa) = 36.42286 43.90813 40.16550
# Shear Modulus (GPa) = 16.92157 27.52674 22.22416
#
# Velocity S-wave (km/s) = 2.76118 3.52170 3.16437
# Velocity P-wave (km/s) = 5.15520 6.02658 5.60784
#
# Compressibility (1/GPa) = 0.02745528
#
# Stress axis : x y z
#
# Youngs Moduli (GPa) = 24.55895 18.25724 112.22944
#
# Poissons Ratio (x) = 0.62722 0.45214
# Poissons Ratio (y) = 0.84371 0.01009
# Poissons Ratio (z) = 0.09894 0.00164
#
# Static dielectric constant tensor:
#      x y z
#    x 1.814280 0.000000 0.018550 
#    y 0.000000 1.857620 0.000000 
#    z 0.018550 0.000000 1.926380 
# 
# From -- ./inp_files/6879.got.cif
#   From: 2010.05.17/outbox.cif.g08.bks.cpg/sg5_4_cif.got.tgz:6879.got - 2010.06.03 18:56:24.
