data_PCOD9123180
_publ_section_title
;
Structure prediction by ZEFSAII (Michael W. Deem and Ramdas Pophale) SiO2 
 PCOD9123180
Probable space group: C 2
;
_chemical_formula_sum "Si O2"
_cell_formula_units_Z 26
_cell_length_a 11.855970
_cell_length_b 11.469403
_cell_length_c 9.644046
_cell_angle_alpha 90.000000
_cell_angle_beta 98.273995
_cell_angle_gamma 90.000000
_cell_volume 1297.755880
_symmetry_space_group_name_H-M "C 2"
_symmetry_group_IT_number 5
_symmetry_cell_setting 'monoclinic'
loop_
_space_group_symop_operation_xyz
x,y,z
-x,y,-z
1/2+x,1/2+y,z
1/2-x,1/2+y,-z
loop_
_atom_site_type_symbol
_atom_site_label
_atom_site_fract_x
_atom_site_fract_y
_atom_site_fract_z
Si Si1 0.441713 0.646000 0.201741
Si Si2 0.763064 0.568171 0.993367
Si Si3 0.194911 0.216372 0.218375
Si Si4 0.743936 0.520796 0.453675
Si Si5 0.625500 0.982139 0.250720
Si Si6 0.365217 0.902964 0.231283
Si Si7 0.000000 0.028373 0.500000
O O1 0.566566 0.670905 0.163880
O O2 0.377689 0.768437 0.199942
O O3 0.459982 0.602930 0.361198
O O4 0.360445 0.562374 0.100727
O O5 0.767428 0.679542 0.096817
O O6 0.787867 0.463059 0.101938
O O7 0.851082 0.556764 0.882739
O O8 0.183847 0.353740 0.242640
O O9 0.232016 0.138885 0.358524
O O10 0.814949 0.539563 0.605955
O O11 0.811196 0.429586 0.370236
O O12 0.617871 0.471807 0.468428
O O13 0.491807 0.958580 0.248118
#
# Coordination Sequence:
#
# PCOD9123180 Si02
#       7
#     4   4   4   4   4   4   2
#     4  10  20  37  65  87 116 156 211 254 292 352
#     4  11  20  36  58  88 124 152 194 255 306 349
#     4   9  22  38  60  91 119 156 214 252 292 364
#     4  10  21  37  63  90 123 152 205 256 308 353
#     4  11  21  38  65  87 122 163 205 252 302 359
#     4  10  23  37  63  91 118 160 208 248 302 363
#     4  10  20  38  60  92 116 156 200 258 298 360
#
# _framework density 20.034586000000001
#
# number of rings (size 3 to 8) (size 9 to 14) (size 15 to 20)
#    0.000    1.846    1.538    2.308    6.462    2.462 
#    0.000    0.000   16.923   11.077    0.000    0.000 
#    0.000    0.000    0.000    0.000    0.000    0.000 
#
# Total GULP energy -72547.675447 kJ/mol
# GULP energy per Si atom -5580.590419 kJ/mol
# Density = 1.998899 g / cm^3
# Si number density = 20.034586 Si / 1000 Ang^3
#
#
#
# Elastic Constant Matrix: (Units=GPa)
#
#
# Indices 1 2 3 4 5 6 
#
# 1 75.3840 39.2868 38.3029 0.0000 -16.1922 0.0000
# 2 39.2868 48.3857 23.9911 0.0000 -2.3332 0.0000
# 3 38.3029 23.9911 121.5164 0.0000 -8.7077 0.0000
# 4 0.0000 0.0000 0.0000 11.6034 0.0000 2.7289
# 5 -16.1922 -2.3332 -8.7077 0.0000 43.8670 0.0000
# 6 0.0000 0.0000 0.0000 2.7289 0.0000 27.0996
#
#
#
# Elastic Compliance Matrix: (Units=1/GPa)
#
#
# Indices 1 2 3 4 5 6 
#
# 1 0.027516 -0.019882 -0.004155 0.000000 0.008274 0.000000
# 2 -0.019882 0.037281 -0.001499 0.000000 -0.005654 0.000000
# 3 -0.004155 -0.001499 0.009859 0.000000 0.000344 0.000000
# 4 0.000000 0.000000 0.000000 0.088272 0.000000 -0.008889
# 5 0.008274 -0.005654 0.000344 0.000000 0.025618 0.000000
# 6 0.000000 0.000000 0.000000 -0.008889 0.000000 0.037796
#
#
# Mechanical properties :
#
#
# Convention : Reuss Voigt Hill
#
# Bulk Modulus (GPa) = 42.39990 49.82750 46.11370
# Shear Modulus (GPa) = 17.52696 26.09436 21.81066
#
# Velocity S-wave (km/s) = 2.96097 3.61288 3.30305
# Velocity P-wave (km/s) = 5.73577 6.50605 6.13301
#
# Compressibility (1/GPa) = 0.02358496
#
# Stress axis : x y z
#
# Youngs Moduli (GPa) = 36.34312 26.82327 101.42538
#
# Poissons Ratio (x) = 0.53331 0.42140
# Poissons Ratio (y) = 0.72258 0.15199
# Poissons Ratio (z) = 0.15100 0.04020
#
# Static dielectric constant tensor:
#      x y z
#    x 1.734470 0.000000 -0.025700 
#    y 0.000000 1.703790 0.000000 
#    z -0.025700 0.000000 1.738370 
# 
# From -- ./inp_files/19379.got.cif
#   From: 2010.05.17/outbox.cif.g08.bks.cpg/sg5_10_cif.got.tgz:19379.got - 2010.06.03 18:56:24.
