data_PCOD9123568
_publ_section_title
;
Structure prediction by ZEFSAII (Michael W. Deem and Ramdas Pophale) SiO2 
 PCOD9123568
Probable space group: C 2
;
_chemical_formula_sum "Si O2"
_cell_formula_units_Z 28
_cell_length_a 13.101892
_cell_length_b 5.610752
_cell_length_c 16.484441
_cell_angle_alpha 90.000000
_cell_angle_beta 70.242910
_cell_angle_gamma 90.000000
_cell_volume 1140.462120
_symmetry_space_group_name_H-M "C 2"
_symmetry_group_IT_number 5
_symmetry_cell_setting 'monoclinic'
loop_
_space_group_symop_operation_xyz
x,y,z
-x,y,-z
1/2+x,1/2+y,z
1/2-x,1/2+y,-z
loop_
_atom_site_type_symbol
_atom_site_label
_atom_site_fract_x
_atom_site_fract_y
_atom_site_fract_z
Si Si1 0.124757 0.798610 0.186544
Si Si2 0.484875 0.628101 0.918116
Si Si3 0.607004 0.212031 0.507139
Si Si4 0.037679 0.097978 0.359689
Si Si5 0.553822 0.909127 0.755100
Si Si6 0.213607 0.390149 0.974749
Si Si7 0.745803 0.557898 0.381779
O O1 0.057632 0.556260 0.206459
O O2 0.076953 0.947422 0.124095
O O3 0.098081 0.933572 0.276317
O O4 0.248351 0.802862 0.124363
O O5 0.564255 0.741478 0.830056
O O6 0.410529 0.843690 0.971141
O O7 0.500000 0.495977 0.000000
O O8 0.500000 0.078127 0.500000
O O9 0.545532 0.437506 0.566503
O O10 0.686132 0.305465 0.415052
O O11 0.688707 0.115451 0.553490
O O12 0.138889 0.206165 0.383672
O O13 0.965620 0.271367 0.324286
O O14 0.661661 0.061934 0.711396
O O15 0.236322 0.669456 0.984439
#
# Coordination Sequence:
#
# PCOD9123568 Si02
#       7
#     4   4   4   4   4   4   4
#     4  10  21  42  61  88 132 174 220 289 340 400
#     4  10  23  40  60  94 129 176 227 285 338 414
#     4  10  22  42  66  98 140 169 218 273 329 415
#     4  10  23  43  64  96 137 170 221 280 332 409
#     4  11  22  43  65  96 133 171 227 284 336 405
#     4  10  20  39  61  87 125 176 223 276 353 406
#     4  11  23  41  68 102 129 180 219 269 344 410
#
# _framework density 24.551449999999999
#
# number of rings (size 3 to 8) (size 9 to 14) (size 15 to 20)
#    0.000    1.714    2.857    0.857    2.000    1.714 
#    5.143    0.000    0.000    0.000    0.000    0.000 
#    0.000    0.000    0.000    0.000    0.000    0.000 
#
# Total GULP energy -77957.303647 kJ/mol
# GULP energy per Si atom -5568.378832 kJ/mol
# Density = 2.449557 g / cm^3
# Si number density = 24.551450 Si / 1000 Ang^3
#
#
#
# Elastic Constant Matrix: (Units=GPa)
#
#
# Indices 1 2 3 4 5 6 
#
# 1 150.7199 26.3818 12.5881 0.0000 30.4174 -0.0001
# 2 26.3818 45.2755 12.7511 -0.0002 3.8359 -0.0002
# 3 12.5881 12.7511 96.5048 0.0000 11.4887 0.0000
# 4 0.0000 -0.0002 0.0000 43.9420 0.0000 -8.1933
# 5 30.4174 3.8359 11.4887 0.0000 31.7465 -0.0001
# 6 -0.0001 -0.0002 0.0000 -8.1933 -0.0001 13.0415
#
#
#
# Elastic Compliance Matrix: (Units=1/GPa)
#
#
# Indices 1 2 3 4 5 6 
#
# 1 0.009101 -0.004719 0.000425 0.000000 -0.008304 0.000000
# 2 -0.004719 0.025481 -0.003055 0.000000 0.002548 0.000001
# 3 0.000425 -0.003055 0.011197 0.000000 -0.004090 0.000000
# 4 0.000000 0.000000 0.000000 0.025777 0.000000 0.016194
# 5 -0.008304 0.002548 -0.004090 0.000000 0.040628 0.000000
# 6 0.000000 0.000001 0.000000 0.016194 0.000000 0.086852
#
#
# Mechanical properties :
#
#
# Convention : Reuss Voigt Hill
#
# Bulk Modulus (GPa) = 32.17323 43.99357 38.08340
# Shear Modulus (GPa) = 22.31196 33.79796 28.05496
#
# Velocity S-wave (km/s) = 3.01787 3.71431 3.38405
# Velocity P-wave (km/s) = 5.02755 6.02931 5.55107
#
# Compressibility (1/GPa) = 0.03108174
#
# Stress axis : x y z
#
# Youngs Moduli (GPa) = 109.87543 39.24442 89.30734
#
# Poissons Ratio (x) = 0.18521 -0.03795
# Poissons Ratio (y) = 0.51855 0.27280
# Poissons Ratio (z) = -0.04669 0.11988
#
# Static dielectric constant tensor:
#      x y z
#    x 2.147130 0.000000 0.031490 
#    y 0.000000 1.983760 0.000000 
#    z 0.031490 0.000000 2.082450 
# 
# From -- ./inp_files/61173.got.cif
#   From: 2010.05.17/outbox.cif.g08.bks.cpg/sg5_31_cif.got.tgz:61173.got - 2010.06.03 18:56:24.
