data_PCOD9123548
_publ_section_title
;
Structure prediction by ZEFSAII (Michael W. Deem and Ramdas Pophale) SiO2 
 PCOD9123548
Probable space group: C 2
;
_chemical_formula_sum "Si O2"
_cell_formula_units_Z 20
_cell_length_a 24.843721
_cell_length_b 5.066895
_cell_length_c 13.050899
_cell_angle_alpha 90.000000
_cell_angle_beta 29.805390
_cell_angle_gamma 90.000000
_cell_volume 816.589782
_symmetry_space_group_name_H-M "C 2"
_symmetry_group_IT_number 5
_symmetry_cell_setting 'monoclinic'
loop_
_space_group_symop_operation_xyz
x,y,z
-x,y,-z
1/2+x,1/2+y,z
1/2-x,1/2+y,-z
loop_
_atom_site_type_symbol
_atom_site_label
_atom_site_fract_x
_atom_site_fract_y
_atom_site_fract_z
Si Si1 0.069964 0.796230 0.155857
Si Si2 0.691091 0.794897 0.954087
Si Si3 0.351431 0.132238 0.418700
Si Si4 0.380418 0.633366 0.237868
Si Si5 0.885042 0.542023 0.719245
O O1 0.156939 0.581271 0.968730
O O2 0.082791 0.778332 0.256815
O O3 0.950071 0.704764 0.328418
O O4 0.101482 0.084552 0.067851
O O5 0.676357 0.844800 0.102086
O O6 0.807355 0.653962 0.759586
O O7 0.372421 0.332201 0.288969
O O8 0.226205 0.180258 0.656675
O O9 0.362848 0.833361 0.361525
O O10 0.500000 0.684641 0.000000
O O11 0.000000 0.420087 0.500000
#
# Coordination Sequence:
#
# PCOD9123548 Si02
#       5
#     4   4   4   4   4
#     4  10  20  39  57  84 120 147 192 240 280 329
#     4  10  20  39  55  81 118 150 193 236 282 329
#     4  10  21  39  60  87 119 147 186 245 277 341
#     4  10  21  40  64  83 116 153 186 228 300 345
#     4  10  21  39  60  79 118 157 193 231 287 330
#
# _framework density 24.492099
#
# number of rings (size 3 to 8) (size 9 to 14) (size 15 to 20)
#    1.200    0.800    2.000    1.800    0.000    0.800 
#    7.200    0.000    0.000    0.000    0.000    0.000 
#    0.000    0.000    0.000    0.000    0.000    0.000 
#
# Total GULP energy -55775.127714 kJ/mol
# GULP energy per Si atom -5577.512771 kJ/mol
# Density = 2.443635 g / cm^3
# Si number density = 24.492099 Si / 1000 Ang^3
#
#
#
# Elastic Constant Matrix: (Units=GPa)
#
#
# Indices 1 2 3 4 5 6 
#
# 1 51.4897 3.0397 35.4393 -0.0002 -37.2374 0.0002
# 2 3.0397 85.4008 -2.6268 -0.0056 -7.7585 -0.0018
# 3 35.4393 -2.6268 170.6705 -0.0020 -36.2827 -0.0004
# 4 -0.0002 -0.0056 -0.0020 26.4510 -0.0004 -8.0064
# 5 -37.2374 -7.7585 -36.2827 -0.0004 44.7287 0.0002
# 6 0.0002 -0.0018 -0.0004 -8.0064 0.0002 20.7012
#
#
#
# Elastic Compliance Matrix: (Units=1/GPa)
#
#
# Indices 1 2 3 4 5 6 
#
# 1 0.049552 0.001833 -0.001720 0.000001 0.040176 0.000000
# 2 0.001833 0.012045 0.000693 0.000003 0.004177 0.000002
# 3 -0.001720 0.000693 0.007188 0.000001 0.004518 0.000001
# 4 0.000001 0.000003 0.000001 0.042818 0.000002 0.016561
# 5 0.040176 0.004177 0.004518 0.000002 0.060194 0.000000
# 6 0.000000 0.000002 0.000001 0.016561 0.000000 0.054711
#
#
# Mechanical properties :
#
#
# Convention : Reuss Voigt Hill
#
# Bulk Modulus (GPa) = 14.20525 42.14059 28.17292
# Shear Modulus (GPa) = 20.13185 36.49008 28.31097
#
# Velocity S-wave (km/s) = 2.87012 3.86407 3.40357
# Velocity P-wave (km/s) = 4.09829 6.09518 5.19361
#
# Compressibility (1/GPa) = 0.07039650
#
# Stress axis : x y z
#
# Youngs Moduli (GPa) = 20.18074 83.02149 139.12656
#
# Poissons Ratio (x) = -0.15220 0.23933
# Poissons Ratio (y) = -0.03700 -0.09639
# Poissons Ratio (z) = 0.03472 -0.05752
#
# Static dielectric constant tensor:
#      x y z
#    x 2.005800 0.000000 0.025330 
#    y 0.000000 1.860090 0.000000 
#    z 0.025330 0.000000 1.989100 
# 
# From -- ./inp_files/51915.got.cif
#   From: 2010.05.17/outbox.cif.g08.bks.cpg/sg5_26_cif.got.tgz:51915.got - 2010.06.03 18:56:24.
