data_PCOD9123507
_publ_section_title
;
Structure prediction by ZEFSAII (Michael W. Deem and Ramdas Pophale) SiO2 
 PCOD9123507
Probable space group: C 2
;
_chemical_formula_sum "Si O2"
_cell_formula_units_Z 26
_cell_length_a 9.401373
_cell_length_b 19.463101
_cell_length_c 8.505631
_cell_angle_alpha 90.000000
_cell_angle_beta 53.103319
_cell_angle_gamma 90.000000
_cell_volume 1244.650764
_symmetry_space_group_name_H-M "C 2"
_symmetry_group_IT_number 5
_symmetry_cell_setting 'monoclinic'
loop_
_space_group_symop_operation_xyz
x,y,z
-x,y,-z
1/2+x,1/2+y,z
1/2-x,1/2+y,-z
loop_
_atom_site_type_symbol
_atom_site_label
_atom_site_fract_x
_atom_site_fract_y
_atom_site_fract_z
Si Si1 0.427348 0.131570 0.882658
Si Si2 0.705082 0.940716 0.417093
Si Si3 0.184370 0.076155 0.790368
Si Si4 0.500000 0.369902 0.000000
Si Si5 0.822228 0.697522 0.513263
Si Si6 0.354261 0.823923 0.315773
Si Si7 0.256312 0.779267 0.025536
O O1 0.331585 0.077919 0.831123
O O2 0.605662 0.156216 0.680087
O O3 0.295712 0.199193 0.971422
O O4 0.500000 0.106132 0.000000
O O5 0.500000 0.934513 0.500000
O O6 0.704838 0.897732 0.580155
O O7 0.760424 0.020476 0.376237
O O8 0.845576 0.910782 0.196035
O O9 0.190426 0.150726 0.703685
O O10 0.000000 0.063312 0.000000
O O11 0.404523 0.322548 0.936078
O O12 0.737817 0.767693 0.513026
O O13 0.000000 0.708793 0.500000
O O14 0.284978 0.800669 0.189124
O O15 0.563083 0.806639 0.175470
#
# Coordination Sequence:
#
# PCOD9123507 Si02
#       7
#     4   4   4   2   4   4   4
#     4  11  22  39  69 105 135 174 227 292 348 409
#     4  12  25  44  68 100 137 190 230 281 349 419
#     4  11  23  46  71  95 137 188 231 281 352 415
#     4  12  24  42  64 100 142 178 228 286 348 410
#     4  10  20  38  67  99 132 178 224 282 345 407
#     4  11  23  39  68 104 138 181 236 285 343 415
#     4  11  22  41  67 106 138 178 231 296 345 406
#
# _framework density 20.889392999999998
#
# number of rings (size 3 to 8) (size 9 to 14) (size 15 to 20)
#    0.000    0.923    6.154    3.231    0.000    0.000 
#    0.000    5.385    6.769    0.000    0.000    0.000 
#    0.000    0.000    0.000    0.000    0.000    0.000 
#
# Total GULP energy -72521.548676 kJ/mol
# GULP energy per Si atom -5578.580667 kJ/mol
# Density = 2.084185 g / cm^3
# Si number density = 20.889393 Si / 1000 Ang^3
#
#
#
# Elastic Constant Matrix: (Units=GPa)
#
#
# Indices 1 2 3 4 5 6 
#
# 1 51.1613 19.8996 10.1769 0.0000 -8.5457 0.0000
# 2 19.8996 93.8781 20.5949 0.0000 -6.7832 0.0000
# 3 10.1769 20.5949 93.9364 0.0000 -22.5060 0.0000
# 4 0.0000 0.0000 0.0000 16.8833 0.0000 0.8987
# 5 -8.5457 -6.7832 -22.5060 0.0000 24.6874 0.0000
# 6 0.0000 0.0000 0.0000 0.8987 0.0000 22.3474
#
#
#
# Elastic Compliance Matrix: (Units=1/GPa)
#
#
# Indices 1 2 3 4 5 6 
#
# 1 0.022295 -0.004271 0.000114 0.000000 0.006648 0.000000
# 2 -0.004271 0.012031 -0.002223 0.000000 -0.000199 0.000000
# 3 0.000114 -0.002223 0.014053 0.000000 0.012240 0.000000
# 4 0.000000 0.000000 0.000000 0.059357 0.000000 -0.002387
# 5 0.006648 -0.000199 0.012240 0.000000 0.053911 0.000000
# 6 0.000000 0.000000 0.000000 -0.002387 0.000000 0.044844
#
#
# Mechanical properties :
#
#
# Convention : Reuss Voigt Hill
#
# Bulk Modulus (GPa) = 28.07458 37.81318 32.94388
# Shear Modulus (GPa) = 21.63348 25.33723 23.48536
#
# Velocity S-wave (km/s) = 3.22160 3.48648 3.35665
# Velocity P-wave (km/s) = 5.22562 5.86075 5.55227
#
# Compressibility (1/GPa) = 0.03561941
#
# Stress axis : x y z
#
# Youngs Moduli (GPa) = 44.85336 83.12156 71.15907
#
# Poissons Ratio (x) = 0.35497 -0.00808
# Poissons Ratio (y) = 0.19155 0.15816
# Poissons Ratio (z) = -0.00510 0.18475
#
# Static dielectric constant tensor:
#      x y z
#    x 1.773110 0.000000 0.038710 
#    y 0.000000 1.798640 0.000000 
#    z 0.038710 0.000000 1.829080 
# 
# From -- ./inp_files/16767.got.cif
#   From: 2010.05.17/outbox.cif.g08.bks.cpg/sg5_9_cif.got.tgz:16767.got - 2010.06.03 18:56:24.
