data_PCOD9123632
_publ_section_title
;
Structure prediction by ZEFSAII (Michael W. Deem and Ramdas Pophale) SiO2 
 PCOD9123632
Probable space group: C 2
;
_chemical_formula_sum "Si O2"
_cell_formula_units_Z 22
_cell_length_a 13.724187
_cell_length_b 13.158613
_cell_length_c 5.405251
_cell_angle_alpha 90.000000
_cell_angle_beta 91.276678
_cell_angle_gamma 90.000000
_cell_volume 975.898802
_symmetry_space_group_name_H-M "C 2"
_symmetry_group_IT_number 5
_symmetry_cell_setting 'monoclinic'
loop_
_space_group_symop_operation_xyz
x,y,z
-x,y,-z
1/2+x,1/2+y,z
1/2-x,1/2+y,-z
loop_
_atom_site_type_symbol
_atom_site_label
_atom_site_fract_x
_atom_site_fract_y
_atom_site_fract_z
Si Si1 0.798013 0.919150 0.742667
Si Si2 0.363543 0.315491 0.259118
Si Si3 0.000000 0.675235 0.500000
Si Si4 0.897745 0.539980 0.836302
Si Si5 0.271008 0.644893 0.866370
Si Si6 0.116302 0.332642 0.979094
O O1 0.851852 0.885402 0.497508
O O2 0.806357 0.040814 0.751449
O O3 0.845266 0.869473 0.995350
O O4 0.684195 0.881254 0.763452
O O5 0.461978 0.250043 0.285641
O O6 0.279941 0.230875 0.300458
O O7 0.081371 0.597288 0.414581
O O8 0.863146 0.423382 0.818601
O O9 0.814672 0.605525 0.960472
O O10 0.000000 0.541775 0.000000
O O11 0.350309 0.716256 0.000510
O O12 0.000000 0.328771 0.000000
#
# Coordination Sequence:
#
# PCOD9123632 Si02
#       6
#     4   4   2   4   4   4
#     4  10  24  43  66  94 137 173 223 267 334 397
#     4  11  24  41  67  99 127 179 218 277 326 398
#     4  12  22  36  70  96 132 168 230 276 330 388
#     4  10  20  39  64  98 125 166 223 273 327 388
#     4  10  21  43  66  94 136 175 218 275 336 388
#     4   9  20  41  62  97 129 174 221 273 328 395
#
# _framework density 22.543319
#
# number of rings (size 3 to 8) (size 9 to 14) (size 15 to 20)
#    0.000    1.818    1.818    2.182    0.000    7.273 
#    3.273    0.000    0.000    0.000    0.000    0.000 
#    0.000    0.000    0.000    0.000    0.000    0.000 
#
# Total GULP energy -61263.595704 kJ/mol
# GULP energy per Si atom -5569.417791 kJ/mol
# Density = 2.249201 g / cm^3
# Si number density = 22.543319 Si / 1000 Ang^3
#
#
#
# Elastic Constant Matrix: (Units=GPa)
#
#
# Indices 1 2 3 4 5 6 
#
# 1 57.1298 29.1902 2.3154 0.0000 -9.4172 0.0000
# 2 29.1902 201.1383 41.2420 0.0000 -10.7835 0.0000
# 3 2.3154 41.2420 90.2089 0.0000 -7.8613 0.0000
# 4 0.0000 0.0000 0.0000 19.6670 0.0000 -5.2604
# 5 -9.4172 -10.7835 -7.8613 0.0000 27.6605 0.0000
# 6 0.0000 0.0000 0.0000 -5.2604 0.0000 18.7183
#
#
#
# Elastic Compliance Matrix: (Units=1/GPa)
#
#
# Indices 1 2 3 4 5 6 
#
# 1 0.019894 -0.002832 0.001311 0.000000 0.006041 0.000000
# 2 -0.002832 0.005947 -0.002593 0.000000 0.000618 0.000000
# 3 0.001311 -0.002593 0.012497 0.000000 0.002987 0.000000
# 4 0.000000 0.000000 0.000000 0.054979 0.000000 0.015451
# 5 0.006041 0.000618 0.002987 0.000000 0.039299 0.000000
# 6 0.000000 0.000000 0.000000 0.015451 0.000000 0.057766
#
#
# Mechanical properties :
#
#
# Convention : Reuss Voigt Hill
#
# Bulk Modulus (GPa) = 33.21084 54.88582 44.04833
# Shear Modulus (GPa) = 23.96386 31.59112 27.77749
#
# Velocity S-wave (km/s) = 3.26393 3.74752 3.51405
# Velocity P-wave (km/s) = 5.38222 6.56696 6.00388
#
# Compressibility (1/GPa) = 0.03011065
#
# Stress axis : x y z
#
# Youngs Moduli (GPa) = 50.26720 168.14134 80.01706
#
# Poissons Ratio (x) = 0.47616 -0.10487
# Poissons Ratio (y) = 0.14235 0.20745
# Poissons Ratio (z) = -0.06588 0.43591
#
# Static dielectric constant tensor:
#      x y z
#    x 1.964490 0.000000 0.076560 
#    y 0.000000 1.827730 0.000000 
#    z 0.076560 0.000000 1.885120 
# 
# From -- ./inp_files/6595.got.cif
#   From: 2010.05.17/outbox.cif.g08.bks.cpg/sg5_4_cif.got.tgz:6595.got - 2010.06.03 18:56:24.
