data_PCOD9123178
_publ_section_title
;
Structure prediction by ZEFSAII (Michael W. Deem and Ramdas Pophale) SiO2 
 PCOD9123178
Probable space group: C 2
;
_chemical_formula_sum "Si O2"
_cell_formula_units_Z 22
_cell_length_a 19.162641
_cell_length_b 5.861590
_cell_length_c 9.077332
_cell_angle_alpha 90.000000
_cell_angle_beta 90.039407
_cell_angle_gamma 90.000000
_cell_volume 1019.597867
_symmetry_space_group_name_H-M "C 2"
_symmetry_group_IT_number 5
_symmetry_cell_setting 'monoclinic'
loop_
_space_group_symop_operation_xyz
x,y,z
-x,y,-z
1/2+x,1/2+y,z
1/2-x,1/2+y,-z
loop_
_atom_site_type_symbol
_atom_site_label
_atom_site_fract_x
_atom_site_fract_y
_atom_site_fract_z
Si Si1 0.437988 0.818810 0.762021
Si Si2 0.817801 0.268348 0.346911
Si Si3 0.317987 0.509224 0.653053
Si Si4 0.500000 0.139231 0.000000
Si Si5 0.586525 0.138791 0.500228
Si Si6 0.937801 0.959071 0.237781
O O1 0.364297 0.686587 0.747101
O O2 0.500162 0.639194 0.769680
O O3 0.448339 0.964558 0.613524
O O4 0.450227 0.984465 0.898775
O O5 0.749849 0.388595 0.279334
O O6 0.867608 0.474599 0.396118
O O7 0.797172 0.138989 0.500079
O O8 0.864045 0.090773 0.252999
O O9 0.367781 0.303282 0.603419
O O10 0.450082 0.293954 0.100800
O O11 0.551599 0.312758 0.613977
#
# Coordination Sequence:
#
# PCOD9123178 Si02
#       6
#     4   4   4   2   4   4
#     4  11  25  41  67 103 136 179 232 278 345 397
#     4  10  20  37  65 106 140 173 211 276 354 410
#     4  10  20  37  65 106 140 173 211 276 354 410
#     4  12  26  46  60  98 140 190 230 294 328 404
#     4  10  22  39  66 106 135 162 214 286 335 410
#     4  11  25  41  67 103 136 179 232 278 345 397
#
# _framework density 21.577134000000001
#
# number of rings (size 3 to 8) (size 9 to 14) (size 15 to 20)
#    0.000    1.455    1.818    2.727    0.000   17.455 
#    0.000    0.000    0.000    0.000  132.364    0.000 
#    0.000    0.000    0.000    0.000    0.000    0.000 
#
# Total GULP energy -61497.356665 kJ/mol
# GULP energy per Si atom -5590.668788 kJ/mol
# Density = 2.152802 g / cm^3
# Si number density = 21.577134 Si / 1000 Ang^3
#
#
#
# Elastic Constant Matrix: (Units=GPa)
#
#
# Indices 1 2 3 4 5 6 
#
# 1 128.8055 71.4728 67.3480 0.0000 3.8904 0.0000
# 2 71.4728 153.0356 73.3265 0.0000 -0.7006 0.0000
# 3 67.3480 73.3265 113.1746 0.0000 -3.4738 0.0000
# 4 0.0000 0.0000 0.0000 41.8694 0.0000 -0.0253
# 5 3.8904 -0.7006 -3.4738 0.0000 6.1012 0.0000
# 6 0.0000 0.0000 0.0000 -0.0253 0.0000 42.9129
#
#
#
# Elastic Compliance Matrix: (Units=1/GPa)
#
#
# Indices 1 2 3 4 5 6 
#
# 1 0.013118 -0.003282 -0.006054 0.000000 -0.012189 0.000000
# 2 -0.003282 0.010333 -0.004724 0.000000 0.000589 0.000000
# 3 -0.006054 -0.004724 0.015879 0.000000 0.012359 0.000000
# 4 0.000000 0.000000 0.000000 0.023884 0.000000 0.000014
# 5 -0.012189 0.000589 0.012359 0.000000 0.178780 0.000000
# 6 0.000000 0.000000 0.000000 0.000014 0.000000 0.023303
#
#
# Mechanical properties :
#
#
# Convention : Reuss Voigt Hill
#
# Bulk Modulus (GPa) = 89.20370 91.03447 90.11909
# Shear Modulus (GPa) = 16.82626 30.36790 23.59708
#
# Velocity S-wave (km/s) = 2.79555 3.75562 3.31057
# Velocity P-wave (km/s) = 7.20081 7.81589 7.51464
#
# Compressibility (1/GPa) = 0.01121030
#
# Stress axis : x y z
#
# Youngs Moduli (GPa) = 76.22901 96.77491 62.97644
#
# Poissons Ratio (x) = 0.31757 0.38129
# Poissons Ratio (y) = 0.25015 0.29751
# Poissons Ratio (z) = 0.46153 0.45718
#
# Static dielectric constant tensor:
#      x y z
#    x 1.847040 0.000000 0.007440 
#    y 0.000000 1.798640 0.000000 
#    z 0.007440 0.000000 1.757630 
# 
# From -- ./inp_files/28363.got.cif
#   From: 2010.05.17/outbox.cif.g08.bks.cpg/sg5_15_cif.got.tgz:28363.got - 2010.06.03 18:56:24.
