data_PCOD9123438
_publ_section_title
;
Structure prediction by ZEFSAII (Michael W. Deem and Ramdas Pophale) SiO2 
 PCOD9123438
Probable space group: C 2
;
_chemical_formula_sum "Si O2"
_cell_formula_units_Z 30
_cell_length_a 16.414988
_cell_length_b 16.553754
_cell_length_c 11.450851
_cell_angle_alpha 90.000000
_cell_angle_beta 30.978766
_cell_angle_gamma 90.000000
_cell_volume 1601.570963
_symmetry_space_group_name_H-M "C 2"
_symmetry_group_IT_number 5
_symmetry_cell_setting 'monoclinic'
loop_
_space_group_symop_operation_xyz
x,y,z
-x,y,-z
1/2+x,1/2+y,z
1/2-x,1/2+y,-z
loop_
_atom_site_type_symbol
_atom_site_label
_atom_site_fract_x
_atom_site_fract_y
_atom_site_fract_z
Si Si1 0.604962 0.994700 0.549903
Si Si2 0.242695 0.623849 0.698510
Si Si3 0.500000 0.723738 0.500000
Si Si4 0.007166 0.656899 0.789245
Si Si5 0.376195 0.473737 0.050844
Si Si6 0.534547 0.312942 0.323991
Si Si7 0.645572 0.468177 0.553272
Si Si8 0.169409 0.362700 0.156782
O O1 0.726730 0.017109 0.295000
O O2 0.719477 0.960737 0.512489
O O3 0.471659 0.927627 0.685702
O O4 0.522533 0.076680 0.692420
O O5 0.400845 0.668903 0.535941
O O6 0.164323 0.658822 0.676928
O O7 0.280669 0.529939 0.630150
O O8 0.128235 0.640699 0.948364
O O9 0.601410 0.781595 0.293034
O O10 0.982609 0.736337 0.741671
O O11 0.292653 0.395717 0.101086
O O12 0.500000 0.453717 0.000000
O O13 0.489328 0.507507 0.809061
O O14 0.500000 0.291316 0.500000
O O15 0.417187 0.384736 0.424234
O O16 0.715246 0.346176 0.093428
#
# Coordination Sequence:
#
# PCOD9123438 Si02
#       8
#     4   4   2   4   4   4   4   4
#     4  10  20  38  65  90 126 159 218 256 315 377
#     4  10  23  41  65  93 124 162 211 260 316 376
#     4  12  22  36  64  94 124 148 216 268 310 360
#     4  10  23  43  64  90 123 172 209 261 315 378
#     4   9  18  35  60  90 123 161 202 253 306 377
#     4  11  25  43  61  90 131 169 214 257 327 378
#     4   9  22  40  64  90 123 171 202 257 321 380
#     4  11  22  37  59  96 119 164 210 265 311 368
#
# _framework density 18.731608000000001
#
# number of rings (size 3 to 8) (size 9 to 14) (size 15 to 20)
#    0.000    1.867    2.667    0.000    4.667    3.200 
#    4.800    0.000    0.000    0.000    0.000    0.000 
#    0.000    0.000    0.000    0.000    0.000    0.000 
#
# Total GULP energy -83577.702890 kJ/mol
# GULP energy per Si atom -5571.846859 kJ/mol
# Density = 1.868897 g / cm^3
# Si number density = 18.731608 Si / 1000 Ang^3
#
#
#
# Elastic Constant Matrix: (Units=GPa)
#
#
# Indices 1 2 3 4 5 6 
#
# 1 40.5722 46.0809 33.0905 -0.0001 8.0284 -0.0001
# 2 46.0809 86.3276 31.6962 -0.0001 5.4186 0.0000
# 3 33.0905 31.6962 70.8919 -0.0004 8.9705 0.0005
# 4 -0.0001 -0.0001 -0.0004 33.0379 0.0002 4.6586
# 5 8.0284 5.4186 8.9705 0.0002 30.9860 -0.0003
# 6 -0.0001 0.0000 0.0005 4.6586 -0.0003 18.0125
#
#
#
# Elastic Compliance Matrix: (Units=1/GPa)
#
#
# Indices 1 2 3 4 5 6 
#
# 1 0.089196 -0.038486 -0.023204 0.000000 -0.009663 0.000001
# 2 -0.038486 0.030477 0.003893 0.000000 0.003515 0.000000
# 3 -0.023204 0.003893 0.023378 0.000000 -0.001437 -0.000001
# 4 0.000000 0.000000 0.000000 0.031414 0.000000 -0.008125
# 5 -0.009663 0.003515 -0.001437 0.000000 0.034577 0.000001
# 6 0.000001 0.000000 -0.000001 -0.008125 0.000001 0.057618
#
#
# Mechanical properties :
#
#
# Convention : Reuss Voigt Hill
#
# Bulk Modulus (GPa) = 36.42063 46.61411 41.51737
# Shear Modulus (GPa) = 12.77437 22.20222 17.48830
#
# Velocity S-wave (km/s) = 2.61429 3.44653 3.05884
# Velocity P-wave (km/s) = 5.34774 6.38571 5.88964
#
# Compressibility (1/GPa) = 0.02745697
#
# Stress axis : x y z
#
# Youngs Moduli (GPa) = 11.21125 32.81135 42.77436
#
# Poissons Ratio (x) = 1.26277 0.99255
# Poissons Ratio (y) = 0.43147 -0.16651
# Poissons Ratio (z) = 0.26015 -0.12773
#
# Static dielectric constant tensor:
#      x y z
#    x 1.660120 0.000000 0.014980 
#    y 0.000000 1.614850 0.000000 
#    z 0.014980 0.000000 1.723620 
# 
# From -- ./inp_files/44903.got.cif
#   From: 2010.05.17/outbox.cif.g08.bks.cpg/sg5_23_cif.got.tgz:44903.got - 2010.06.03 18:56:24.
