data_PCOD9123760
_publ_section_title
;
Structure prediction by ZEFSAII (Michael W. Deem and Ramdas Pophale) SiO2 
 PCOD9123760
Probable space group: C 2
;
_chemical_formula_sum "Si O2"
_cell_formula_units_Z 28
_cell_length_a 8.648239
_cell_length_b 14.840367
_cell_length_c 9.848945
_cell_angle_alpha 90.000000
_cell_angle_beta 63.722333
_cell_angle_gamma 90.000000
_cell_volume 1133.416106
_symmetry_space_group_name_H-M "C 2"
_symmetry_group_IT_number 5
_symmetry_cell_setting 'monoclinic'
loop_
_space_group_symop_operation_xyz
x,y,z
-x,y,-z
1/2+x,1/2+y,z
1/2-x,1/2+y,-z
loop_
_atom_site_type_symbol
_atom_site_label
_atom_site_fract_x
_atom_site_fract_y
_atom_site_fract_z
Si Si1 0.118368 0.916720 0.084843
Si Si2 0.411874 0.113281 0.691339
Si Si3 0.510702 0.610321 0.789873
Si Si4 0.116532 0.779204 0.690768
Si Si5 0.500000 0.981972 0.500000
Si Si6 0.730345 0.880462 0.585223
Si Si7 0.000000 0.032568 0.500000
Si Si8 0.385355 0.802387 0.835257
O O1 0.026292 0.856166 0.233614
O O2 0.295521 0.869182 0.976305
O O3 0.094715 0.022147 0.122327
O O4 0.000000 0.900392 0.000000
O O5 0.500000 0.106574 0.500000
O O6 0.207771 0.118761 0.765922
O O7 0.516548 0.183770 0.736463
O O8 0.459695 0.009106 0.680567
O O9 0.531518 0.595019 0.618690
O O10 0.411713 0.699589 0.872087
O O11 0.174668 0.792038 0.512150
O O12 0.263859 0.787465 0.747999
O O13 0.667392 0.923747 0.466897
O O14 0.574423 0.839629 0.728922
O O15 0.844946 0.963043 0.593858
#
# Coordination Sequence:
#
# PCOD9123760 Si02
#       8
#     4   4   4   4   2   4   2   4
#     4  10  25  50  70 100 148 197 244 307 375 448
#     4  10  23  36  69 110 140 179 244 304 374 431
#     4  12  26  46  72 109 150 198 251 311 379 443
#     4  11  22  44  70 100 150 186 247 305 367 449
#     4  10  20  40  62 104 134 196 232 295 369 426
#     4  12  23  42  71 106 152 195 243 310 372 436
#     4  12  26  42  72 114 156 196 252 315 365 442
#     4  11  27  44  72 108 143 200 243 312 383 440
#
# _framework density 24.704077000000002
#
# number of rings (size 3 to 8) (size 9 to 14) (size 15 to 20)
#    0.429    0.571    4.286    0.857   11.000    1.143 
#    0.000    3.571    0.000    1.714    0.000    0.000 
#    0.000    0.000    0.000    0.000    0.000    0.000 
#
# Total GULP energy -78093.286220 kJ/mol
# GULP energy per Si atom -5578.091873 kJ/mol
# Density = 2.464785 g / cm^3
# Si number density = 24.704077 Si / 1000 Ang^3
#
#
#
# Elastic Constant Matrix: (Units=GPa)
#
#
# Indices 1 2 3 4 5 6 
#
# 1 79.5552 15.8916 31.1676 0.0000 -17.2250 0.0000
# 2 15.8916 118.0316 38.0346 0.0000 -28.5822 0.0000
# 3 31.1676 38.0346 108.1442 0.0000 -35.7851 0.0000
# 4 0.0000 0.0000 0.0000 27.0357 0.0000 -4.0964
# 5 -17.2250 -28.5822 -35.7851 0.0000 39.7831 0.0000
# 6 0.0000 0.0000 0.0000 -4.0964 0.0000 37.4447
#
#
#
# Elastic Compliance Matrix: (Units=1/GPa)
#
#
# Indices 1 2 3 4 5 6 
#
# 1 0.014524 -0.000148 -0.002973 0.000000 0.003508 0.000000
# 2 -0.000148 0.010473 -0.001669 0.000000 0.005959 0.000000
# 3 -0.002973 -0.001669 0.014050 0.000000 0.010152 0.000000
# 4 0.000000 0.000000 0.000000 0.037612 0.000000 0.004115
# 5 0.003508 0.005959 0.010152 0.000000 0.040068 0.000000
# 6 0.000000 0.000000 0.000000 0.004115 0.000000 0.027156
#
#
# Mechanical properties :
#
#
# Convention : Reuss Voigt Hill
#
# Bulk Modulus (GPa) = 33.93627 52.87985 43.40806
# Shear Modulus (GPa) = 30.62141 35.56185 33.09163
#
# Velocity S-wave (km/s) = 3.52451 3.79821 3.66392
# Velocity P-wave (km/s) = 5.50726 6.37863 5.95889
#
# Compressibility (1/GPa) = 0.02946700
#
# Stress axis : x y z
#
# Youngs Moduli (GPa) = 68.85296 95.48302 71.17484
#
# Poissons Ratio (x) = 0.01413 0.21160
# Poissons Ratio (y) = 0.01019 0.11878
# Poissons Ratio (z) = 0.20470 0.15935
#
# Static dielectric constant tensor:
#      x y z
#    x 2.160350 0.000000 -0.030870 
#    y 0.000000 1.956020 0.000000 
#    z -0.030870 0.000000 2.101140 
# 
# From -- ./inp_files/36335.got.cif
#   From: 2010.05.17/outbox.cif.g08.bks.cpg/sg5_19_cif.got.tgz:36335.got - 2010.06.03 18:56:24.
