data_PCOD9123802
_publ_section_title
;
Structure prediction by ZEFSAII (Michael W. Deem and Ramdas Pophale) SiO2 
 PCOD9123802
Probable space group: C 2
;
_chemical_formula_sum "Si O2"
_cell_formula_units_Z 30
_cell_length_a 13.077651
_cell_length_b 13.465807
_cell_length_c 15.553937
_cell_angle_alpha 90.000000
_cell_angle_beta 26.944646
_cell_angle_gamma 90.000000
_cell_volume 1241.151454
_symmetry_space_group_name_H-M "C 2"
_symmetry_group_IT_number 5
_symmetry_cell_setting 'monoclinic'
loop_
_space_group_symop_operation_xyz
x,y,z
-x,y,-z
1/2+x,1/2+y,z
1/2-x,1/2+y,-z
loop_
_atom_site_type_symbol
_atom_site_label
_atom_site_fract_x
_atom_site_fract_y
_atom_site_fract_z
Si Si1 0.106751 0.055950 0.626573
Si Si2 0.500000 0.019812 0.500000
Si Si3 0.802037 0.857883 0.538083
Si Si4 0.927074 0.660538 0.698852
Si Si5 0.446263 0.976897 0.136037
Si Si6 0.682647 0.672110 0.287950
Si Si7 0.374529 0.873691 0.741032
Si Si8 0.326088 0.533432 0.990061
O O1 0.927683 0.125886 0.714673
O O2 0.350965 0.103669 0.430858
O O3 0.055597 0.043884 0.765415
O O4 0.093791 0.951967 0.588646
O O5 0.514074 0.938350 0.566960
O O6 0.362291 0.101875 0.660992
O O7 0.976640 0.767970 0.397503
O O8 0.725785 0.901900 0.687430
O O9 0.566340 0.835340 0.664243
O O10 0.744900 0.635951 0.909260
O O11 0.351231 0.088385 0.194615
O O12 0.654208 0.995358 0.044466
O O13 0.500000 0.939601 0.000000
O O14 0.500000 0.681389 0.500000
O O15 0.748162 0.782877 0.213437
O O16 0.202697 0.947239 0.918084
#
# Coordination Sequence:
#
# PCOD9123802 Si02
#       8
#     4   2   4   4   4   4   4   4
#     4  12  22  40  67  94 132 173 211 267 330 391
#     4  10  20  40  64  86 126 162 212 270 314 372
#     4  11  23  42  67  91 132 178 213 261 338 387
#     4  11  23  44  65  92 130 173 217 265 327 390
#     4  11  22  41  61  97 140 163 215 283 319 383
#     4  12  21  35  68  97 121 170 220 265 327 377
#     4  10  21  40  65  94 125 171 215 270 322 388
#     4  10  23  43  63  96 135 168 213 271 328 387
#
# _framework density 24.171104
#
# number of rings (size 3 to 8) (size 9 to 14) (size 15 to 20)
#    0.000    1.067    8.667    0.000    0.000    2.133 
#    0.000    4.000    0.000    0.000    0.000    0.000 
#    0.000    0.000    0.000    0.000    0.000    0.000 
#
# Total GULP energy -83767.242962 kJ/mol
# GULP energy per Si atom -5584.482864 kJ/mol
# Density = 2.411609 g / cm^3
# Si number density = 24.171104 Si / 1000 Ang^3
#
#
#
# Elastic Constant Matrix: (Units=GPa)
#
#
# Indices 1 2 3 4 5 6 
#
# 1 74.6106 36.9805 21.7780 -0.0902 28.4072 0.0236
# 2 36.9805 166.9675 50.3742 0.0780 20.1051 -0.0193
# 3 21.7780 50.3742 140.4350 0.0012 50.1510 0.0001
# 4 -0.0902 0.0780 0.0012 126.7219 0.0142 -16.0329
# 5 28.4072 20.1051 50.1510 0.0142 42.8998 -0.0016
# 6 0.0236 -0.0193 0.0001 -16.0329 -0.0016 37.8464
#
#
#
# Elastic Compliance Matrix: (Units=1/GPa)
#
#
# Indices 1 2 3 4 5 6 
#
# 1 0.020347 -0.003752 0.004075 0.000018 -0.016480 -0.000008
# 2 -0.003752 0.007416 -0.002960 -0.000007 0.002469 0.000003
# 3 0.004075 -0.002960 0.013766 0.000006 -0.017404 -0.000002
# 4 0.000018 -0.000007 0.000006 0.008338 -0.000018 0.003532
# 5 -0.016480 0.002469 -0.017404 -0.000018 0.053411 0.000006
# 6 -0.000008 0.000003 -0.000002 0.003532 0.000006 0.027919
#
#
# Mechanical properties :
#
#
# Convention : Reuss Voigt Hill
#
# Bulk Modulus (GPa) = 27.58165 66.69759 47.13962
# Shear Modulus (GPa) = 33.65755 59.68566 46.67160
#
# Velocity S-wave (km/s) = 3.73563 4.97459 4.39895
# Velocity P-wave (km/s) = 5.48109 7.78777 6.73393
#
# Compressibility (1/GPa) = 0.03625598
#
# Stress axis : x y z
#
# Youngs Moduli (GPa) = 49.14638 134.84573 72.64466
#
# Poissons Ratio (x) = 0.50592 -0.29606
# Poissons Ratio (y) = 0.18439 0.21504
# Poissons Ratio (z) = -0.20029 0.39916
#
# Static dielectric constant tensor:
#      x y z
#    x 1.310880 -0.000110 -0.003470 
#    y -0.000110 1.914140 0.000010 
#    z -0.003470 0.000010 1.951090 
# 
# From -- ./inp_files/54773.got.cif
#   From: 2010.05.17/outbox.cif.g08.bks.cpg/sg5_28_cif.got.tgz:54773.got - 2010.06.03 18:56:24.
