data_PCOD9123736
_publ_section_title
;
Structure prediction by ZEFSAII (Michael W. Deem and Ramdas Pophale) SiO2 
 PCOD9123736
Probable space group: C 2
;
_chemical_formula_sum "Si O2"
_cell_formula_units_Z 26
_cell_length_a 20.309615
_cell_length_b 13.356406
_cell_length_c 14.775767
_cell_angle_alpha 90.000000
_cell_angle_beta 17.178796
_cell_angle_gamma 90.000000
_cell_volume 1183.817975
_symmetry_space_group_name_H-M "C 2"
_symmetry_group_IT_number 5
_symmetry_cell_setting 'monoclinic'
loop_
_space_group_symop_operation_xyz
x,y,z
-x,y,-z
1/2+x,1/2+y,z
1/2-x,1/2+y,-z
loop_
_atom_site_type_symbol
_atom_site_label
_atom_site_fract_x
_atom_site_fract_y
_atom_site_fract_z
Si Si1 0.746771 0.982520 0.075323
Si Si2 0.582092 0.036401 0.108225
Si Si3 0.769962 0.925517 0.536195
Si Si4 0.000000 0.655591 0.500000
Si Si5 0.920809 0.726819 0.414082
Si Si6 0.430874 0.776808 0.693410
Si Si7 0.265917 0.114564 0.282442
O O1 0.554780 0.897356 0.322700
O O2 0.762400 0.008260 0.947887
O O3 0.671596 0.081153 0.225630
O O4 0.969467 0.942179 0.830734
O O5 0.416203 0.119602 0.370126
O O6 0.421423 0.947803 0.285002
O O7 0.708422 0.081159 0.855501
O O8 0.763247 0.813206 0.582654
O O9 0.742814 0.013433 0.646719
O O10 0.895183 0.717391 0.555461
O O11 0.177126 0.758148 0.056418
O O12 0.500000 0.754106 0.500000
O O13 0.581359 0.696939 0.548311
O O14 0.500000 0.165640 0.000000
#
# Coordination Sequence:
#
# PCOD9123736 Si02
#       7
#     4   4   4   2   4   4   4
#     4  10  22  39  62  85 124 160 202 253 304 370
#     4  10  21  40  61  88 122 161 205 254 306 361
#     4  10  23  39  59  92 123 162 206 253 306 369
#     4  10  20  40  60  90 120 166 208 246 308 366
#     4  10  22  39  65  89 128 163 207 257 304 377
#     4  11  20  38  62  92 116 158 202 251 307 360
#     4  10  21  37  60  91 124 156 205 256 302 364
#
# _framework density 21.962837
#
# number of rings (size 3 to 8) (size 9 to 14) (size 15 to 20)
#    0.000    1.846    2.308    1.846    0.000    4.923 
#    0.000    7.692    0.000    0.000    0.000    0.000 
#    0.000    0.000    0.000    0.000    0.000    0.000 
#
# Total GULP energy -72476.095301 kJ/mol
# GULP energy per Si atom -5575.084254 kJ/mol
# Density = 2.191285 g / cm^3
# Si number density = 21.962837 Si / 1000 Ang^3
#
#
#
# Elastic Constant Matrix: (Units=GPa)
#
#
# Indices 1 2 3 4 5 6 
#
# 1 56.0962 3.7268 17.6270 0.0013 8.7134 -0.0058
# 2 3.7268 81.6459 7.8909 -0.0012 -11.9194 -0.0017
# 3 17.6270 7.8909 50.4589 0.0054 -10.6261 -0.0012
# 4 0.0013 -0.0012 0.0054 21.5158 -0.0002 -11.7110
# 5 8.7134 -11.9194 -10.6261 -0.0002 30.8538 0.0009
# 6 -0.0058 -0.0017 -0.0012 -11.7110 0.0009 31.1582
#
#
#
# Elastic Compliance Matrix: (Units=1/GPa)
#
#
# Indices 1 2 3 4 5 6 
#
# 1 0.022645 -0.001601 -0.009852 0.000004 -0.010407 0.000006
# 2 -0.001601 0.013145 -0.000358 0.000001 0.005407 0.000001
# 3 -0.009852 -0.000358 0.025739 -0.000008 0.011509 -0.000004
# 4 0.000004 0.000001 -0.000008 0.058431 -0.000004 0.021962
# 5 -0.010407 0.005407 0.011509 -0.000004 0.041402 -0.000004
# 6 0.000006 0.000001 -0.000004 0.021962 -0.000004 0.040349
#
#
# Mechanical properties :
#
#
# Convention : Reuss Voigt Hill
#
# Bulk Modulus (GPa) = 26.37929 27.41004 26.89467
# Shear Modulus (GPa) = 21.01121 27.30266 24.15693
#
# Velocity S-wave (km/s) = 3.09637 3.52963 3.32007
# Velocity P-wave (km/s) = 4.98199 5.39614 5.19320
#
# Compressibility (1/GPa) = 0.03790852
#
# Stress axis : x y z
#
# Youngs Moduli (GPa) = 44.15981 76.07441 38.85116
#
# Poissons Ratio (x) = 0.12177 0.38276
# Poissons Ratio (y) = 0.07069 0.01390
# Poissons Ratio (z) = 0.43506 0.02722
#
# Static dielectric constant tensor:
#      x y z
#    x 1.824600 0.000000 -0.003920 
#    y 0.000000 1.886980 0.000000 
#    z -0.003920 0.000000 1.840020 
# 
# From -- ./inp_files/57091.got.cif
#   From: 2010.05.17/outbox.cif.g08.bks.cpg/sg5_29_cif.got.tgz:57091.got - 2010.06.03 18:56:24.
