data_PCOD9123706
_publ_section_title
;
Structure prediction by ZEFSAII (Michael W. Deem and Ramdas Pophale) SiO2 
 PCOD9123706
Probable space group: C 2
;
_chemical_formula_sum "Si O2"
_cell_formula_units_Z 26
_cell_length_a 16.198680
_cell_length_b 9.517527
_cell_length_c 22.134550
_cell_angle_alpha 90.000000
_cell_angle_beta 160.667126
_cell_angle_gamma 90.000000
_cell_volume 1129.732731
_symmetry_space_group_name_H-M "C 2"
_symmetry_group_IT_number 5
_symmetry_cell_setting 'monoclinic'
loop_
_space_group_symop_operation_xyz
x,y,z
-x,y,-z
1/2+x,1/2+y,z
1/2-x,1/2+y,-z
loop_
_atom_site_type_symbol
_atom_site_label
_atom_site_fract_x
_atom_site_fract_y
_atom_site_fract_z
Si Si1 0.945234 0.754790 0.755873
Si Si2 0.281087 0.842843 0.692598
Si Si3 0.546339 0.476602 0.725992
Si Si4 0.493733 0.031463 0.305293
Si Si5 0.718140 0.728949 0.186226
Si Si6 0.500000 0.622205 0.500000
Si Si7 0.194391 0.270529 0.880906
O O1 0.995649 0.896385 0.753797
O O2 0.040581 0.631457 0.776985
O O3 0.649093 0.723436 0.558065
O O4 0.084162 0.763300 0.916573
O O5 0.396436 0.767722 0.829269
O O6 0.445952 0.807634 0.749264
O O7 0.000000 0.783114 0.500000
O O8 0.222399 0.007568 0.665928
O O9 0.284022 0.491283 0.510162
O O10 0.708916 0.374724 0.795975
O O11 0.664638 0.625315 0.824632
O O12 0.445105 0.124099 0.331766
O O13 0.316319 0.898055 0.173886
O O14 0.500000 0.654595 0.000000
#
# Coordination Sequence:
#
# PCOD9123706 Si02
#       7
#     4   4   4   4   4   2   4
#     4  11  23  41  66  97 129 176 226 275 325 400
#     4  10  20  39  70  93 123 169 220 263 324 388
#     4  11  24  41  68  97 134 178 215 268 347 397
#     4  11  22  45  65  95 132 178 215 271 338 399
#     4  11  24  41  66  95 132 165 217 272 329 387
#     4  10  22  40  68  92 132 166 228 276 322 384
#     4  12  23  42  71  99 131 178 225 272 332 401
#
# _framework density 23.014294
#
# number of rings (size 3 to 8) (size 9 to 14) (size 15 to 20)
#    0.462    0.615    1.538    7.385    2.154    0.000 
#    6.923    0.769    0.000    0.000    0.000    0.000 
#    0.000    0.000    0.000    0.000    0.000    0.000 
#
# Total GULP energy -72516.164123 kJ/mol
# GULP energy per Si atom -5578.166471 kJ/mol
# Density = 2.296191 g / cm^3
# Si number density = 23.014294 Si / 1000 Ang^3
#
#
#
# Elastic Constant Matrix: (Units=GPa)
#
#
# Indices 1 2 3 4 5 6 
#
# 1 51.5399 26.3904 -7.4532 0.0012 3.0311 0.0039
# 2 26.3904 132.9295 12.7639 0.0332 -10.3653 -0.0085
# 3 -7.4532 12.7639 72.2671 0.0309 -12.2072 0.0352
# 4 0.0012 0.0332 0.0309 30.8920 0.0057 -0.2414
# 5 3.0311 -10.3653 -12.2072 0.0057 44.5631 0.0126
# 6 0.0039 -0.0085 0.0352 -0.2414 0.0126 -16.1838
#
#
#
# Elastic Compliance Matrix: (Units=1/GPa)
#
#
# Indices 1 2 3 4 5 6 
#
# 1 0.022420 -0.004872 0.002856 0.000002 -0.001876 0.000013
# 2 -0.004872 0.008805 -0.001736 -0.000008 0.001904 -0.000008
# 3 0.002856 -0.001736 0.015033 -0.000014 0.003520 0.000037
# 4 0.000002 -0.000008 -0.000014 0.032367 -0.000010 -0.000483
# 5 -0.001876 0.001904 0.003520 -0.000010 0.023975 0.000025
# 6 0.000013 -0.000008 0.000037 -0.000483 0.000025 -0.061783
#
#
# Mechanical properties :
#
#
# Convention : Reuss Voigt Hill
#
# Bulk Modulus (GPa) = 25.80303 35.57096 30.68699
# Shear Modulus (GPa) = 81.64695 26.85663 54.25179
#
# Velocity S-wave (km/s) = 5.96269 3.41978 4.86048
# Velocity P-wave (km/s) = 7.65774 5.57519 6.69790
#
# Compressibility (1/GPa) = 0.03875514
#
# Stress axis : x y z
#
# Youngs Moduli (GPa) = 44.60268 113.57090 66.51914
#
# Poissons Ratio (x) = 0.55327 -0.18997
# Poissons Ratio (y) = 0.21728 0.11548
# Poissons Ratio (z) = -0.12738 0.19716
#
# Static dielectric constant tensor:
#      x y z
#    x 1.976060 0.000010 0.047700 
#    y 0.000010 1.855910 0.000000 
#    z 0.047700 0.000000 2.577190 
# 
# From -- ./inp_files/69187.got.cif
#   From: 2010.05.17/outbox.cif.g08.bks.cpg/sg5_35_cif.got.tgz:69187.got - 2010.06.03 18:56:24.
