data_PCOD9123350
_publ_section_title
;
Structure prediction by ZEFSAII (Michael W. Deem and Ramdas Pophale) SiO2 
 PCOD9123350
Probable space group: C 2
;
_chemical_formula_sum "Si O2"
_cell_formula_units_Z 20
_cell_length_a 11.343927
_cell_length_b 11.825751
_cell_length_c 7.633201
_cell_angle_alpha 90.000000
_cell_angle_beta 57.950436
_cell_angle_gamma 90.000000
_cell_volume 867.929307
_symmetry_space_group_name_H-M "C 2"
_symmetry_group_IT_number 5
_symmetry_cell_setting 'monoclinic'
loop_
_space_group_symop_operation_xyz
x,y,z
-x,y,-z
1/2+x,1/2+y,z
1/2-x,1/2+y,-z
loop_
_atom_site_type_symbol
_atom_site_label
_atom_site_fract_x
_atom_site_fract_y
_atom_site_fract_z
Si Si1 0.564391 0.075790 0.757926
Si Si2 0.803330 0.740540 0.589567
Si Si3 0.350634 0.488485 0.675948
Si Si4 0.494620 0.831724 0.217875
Si Si5 0.860439 0.122070 0.996031
O O1 0.581934 0.185442 0.624821
O O2 0.724508 0.039537 0.665705
O O3 0.495648 0.961621 0.730391
O O4 0.500000 0.099908 0.000000
O O5 0.848223 0.855845 0.644822
O O6 0.655295 0.777662 0.616014
O O7 0.758628 0.651693 0.773431
O O8 0.500000 0.533944 0.500000
O O9 0.328516 0.519902 0.894497
O O10 0.608970 0.733588 0.149783
O O11 0.500000 0.845201 0.000000
O O12 0.000000 0.101815 0.000000
#
# Coordination Sequence:
#
# PCOD9123350 Si02
#       5
#     4   4   4   4   4
#     4  10  20  38  62  89 126 164 198 253 318 373
#     4   9  19  36  58  88 123 155 202 261 302 351
#     4  11  22  38  62  91 122 163 208 255 307 367
#     4   7  14  32  58  81 112 156 195 239 300 367
#     4   9  18  38  62  87 123 166 204 248 309 382
#
# _framework density 23.043351000000001
#
# number of rings (size 3 to 8) (size 9 to 14) (size 15 to 20)
#    0.000    3.200    0.000    3.600    0.000    1.600 
#    0.000   13.000    0.000    0.000    0.000    0.000 
#    0.000    0.000    0.000    0.000    0.000    0.000 
#
# Total GULP energy -55827.635124 kJ/mol
# GULP energy per Si atom -5582.763512 kJ/mol
# Density = 2.299090 g / cm^3
# Si number density = 23.043351 Si / 1000 Ang^3
#
#
#
# Elastic Constant Matrix: (Units=GPa)
#
#
# Indices 1 2 3 4 5 6 
#
# 1 50.4509 17.8690 10.1538 0.0000 -12.5229 0.0000
# 2 17.8690 139.0578 59.7138 0.0000 17.8557 0.0000
# 3 10.1538 59.7138 102.4481 0.0000 -12.2359 0.0000
# 4 0.0000 0.0000 0.0000 41.3680 0.0000 5.9536
# 5 -12.5229 17.8557 -12.2359 0.0000 33.4880 0.0000
# 6 0.0000 0.0000 0.0000 5.9536 0.0000 22.6024
#
#
#
# Elastic Compliance Matrix: (Units=1/GPa)
#
#
# Indices 1 2 3 4 5 6 
#
# 1 0.024778 -0.006073 0.002695 0.000000 0.013489 0.000000
# 2 -0.006073 0.013287 -0.008637 0.000000 -0.012512 0.000000
# 3 0.002695 -0.008637 0.015892 0.000000 0.011420 0.000000
# 4 0.000000 0.000000 0.000000 0.025126 0.000000 -0.006618
# 5 0.013489 -0.012512 0.011420 0.000000 0.045749 0.000000
# 6 0.000000 0.000000 0.000000 -0.006618 0.000000 0.045986
#
#
# Mechanical properties :
#
#
# Convention : Reuss Voigt Hill
#
# Bulk Modulus (GPa) = 33.41475 51.93668 42.67572
# Shear Modulus (GPa) = 24.41112 33.10637 28.75875
#
# Velocity S-wave (km/s) = 3.25831 3.79449 3.53658
# Velocity P-wave (km/s) = 5.35609 6.46415 5.93603
#
# Compressibility (1/GPa) = 0.02992690
#
# Stress axis : x y z
#
# Youngs Moduli (GPa) = 40.35823 75.26091 62.92445
#
# Poissons Ratio (x) = 0.45709 -0.16960
# Poissons Ratio (y) = 0.24511 0.54348
# Poissons Ratio (z) = -0.10877 0.65003
#
# Static dielectric constant tensor:
#      x y z
#    x 1.969920 0.000000 -0.022350 
#    y 0.000000 1.906570 0.000000 
#    z -0.022350 0.000000 1.877760 
# 
# From -- ./inp_files/19576.got.cif
#   From: 2010.05.17/outbox.cif.g08.bks.cpg/sg5_10_cif.got.tgz:19576.got - 2010.06.03 18:56:24.
