data_PCOD9123322
_publ_section_title
;
Structure prediction by ZEFSAII (Michael W. Deem and Ramdas Pophale) SiO2 
 PCOD9123322
Probable space group: C 2
;
_chemical_formula_sum "Si O2"
_cell_formula_units_Z 32
_cell_length_a 8.637590
_cell_length_b 20.544626
_cell_length_c 14.496042
_cell_angle_alpha 90.000000
_cell_angle_beta 32.515199
_cell_angle_gamma 90.000000
_cell_volume 1382.730596
_symmetry_space_group_name_H-M "C 2"
_symmetry_group_IT_number 5
_symmetry_cell_setting 'monoclinic'
loop_
_space_group_symop_operation_xyz
x,y,z
-x,y,-z
1/2+x,1/2+y,z
1/2-x,1/2+y,-z
loop_
_atom_site_type_symbol
_atom_site_label
_atom_site_fract_x
_atom_site_fract_y
_atom_site_fract_z
Si Si1 0.792359 0.308490 0.834264
Si Si2 0.074570 0.472355 0.788184
Si Si3 0.776601 0.990292 0.481555
Si Si4 0.150671 0.673720 0.829050
Si Si5 0.290324 0.622225 0.376523
Si Si6 0.373825 0.824549 0.164382
Si Si7 0.175513 0.089224 0.005627
Si Si8 0.214887 0.347591 0.469904
O O1 0.665161 0.250888 0.834251
O O2 0.955856 0.283214 0.843865
O O3 0.038451 0.342033 0.652533
O O4 0.500000 0.349101 0.000000
O O5 0.099055 0.479157 0.665028
O O6 0.385487 0.497637 0.665075
O O7 0.057788 0.398522 0.834125
O O8 0.825173 0.519452 0.949339
O O9 0.761676 0.924462 0.429209
O O10 0.689980 0.055665 0.475186
O O11 0.482141 0.653245 0.666896
O O12 0.940743 0.640816 0.861497
O O13 0.000000 0.649585 0.000000
O O14 0.000000 0.661556 0.500000
O O15 0.464192 0.608416 0.195161
O O16 0.029649 0.817297 0.328114
O O17 0.500000 0.814495 0.000000
O O18 0.000000 0.086298 0.000000
O O19 0.000000 0.320680 0.500000
#
# Coordination Sequence:
#
# PCOD9123322 Si02
#       8
#     4   4   4   4   4   4   4   4
#     4  11  23  46  69  96 134 185 237 290 348 409
#     4  10  21  37  63  98 135 183 213 283 342 420
#     4  10  20  38  61  93 138 175 221 274 340 412
#     4   9  22  44  69  92 130 181 233 289 339 406
#     4  11  22  39  63  96 129 179 224 278 347 405
#     4  11  24  41  69 101 138 184 238 287 356 418
#     4  11  23  41  66 100 138 177 234 283 351 416
#     4  11  23  41  63  97 138 182 229 284 345 412
#
# _framework density 23.142613999999998
#
# number of rings (size 3 to 8) (size 9 to 14) (size 15 to 20)
#    0.000    1.500    2.500    2.250    3.500    1.500 
#    2.250   11.875    0.000    0.000    0.000    0.000 
#    0.000    0.000    0.000    0.000    0.000    0.000 
#
# Total GULP energy -89343.276356 kJ/mol
# GULP energy per Si atom -5583.954772 kJ/mol
# Density = 2.308994 g / cm^3
# Si number density = 23.142614 Si / 1000 Ang^3
#
#
#
# Elastic Constant Matrix: (Units=GPa)
#
#
# Indices 1 2 3 4 5 6 
#
# 1 107.3256 10.5518 50.0120 0.0129 -19.0841 -0.0160
# 2 10.5518 37.8692 3.3078 -0.0007 -15.3384 0.0016
# 3 50.0120 3.3078 134.9099 -0.0237 -31.0197 0.0010
# 4 0.0129 -0.0007 -0.0237 17.2920 -0.0064 -1.5727
# 5 -19.0841 -15.3384 -31.0197 -0.0064 42.4582 0.0123
# 6 -0.0160 0.0016 0.0010 -1.5727 0.0123 12.7405
#
#
#
# Elastic Compliance Matrix: (Units=1/GPa)
#
#
# Indices 1 2 3 4 5 6 
#
# 1 0.011635 -0.002269 -0.003898 -0.000012 0.001562 0.000012
# 2 -0.002269 0.031916 0.002975 0.000010 0.012684 -0.000018
# 3 -0.003898 0.002975 0.010371 0.000019 0.006899 -0.000010
# 4 -0.000012 0.000010 0.000019 0.058487 0.000019 0.007220
# 5 0.001562 0.012684 0.006899 0.000019 0.033877 -0.000031
# 6 0.000012 -0.000018 -0.000010 0.007220 -0.000031 0.079381
#
#
# Mechanical properties :
#
#
# Convention : Reuss Voigt Hill
#
# Bulk Modulus (GPa) = 21.03593 45.31643 33.17618
# Shear Modulus (GPa) = 20.16957 28.91366 24.54162
#
# Velocity S-wave (km/s) = 2.95538 3.53848 3.25999
# Velocity P-wave (km/s) = 4.55578 6.02647 5.34198
#
# Compressibility (1/GPa) = 0.04753771
#
# Stress axis : x y z
#
# Youngs Moduli (GPa) = 85.94902 31.33180 96.42319
#
# Poissons Ratio (x) = 0.07109 0.37589
# Poissons Ratio (y) = 0.19500 -0.28685
# Poissons Ratio (z) = 0.33506 -0.09321
#
# Static dielectric constant tensor:
#      x y z
#    x 1.905970 0.000000 -0.022860 
#    y 0.000000 1.910110 0.000010 
#    z -0.022860 0.000010 1.887260 
# 
# From -- ./inp_files/25679.got.cif
#   From: 2010.05.17/outbox.cif.g08.bks.cpg/sg5_13_cif.got.tgz:25679.got - 2010.06.03 18:56:24.
