data_PCOD9123532
_publ_section_title
;
Structure prediction by ZEFSAII (Michael W. Deem and Ramdas Pophale) SiO2 
 PCOD9123532
Probable space group: C 2
;
_chemical_formula_sum "Si O2"
_cell_formula_units_Z 20
_cell_length_a 15.625873
_cell_length_b 6.721512
_cell_length_c 22.031790
_cell_angle_alpha 90.000000
_cell_angle_beta 158.274090
_cell_angle_gamma 90.000000
_cell_volume 856.561635
_symmetry_space_group_name_H-M "C 2"
_symmetry_group_IT_number 5
_symmetry_cell_setting 'monoclinic'
loop_
_space_group_symop_operation_xyz
x,y,z
-x,y,-z
1/2+x,1/2+y,z
1/2-x,1/2+y,-z
loop_
_atom_site_type_symbol
_atom_site_label
_atom_site_fract_x
_atom_site_fract_y
_atom_site_fract_z
Si Si1 0.238049 0.105760 0.837663
Si Si2 0.500000 0.729135 0.000000
Si Si3 0.450052 0.586455 0.842118
Si Si4 0.555601 0.900329 0.818768
Si Si5 0.500000 0.113130 0.500000
Si Si6 0.073070 0.009392 0.481888
O O1 0.116221 0.228381 0.810217
O O2 0.500000 0.187067 0.000000
O O3 0.082736 0.094169 0.674786
O O4 0.302824 0.876466 0.896248
O O5 0.599379 0.603150 0.119723
O O6 0.457089 0.803016 0.815324
O O7 0.232531 0.491636 0.665030
O O8 0.703979 0.499080 0.004673
O O9 0.348995 0.033357 0.655831
O O10 0.464360 0.268067 0.533117
O O11 0.000000 0.085967 0.500000
#
# Coordination Sequence:
#
# PCOD9123532 Si02
#       6
#     4   2   4   4   2   4
#     4  10  21  40  64  91 129 169 209 257 319 376
#     4  10  20  38  70  86 132 166 204 260 330 364
#     4  11  22  41  64  96 122 173 209 263 317 373
#     4  11  24  38  67  96 129 162 223 254 309 387
#     4   8  16  40  66  84 122 158 214 252 324 364
#     4   9  19  41  63  89 121 175 205 260 320 365
#
# _framework density 23.349167000000001
#
# number of rings (size 3 to 8) (size 9 to 14) (size 15 to 20)
#    1.200    0.800    2.000    1.200    4.200    1.600 
#    0.000    2.000    0.000    0.000    0.000    0.000 
#    0.000    0.000    0.000    0.000    0.000    0.000 
#
# Total GULP energy -55761.657693 kJ/mol
# GULP energy per Si atom -5576.165769 kJ/mol
# Density = 2.329602 g / cm^3
# Si number density = 23.349167 Si / 1000 Ang^3
#
#
#
# Elastic Constant Matrix: (Units=GPa)
#
#
# Indices 1 2 3 4 5 6 
#
# 1 66.2412 6.0301 50.1784 0.0033 -14.5573 -0.0001
# 2 6.0301 39.8579 38.0484 0.0012 -3.9460 0.0002
# 3 50.1784 38.0484 259.9516 0.0088 -8.9097 -0.0004
# 4 0.0033 0.0012 0.0088 25.1089 -0.0006 6.7920
# 5 -14.5573 -3.9460 -8.9097 -0.0006 45.2615 -0.0003
# 6 -0.0001 0.0002 -0.0004 6.7920 -0.0003 22.6932
#
#
#
# Elastic Compliance Matrix: (Units=1/GPa)
#
#
# Indices 1 2 3 4 5 6 
#
# 1 0.018952 0.001149 -0.003639 -0.000001 0.005479 0.000000
# 2 0.001149 0.029366 -0.004450 0.000000 0.002054 0.000000
# 3 -0.003639 -0.004450 0.005182 -0.000001 -0.000538 0.000000
# 4 -0.000001 0.000000 -0.000001 0.043335 0.000000 -0.012970
# 5 0.005479 0.002054 -0.000538 0.000000 0.023929 0.000000
# 6 0.000000 0.000000 0.000000 -0.012970 0.000000 0.047948
#
#
# Mechanical properties :
#
#
# Convention : Reuss Voigt Hill
#
# Bulk Modulus (GPa) = 25.23887 61.61827 43.42857
# Shear Modulus (GPa) = 25.53638 36.73230 31.13434
#
# Velocity S-wave (km/s) = 3.31066 3.97063 3.65557
# Velocity P-wave (km/s) = 5.04448 6.88973 6.03801
#
# Compressibility (1/GPa) = 0.03962142
#
# Stress axis : x y z
#
# Youngs Moduli (GPa) = 52.76410 34.05265 192.97303
#
# Poissons Ratio (x) = -0.03911 0.70217
# Poissons Ratio (y) = -0.06061 0.85865
# Poissons Ratio (z) = 0.19199 0.15152
#
# Static dielectric constant tensor:
#      x y z
#    x 1.845490 0.000000 0.043200 
#    y 0.000000 1.953610 0.000000 
#    z 0.043200 0.000000 1.948450 
# 
# From -- ./inp_files/65946.got.cif
#   From: 2010.05.17/outbox.cif.g08.bks.cpg/sg5_33_cif.got.tgz:65946.got - 2010.06.03 18:56:24.
