data_PCOD9123918
_publ_section_title
;
Structure prediction by ZEFSAII (Michael W. Deem and Ramdas Pophale) SiO2 
 PCOD9123918
Probable space group: C 2
;
_chemical_formula_sum "Si O2"
_cell_formula_units_Z 30
_cell_length_a 8.579291
_cell_length_b 15.261765
_cell_length_c 20.511710
_cell_angle_alpha 90.000000
_cell_angle_beta 150.070962
_cell_angle_gamma 90.000000
_cell_volume 1339.969949
_symmetry_space_group_name_H-M "C 2"
_symmetry_group_IT_number 5
_symmetry_cell_setting 'monoclinic'
loop_
_space_group_symop_operation_xyz
x,y,z
-x,y,-z
1/2+x,1/2+y,z
1/2-x,1/2+y,-z
loop_
_atom_site_type_symbol
_atom_site_label
_atom_site_fract_x
_atom_site_fract_y
_atom_site_fract_z
Si Si1 0.233781 0.189060 0.850827
Si Si2 0.346759 0.521050 0.119221
Si Si3 0.476702 0.353068 0.246685
Si Si4 0.706459 0.482922 0.520032
Si Si5 0.823394 0.502912 0.197113
Si Si6 0.318407 0.851038 0.722401
Si Si7 0.380641 0.176739 0.141347
Si Si8 0.500000 0.970139 0.500000
O O1 0.436125 0.166163 0.860099
O O2 0.986447 0.268264 0.750919
O O3 0.012215 0.106436 0.793348
O O4 0.500000 0.221081 0.000000
O O5 0.336110 0.428264 0.150232
O O6 0.467986 0.513158 0.090019
O O7 0.000000 0.554481 0.000000
O O8 0.275819 0.331370 0.237890
O O9 0.516809 0.264691 0.222119
O O10 0.781505 0.403436 0.381760
O O11 0.500000 0.532820 0.500000
O O12 0.486663 0.397949 0.422530
O O13 0.800086 0.519524 0.483066
O O14 0.021280 0.474090 0.676958
O O15 0.935563 0.593528 0.207668
O O16 0.923213 0.427485 0.184990
O O17 0.000000 0.186684 0.000000
#
# Coordination Sequence:
#
# PCOD9123918 Si02
#       8
#     4   4   4   4   4   4   4   2
#     4  11  24  42  66 102 140 176 226 282 346 418
#     4  11  22  39  66  99 137 177 223 279 336 412
#     4  11  22  41  67  97 136 174 232 274 339 402
#     4   9  20  39  68  93 134 172 235 277 336 397
#     4  11  22  42  67  96 140 178 228 283 337 402
#     4  10  22  40  67  95 135 179 223 285 337 402
#     4  12  25  42  67 102 137 181 226 280 345 414
#     4  10  20  40  68  98 124 184 220 286 332 404
#
# _framework density 22.388560999999999
#
# number of rings (size 3 to 8) (size 9 to 14) (size 15 to 20)
#    0.000    1.333    1.333    5.200    1.867    1.600 
#    3.600    0.000    4.400    0.000    0.000    0.000 
#    0.000    0.000    0.000    0.000    0.000    0.000 
#
# Total GULP energy -83550.187696 kJ/mol
# GULP energy per Si atom -5570.012513 kJ/mol
# Density = 2.233760 g / cm^3
# Si number density = 22.388561 Si / 1000 Ang^3
#
#
#
# Elastic Constant Matrix: (Units=GPa)
#
#
# Indices 1 2 3 4 5 6 
#
# 1 147.8484 14.1629 24.5254 0.0019 -0.5663 -0.0014
# 2 14.1629 87.7210 0.7181 0.0052 -7.4341 0.0034
# 3 24.5254 0.7181 28.1776 0.0141 -0.5078 0.0151
# 4 0.0019 0.0052 0.0141 10.9547 0.0019 -1.6971
# 5 -0.5663 -7.4341 -0.5078 0.0019 29.5536 0.0004
# 6 -0.0014 0.0034 0.0151 -1.6971 0.0004 47.5718
#
#
#
# Elastic Compliance Matrix: (Units=1/GPa)
#
#
# Indices 1 2 3 4 5 6 
#
# 1 0.008040 -0.001265 -0.006971 0.000009 -0.000284 0.000003
# 2 -0.001265 0.011849 0.000853 -0.000007 0.002971 -0.000001
# 3 -0.006971 0.000853 0.041549 -0.000055 0.000795 -0.000015
# 4 0.000009 -0.000007 -0.000055 0.091793 -0.000008 0.003275
# 5 -0.000284 0.002971 0.000795 -0.000008 0.034592 -0.000001
# 6 0.000003 -0.000001 -0.000015 0.003275 -0.000001 0.021138
#
#
# Mechanical properties :
#
#
# Convention : Reuss Voigt Hill
#
# Bulk Modulus (GPa) = 21.42629 38.06219 29.74424
# Shear Modulus (GPa) = 20.89561 32.57206 26.73383
#
# Velocity S-wave (km/s) = 3.05834 3.81839 3.45930
# Velocity P-wave (km/s) = 4.69704 6.03968 5.41018
#
# Compressibility (1/GPa) = 0.04667165
#
# Stress axis : x y z
#
# Youngs Moduli (GPa) = 124.37595 84.39648 24.06782
#
# Poissons Ratio (x) = 0.10677 0.16777
# Poissons Ratio (y) = 0.15735 -0.02052
# Poissons Ratio (z) = 0.86702 -0.07197
#
# Static dielectric constant tensor:
#      x y z
#    x 1.975910 0.000000 -0.138710 
#    y 0.000000 1.792290 0.000000 
#    z -0.138710 0.000000 2.199680 
# 
# From -- ./inp_files/68014.got.cif
#   From: 2010.05.17/outbox.cif.g08.bks.cpg/sg5_35_cif.got.tgz:68014.got - 2010.06.03 18:56:24.
