data_PCOD9123032
_publ_section_title
;
Structure prediction by ZEFSAII (Michael W. Deem and Ramdas Pophale) SiO2 
 PCOD9123032
Probable space group: C 2
;
_chemical_formula_sum "Si O2"
_cell_formula_units_Z 32
_cell_length_a 15.235068
_cell_length_b 21.552520
_cell_length_c 9.159992
_cell_angle_alpha 90.000000
_cell_angle_beta 31.522253
_cell_angle_gamma 90.000000
_cell_volume 1572.525810
_symmetry_space_group_name_H-M "C 2"
_symmetry_group_IT_number 5
_symmetry_cell_setting 'monoclinic'
loop_
_space_group_symop_operation_xyz
x,y,z
-x,y,-z
1/2+x,1/2+y,z
1/2-x,1/2+y,-z
loop_
_atom_site_type_symbol
_atom_site_label
_atom_site_fract_x
_atom_site_fract_y
_atom_site_fract_z
Si Si1 0.315387 0.723300 0.685147
Si Si2 0.013079 0.757108 0.652641
Si Si3 0.089376 0.618379 0.531569
Si Si4 0.916878 0.518490 0.963927
Si Si5 0.601895 0.927818 0.488181
Si Si6 0.392105 0.587401 0.513412
Si Si7 0.320348 0.327447 0.331792
Si Si8 0.873216 0.027794 0.062442
O O1 0.500000 0.730920 0.500000
O O2 0.302199 0.654673 0.627261
O O3 0.276488 0.771176 0.610610
O O4 0.167870 0.740183 0.013646
O O5 0.106442 0.690984 0.528319
O O6 0.121022 0.807258 0.589828
O O7 0.000000 0.773581 0.500000
O O8 0.264151 0.582783 0.287210
O O9 0.000000 0.608517 0.500000
O O10 0.979975 0.584121 0.808541
O O11 0.972907 0.468854 0.765494
O O12 0.726544 0.530818 0.273228
O O13 0.000000 0.504038 0.000000
O O14 0.500000 0.895936 0.500000
O O15 0.702527 0.885292 0.459192
O O16 0.736586 0.974901 0.222441
O O17 0.500000 0.601403 0.500000
O O18 0.516443 0.561348 0.215480
O O19 0.500000 0.337173 0.000000
O O20 0.000000 0.000093 0.000000
#
# Coordination Sequence:
#
# PCOD9123032 Si02
#       8
#     4   4   4   4   4   4   4   4
#     4  10  22  38  62  97 133 173 214 265 326 391
#     4  10  22  40  66  95 132 174 218 272 332 389
#     4  10  20  37  59  89 131 172 209 252 328 400
#     4  11  22  36  62  94 129 163 211 263 322 381
#     4  11  23  45  69  89 125 179 226 268 323 391
#     4  11  21  35  58  96 135 160 201 262 323 383
#     4  10  23  43  69  91 127 171 230 269 324 388
#     4  11  23  36  61  97 130 170 212 263 322 389
#
# _framework density 20.349426999999999
#
# number of rings (size 3 to 8) (size 9 to 14) (size 15 to 20)
#    0.000    1.500    1.250    5.250    8.750    0.000 
#    0.000    4.375    0.000    3.750    0.000    0.000 
#    0.000    0.000    0.000    0.000    0.000    0.000 
#
# Total GULP energy -89171.449700 kJ/mol
# GULP energy per Si atom -5573.215606 kJ/mol
# Density = 2.030311 g / cm^3
# Si number density = 20.349427 Si / 1000 Ang^3
#
#
#
# Elastic Constant Matrix: (Units=GPa)
#
#
# Indices 1 2 3 4 5 6 
#
# 1 128.9505 61.7026 60.4140 0.0002 8.1253 -0.0001
# 2 61.7026 107.0320 57.0653 0.0002 -0.2685 0.0000
# 3 60.4140 57.0653 139.1175 0.0002 3.2309 0.0001
# 4 0.0002 0.0002 0.0002 11.5230 0.0000 -9.3591
# 5 8.1253 -0.2685 3.2309 0.0000 35.6770 0.0000
# 6 -0.0001 0.0000 0.0001 -9.3591 0.0000 45.4828
#
#
#
# Elastic Compliance Matrix: (Units=1/GPa)
#
#
# Indices 1 2 3 4 5 6 
#
# 1 0.011784 -0.005250 -0.002907 0.000000 -0.002460 0.000000
# 2 -0.005250 0.014307 -0.003627 0.000000 0.001632 0.000000
# 3 -0.002907 -0.003627 0.009944 0.000000 -0.000266 0.000000
# 4 0.000000 0.000000 0.000000 0.104198 0.000000 0.021441
# 5 -0.002460 0.001632 -0.000266 0.000000 0.028626 0.000000
# 6 0.000000 0.000000 0.000000 0.021441 0.000000 0.026398
#
#
# Mechanical properties :
#
#
# Convention : Reuss Voigt Hill
#
# Bulk Modulus (GPa) = 80.20061 81.49599 80.84830
# Shear Modulus (GPa) = 22.42354 31.59775 27.01065
#
# Velocity S-wave (km/s) = 3.32313 3.94478 3.64722
# Velocity P-wave (km/s) = 7.36353 7.80280 7.58634
#
# Compressibility (1/GPa) = 0.01246873
#
# Stress axis : x y z
#
# Youngs Moduli (GPa) = 84.86338 69.89534 100.55904
#
# Poissons Ratio (x) = 0.36692 0.29230
# Poissons Ratio (y) = 0.44549 0.36472
# Poissons Ratio (z) = 0.24668 0.25350
#
# Static dielectric constant tensor:
#      x y z
#    x 1.744940 0.000000 -0.008950 
#    y 0.000000 1.740980 0.000000 
#    z -0.008950 0.000000 1.721750 
# 
# From -- ./inp_files/25582.got.cif
#   From: 2010.05.17/outbox.cif.g08.bks.cpg/sg5_13_cif.got.tgz:25582.got - 2010.06.03 18:56:24.
