data_PCOD9123034
_publ_section_title
;
Structure prediction by ZEFSAII (Michael W. Deem and Ramdas Pophale) SiO2 
 PCOD9123034
Probable space group: C 2
;
_chemical_formula_sum "Si O2"
_cell_formula_units_Z 28
_cell_length_a 22.625392
_cell_length_b 8.766430
_cell_length_c 20.279362
_cell_angle_alpha 90.000000
_cell_angle_beta 18.371324
_cell_angle_gamma 90.000000
_cell_volume 1267.720994
_symmetry_space_group_name_H-M "C 2"
_symmetry_group_IT_number 5
_symmetry_cell_setting 'monoclinic'
loop_
_space_group_symop_operation_xyz
x,y,z
-x,y,-z
1/2+x,1/2+y,z
1/2-x,1/2+y,-z
loop_
_atom_site_type_symbol
_atom_site_label
_atom_site_fract_x
_atom_site_fract_y
_atom_site_fract_z
Si Si1 0.963030 0.410540 0.399072
Si Si2 0.020085 0.400865 0.908956
Si Si3 0.144739 0.735926 0.791499
Si Si4 0.285313 0.394854 0.871229
Si Si5 0.821851 0.055820 0.966449
Si Si6 0.145285 0.840983 0.648747
Si Si7 0.652208 0.241242 0.499315
O O1 0.858302 0.301000 0.562463
O O2 0.864901 0.361177 0.433539
O O3 0.878382 0.578448 0.500532
O O4 0.181329 0.443677 0.156913
O O5 0.133006 0.554280 0.806777
O O6 0.143174 0.302536 0.729485
O O7 0.829364 0.435466 0.072380
O O8 0.000000 0.317141 0.000000
O O9 0.070826 0.777185 0.796608
O O10 0.000000 0.795889 0.000000
O O11 0.273688 0.520506 0.941108
O O12 0.503580 0.360833 0.627216
O O13 0.216987 0.228840 0.971424
O O14 0.033214 0.996843 0.753396
O O15 0.113850 0.738465 0.618244
#
# Coordination Sequence:
#
# PCOD9123034 Si02
#       7
#     4   4   4   4   4   4   4
#     4   9  20  35  59  83 119 151 201 252 294 365
#     4  11  24  42  62  86 127 169 200 251 308 370
#     4   9  22  40  59  85 120 164 204 247 305 365
#     4  10  23  37  62  92 128 155 208 255 300 375
#     4  10  20  37  59  96 118 158 199 251 316 342
#     4   9  20  34  61  85 124 150 198 254 297 364
#     4  10  21  37  60  93 113 160 205 252 311 347
#
# _framework density 22.086877999999999
#
# number of rings (size 3 to 8) (size 9 to 14) (size 15 to 20)
#    0.857    1.429    0.000    1.714    8.000    3.429 
#    0.000    0.714    0.000    0.000    0.000    0.000 
#    0.000    0.000    0.000    0.000    0.000    0.000 
#
# Total GULP energy -78021.223329 kJ/mol
# GULP energy per Si atom -5572.944524 kJ/mol
# Density = 2.203661 g / cm^3
# Si number density = 22.086878 Si / 1000 Ang^3
#
#
#
# Elastic Constant Matrix: (Units=GPa)
#
#
# Indices 1 2 3 4 5 6 
#
# 1 65.2689 1.1142 37.8624 -0.0007 19.6820 0.0002
# 2 1.1142 46.1301 7.8995 -0.0005 6.5243 0.0004
# 3 37.8624 7.8995 54.8379 -0.0030 -5.5524 0.0017
# 4 -0.0007 -0.0005 -0.0030 29.9269 0.0003 -3.3564
# 5 19.6820 6.5243 -5.5524 0.0003 26.1297 -0.0001
# 6 0.0002 0.0004 0.0017 -3.3564 -0.0001 12.9107
#
#
#
# Elastic Compliance Matrix: (Units=1/GPa)
#
#
# Indices 1 2 3 4 5 6 
#
# 1 0.068313 0.017640 -0.056580 -0.000003 -0.067883 0.000005
# 2 0.017640 0.027868 -0.018645 -0.000001 -0.024207 0.000001
# 3 -0.056580 -0.018645 0.066197 0.000004 0.061341 -0.000006
# 4 -0.000003 -0.000001 0.000004 0.034418 0.000003 0.008948
# 5 -0.067883 -0.024207 0.061341 0.000003 0.108482 -0.000005
# 6 0.000005 0.000001 -0.000006 0.008948 -0.000005 0.079781
#
#
# Mechanical properties :
#
#
# Convention : Reuss Voigt Hill
#
# Bulk Modulus (GPa) = 21.18275 28.88768 25.03521
# Shear Modulus (GPa) = 9.69056 21.75085 15.72070
#
# Velocity S-wave (km/s) = 2.09690 3.14153 2.67079
# Velocity P-wave (km/s) = 3.93372 5.12508 4.56840
#
# Compressibility (1/GPa) = 0.04720823
#
# Stress axis : x y z
#
# Youngs Moduli (GPa) = 14.63858 35.88304 15.10631
#
# Poissons Ratio (x) = -0.63298 0.85472
# Poissons Ratio (y) = -0.25822 0.28166
# Poissons Ratio (z) = 0.82825 0.66903
#
# Static dielectric constant tensor:
#      x y z
#    x 1.782910 0.000000 0.011360 
#    y 0.000000 1.837900 0.000000 
#    z 0.011360 0.000000 1.850350 
# 
# From -- ./inp_files/67338.got.cif
#   From: 2010.05.17/outbox.cif.g08.bks.cpg/sg5_34_cif.got.tgz:67338.got - 2010.06.03 18:56:24.
