data_PCOD9123828
_publ_section_title
;
Structure prediction by ZEFSAII (Michael W. Deem and Ramdas Pophale) SiO2 
 PCOD9123828
Probable space group: C 2
;
_chemical_formula_sum "Si O2"
_cell_formula_units_Z 26
_cell_length_a 32.105566
_cell_length_b 5.165478
_cell_length_c 15.212099
_cell_angle_alpha 90.000000
_cell_angle_beta 26.146418
_cell_angle_gamma 90.000000
_cell_volume 1111.706347
_symmetry_space_group_name_H-M "C 2"
_symmetry_group_IT_number 5
_symmetry_cell_setting 'monoclinic'
loop_
_space_group_symop_operation_xyz
x,y,z
-x,y,-z
1/2+x,1/2+y,z
1/2-x,1/2+y,-z
loop_
_atom_site_type_symbol
_atom_site_label
_atom_site_fract_x
_atom_site_fract_y
_atom_site_fract_z
Si Si1 0.630714 0.764330 0.906847
Si Si2 0.664732 0.265810 0.941196
Si Si3 0.297214 0.500995 0.945999
Si Si4 0.000000 0.875560 0.500000
Si Si5 0.946304 0.741755 0.417368
Si Si6 0.913801 0.247604 0.380752
Si Si7 0.692257 0.687753 0.601140
O O1 0.674299 0.492087 0.852467
O O2 0.632446 0.782797 0.798644
O O3 0.684414 0.994679 0.856147
O O4 0.523419 0.759298 0.143904
O O5 0.712559 0.366267 0.939952
O O6 0.554160 0.243888 0.177883
O O7 0.409381 0.527283 0.710896
O O8 0.250512 0.783843 0.026681
O O9 0.043221 0.712751 0.498332
O O10 0.893029 0.512123 0.470263
O O11 0.903736 0.014743 0.468755
O O12 0.857387 0.211413 0.398246
O O13 0.720867 0.389549 0.560910
#
# Coordination Sequence:
#
# PCOD9123828 Si02
#       7
#     4   4   4   2   4   4   4
#     4  10  20  40  65  84 114 170 199 256 313 372
#     4   9  19  38  63  90 122 155 212 259 309 378
#     4  11  24  43  65 100 134 174 226 273 332 399
#     4  10  24  46  68  98 140 176 218 282 340 378
#     4   9  20  38  66  91 121 161 207 263 311 380
#     4  10  21  41  63  89 117 161 218 246 308 389
#     4  12  25  41  57  90 128 157 200 263 317 372
#
# _framework density 23.387471999999999
#
# number of rings (size 3 to 8) (size 9 to 14) (size 15 to 20)
#    0.000    1.846    0.000    3.231    0.000    6.154 
#   16.615    6.154    0.000    0.000    0.000    0.000 
#    0.000    0.000    0.000    0.000    0.000    0.000 
#
# Total GULP energy -72710.040265 kJ/mol
# GULP energy per Si atom -5593.080020 kJ/mol
# Density = 2.333424 g / cm^3
# Si number density = 23.387472 Si / 1000 Ang^3
#
#
#
# Elastic Constant Matrix: (Units=GPa)
#
#
# Indices 1 2 3 4 5 6 
#
# 1 151.7300 21.7922 3.6836 0.0163 19.0088 0.0145
# 2 21.7922 98.7967 -1.6045 0.0304 10.6184 0.0384
# 3 3.6836 -1.6045 91.1559 -0.0015 -2.4282 0.0018
# 4 0.0163 0.0304 -0.0015 0.8413 0.0036 1.9685
# 5 19.0088 10.6184 -2.4282 0.0036 34.1485 0.0061
# 6 0.0145 0.0384 0.0018 1.9685 0.0061 25.5105
#
#
#
# Elastic Compliance Matrix: (Units=1/GPa)
#
#
# Indices 1 2 3 4 5 6 
#
# 1 0.007235 -0.001207 -0.000412 -0.000095 -0.003681 0.000006
# 2 -0.001207 0.010674 0.000166 -0.000386 -0.002635 0.000015
# 3 -0.000412 0.000166 0.011015 0.000024 0.000961 -0.000003
# 4 -0.000095 -0.000386 0.000024 1.450584 0.000042 -0.111931
# 5 -0.003681 -0.002635 0.000961 0.000042 0.032221 -0.000005
# 6 0.000006 0.000015 -0.000003 -0.111931 -0.000005 0.047836
#
#
# Mechanical properties :
#
#
# Convention : Reuss Voigt Hill
#
# Bulk Modulus (GPa) = 38.43142 43.26947 40.85045
# Shear Modulus (GPa) = 3.18240 33.28747 18.23493
#
# Velocity S-wave (km/s) = 1.16777 3.77676 2.79532
# Velocity P-wave (km/s) = 4.27626 6.12861 5.28423
#
# Compressibility (1/GPa) = 0.02602037
#
# Stress axis : x y z
#
# Youngs Moduli (GPa) = 138.21293 93.68502 90.78220
#
# Poissons Ratio (x) = 0.11307 0.03737
# Poissons Ratio (y) = 0.16681 -0.01511
# Poissons Ratio (z) = 0.05690 -0.01559
#
# Static dielectric constant tensor:
#      x y z
#    x 1.842380 0.000000 -0.000160 
#    y 0.000000 1.831120 0.000000 
#    z -0.000160 0.000000 1.935620 
# 
# From -- ./inp_files/53814.got.cif
#   From: 2010.05.17/outbox.cif.g08.bks.cpg/sg5_27_cif.got.tgz:53814.got - 2010.06.03 18:56:24.
