data_PCOD9123224
_publ_section_title
;
Structure prediction by ZEFSAII (Michael W. Deem and Ramdas Pophale) SiO2 
 PCOD9123224
Probable space group: C 2
;
_chemical_formula_sum "Si O2"
_cell_formula_units_Z 22
_cell_length_a 9.939673
_cell_length_b 10.795148
_cell_length_c 8.956202
_cell_angle_alpha 90.000000
_cell_angle_beta 93.251784
_cell_angle_gamma 90.000000
_cell_volume 959.455328
_symmetry_space_group_name_H-M "C 2"
_symmetry_group_IT_number 5
_symmetry_cell_setting 'monoclinic'
loop_
_space_group_symop_operation_xyz
x,y,z
-x,y,-z
1/2+x,1/2+y,z
1/2-x,1/2+y,-z
loop_
_atom_site_type_symbol
_atom_site_label
_atom_site_fract_x
_atom_site_fract_y
_atom_site_fract_z
Si Si1 0.597658 0.923300 0.770857
Si Si2 0.969005 0.679766 0.214837
Si Si3 0.500000 0.528746 0.000000
Si Si4 0.500000 0.750588 0.500000
Si Si5 0.806971 0.808358 0.972111
Si Si6 0.500000 0.331099 0.500000
Si Si7 0.368538 0.551162 0.681131
O O1 0.551820 0.836276 0.635613
O O2 0.658354 0.838732 0.906729
O O3 0.495117 0.034581 0.798616
O O4 0.722028 0.008035 0.722120
O O5 0.939595 0.736614 0.374596
O O6 0.097292 0.754434 0.153711
O O7 0.839667 0.713984 0.105142
O O8 0.626010 0.437784 0.973707
O O9 0.543824 0.583862 0.163540
O O10 0.386681 0.661744 0.564911
O O11 0.418881 0.428451 0.596850
#
# Coordination Sequence:
#
# PCOD9123224 Si02
#       7
#     4   4   2   2   4   2   4
#     4  11  23  40  62  90 124 160 202 254 305 359
#     4  10  20  37  68  89 121 162 206 249 309 360
#     4   8  14  38  62  82 116 154 198 246 286 368
#     4  11  27  40  56  96 125 153 214 256 290 377
#     4   9  19  41  60  91 122 157 207 253 294 372
#     4  11  17  36  66  92 117 167 198 250 312 359
#     4  10  22  39  64  86 125 163 201 250 312 351
#
# _framework density 22.929677000000002
#
# number of rings (size 3 to 8) (size 9 to 14) (size 15 to 20)
#    0.000    2.182    5.455    0.545    2.545    4.364 
#    0.000    5.455    0.000    0.000    0.000    0.000 
#    0.000    0.000    0.000    0.000    0.000    0.000 
#
# Total GULP energy -61314.154937 kJ/mol
# GULP energy per Si atom -5574.014085 kJ/mol
# Density = 2.287749 g / cm^3
# Si number density = 22.929677 Si / 1000 Ang^3
#
#
#
# Elastic Constant Matrix: (Units=GPa)
#
#
# Indices 1 2 3 4 5 6 
#
# 1 26.3986 5.9897 -2.1944 0.0000 -1.6885 0.0000
# 2 5.9897 116.2339 56.2166 0.0000 9.9104 0.0000
# 3 -2.1944 56.2166 124.5602 0.0000 8.1762 0.0000
# 4 0.0000 0.0000 0.0000 43.1886 0.0000 4.1832
# 5 -1.6885 9.9104 8.1762 0.0000 25.4270 0.0000
# 6 0.0000 0.0000 0.0000 4.1832 0.0000 9.7862
#
#
#
# Elastic Compliance Matrix: (Units=1/GPa)
#
#
# Indices 1 2 3 4 5 6 
#
# 1 0.038976 -0.003215 0.001926 0.000000 0.003222 0.000000
# 2 -0.003215 0.011462 -0.005029 0.000000 -0.003064 0.000000
# 3 0.001926 -0.005029 0.010415 0.000000 -0.001261 0.000000
# 4 0.000000 0.000000 0.000000 0.024154 0.000000 -0.010325
# 5 0.003222 -0.003064 -0.001261 0.000000 0.041142 0.000000
# 6 0.000000 0.000000 0.000000 -0.010325 0.000000 0.106599
#
#
# Mechanical properties :
#
#
# Convention : Reuss Voigt Hill
#
# Bulk Modulus (GPa) = 20.73898 43.02407 31.88153
# Shear Modulus (GPa) = 19.12367 29.49241 24.30804
#
# Velocity S-wave (km/s) = 2.89106 3.59027 3.25947
# Velocity P-wave (km/s) = 4.49539 5.99924 5.30092
#
# Compressibility (1/GPa) = 0.04821838
#
# Stress axis : x y z
#
# Youngs Moduli (GPa) = 25.65658 87.24183 96.01986
#
# Poissons Ratio (x) = 0.28046 -0.18494
# Poissons Ratio (y) = 0.08248 0.48286
# Poissons Ratio (z) = -0.04942 0.43871
#
# Static dielectric constant tensor:
#      x y z
#    x 1.956200 0.000000 -0.020670 
#    y 0.000000 1.899070 0.000000 
#    z -0.020670 0.000000 1.872080 
# 
# From -- ./inp_files/19113.got.cif
#   From: 2010.05.17/outbox.cif.g08.bks.cpg/sg5_10_cif.got.tgz:19113.got - 2010.06.03 18:56:24.
