data_PCOD9123500
_publ_section_title
;
Structure prediction by ZEFSAII (Michael W. Deem and Ramdas Pophale) SiO2 
 PCOD9123500
Probable space group: C 2
;
_chemical_formula_sum "Si O2"
_cell_formula_units_Z 24
_cell_length_a 16.192717
_cell_length_b 11.055845
_cell_length_c 16.289934
_cell_angle_alpha 90.000000
_cell_angle_beta 153.647710
_cell_angle_gamma 90.000000
_cell_volume 1294.510389
_symmetry_space_group_name_H-M "C 2"
_symmetry_group_IT_number 5
_symmetry_cell_setting 'monoclinic'
loop_
_space_group_symop_operation_xyz
x,y,z
-x,y,-z
1/2+x,1/2+y,z
1/2-x,1/2+y,-z
loop_
_atom_site_type_symbol
_atom_site_label
_atom_site_fract_x
_atom_site_fract_y
_atom_site_fract_z
Si Si1 0.208839 0.044870 0.709348
Si Si2 0.778274 0.265297 0.793890
Si Si3 0.642167 0.113743 0.820277
Si Si4 0.648256 0.039383 0.566902
Si Si5 0.470550 0.435187 0.068020
Si Si6 0.571491 0.153334 0.947694
O O1 0.369960 0.100184 0.794433
O O2 0.000000 0.083974 0.500000
O O3 0.218616 0.899284 0.715378
O O4 0.275872 0.086538 0.859610
O O5 0.697856 0.225928 0.810955
O O6 0.711973 0.164459 0.668768
O O7 0.000000 0.263807 0.000000
O O8 0.460142 0.062049 0.613259
O O9 0.607578 0.140400 0.883747
O O10 0.808761 0.017224 0.960557
O O11 0.500000 0.983917 0.500000
O O12 0.829921 0.960118 0.714264
O O13 0.422029 0.295014 0.026073
O O14 0.500000 0.473748 0.000000
#
# Coordination Sequence:
#
# PCOD9123500 Si02
#       6
#     4   4   4   4   4   4
#     4  11  24  44  66  85 128 173 205 247 318 373
#     4  11  19  41  70  90 123 170 209 250 303 372
#     4  11  24  41  64  98 123 159 212 262 301 363
#     4  10  20  38  67  94 119 161 217 247 302 366
#     4  12  21  42  66  89 125 171 201 255 314 368
#     4  11  27  42  61  96 129 159 208 258 313 368
#
# _framework density 18.539829000000001
#
# number of rings (size 3 to 8) (size 9 to 14) (size 15 to 20)
#    0.000    1.000    8.333    1.500    2.333    3.333 
#    3.000    0.000    0.000    0.000    0.000    0.000 
#    0.000    0.000    0.000    0.000    0.000    0.000 
#
# Total GULP energy -67012.458851 kJ/mol
# GULP energy per Si atom -5584.371571 kJ/mol
# Density = 1.849763 g / cm^3
# Si number density = 18.539829 Si / 1000 Ang^3
#
#
#
# Elastic Constant Matrix: (Units=GPa)
#
#
# Indices 1 2 3 4 5 6 
#
# 1 81.8256 -0.1559 21.2709 -0.0002 -16.7290 -0.0001
# 2 -0.1559 60.3413 -10.3428 -0.0007 8.4692 -0.0003
# 3 21.2709 -10.3428 125.2798 -0.0009 13.9881 -0.0004
# 4 -0.0002 -0.0007 -0.0009 -6.0146 -0.0005 -16.9475
# 5 -16.7290 8.4692 13.9881 -0.0005 24.1391 -0.0003
# 6 -0.0001 -0.0003 -0.0004 -16.9475 -0.0003 7.4067
#
#
#
# Elastic Compliance Matrix: (Units=1/GPa)
#
#
# Indices 1 2 3 4 5 6 
#
# 1 0.016574 -0.002916 -0.004759 0.000000 0.015267 0.000000
# 2 -0.002916 0.018568 0.003187 0.000000 -0.010382 0.000000
# 3 -0.004759 0.003187 0.010207 0.000000 -0.010331 0.000000
# 4 0.000000 0.000000 0.000000 -0.022325 -0.000001 -0.051083
# 5 0.015267 -0.010382 -0.010331 -0.000001 0.061637 -0.000001
# 6 0.000000 0.000000 0.000000 -0.051083 -0.000001 0.018129
#
#
# Mechanical properties :
#
#
# Convention : Reuss Voigt Hill
#
# Bulk Modulus (GPa) = 27.49260 32.11014 29.80137
# Shear Modulus (GPa) = 40.35820 22.21787 31.28803
#
# Velocity S-wave (km/s) = 4.67072 3.46553 4.11251
# Velocity P-wave (km/s) = 6.62938 5.77670 6.21767
#
# Compressibility (1/GPa) = 0.03637342
#
# Stress axis : x y z
#
# Youngs Moduli (GPa) = 60.33493 53.85500 97.97284
#
# Poissons Ratio (x) = 0.15703 0.46630
# Poissons Ratio (y) = 0.17592 -0.31226
# Poissons Ratio (z) = 0.28716 -0.17165
#
# Static dielectric constant tensor:
#      x y z
#    x 1.627040 0.000000 -0.002950 
#    y 0.000000 1.636590 0.000000 
#    z -0.002950 0.000000 1.682310 
# 
# From -- ./inp_files/54498.got.cif
#   From: 2010.05.17/outbox.cif.g08.bks.cpg/sg5_28_cif.got.tgz:54498.got - 2010.06.03 18:56:24.
