data_PCOD9123534
_publ_section_title
;
Structure prediction by ZEFSAII (Michael W. Deem and Ramdas Pophale) SiO2 
 PCOD9123534
Probable space group: C 2
;
_chemical_formula_sum "Si O2"
_cell_formula_units_Z 30
_cell_length_a 19.972967
_cell_length_b 14.193562
_cell_length_c 8.844030
_cell_angle_alpha 90.000000
_cell_angle_beta 144.871155
_cell_angle_gamma 90.000000
_cell_volume 1442.669768
_symmetry_space_group_name_H-M "C 2"
_symmetry_group_IT_number 5
_symmetry_cell_setting 'monoclinic'
loop_
_space_group_symop_operation_xyz
x,y,z
-x,y,-z
1/2+x,1/2+y,z
1/2-x,1/2+y,-z
loop_
_atom_site_type_symbol
_atom_site_label
_atom_site_fract_x
_atom_site_fract_y
_atom_site_fract_z
Si Si1 0.287973 0.674060 0.404226
Si Si2 0.000000 0.125758 0.000000
Si Si3 0.381050 0.294383 0.714803
Si Si4 0.869279 0.956416 0.193758
Si Si5 0.635763 0.675063 0.788795
Si Si6 0.732193 0.833162 0.179106
Si Si7 0.665343 0.468492 0.200796
Si Si8 0.137149 0.491321 0.226715
O O1 0.415071 0.671562 0.718865
O O2 0.219016 0.752791 0.366438
O O3 0.298634 0.695187 0.247603
O O4 0.213791 0.577044 0.294626
O O5 0.908339 0.063406 0.925360
O O6 0.339739 0.284539 0.467918
O O7 0.381725 0.405672 0.747602
O O8 0.500000 0.253749 0.000000
O O9 0.835832 0.066532 0.121070
O O10 0.000000 0.949973 0.500000
O O11 0.785056 0.902035 0.150939
O O12 0.859928 0.920044 0.005076
O O13 0.500000 0.678833 0.500000
O O14 0.664163 0.749984 0.970513
O O15 0.659728 0.898060 0.164402
O O16 0.799749 0.480898 0.493118
O O17 0.000000 0.508286 0.000000
#
# Coordination Sequence:
#
# PCOD9123534 Si02
#       8
#     4   2   4   4   4   4   4   4
#     4  11  23  41  67 100 127 179 225 283 327 403
#     4  10  20  38  70  94 126 164 232 266 330 386
#     4  11  23  40  66  96 133 171 227 277 326 396
#     4  11  22  41  69  97 134 170 220 282 343 395
#     4  11  25  41  68 100 136 172 225 279 341 402
#     4  11  25  42  65 102 135 179 226 277 342 405
#     4  10  21  38  68  94 124 175 217 270 329 398
#     4  10  23  44  66  92 138 183 225 270 337 397
#
# _framework density 20.794779999999999
#
# number of rings (size 3 to 8) (size 9 to 14) (size 15 to 20)
#    0.000    1.333    2.000    3.600    7.467    3.200 
#    1.200    0.000    0.000    0.000    0.000    0.000 
#    0.000    0.000    0.000    0.000    0.000    0.000 
#
# Total GULP energy -83725.521766 kJ/mol
# GULP energy per Si atom -5581.701451 kJ/mol
# Density = 2.074745 g / cm^3
# Si number density = 20.794780 Si / 1000 Ang^3
#
#
#
# Elastic Constant Matrix: (Units=GPa)
#
#
# Indices 1 2 3 4 5 6 
#
# 1 64.8526 4.4386 31.2769 0.0000 -8.8144 0.0000
# 2 4.4386 68.9853 21.8613 0.0000 5.7687 0.0000
# 3 31.2769 21.8613 137.3215 0.0000 7.3910 0.0000
# 4 0.0000 0.0000 0.0000 17.5242 0.0000 -2.7215
# 5 -8.8144 5.7687 7.3910 0.0000 37.2451 0.0000
# 6 0.0000 0.0000 0.0000 -2.7215 0.0000 30.7437
#
#
#
# Elastic Compliance Matrix: (Units=1/GPa)
#
#
# Indices 1 2 3 4 5 6 
#
# 1 0.018272 -0.000216 -0.004409 0.000000 0.005233 0.000000
# 2 -0.000216 0.015403 -0.002296 0.000000 -0.001981 0.000000
# 3 -0.004409 -0.002296 0.008783 0.000000 -0.002431 0.000000
# 4 0.000000 0.000000 0.000000 0.057859 0.000000 0.005122
# 5 0.005233 -0.001981 -0.002431 0.000000 0.028877 0.000000
# 6 0.000000 0.000000 0.000000 0.005122 0.000000 0.032980
#
#
# Mechanical properties :
#
#
# Convention : Reuss Voigt Hill
#
# Bulk Modulus (GPa) = 34.94642 42.92369 38.93506
# Shear Modulus (GPa) = 26.94619 31.34144 29.14382
#
# Velocity S-wave (km/s) = 3.60365 3.88645 3.74772
# Velocity P-wave (km/s) = 5.84439 6.38950 6.12302
#
# Compressibility (1/GPa) = 0.02861523
#
# Stress axis : x y z
#
# Youngs Moduli (GPa) = 54.72893 64.92199 113.85937
#
# Poissons Ratio (x) = 0.01402 0.50200
# Poissons Ratio (y) = 0.01182 0.26146
# Poissons Ratio (z) = 0.24130 0.14908
#
# Static dielectric constant tensor:
#      x y z
#    x 1.744920 0.000000 -0.003310 
#    y 0.000000 1.791890 0.000000 
#    z -0.003310 0.000000 1.805710 
# 
# From -- ./inp_files/20397.got.cif
#   From: 2010.05.17/outbox.cif.g08.bks.cpg/sg5_11_cif.got.tgz:20397.got - 2010.06.03 18:56:24.
