data_PCOD9123761
_publ_section_title
;
Structure prediction by ZEFSAII (Michael W. Deem and Ramdas Pophale) SiO2 
 PCOD9123761
Probable space group: C 2
;
_chemical_formula_sum "Si O2"
_cell_formula_units_Z 30
_cell_length_a 16.092386
_cell_length_b 8.751834
_cell_length_c 12.985611
_cell_angle_alpha 90.000000
_cell_angle_beta 52.737671
_cell_angle_gamma 90.000000
_cell_volume 1455.542811
_symmetry_space_group_name_H-M "C 2"
_symmetry_group_IT_number 5
_symmetry_cell_setting 'monoclinic'
loop_
_space_group_symop_operation_xyz
x,y,z
-x,y,-z
1/2+x,1/2+y,z
1/2-x,1/2+y,-z
loop_
_atom_site_type_symbol
_atom_site_label
_atom_site_fract_x
_atom_site_fract_y
_atom_site_fract_z
Si Si1 0.856578 0.480080 0.182282
Si Si2 0.045592 0.545163 0.309329
Si Si3 0.665927 0.661134 0.391890
Si Si4 0.579379 0.128275 0.063525
Si Si5 0.500000 0.406430 0.000000
Si Si6 0.666461 0.027519 0.427384
Si Si7 0.522381 0.679057 0.315921
Si Si8 0.388211 0.636184 0.225008
O O1 0.767814 0.557557 0.318489
O O2 0.868389 0.300339 0.188673
O O3 0.966165 0.550057 0.136241
O O4 0.847356 0.534775 0.070127
O O5 0.923626 0.580418 0.425384
O O6 0.036833 0.362196 0.303229
O O7 0.097905 0.619598 0.170526
O O8 0.116645 0.577635 0.355355
O O9 0.621176 0.631352 0.310052
O O10 0.574834 0.624551 0.540795
O O11 0.680460 0.842996 0.403689
O O12 0.562248 0.296717 0.031642
O O13 0.415869 0.510180 0.120277
O O14 0.779752 0.095680 0.362393
O O15 0.487042 0.636377 0.228189
#
# Coordination Sequence:
#
# PCOD9123761 Si02
#       8
#     4   4   4   4   2   4   4   4
#     4  10  21  36  62  85 121 150 206 240 291 360
#     4   9  18  40  62  88 117 163 190 245 294 357
#     4   9  19  41  59  93 117 162 190 239 291 374
#     4  10  20  40  62  84 111 166 201 243 297 360
#     4  10  24  40  58  82 124 154 208 254 286 358
#     4   9  20  37  63  90 125 144 202 243 296 354
#     4   9  20  36  66  86 124 152 199 237 302 347
#     4  12  22  39  57  93 116 159 194 258 297 339
#
# _framework density 20.610866000000001
#
# number of rings (size 3 to 8) (size 9 to 14) (size 15 to 20)
#    0.000    2.400    1.333    4.000    1.867    0.000 
#    7.200    1.333    0.000    0.000    0.000    0.000 
#    0.000    0.000    0.000    0.000    0.000    0.000 
#
# Total GULP energy -83592.045966 kJ/mol
# GULP energy per Si atom -5572.803064 kJ/mol
# Density = 2.056396 g / cm^3
# Si number density = 20.610866 Si / 1000 Ang^3
#
#
#
# Elastic Constant Matrix: (Units=GPa)
#
#
# Indices 1 2 3 4 5 6 
#
# 1 37.3028 11.9939 3.4588 0.0000 5.3015 0.0000
# 2 11.9939 73.6835 26.9685 0.0000 2.9427 0.0000
# 3 3.4588 26.9685 52.0493 0.0000 13.8760 0.0000
# 4 0.0000 0.0000 0.0000 25.4910 0.0000 -3.9037
# 5 5.3015 2.9427 13.8760 0.0000 31.2729 0.0000
# 6 0.0000 0.0000 0.0000 -3.9037 0.0000 15.0993
#
#
#
# Elastic Compliance Matrix: (Units=1/GPa)
#
#
# Indices 1 2 3 4 5 6 
#
# 1 0.029092 -0.005358 0.002295 0.000000 -0.005446 0.000000
# 2 -0.005358 0.017920 -0.009892 0.000000 0.003611 0.000000
# 3 0.002295 -0.009892 0.027266 0.000000 -0.011556 0.000000
# 4 0.000000 0.000000 0.000000 0.040847 0.000000 0.010560
# 5 -0.005446 0.003611 -0.011556 0.000000 0.037688 0.000000
# 6 0.000000 0.000000 0.000000 0.010560 0.000000 0.068959
#
#
# Mechanical properties :
#
#
# Convention : Reuss Voigt Hill
#
# Bulk Modulus (GPa) = 20.67476 27.54200 24.10838
# Shear Modulus (GPa) = 18.95358 22.41358 20.68358
#
# Velocity S-wave (km/s) = 3.03577 3.30125 3.17129
# Velocity P-wave (km/s) = 4.72659 5.28421 5.01316
#
# Compressibility (1/GPa) = 0.04836816
#
# Stress axis : x y z
#
# Youngs Moduli (GPa) = 34.37429 55.80412 36.67561
#
# Poissons Ratio (x) = 0.29899 -0.08416
# Poissons Ratio (y) = 0.18417 0.36278
# Poissons Ratio (z) = -0.07888 0.55199
#
# Static dielectric constant tensor:
#      x y z
#    x 1.786920 0.000000 0.044980 
#    y 0.000000 1.712460 0.000000 
#    z 0.044980 0.000000 1.797360 
# 
# From -- ./inp_files/55650.got.cif
#   From: 2010.05.17/outbox.cif.g08.bks.cpg/sg5_28_cif.got.tgz:55650.got - 2010.06.03 18:56:24.
