data_PCOD9123950
_publ_section_title
;
Structure prediction by ZEFSAII (Michael W. Deem and Ramdas Pophale) SiO2 
 PCOD9123950
Probable space group: C 2
;
_chemical_formula_sum "Si O2"
_cell_formula_units_Z 28
_cell_length_a 14.254884
_cell_length_b 13.013019
_cell_length_c 7.939303
_cell_angle_alpha 90.000000
_cell_angle_beta 125.027142
_cell_angle_gamma 90.000000
_cell_volume 1205.992257
_symmetry_space_group_name_H-M "C 2"
_symmetry_group_IT_number 5
_symmetry_cell_setting 'monoclinic'
loop_
_space_group_symop_operation_xyz
x,y,z
-x,y,-z
1/2+x,1/2+y,z
1/2-x,1/2+y,-z
loop_
_atom_site_type_symbol
_atom_site_label
_atom_site_fract_x
_atom_site_fract_y
_atom_site_fract_z
Si Si1 0.448338 0.962290 0.137888
Si Si2 0.158651 0.667699 0.943486
Si Si3 0.864381 0.112692 0.381216
Si Si4 0.196210 0.295060 0.132317
Si Si5 0.000000 0.809030 0.000000
Si Si6 0.000000 0.149369 0.000000
Si Si7 0.655262 0.838656 0.479599
Si Si8 0.357203 0.473107 0.677443
O O1 0.536008 0.897050 0.337895
O O2 0.500000 0.969883 0.000000
O O3 0.331779 0.898227 0.996816
O O4 0.425994 0.074898 0.183029
O O5 0.276247 0.617992 0.136141
O O6 0.194256 0.737457 0.824193
O O7 0.098739 0.737316 0.024775
O O8 0.854423 0.228688 0.443721
O O9 0.000000 0.094234 0.500000
O O10 0.825377 0.019810 0.463306
O O11 0.198169 0.313963 0.333254
O O12 0.082109 0.225310 0.981627
O O13 0.951489 0.883755 0.802819
O O14 0.912228 0.074006 0.817688
O O15 0.745874 0.920808 0.644811
#
# Coordination Sequence:
#
# PCOD9123950 Si02
#       8
#     4   4   4   4   2   2   4   4
#     4  10  20  40  71  94 131 180 224 270 333 406
#     4  12  25  43  71 104 139 178 227 283 353 403
#     4  12  24  44  69 104 132 179 235 280 332 415
#     4  11  22  43  71  98 133 183 229 275 339 418
#     4  11  26  45  64 102 146 177 224 299 356 394
#     4  11  20  43  66  98 132 179 230 281 340 404
#     4  11  22  44  68  99 134 177 231 283 332 404
#     4  11  24  40  70  94 135 181 225 284 348 395
#
# _framework density 23.217396000000001
#
# number of rings (size 3 to 8) (size 9 to 14) (size 15 to 20)
#    0.000    0.857    5.714    3.429    0.000    4.571 
#    2.571    0.000    0.000    0.000    0.000    0.000 
#    0.000    0.000    0.000    0.000    0.000    0.000 
#
# Total GULP energy -78258.784241 kJ/mol
# GULP energy per Si atom -5589.913160 kJ/mol
# Density = 2.316455 g / cm^3
# Si number density = 23.217396 Si / 1000 Ang^3
#
#
#
# Elastic Constant Matrix: (Units=GPa)
#
#
# Indices 1 2 3 4 5 6 
#
# 1 56.9276 34.5916 -5.2843 0.0000 -6.3310 0.0000
# 2 34.5916 135.7818 2.6438 0.0000 1.0266 0.0000
# 3 -5.2843 2.6438 43.5861 0.0000 8.1238 0.0000
# 4 0.0000 0.0000 0.0000 29.1551 0.0000 14.5043
# 5 -6.3310 1.0266 8.1238 0.0000 22.5990 0.0000
# 6 0.0000 0.0000 0.0000 14.5043 0.0000 45.7901
#
#
#
# Elastic Compliance Matrix: (Units=1/GPa)
#
#
# Indices 1 2 3 4 5 6 
#
# 1 0.021799 -0.005634 0.001928 0.000000 0.005670 0.000000
# 2 -0.005634 0.008830 -0.000911 0.000000 -0.001652 0.000000
# 3 0.001928 -0.000911 0.024784 0.000000 -0.008328 0.000000
# 4 0.000000 0.000000 0.000000 0.040715 0.000000 -0.012897
# 5 0.005670 -0.001652 -0.008328 0.000000 0.048907 0.000000
# 6 0.000000 0.000000 0.000000 -0.012897 0.000000 0.025924
#
#
# Mechanical properties :
#
#
# Convention : Reuss Voigt Hill
#
# Bulk Modulus (GPa) = 21.65441 33.35529 27.50485
# Shear Modulus (GPa) = 25.56411 33.13180 29.34796
#
# Velocity S-wave (km/s) = 3.32185 3.78170 3.55921
# Velocity P-wave (km/s) = 4.90509 5.78498 5.36311
#
# Compressibility (1/GPa) = 0.04617997
#
# Stress axis : x y z
#
# Youngs Moduli (GPa) = 45.87352 113.24690 40.34821
#
# Poissons Ratio (x) = 0.63802 -0.07778
# Poissons Ratio (y) = 0.25845 0.03675
# Poissons Ratio (z) = -0.08844 0.10314
#
# Static dielectric constant tensor:
#      x y z
#    x 1.872930 0.000000 -0.014910 
#    y 0.000000 1.830830 0.000000 
#    z -0.014910 0.000000 1.928420 
# 
# From -- ./inp_files/23967.got.cif
#   From: 2010.05.17/outbox.cif.g08.bks.cpg/sg5_12_cif.got.tgz:23967.got - 2010.06.03 18:56:24.
