data_PCOD9123318
_publ_section_title
;
Structure prediction by ZEFSAII (Michael W. Deem and Ramdas Pophale) SiO2 
 PCOD9123318
Probable space group: C 2
;
_chemical_formula_sum "Si O2"
_cell_formula_units_Z 20
_cell_length_a 4.905452
_cell_length_b 22.720930
_cell_length_c 7.977225
_cell_angle_alpha 90.000000
_cell_angle_beta 67.469889
_cell_angle_gamma 90.000000
_cell_volume 821.254406
_symmetry_space_group_name_H-M "C 2"
_symmetry_group_IT_number 5
_symmetry_cell_setting 'monoclinic'
loop_
_space_group_symop_operation_xyz
x,y,z
-x,y,-z
1/2+x,1/2+y,z
1/2-x,1/2+y,-z
loop_
_atom_site_type_symbol
_atom_site_label
_atom_site_fract_x
_atom_site_fract_y
_atom_site_fract_z
Si Si1 0.869364 0.049220 0.716323
Si Si2 0.170435 0.667053 0.628132
Si Si3 0.702347 0.975709 0.167823
Si Si4 0.600455 0.290094 0.782844
Si Si5 0.903428 0.358546 0.220892
O O1 0.731544 0.114593 0.745942
O O2 0.599275 0.006686 0.821941
O O3 0.000000 0.040765 0.500000
O O4 0.142570 0.028578 0.764837
O O5 0.500000 0.684570 0.500000
O O6 0.023760 0.725625 0.734091
O O7 0.000000 0.646312 0.500000
O O8 0.544271 0.916346 0.271488
O O9 0.000000 0.954316 0.000000
O O10 0.435998 0.340756 0.715732
O O11 0.943141 0.304519 0.720570
O O12 0.500000 0.293393 0.000000
O O13 0.000000 0.364077 0.000000
#
# Coordination Sequence:
#
# PCOD9123318 Si02
#       5
#     4   4   4   4   4
#     4  11  24  43  63  90 131 173 210 263 332 383
#     4  11  23  43  64  88 129 172 211 263 329 386
#     4  12  23  40  67  95 125 167 220 266 313 385
#     4  10  21  38  64  91 120 161 210 258 310 380
#     4  10  20  38  61  90 127 163 199 258 329 372
#
# _framework density 24.352989999999998
#
# number of rings (size 3 to 8) (size 9 to 14) (size 15 to 20)
#    0.000    1.200    0.000    9.000    0.000    1.600 
#    0.000   12.000    0.000    0.000    0.000    0.000 
#    0.000    0.000    0.000    0.000    0.000    0.000 
#
# Total GULP energy -55707.477737 kJ/mol
# GULP energy per Si atom -5570.747774 kJ/mol
# Density = 2.429756 g / cm^3
# Si number density = 24.352990 Si / 1000 Ang^3
#
#
#
# Elastic Constant Matrix: (Units=GPa)
#
#
# Indices 1 2 3 4 5 6 
#
# 1 142.9328 25.2148 7.7251 0.0000 -5.9324 0.0000
# 2 25.2148 142.0359 13.1158 0.0000 4.3545 0.0000
# 3 7.7251 13.1158 37.1649 0.0000 -1.5528 0.0000
# 4 0.0000 0.0000 0.0000 8.6326 0.0000 -10.7487
# 5 -5.9324 4.3545 -1.5528 0.0000 21.5937 0.0000
# 6 0.0000 0.0000 0.0000 -10.7487 0.0000 41.9706
#
#
#
# Elastic Compliance Matrix: (Units=1/GPa)
#
#
# Indices 1 2 3 4 5 6 
#
# 1 0.007368 -0.001285 -0.000986 0.000000 0.002212 0.000000
# 2 -0.001285 0.007561 -0.002487 0.000000 -0.002057 0.000000
# 3 -0.000986 -0.002487 0.028084 0.000000 0.002250 0.000000
# 4 0.000000 0.000000 0.000000 0.170073 0.000000 0.043556
# 5 0.002212 -0.002057 0.002250 0.000000 0.047494 0.000000
# 6 0.000000 0.000000 0.000000 0.043556 0.000000 0.034981
#
#
# Mechanical properties :
#
#
# Convention : Reuss Voigt Hill
#
# Bulk Modulus (GPa) = 29.85288 46.02719 37.94004
# Shear Modulus (GPa) = 15.81065 32.84457 24.32761
#
# Velocity S-wave (km/s) = 2.55076 3.67643 3.16406
# Velocity P-wave (km/s) = 4.57823 6.07969 5.38158
#
# Compressibility (1/GPa) = 0.03349761
#
# Stress axis : x y z
#
# Youngs Moduli (GPa) = 135.72115 132.25258 35.60769
#
# Poissons Ratio (x) = 0.16992 0.03510
# Poissons Ratio (y) = 0.17438 0.08857
# Poissons Ratio (z) = 0.13377 0.32895
#
# Static dielectric constant tensor:
#      x y z
#    x 1.863980 0.000000 0.011260 
#    y 0.000000 1.957810 0.000000 
#    z 0.011260 0.000000 2.054130 
# 
# From -- ./inp_files/12444.got.cif
#   From: 2010.05.17/outbox.cif.g08.bks.cpg/sg5_7_cif.got.tgz:12444.got - 2010.06.03 18:56:24.
