data_PCOD9123104
_publ_section_title
;
Structure prediction by ZEFSAII (Michael W. Deem and Ramdas Pophale) SiO2 
 PCOD9123104
Probable space group: C 2
;
_chemical_formula_sum "Si O2"
_cell_formula_units_Z 28
_cell_length_a 14.721929
_cell_length_b 14.783779
_cell_length_c 5.405518
_cell_angle_alpha 90.000000
_cell_angle_beta 71.953903
_cell_angle_gamma 90.000000
_cell_volume 1118.613712
_symmetry_space_group_name_H-M "C 2"
_symmetry_group_IT_number 5
_symmetry_cell_setting 'monoclinic'
loop_
_space_group_symop_operation_xyz
x,y,z
-x,y,-z
1/2+x,1/2+y,z
1/2-x,1/2+y,-z
loop_
_atom_site_type_symbol
_atom_site_label
_atom_site_fract_x
_atom_site_fract_y
_atom_site_fract_z
Si Si1 0.260764 0.984430 0.454359
Si Si2 0.562792 0.915966 0.200995
Si Si3 0.852428 0.601719 0.020974
Si Si4 0.585744 0.279515 0.232571
Si Si5 0.298666 0.804488 0.238234
Si Si6 0.160911 0.116234 0.902585
Si Si7 0.415640 0.472520 0.764380
O O1 0.302369 0.883944 0.440702
O O2 0.185745 0.974087 0.291640
O O3 0.200114 0.031156 0.714887
O O4 0.340118 0.056214 0.298904
O O5 0.500000 0.897138 0.500000
O O6 0.606730 0.017932 0.175343
O O7 0.500000 0.913467 0.000000
O O8 0.649002 0.848172 0.047153
O O9 0.911641 0.692070 0.940931
O O10 0.746823 0.632887 0.023794
O O11 0.500000 0.272242 0.500000
O O12 0.686788 0.282293 0.295112
O O13 0.583312 0.376523 0.096275
O O14 0.350212 0.708349 0.238722
O O15 0.074740 0.069618 0.116943
O O16 0.500000 0.464861 0.500000
#
# Coordination Sequence:
#
# PCOD9123104 Si02
#       7
#     4   4   4   4   4   4   4
#     4   9  19  36  57  85 119 161 216 264 339 394
#     4  11  25  45  69 101 138 184 227 281 342 403
#     4   9  20  37  62  92 122 165 212 279 335 405
#     4   9  17  37  65  91 124 163 217 275 342 405
#     4   9  21  41  59  95 129 171 227 279 333 406
#     4  10  20  37  62  87 119 177 215 272 341 396
#     4   9  19  35  55  83 121 161 211 273 324 403
#
# _framework density 25.030982999999999
#
# number of rings (size 3 to 8) (size 9 to 14) (size 15 to 20)
#    0.000    2.571    0.000    1.286    4.000    2.286 
#   10.286    0.000    3.143    0.000    0.000    0.000 
#    0.000    0.000    0.000    0.000    0.000    0.000 
#
# Total GULP energy -78118.924632 kJ/mol
# GULP energy per Si atom -5579.923188 kJ/mol
# Density = 2.497401 g / cm^3
# Si number density = 25.030983 Si / 1000 Ang^3
#
#
#
# Elastic Constant Matrix: (Units=GPa)
#
#
# Indices 1 2 3 4 5 6 
#
# 1 83.6415 4.2191 5.7579 0.0000 -6.9139 0.0000
# 2 4.2191 197.9710 24.6697 0.0000 -18.8878 0.0000
# 3 5.7579 24.6697 64.2819 0.0000 -19.2309 0.0000
# 4 0.0000 0.0000 0.0000 13.9026 0.0000 -9.4538
# 5 -6.9139 -18.8878 -19.2309 0.0000 37.3256 0.0000
# 6 0.0000 0.0000 0.0000 -9.4538 0.0000 10.3793
#
#
#
# Elastic Compliance Matrix: (Units=1/GPa)
#
#
# Indices 1 2 3 4 5 6 
#
# 1 0.012155 -0.000008 -0.000489 0.000000 0.001996 0.000000
# 2 -0.000008 0.005426 -0.001490 0.000000 0.001976 0.000000
# 3 -0.000489 -0.001490 0.018820 0.000000 0.008852 0.000000
# 4 0.000000 0.000000 0.000000 0.188972 0.000000 0.172121
# 5 0.001996 0.001976 0.008852 0.000000 0.032722 0.000000
# 6 0.000000 0.000000 0.000000 0.172121 0.000000 0.253118
#
#
# Mechanical properties :
#
#
# Convention : Reuss Voigt Hill
#
# Bulk Modulus (GPa) = 30.83814 46.13200 38.48507
# Shear Modulus (GPa) = 9.50579 33.07133 21.28856
#
# Velocity S-wave (km/s) = 1.95086 3.63880 2.91948
# Velocity P-wave (km/s) = 4.17387 6.01036 5.17425
#
# Compressibility (1/GPa) = 0.03242738
#
# Stress axis : x y z
#
# Youngs Moduli (GPa) = 82.27208 184.30900 53.13374
#
# Poissons Ratio (x) = 0.00143 0.02597
# Poissons Ratio (y) = 0.00064 0.07919
# Poissons Ratio (z) = 0.04021 0.27468
#
# Static dielectric constant tensor:
#      x y z
#    x 2.056060 0.000000 0.008640 
#    y 0.000000 2.038730 0.000000 
#    z 0.008640 0.000000 2.146090 
# 
# From -- ./inp_files/8612.got.cif
#   From: 2010.05.17/outbox.cif.g08.bks.cpg/sg5_5_cif.got.tgz:8612.got - 2010.06.03 18:56:24.
