data_PCOD9123825
_publ_section_title
;
Structure prediction by ZEFSAII (Michael W. Deem and Ramdas Pophale) SiO2 
 PCOD9123825
Probable space group: C 2
;
_chemical_formula_sum "Si O2"
_cell_formula_units_Z 28
_cell_length_a 18.291577
_cell_length_b 8.133210
_cell_length_c 16.727834
_cell_angle_alpha 90.000000
_cell_angle_beta 29.020517
_cell_angle_gamma 90.000000
_cell_volume 1207.270295
_symmetry_space_group_name_H-M "C 2"
_symmetry_group_IT_number 5
_symmetry_cell_setting 'monoclinic'
loop_
_space_group_symop_operation_xyz
x,y,z
-x,y,-z
1/2+x,1/2+y,z
1/2-x,1/2+y,-z
loop_
_atom_site_type_symbol
_atom_site_label
_atom_site_fract_x
_atom_site_fract_y
_atom_site_fract_z
Si Si1 0.671223 0.579750 0.937692
Si Si2 0.252747 0.788234 0.445143
Si Si3 0.006946 0.016691 0.736458
Si Si4 0.500000 0.330542 0.000000
Si Si5 0.495056 0.085862 0.409628
Si Si6 0.643292 0.075118 0.755854
Si Si7 0.500000 0.834156 0.000000
Si Si8 0.972013 0.202897 0.432939
O O1 0.841754 0.642711 0.778063
O O2 0.561320 0.724694 0.013385
O O3 0.615501 0.513485 0.076545
O O4 0.638749 0.444820 0.897806
O O5 0.376777 0.663485 0.356162
O O6 0.150984 0.687148 0.478454
O O7 0.116187 0.858392 0.630003
O O8 0.349254 0.947798 0.324650
O O9 0.951154 0.071813 0.701070
O O10 0.470484 0.214609 0.104869
O O11 0.500000 0.095646 0.500000
O O12 0.495684 0.892193 0.386840
O O13 0.796002 0.169695 0.598288
O O14 0.633375 0.947974 0.839538
O O15 0.000000 0.178291 0.500000
#
# Coordination Sequence:
#
# PCOD9123825 Si02
#       8
#     4   4   4   2   4   4   2   4
#     4  11  24  41  67  99 139 183 222 284 339 396
#     4  11  24  42  67  99 135 178 230 280 340 409
#     4  11  25  42  70  99 135 182 228 285 341 401
#     4  10  22  38  66 100 138 178 228 276 334 404
#     4  11  24  43  69  99 140 182 225 276 347 406
#     4  10  21  38  66  99 128 179 223 277 330 403
#     4  10  20  40  64  98 136 170 226 278 328 408
#     4  10  23  43  67  94 134 178 225 280 341 413
#
# _framework density 23.192817000000002
#
# number of rings (size 3 to 8) (size 9 to 14) (size 15 to 20)
#    0.000    1.429    1.429    3.429    8.000    5.714 
#    0.000    0.000    0.000    0.000    0.000    0.000 
#    0.000    0.000    0.000    0.000    0.000    0.000 
#
# Total GULP energy -78059.650515 kJ/mol
# GULP energy per Si atom -5575.689322 kJ/mol
# Density = 2.314003 g / cm^3
# Si number density = 23.192817 Si / 1000 Ang^3
#
#
#
# Elastic Constant Matrix: (Units=GPa)
#
#
# Indices 1 2 3 4 5 6 
#
# 1 58.1994 22.5192 4.6107 0.0000 5.9212 0.0001
# 2 22.5192 39.3132 2.9188 0.0011 -8.5601 -0.0028
# 3 4.6107 2.9188 86.9610 0.0002 21.5093 -0.0004
# 4 0.0000 0.0011 0.0002 69.6672 0.0000 -80.5913
# 5 5.9212 -8.5601 21.5093 0.0000 26.0138 0.0000
# 6 0.0001 -0.0028 -0.0004 -80.5913 0.0000 270.0148
#
#
#
# Elastic Compliance Matrix: (Units=1/GPa)
#
#
# Indices 1 2 3 4 5 6 
#
# 1 0.025180 -0.017607 0.002648 0.000000 -0.013715 0.000000
# 2 -0.017607 0.040840 -0.005974 0.000000 0.022386 0.000000
# 3 0.002648 -0.005974 0.015330 0.000000 -0.015244 0.000000
# 4 0.000000 0.000000 0.000000 0.021924 0.000000 0.006544
# 5 -0.013715 0.022386 -0.015244 0.000000 0.061534 0.000000
# 6 0.000000 0.000000 0.000000 0.006544 0.000000 0.005657
#
#
# Mechanical properties :
#
#
# Convention : Reuss Voigt Hill
#
# Bulk Modulus (GPa) = 25.32613 27.17454 26.25034
# Shear Modulus (GPa) = 22.17369 83.43415 52.80392
#
# Velocity S-wave (km/s) = 3.09537 6.00435 4.77669
# Velocity P-wave (km/s) = 4.87018 7.73381 6.46260
#
# Compressibility (1/GPa) = 0.03948491
#
# Stress axis : x y z
#
# Youngs Moduli (GPa) = 39.71329 24.48570 65.23101
#
# Poissons Ratio (x) = 0.43111 -0.17274
# Poissons Ratio (y) = 0.69922 0.38972
# Poissons Ratio (z) = -0.10517 0.14629
#
# Static dielectric constant tensor:
#      x y z
#    x 1.419560 0.000000 0.132670 
#    y 0.000000 1.905990 0.000000 
#    z 0.132670 0.000000 1.893450 
# 
# From -- ./inp_files/62731.got.cif
#   From: 2010.05.17/outbox.cif.g08.bks.cpg/sg5_32_cif.got.tgz:62731.got - 2010.06.03 18:56:24.
