data_PCOD9123110
_publ_section_title
;
Structure prediction by ZEFSAII (Michael W. Deem and Ramdas Pophale) SiO2 
 PCOD9123110
Probable space group: C 2
;
_chemical_formula_sum "Si O2"
_cell_formula_units_Z 32
_cell_length_a 12.357322
_cell_length_b 13.082894
_cell_length_c 9.697630
_cell_angle_alpha 90.000000
_cell_angle_beta 99.455576
_cell_angle_gamma 90.000000
_cell_volume 1546.509899
_symmetry_space_group_name_H-M "C 2"
_symmetry_group_IT_number 5
_symmetry_cell_setting 'monoclinic'
loop_
_space_group_symop_operation_xyz
x,y,z
-x,y,-z
1/2+x,1/2+y,z
1/2-x,1/2+y,-z
loop_
_atom_site_type_symbol
_atom_site_label
_atom_site_fract_x
_atom_site_fract_y
_atom_site_fract_z
Si Si1 0.814665 0.907630 0.404616
Si Si2 0.265066 0.113633 0.147703
Si Si3 0.680066 0.593996 0.424046
Si Si4 0.481350 0.161444 0.843161
Si Si5 0.399191 0.797085 0.902788
Si Si6 0.084633 0.316410 0.402500
Si Si7 0.898130 0.704556 0.546331
Si Si8 0.203160 0.496719 0.111377
O O1 0.697731 0.876456 0.447243
O O2 0.879228 0.802186 0.442352
O O3 0.782861 0.950122 0.246253
O O4 0.865500 0.998877 0.502550
O O5 0.216165 0.065207 0.276481
O O6 0.397218 0.124689 0.177679
O O7 0.204937 0.223693 0.134875
O O8 0.238204 0.057120 0.999236
O O9 0.604194 0.694012 0.411055
O O10 0.790850 0.635131 0.520166
O O11 0.429963 0.229299 0.710390
O O12 0.391750 0.070819 0.846844
O O13 0.500000 0.207849 0.000000
O O14 0.442596 0.833628 0.762912
O O15 0.359006 0.899707 0.967666
O O16 0.500000 0.744925 0.000000
O O17 0.000000 0.347147 0.500000
O O18 0.000000 0.645788 0.500000
#
# Coordination Sequence:
#
# PCOD9123110 Si02
#       8
#     4   4   4   4   4   4   4   4
#     4  10  22  37  57  90 120 151 206 248 302 358
#     4  10  21  38  62  88 121 158 204 252 300 362
#     4  10  20  38  57  85 117 152 204 249 299 360
#     4  10  20  37  62  89 120 155 205 250 304 361
#     4  10  21  39  60  86 122 160 198 246 307 362
#     4   9  21  37  57  82 118 154 195 248 295 363
#     4  11  21  38  61  85 122 163 198 254 308 359
#     4  10  21  39  61  91 121 158 204 252 302 366
#
# _framework density 20.691751
#
# number of rings (size 3 to 8) (size 9 to 14) (size 15 to 20)
#    0.000    2.000    2.500    1.875    0.000    5.000 
#    6.750    1.250    0.000    0.000    0.000    0.000 
#    0.000    0.000    0.000    0.000    0.000    0.000 
#
# Total GULP energy -89179.904634 kJ/mol
# GULP energy per Si atom -5573.744040 kJ/mol
# Density = 2.064466 g / cm^3
# Si number density = 20.691751 Si / 1000 Ang^3
#
#
#
# Elastic Constant Matrix: (Units=GPa)
#
#
# Indices 1 2 3 4 5 6 
#
# 1 45.8837 -5.3508 34.0221 0.0000 -1.6369 0.0000
# 2 -5.3508 59.4617 28.6838 0.0000 2.2791 0.0000
# 3 34.0221 28.6838 101.7331 0.0000 -3.8696 0.0000
# 4 0.0000 0.0000 0.0000 29.2575 0.0000 7.3181
# 5 -1.6369 2.2791 -3.8696 0.0000 20.6666 0.0000
# 6 0.0000 0.0000 0.0000 7.3181 0.0000 2.6113
#
#
#
# Elastic Compliance Matrix: (Units=1/GPa)
#
#
# Indices 1 2 3 4 5 6 
#
# 1 0.033179 0.009719 -0.013876 0.000000 -0.001042 0.000000
# 2 0.009719 0.022524 -0.009736 0.000000 -0.003537 0.000000
# 3 -0.013876 -0.009736 0.017338 0.000000 0.003221 0.000000
# 4 0.000000 0.000000 0.000000 0.114299 0.000000 -0.320317
# 5 -0.001042 -0.003537 0.003221 0.000000 0.049298 0.000000
# 6 0.000000 0.000000 0.000000 -0.320317 0.000000 1.280622
#
#
# Mechanical properties :
#
#
# Convention : Reuss Voigt Hill
#
# Bulk Modulus (GPa) = 22.09632 35.75431 28.92531
# Shear Modulus (GPa) = 3.20486 20.48863 11.84675
#
# Velocity S-wave (km/s) = 1.24588 3.15013 2.39537
# Velocity P-wave (km/s) = 3.57374 5.52704 4.65402
#
# Compressibility (1/GPa) = 0.04525641
#
# Stress axis : x y z
#
# Youngs Moduli (GPa) = 30.13921 44.39689 57.67802
#
# Poissons Ratio (x) = -0.43151 0.80034
# Poissons Ratio (y) = -0.29293 0.56153
# Poissons Ratio (z) = 0.41821 0.43223
#
# Static dielectric constant tensor:
#      x y z
#    x 1.760560 0.000000 0.018940 
#    y 0.000000 1.732180 0.000000 
#    z 0.018940 0.000000 1.772140 
# 
# From -- ./inp_files/20646.got.cif
#   From: 2010.05.17/outbox.cif.g08.bks.cpg/sg5_11_cif.got.tgz:20646.got - 2010.06.03 18:56:24.
