data_PCOD9123385
_publ_section_title
;
Structure prediction by ZEFSAII (Michael W. Deem and Ramdas Pophale) SiO2 
 PCOD9123385
Probable space group: C 2
;
_chemical_formula_sum "Si O2"
_cell_formula_units_Z 30
_cell_length_a 14.982871
_cell_length_b 10.526411
_cell_length_c 8.762123
_cell_angle_alpha 90.000000
_cell_angle_beta 65.945785
_cell_angle_gamma 90.000000
_cell_volume 1261.919568
_symmetry_space_group_name_H-M "C 2"
_symmetry_group_IT_number 5
_symmetry_cell_setting 'monoclinic'
loop_
_space_group_symop_operation_xyz
x,y,z
-x,y,-z
1/2+x,1/2+y,z
1/2-x,1/2+y,-z
loop_
_atom_site_type_symbol
_atom_site_label
_atom_site_fract_x
_atom_site_fract_y
_atom_site_fract_z
Si Si1 0.209293 0.059840 0.841047
Si Si2 0.751478 0.843716 0.774743
Si Si3 0.468686 0.377452 0.693030
Si Si4 0.743640 0.538408 0.505123
Si Si5 0.540155 0.667247 0.633307
Si Si6 0.500000 0.662169 0.000000
Si Si7 0.374393 0.024155 0.972400
Si Si8 0.569425 0.144967 0.760922
O O1 0.239395 0.197222 0.753939
O O2 0.227872 0.973781 0.681093
O O3 0.095926 0.074357 0.954959
O O4 0.282277 0.042993 0.928263
O O5 0.852852 0.860640 0.794921
O O6 0.761735 0.930279 0.619554
O O7 0.654025 0.890863 0.930167
O O8 0.500000 0.334280 0.500000
O O9 0.495073 0.525148 0.679383
O O10 0.527338 0.284488 0.763143
O O11 0.654911 0.636151 0.534397
O O12 0.848526 0.603741 0.414899
O O13 0.500000 0.723239 0.500000
O O14 0.517505 0.725731 0.817909
O O15 0.381786 0.123596 0.107346
O O16 0.477141 0.047572 0.818668
#
# Coordination Sequence:
#
# PCOD9123385 Si02
#       8
#     4   4   4   4   4   2   4   4
#     4  11  23  42  65  95 133 182 223 287 342 412
#     4  11  21  41  66  92 133 178 223 278 342 411
#     4  11  19  35  66  96 124 177 227 276 343 399
#     4  10  22  38  61  98 129 170 227 277 338 409
#     4  10  20  38  63  93 131 178 223 286 343 396
#     4  10  24  38  62  94 130 178 234 274 342 422
#     4  10  23  41  61  97 132 176 218 280 346 396
#     4  10  22  38  62  95 133 175 222 279 333 410
#
# _framework density 23.773308
#
# number of rings (size 3 to 8) (size 9 to 14) (size 15 to 20)
#    0.000    1.600    4.000    1.600    1.867    3.200 
#    4.800    0.000    0.000    0.000    0.000    0.000 
#    0.000    0.000    0.000    0.000    0.000    0.000 
#
# Total GULP energy -83780.663411 kJ/mol
# GULP energy per Si atom -5585.377561 kJ/mol
# Density = 2.371920 g / cm^3
# Si number density = 23.773308 Si / 1000 Ang^3
#
#
#
# Elastic Constant Matrix: (Units=GPa)
#
#
# Indices 1 2 3 4 5 6 
#
# 1 157.4341 6.2119 67.5076 0.0000 1.5725 0.0000
# 2 6.2119 34.9876 12.4342 0.0000 3.2355 0.0000
# 3 67.5076 12.4342 133.3922 0.0000 -13.6658 0.0000
# 4 0.0000 0.0000 0.0000 8.9247 0.0000 -4.1146
# 5 1.5725 3.2355 -13.6658 0.0000 55.8133 0.0000
# 6 0.0000 0.0000 0.0000 -4.1146 0.0000 29.2165
#
#
#
# Elastic Compliance Matrix: (Units=1/GPa)
#
#
# Indices 1 2 3 4 5 6 
#
# 1 0.008202 0.000192 -0.004301 0.000000 -0.001295 0.000000
# 2 0.000192 0.029896 -0.003141 0.000000 -0.002507 0.000000
# 3 -0.004301 -0.003141 0.010255 0.000000 0.002814 0.000000
# 4 0.000000 0.000000 0.000000 0.119829 0.000000 0.016876
# 5 -0.001295 -0.002507 0.002814 0.000000 0.018788 0.000000
# 6 0.000000 0.000000 0.000000 0.016876 0.000000 0.036604
#
#
# Mechanical properties :
#
#
# Convention : Reuss Voigt Hill
#
# Bulk Modulus (GPa) = 29.54054 55.34681 42.44367
# Shear Modulus (GPa) = 20.05159 34.76824 27.40991
#
# Velocity S-wave (km/s) = 2.90737 3.82840 3.39923
# Velocity P-wave (km/s) = 4.87066 6.54781 5.77049
#
# Compressibility (1/GPa) = 0.03385179
#
# Stress axis : x y z
#
# Youngs Moduli (GPa) = 121.92699 33.44984 97.51705
#
# Poissons Ratio (x) = -0.00643 0.41945
# Poissons Ratio (y) = -0.02344 0.30629
# Poissons Ratio (z) = 0.52445 0.10506
#
# Static dielectric constant tensor:
#      x y z
#    x 1.925700 0.000000 0.054130 
#    y 0.000000 1.874080 0.000000 
#    z 0.054130 0.000000 2.061530 
# 
# From -- ./inp_files/23847.got.cif
#   From: 2010.05.17/outbox.cif.g08.bks.cpg/sg5_12_cif.got.tgz:23847.got - 2010.06.03 18:56:24.
