data_PCOD9123803
_publ_section_title
;
Structure prediction by ZEFSAII (Michael W. Deem and Ramdas Pophale) SiO2 
 PCOD9123803
Probable space group: C 2
;
_chemical_formula_sum "Si O2"
_cell_formula_units_Z 28
_cell_length_a 9.912481
_cell_length_b 10.165878
_cell_length_c 14.446774
_cell_angle_alpha 90.000000
_cell_angle_beta 81.850091
_cell_angle_gamma 90.000000
_cell_volume 1441.085353
_symmetry_space_group_name_H-M "C 2"
_symmetry_group_IT_number 5
_symmetry_cell_setting 'monoclinic'
loop_
_space_group_symop_operation_xyz
x,y,z
-x,y,-z
1/2+x,1/2+y,z
1/2-x,1/2+y,-z
loop_
_atom_site_type_symbol
_atom_site_label
_atom_site_fract_x
_atom_site_fract_y
_atom_site_fract_z
Si Si1 0.000000 0.006120 0.000000
Si Si2 0.229489 0.484046 0.116074
Si Si3 0.709013 0.131006 0.415646
Si Si4 0.232249 0.362964 0.316995
Si Si5 0.913069 0.209902 0.139358
Si Si6 0.088395 0.626831 0.632435
Si Si7 0.500000 0.929040 0.000000
Si Si8 0.932218 0.328558 0.336705
O O1 0.022179 0.106963 0.084327
O O2 0.861370 0.935523 0.043270
O O3 0.214916 0.397602 0.209746
O O4 0.275029 0.627310 0.146788
O O5 0.100089 0.496937 0.062780
O O6 0.658541 0.112045 0.525062
O O7 0.571381 0.156376 0.369580
O O8 0.813761 0.251516 0.401151
O O9 0.772474 0.996790 0.367198
O O10 0.336741 0.244961 0.322594
O O11 0.081302 0.325783 0.368447
O O12 0.943755 0.253400 0.238614
O O13 0.909264 0.333854 0.072907
O O14 0.099363 0.482489 0.676478
#
# Coordination Sequence:
#
# PCOD9123803 Si02
#       8
#     2   4   4   4   4   4   2   4
#     4   7  18  38  59  82 117 164 200 249 305 358
#     4  10  20  40  64  88 122 165 205 255 310 364
#     4  10  21  43  62  86 131 166 201 265 312 366
#     4  11  22  40  65  94 124 165 210 260 308 376
#     4   9  19  40  61  83 124 161 199 254 312 362
#     4  10  24  39  61  96 123 161 216 253 313 378
#     4  11  20  40  65  88 121 160 206 259 311 368
#     4  11  21  41  66  89 125 168 203 259 315 367
#
# _framework density 19.429801000000001
#
# number of rings (size 3 to 8) (size 9 to 14) (size 15 to 20)
#    0.857    1.143    2.857    0.857    0.000    2.857 
#    7.714    0.714    0.000    0.000    0.000    0.000 
#    0.000    0.000    0.000    0.000    0.000    0.000 
#
# Total GULP energy -77972.176691 kJ/mol
# GULP energy per Si atom -5569.441192 kJ/mol
# Density = 1.938558 g / cm^3
# Si number density = 19.429801 Si / 1000 Ang^3
#
#
#
# Elastic Constant Matrix: (Units=GPa)
#
#
# Indices 1 2 3 4 5 6 
#
# 1 85.3121 57.2601 19.9723 0.0000 0.6306 0.0000
# 2 57.2601 77.6713 5.1979 0.0000 8.5189 0.0000
# 3 19.9723 5.1979 58.3572 0.0000 -3.4532 0.0000
# 4 0.0000 0.0000 0.0000 3.3756 0.0000 -2.3555
# 5 0.6306 8.5189 -3.4532 0.0000 29.1972 0.0000
# 6 0.0000 0.0000 0.0000 -2.3555 0.0000 30.3388
#
#
#
# Elastic Compliance Matrix: (Units=1/GPa)
#
#
# Indices 1 2 3 4 5 6 
#
# 1 0.026403 -0.019461 -0.007050 0.000000 0.004274 0.000000
# 2 -0.019461 0.027764 0.003759 0.000000 -0.007236 0.000000
# 3 -0.007050 0.003759 0.019293 0.000000 0.001337 0.000000
# 4 0.000000 0.000000 0.000000 0.313215 0.000000 0.024318
# 5 0.004274 -0.007236 0.001337 0.000000 0.036427 0.000000
# 6 0.000000 0.000000 0.000000 0.024318 0.000000 0.034849
#
#
# Mechanical properties :
#
#
# Convention : Reuss Voigt Hill
#
# Bulk Modulus (GPa) = 35.77050 42.91123 39.34086
# Shear Modulus (GPa) = 9.75093 21.84300 15.79697
#
# Velocity S-wave (km/s) = 2.24264 3.35655 2.85446
# Velocity P-wave (km/s) = 5.01558 6.09550 5.58172
#
# Compressibility (1/GPa) = 0.02795600
#
# Stress axis : x y z
#
# Youngs Moduli (GPa) = 37.87519 36.01816 51.83269
#
# Poissons Ratio (x) = 0.70096 0.36541
# Poissons Ratio (y) = 0.73710 -0.19486
# Poissons Ratio (z) = 0.26701 -0.13540
#
# Static dielectric constant tensor:
#      x y z
#    x 1.713520 0.000000 -0.028280 
#    y 0.000000 1.676260 0.000000 
#    z -0.028280 0.000000 1.722150 
# 
# From -- ./inp_files/50137.got.cif
#   From: 2010.05.17/outbox.cif.g08.bks.cpg/sg5_26_cif.got.tgz:50137.got - 2010.06.03 18:56:24.
