data_PCOD9123577
_publ_section_title
;
Structure prediction by ZEFSAII (Michael W. Deem and Ramdas Pophale) SiO2 
 PCOD9123577
Probable space group: C 2
;
_chemical_formula_sum "Si O2"
_cell_formula_units_Z 30
_cell_length_a 9.755112
_cell_length_b 7.701421
_cell_length_c 18.115965
_cell_angle_alpha 90.000000
_cell_angle_beta 74.530975
_cell_angle_gamma 90.000000
_cell_volume 1311.717032
_symmetry_space_group_name_H-M "C 2"
_symmetry_group_IT_number 5
_symmetry_cell_setting 'monoclinic'
loop_
_space_group_symop_operation_xyz
x,y,z
-x,y,-z
1/2+x,1/2+y,z
1/2-x,1/2+y,-z
loop_
_atom_site_type_symbol
_atom_site_label
_atom_site_fract_x
_atom_site_fract_y
_atom_site_fract_z
Si Si1 0.000000 0.206560 0.500000
Si Si2 0.077506 0.532293 0.161506
Si Si3 0.839100 0.980073 0.022799
Si Si4 0.358586 0.743070 0.740917
Si Si5 0.586374 0.230353 0.695094
Si Si6 0.865962 0.575987 0.065404
Si Si7 0.392474 0.448436 0.639243
Si Si8 0.866415 0.366086 0.386748
O O1 0.079696 0.081301 0.431332
O O2 0.107778 0.324607 0.531968
O O3 0.217327 0.570778 0.091461
O O4 0.108512 0.337820 0.187486
O O5 0.043762 0.659905 0.234976
O O6 0.929181 0.545376 0.137375
O O7 0.852917 0.781762 0.049657
O O8 0.774112 0.990435 0.949353
O O9 0.000000 0.052978 0.000000
O O10 0.344429 0.539698 0.723510
O O11 0.497036 0.790527 0.673880
O O12 0.210771 0.810069 0.727854
O O13 0.539510 0.365647 0.641223
O O14 0.636583 0.063573 0.641436
O O15 0.000000 0.504812 0.000000
O O16 0.282723 0.303953 0.625601
#
# Coordination Sequence:
#
# PCOD9123577 Si02
#       8
#     2   4   4   4   4   4   4   4
#     4  10  22  36  58  90 124 160 200 248 308 360
#     4  10  20  39  62  84 121 163 195 248 315 360
#     4  10  21  40  61  87 120 154 202 254 300 365
#     4   9  20  40  60  86 121 155 199 248 296 359
#     4  10  21  39  61  87 121 160 205 254 302 361
#     4   9  20  39  59  85 118 151 195 246 297 359
#     4  10  22  39  61  91 122 157 206 252 296 360
#     4   9  21  39  58  85 121 157 199 249 298 356
#
# _framework density 22.870785999999999
#
# number of rings (size 3 to 8) (size 9 to 14) (size 15 to 20)
#    0.000    2.400    0.000    0.800    0.000   10.667 
#    0.000   32.000    0.000    0.000    0.000    0.000 
#    0.000    0.000    0.000    0.000    0.000    0.000 
#
# Total GULP energy -83507.106798 kJ/mol
# GULP energy per Si atom -5567.140453 kJ/mol
# Density = 2.281873 g / cm^3
# Si number density = 22.870786 Si / 1000 Ang^3
#
#
#
# Elastic Constant Matrix: (Units=GPa)
#
#
# Indices 1 2 3 4 5 6 
#
# 1 155.6052 27.7338 40.4510 0.0000 16.3512 0.0000
# 2 27.7338 43.2424 27.1887 0.0000 12.0945 0.0000
# 3 40.4510 27.1887 85.2279 0.0000 3.8551 0.0000
# 4 0.0000 0.0000 0.0000 27.3504 0.0000 7.3390
# 5 16.3512 12.0945 3.8551 0.0000 40.2570 0.0000
# 6 0.0000 0.0000 0.0000 7.3390 0.0000 23.0647
#
#
#
# Elastic Compliance Matrix: (Units=1/GPa)
#
#
# Indices 1 2 3 4 5 6 
#
# 1 0.007850 -0.002704 -0.002768 0.000000 -0.002111 0.000000
# 2 -0.002704 0.032553 -0.008747 0.000000 -0.007844 0.000000
# 3 -0.002768 -0.008747 0.015736 0.000000 0.002245 0.000000
# 4 0.000000 0.000000 0.000000 0.039976 0.000000 -0.012720
# 5 -0.002111 -0.007844 0.002245 0.000000 0.027839 0.000000
# 6 0.000000 0.000000 0.000000 -0.012720 0.000000 0.047404
#
#
# Mechanical properties :
#
#
# Convention : Reuss Voigt Hill
#
# Bulk Modulus (GPa) = 36.09852 52.75805 44.42829
# Shear Modulus (GPa) = 23.92031 30.71455 27.31743
#
# Velocity S-wave (km/s) = 3.23753 3.66862 3.45979
# Velocity P-wave (km/s) = 5.45833 6.40804 5.95216
#
# Compressibility (1/GPa) = 0.02770196
#
# Stress axis : x y z
#
# Youngs Moduli (GPa) = 127.39294 30.71914 63.55041
#
# Poissons Ratio (x) = 0.08306 0.17588
# Poissons Ratio (y) = 0.34446 0.55585
# Poissons Ratio (z) = 0.35257 0.26869
#
# Static dielectric constant tensor:
#      x y z
#    x 1.976440 0.000000 -0.016740 
#    y 0.000000 1.891630 0.000000 
#    z -0.016740 0.000000 1.941480 
# 
# From -- ./inp_files/64323.got.cif
#   From: 2010.05.17/outbox.cif.g08.bks.cpg/sg5_33_cif.got.tgz:64323.got - 2010.06.03 18:56:24.
