data_PCOD9123827
_publ_section_title
;
Structure prediction by ZEFSAII (Michael W. Deem and Ramdas Pophale) SiO2 
 PCOD9123827
Probable space group: C 2
;
_chemical_formula_sum "Si O2"
_cell_formula_units_Z 28
_cell_length_a 21.219581
_cell_length_b 7.495168
_cell_length_c 13.326251
_cell_angle_alpha 90.000000
_cell_angle_beta 31.227426
_cell_angle_gamma 90.000000
_cell_volume 1098.807571
_symmetry_space_group_name_H-M "C 2"
_symmetry_group_IT_number 5
_symmetry_cell_setting 'monoclinic'
loop_
_space_group_symop_operation_xyz
x,y,z
-x,y,-z
1/2+x,1/2+y,z
1/2-x,1/2+y,-z
loop_
_atom_site_type_symbol
_atom_site_label
_atom_site_fract_x
_atom_site_fract_y
_atom_site_fract_z
Si Si1 0.579182 0.116590 0.632189
Si Si2 0.120795 0.042675 0.282977
Si Si3 0.227519 0.569977 0.234093
Si Si4 0.351943 0.906951 0.865013
Si Si5 0.262888 0.328893 0.477370
Si Si6 0.378682 0.833627 0.124370
Si Si7 0.788148 0.697060 0.229213
O O1 0.624090 0.122791 0.455469
O O2 0.450034 0.016740 0.797488
O O3 0.595477 0.296195 0.678604
O O4 0.682083 0.994280 0.546192
O O5 0.101397 0.211230 0.233624
O O6 0.190071 0.122624 0.285096
O O7 0.000000 0.967070 0.500000
O O8 0.214968 0.914539 0.097342
O O9 0.167342 0.513062 0.213215
O O10 0.323167 0.730886 0.106385
O O11 0.303377 0.399787 0.173570
O O12 0.205966 0.304455 0.664367
O O13 0.244652 0.207458 0.403228
O O14 0.389541 0.044086 0.090052
O O15 0.500000 0.750355 0.000000
#
# Coordination Sequence:
#
# PCOD9123827 Si02
#       7
#     4   4   4   4   4   4   4
#     4  10  20  40  71 101 148 197 241 315 387 454
#     4  11  26  48  74 111 151 201 256 325 383 464
#     4   9  22  43  69 104 148 191 253 314 380 459
#     4  11  24  47  74 106 150 204 252 313 399 455
#     4  10  20  40  65 102 138 186 245 301 377 454
#     4  11  24  39  68 105 139 193 247 308 379 458
#     4  10  22  43  66  97 147 188 241 305 381 448
#
# _framework density 25.48217
#
# number of rings (size 3 to 8) (size 9 to 14) (size 15 to 20)
#    0.000    1.714    1.429    3.000    4.000    1.714 
#    5.143    7.857    0.000    0.000    0.000    0.000 
#    0.000    0.000    0.000    0.000    0.000    0.000 
#
# Total GULP energy -78013.098787 kJ/mol
# GULP energy per Si atom -5572.364199 kJ/mol
# Density = 2.542417 g / cm^3
# Si number density = 25.482170 Si / 1000 Ang^3
#
#
#
# Elastic Constant Matrix: (Units=GPa)
#
#
# Indices 1 2 3 4 5 6 
#
# 1 132.9009 29.9035 26.5444 0.0001 11.0776 0.0000
# 2 29.9035 91.2165 24.4769 -0.0006 -16.0090 -0.0001
# 3 26.5444 24.4769 98.1935 -0.0002 6.0008 0.0000
# 4 0.0001 -0.0006 -0.0002 12.1277 0.0000 0.9334
# 5 11.0776 -16.0090 6.0008 0.0000 38.3389 0.0001
# 6 0.0000 -0.0001 0.0000 0.9334 0.0001 46.1473
#
#
#
# Elastic Compliance Matrix: (Units=1/GPa)
#
#
# Indices 1 2 3 4 5 6 
#
# 1 0.008814 -0.003163 -0.001371 0.000000 -0.003653 0.000000
# 2 -0.003163 0.014114 -0.003109 0.000001 0.007294 0.000000
# 3 -0.001371 -0.003109 0.011495 0.000000 -0.002701 0.000000
# 4 0.000000 0.000001 0.000000 0.082585 0.000000 -0.001670
# 5 -0.003653 0.007294 -0.002701 0.000000 0.030607 0.000000
# 6 0.000000 0.000000 0.000000 -0.001670 0.000000 0.021704
#
#
# Mechanical properties :
#
#
# Convention : Reuss Voigt Hill
#
# Bulk Modulus (GPa) = 52.25386 53.79563 53.02475
# Shear Modulus (GPa) = 26.18024 35.41517 30.79770
#
# Velocity S-wave (km/s) = 3.20878 3.73205 3.48026
# Velocity P-wave (km/s) = 5.85482 6.30300 6.08304
#
# Compressibility (1/GPa) = 0.01913734
#
# Stress axis : x y z
#
# Youngs Moduli (GPa) = 113.45084 70.85053 86.99657
#
# Poissons Ratio (x) = 0.22409 0.11928
# Poissons Ratio (y) = 0.35882 0.27048
# Poissons Ratio (z) = 0.15556 0.22028
#
# Static dielectric constant tensor:
#      x y z
#    x 1.982240 0.000000 -0.057790 
#    y 0.000000 2.283800 0.000000 
#    z -0.057790 0.000000 2.455300 
# 
# From -- ./inp_files/56870.got.cif
#   From: 2010.05.17/outbox.cif.g08.bks.cpg/sg5_29_cif.got.tgz:56870.got - 2010.06.03 18:56:24.
