data_PCOD9123179
_publ_section_title
;
Structure prediction by ZEFSAII (Michael W. Deem and Ramdas Pophale) SiO2 
 PCOD9123179
Probable space group: C 2
;
_chemical_formula_sum "Si O2"
_cell_formula_units_Z 28
_cell_length_a 20.498081
_cell_length_b 14.370125
_cell_length_c 9.078544
_cell_angle_alpha 90.000000
_cell_angle_beta 148.399789
_cell_angle_gamma 90.000000
_cell_volume 1401.238815
_symmetry_space_group_name_H-M "C 2"
_symmetry_group_IT_number 5
_symmetry_cell_setting 'monoclinic'
loop_
_space_group_symop_operation_xyz
x,y,z
-x,y,-z
1/2+x,1/2+y,z
1/2-x,1/2+y,-z
loop_
_atom_site_type_symbol
_atom_site_label
_atom_site_fract_x
_atom_site_fract_y
_atom_site_fract_z
Si Si1 0.362617 0.366410 0.733022
Si Si2 0.482764 0.682943 0.642555
Si Si3 0.260324 0.709069 0.688957
Si Si4 0.864200 0.612349 0.809172
Si Si5 0.638749 0.311126 0.706649
Si Si6 0.742381 0.285360 0.219241
Si Si7 0.669996 0.496813 0.580294
O O1 0.261450 0.302144 0.452600
O O2 0.308354 0.375070 0.791648
O O3 0.382440 0.456224 0.672963
O O4 0.500000 0.320752 0.000000
O O5 0.500000 0.696706 0.500000
O O6 0.384715 0.757898 0.517149
O O7 0.412914 0.583755 0.528167
O O8 0.609011 0.692014 0.979361
O O9 0.223595 0.629616 0.502754
O O10 0.163046 0.731039 0.633046
O O11 0.841733 0.702650 0.870982
O O12 0.808364 0.530474 0.802198
O O13 0.000000 0.600624 0.000000
O O14 0.500000 0.310040 0.500000
O O15 0.665816 0.411369 0.685698
O O16 0.723764 0.293909 0.010963
#
# Coordination Sequence:
#
# PCOD9123179 Si02
#       7
#     4   4   4   4   4   4   4
#     4  10  21  39  61  94 120 158 213 259 300 373
#     4  11  22  40  61  92 129 161 207 264 309 379
#     4  10  21  38  65  89 118 166 210 249 312 369
#     4  10  21  41  61  91 123 160 210 265 308 371
#     4  11  20  39  63  93 121 165 207 258 304 374
#     4  10  20  37  65  86 119 161 207 258 309 364
#     4  10  24  38  61  91 132 163 204 257 323 358
#
# _framework density 19.982316999999998
#
# number of rings (size 3 to 8) (size 9 to 14) (size 15 to 20)
#    0.000    1.714    1.429    4.714    2.000    4.571 
#    5.143    0.000    0.000    0.000    0.000    0.000 
#    0.000    0.000    0.000    0.000    0.000    0.000 
#
# Total GULP energy -78013.519383 kJ/mol
# GULP energy per Si atom -5572.394242 kJ/mol
# Density = 1.993684 g / cm^3
# Si number density = 19.982317 Si / 1000 Ang^3
#
#
#
# Elastic Constant Matrix: (Units=GPa)
#
#
# Indices 1 2 3 4 5 6 
#
# 1 117.4350 38.5953 19.1040 0.0000 9.0828 0.0000
# 2 38.5953 32.7083 21.6366 0.0000 10.7187 0.0000
# 3 19.1040 21.6366 93.4624 0.0000 9.8826 0.0000
# 4 0.0000 0.0000 0.0000 15.3359 0.0000 -4.9066
# 5 9.0828 10.7187 9.8826 0.0000 42.6004 0.0000
# 6 0.0000 0.0000 0.0000 -4.9066 0.0000 38.0490
#
#
#
# Elastic Compliance Matrix: (Units=1/GPa)
#
#
# Indices 1 2 3 4 5 6 
#
# 1 0.014068 -0.017722 0.001100 0.000000 0.001205 0.000000
# 2 -0.017722 0.060803 -0.009468 0.000000 -0.009324 0.000000
# 3 0.001100 -0.009468 0.012752 0.000000 -0.000811 0.000000
# 4 0.000000 0.000000 0.000000 0.068013 0.000000 0.008770
# 5 0.001205 -0.009324 -0.000811 0.000000 0.025751 0.000000
# 6 0.000000 0.000000 0.000000 0.008770 0.000000 0.027413
#
#
# Mechanical properties :
#
#
# Convention : Reuss Voigt Hill
#
# Bulk Modulus (GPa) = 28.21386 44.69751 36.45568
# Shear Modulus (GPa) = 18.32888 30.14838 24.23863
#
# Velocity S-wave (km/s) = 3.03191 3.88848 3.48660
# Velocity P-wave (km/s) = 5.13874 6.52514 5.87300
#
# Compressibility (1/GPa) = 0.03544358
#
# Stress axis : x y z
#
# Youngs Moduli (GPa) = 71.08539 16.44651 78.41804
#
# Poissons Ratio (x) = 0.29146 -0.08624
# Poissons Ratio (y) = 1.25976 0.74244
# Poissons Ratio (z) = -0.07818 0.15571
#
# Static dielectric constant tensor:
#      x y z
#    x 1.723960 0.000000 -0.002660 
#    y 0.000000 1.777220 0.000000 
#    z -0.002660 0.000000 1.738330 
# 
# From -- ./inp_files/29915.got.cif
#   From: 2010.05.17/outbox.cif.g08.bks.cpg/sg5_15_cif.got.tgz:29915.got - 2010.06.03 18:56:24.
