data_PCOD9123448
_publ_section_title
;
Structure prediction by ZEFSAII (Michael W. Deem and Ramdas Pophale) SiO2 
 PCOD9123448
Probable space group: C 2
;
_chemical_formula_sum "Si O2"
_cell_formula_units_Z 32
_cell_length_a 19.754083
_cell_length_b 15.127654
_cell_length_c 13.284817
_cell_angle_alpha 90.000000
_cell_angle_beta 24.664682
_cell_angle_gamma 90.000000
_cell_volume 1656.684001
_symmetry_space_group_name_H-M "C 2"
_symmetry_group_IT_number 5
_symmetry_cell_setting 'monoclinic'
loop_
_space_group_symop_operation_xyz
x,y,z
-x,y,-z
1/2+x,1/2+y,z
1/2-x,1/2+y,-z
loop_
_atom_site_type_symbol
_atom_site_label
_atom_site_fract_x
_atom_site_fract_y
_atom_site_fract_z
Si Si1 0.530660 0.257280 0.172778
Si Si2 0.297718 0.579470 0.151269
Si Si3 0.228401 0.850675 0.607811
Si Si4 0.688892 0.879358 0.271409
Si Si5 0.346024 0.553093 0.322862
Si Si6 0.140808 0.761605 0.378715
Si Si7 0.046345 0.382626 0.054154
Si Si8 0.500109 0.082426 0.119340
O O1 0.405672 0.284314 0.252569
O O2 0.427871 0.258211 0.414762
O O3 0.585329 0.159097 0.067846
O O4 0.682362 0.324370 0.969352
O O5 0.225170 0.484827 0.217988
O O6 0.318376 0.581095 0.244794
O O7 0.189430 0.663849 0.273998
O O8 0.483989 0.586564 0.863556
O O9 0.269113 0.849914 0.670692
O O10 0.152603 0.946723 0.683756
O O11 0.396447 0.843793 0.319895
O O12 0.500000 0.863978 0.500000
O O13 0.188905 0.581781 0.594995
O O14 0.296744 0.822457 0.154208
O O15 0.000000 0.798682 0.500000
O O16 0.067766 0.485205 0.055673
O O17 0.000000 0.385819 0.000000
O O18 0.500000 0.095517 0.000000
#
# Coordination Sequence:
#
# PCOD9123448 Si02
#       8
#     4   4   4   4   4   4   4   4
#     4  12  23  43  65  94 126 166 213 269 306 379
#     4  10  20  39  64  92 128 160 211 260 316 368
#     4  10  20  38  65  94 125 159 212 255 312 368
#     4  11  24  40  65  95 132 169 204 259 321 377
#     4   9  18  34  62  99 119 156 206 267 304 364
#     4  12  27  42  62  94 130 169 211 261 323 376
#     4  10  22  41  65  94 123 165 211 264 313 376
#     4  10  21  37  63  95 128 156 207 264 319 364
#
# _framework density 19.315694000000001
#
# number of rings (size 3 to 8) (size 9 to 14) (size 15 to 20)
#    0.000    1.500    3.750    1.500    5.250    0.000 
#    0.000    0.625    0.000    0.000    0.000    0.000 
#    0.000    0.000    0.000    0.000    0.000    0.000 
#
# Total GULP energy -89342.250258 kJ/mol
# GULP energy per Si atom -5583.890641 kJ/mol
# Density = 1.927173 g / cm^3
# Si number density = 19.315694 Si / 1000 Ang^3
#
#
#
# Elastic Constant Matrix: (Units=GPa)
#
#
# Indices 1 2 3 4 5 6 
#
# 1 25.8016 15.3553 20.4300 -0.0003 -7.3070 0.0003
# 2 15.3553 88.7538 59.6039 -0.0009 -13.0437 0.0005
# 3 20.4300 59.6039 104.6929 -0.0016 2.9372 0.0010
# 4 -0.0003 -0.0009 -0.0016 -179.7869 0.0001 96.3158
# 5 -7.3070 -13.0437 2.9372 0.0001 33.8272 -0.0001
# 6 0.0003 0.0005 0.0010 96.3158 -0.0001 -31.6698
#
#
#
# Elastic Compliance Matrix: (Units=1/GPa)
#
#
# Indices 1 2 3 4 5 6 
#
# 1 0.050068 -0.000297 -0.009925 0.000000 0.011562 0.000000
# 2 -0.000297 0.020662 -0.011956 0.000000 0.008941 0.000000
# 3 -0.009925 -0.011956 0.018530 0.000000 -0.008363 0.000000
# 4 0.000000 0.000000 0.000000 0.008839 0.000000 0.026882
# 5 0.011562 0.008941 -0.008363 0.000000 0.036233 0.000000
# 6 0.000000 0.000000 0.000000 0.026882 0.000000 0.050179
#
#
# Mechanical properties :
#
#
# Convention : Reuss Voigt Hill
#
# Bulk Modulus (GPa) = 22.27073 45.55850 33.91462
# Shear Modulus (GPa) = 20.50557 -27.26863 -3.38153
#
# Velocity S-wave (km/s) = 3.26176 -3.76138 -1.32456
# Velocity P-wave (km/s) = 5.07349 2.18483 3.90601
#
# Compressibility (1/GPa) = 0.04490198
#
# Stress axis : x y z
#
# Youngs Moduli (GPa) = 19.97292 48.39841 53.96643
#
# Poissons Ratio (x) = 0.01440 0.53564
# Poissons Ratio (y) = 0.00594 0.64522
# Poissons Ratio (z) = 0.19824 0.57865
#
# Static dielectric constant tensor:
#      x y z
#    x 1.670830 0.000000 0.072210 
#    y 0.000000 1.741300 0.000000 
#    z 0.072210 0.000000 1.816300 
# 
# From -- ./inp_files/31090.got.cif
#   From: 2010.05.17/outbox.cif.g08.bks.cpg/sg5_16_cif.got.tgz:31090.got - 2010.06.03 18:56:24.
