data_PCOD9123266
_publ_section_title
;
Structure prediction by ZEFSAII (Michael W. Deem and Ramdas Pophale) SiO2 
 PCOD9123266
Probable space group: C 2
;
_chemical_formula_sum "Si O2"
_cell_formula_units_Z 30
_cell_length_a 17.969254
_cell_length_b 13.520667
_cell_length_c 13.611412
_cell_angle_alpha 90.000000
_cell_angle_beta 21.778243
_cell_angle_gamma 90.000000
_cell_volume 1226.939324
_symmetry_space_group_name_H-M "C 2"
_symmetry_group_IT_number 5
_symmetry_cell_setting 'monoclinic'
loop_
_space_group_symop_operation_xyz
x,y,z
-x,y,-z
1/2+x,1/2+y,z
1/2-x,1/2+y,-z
loop_
_atom_site_type_symbol
_atom_site_label
_atom_site_fract_x
_atom_site_fract_y
_atom_site_fract_z
Si Si1 0.500000 0.765671 0.500000
Si Si2 0.280032 0.241630 0.315081
Si Si3 0.698833 0.422617 0.964250
Si Si4 0.556771 0.892076 0.826797
Si Si5 0.643515 0.675535 0.695663
Si Si6 0.860331 0.840539 0.766284
Si Si7 0.799184 0.962660 0.352756
Si Si8 0.817464 0.631551 0.798658
O O1 0.618156 0.703029 0.435908
O O2 0.339883 0.835414 0.752984
O O3 0.246300 0.194493 0.463390
O O4 0.232582 0.360759 0.382403
O O5 0.500000 0.229360 0.000000
O O6 0.820372 0.522155 0.836470
O O7 0.587597 0.402512 0.202557
O O8 0.535373 0.443943 0.081091
O O9 0.655078 0.783869 0.730438
O O10 0.694881 0.956044 0.587096
O O11 0.500000 0.939096 0.000000
O O12 0.359324 0.869246 0.004201
O O13 0.725746 0.576977 0.648754
O O14 0.406677 0.652002 0.968967
O O15 0.854273 0.728979 0.816679
O O16 0.000000 0.848695 0.500000
O O17 0.000000 0.634711 0.500000
#
# Coordination Sequence:
#
# PCOD9123266 Si02
#       8
#     2   4   4   4   4   4   4   4
#     4  12  22  38  68  98 132 170 212 274 320 390
#     4  11  23  43  67  95 130 173 218 264 331 384
#     4  11  20  36  63  92 127 163 210 265 320 376
#     4  10  20  38  59  85 117 165 209 254 315 374
#     4   9  21  39  62  92 126 162 215 265 315 387
#     4  10  21  39  61  87 122 166 212 263 316 381
#     4  10  21  40  62  92 127 165 208 268 317 381
#     4   9  18  36  59  89 125 158 205 262 314 375
#
# _framework density 24.451087000000001
#
# number of rings (size 3 to 8) (size 9 to 14) (size 15 to 20)
#    0.000    1.867    2.000    3.200    0.000    1.067 
#    2.400    6.667   27.867    0.000    0.000    0.000 
#    0.000    0.000    0.000    0.000    0.000    0.000 
#
# Total GULP energy -83834.611021 kJ/mol
# GULP energy per Si atom -5588.974068 kJ/mol
# Density = 2.439543 g / cm^3
# Si number density = 24.451087 Si / 1000 Ang^3
#
#
#
# Elastic Constant Matrix: (Units=GPa)
#
#
# Indices 1 2 3 4 5 6 
#
# 1 63.5659 -6.9620 8.8911 0.0015 7.3303 -0.0012
# 2 -6.9620 50.8078 7.0507 0.0026 2.8590 -0.0022
# 3 8.8911 7.0507 122.5271 0.0016 20.2853 -0.0015
# 4 0.0015 0.0026 0.0016 20.2498 -0.0003 6.1506
# 5 7.3303 2.8590 20.2853 -0.0003 41.7657 0.0008
# 6 -0.0012 -0.0022 -0.0015 6.1506 0.0008 11.1631
#
#
#
# Elastic Compliance Matrix: (Units=1/GPa)
#
#
# Indices 1 2 3 4 5 6 
#
# 1 0.016437 0.002525 -0.000905 -0.000003 -0.002618 0.000004
# 2 0.002525 0.020258 -0.001137 -0.000005 -0.001277 0.000007
# 3 -0.000905 -0.001137 0.008975 -0.000001 -0.004123 0.000002
# 4 -0.000003 -0.000005 -0.000001 0.059309 0.000002 -0.032678
# 5 -0.002618 -0.001277 -0.004123 0.000002 0.026492 -0.000004
# 6 0.000004 0.000007 0.000002 -0.032678 -0.000004 0.107585
#
#
# Mechanical properties :
#
#
# Convention : Reuss Voigt Hill
#
# Bulk Modulus (GPa) = 21.44275 28.31782 24.88028
# Shear Modulus (GPa) = 19.71338 29.83045 24.77192
#
# Velocity S-wave (km/s) = 2.84251 3.49665 3.18641
# Velocity P-wave (km/s) = 4.42288 5.28286 4.87188
#
# Compressibility (1/GPa) = 0.04663582
#
# Stress axis : x y z
#
# Youngs Moduli (GPa) = 60.83931 49.36381 111.41977
#
# Poissons Ratio (x) = -0.12465 0.10078
# Poissons Ratio (y) = -0.15363 0.12674
# Poissons Ratio (z) = 0.05503 0.05615
#
# Static dielectric constant tensor:
#      x y z
#    x 1.951260 0.000000 -0.050390 
#    y 0.000000 1.965140 0.000000 
#    z -0.050390 0.000000 1.989640 
# 
# From -- ./inp_files/57124.got.cif
#   From: 2010.05.17/outbox.cif.g08.bks.cpg/sg5_29_cif.got.tgz:57124.got - 2010.06.03 18:56:24.
