data_PCOD9123775
_publ_section_title
;
Structure prediction by ZEFSAII (Michael W. Deem and Ramdas Pophale) SiO2 
 PCOD9123775
Probable space group: C 2
;
_chemical_formula_sum "Si O2"
_cell_formula_units_Z 22
_cell_length_a 27.892038
_cell_length_b 5.655732
_cell_length_c 6.592679
_cell_angle_alpha 90.000000
_cell_angle_beta 114.110805
_cell_angle_gamma 90.000000
_cell_volume 949.262331
_symmetry_space_group_name_H-M "C 2"
_symmetry_group_IT_number 5
_symmetry_cell_setting 'monoclinic'
loop_
_space_group_symop_operation_xyz
x,y,z
-x,y,-z
1/2+x,1/2+y,z
1/2-x,1/2+y,-z
loop_
_atom_site_type_symbol
_atom_site_label
_atom_site_fract_x
_atom_site_fract_y
_atom_site_fract_z
Si Si1 0.402626 0.126720 0.349760
Si Si2 0.433585 0.733606 0.678751
Si Si3 0.335221 0.516336 0.264892
Si Si4 0.500000 0.458593 0.500000
Si Si5 0.776008 0.262001 0.492753
Si Si6 0.127028 0.260664 0.049722
O O1 0.345618 0.237986 0.307469
O O2 0.448851 0.303508 0.362793
O O3 0.426957 0.001285 0.590265
O O4 0.391450 0.954431 0.143605
O O5 0.384997 0.610216 0.478747
O O6 0.484024 0.621668 0.661635
O O7 0.421975 0.695736 0.892825
O O8 0.288528 0.662094 0.287005
O O9 0.346427 0.566548 0.049873
O O10 0.744700 0.511417 0.444046
O O11 0.827973 0.329845 0.712155
#
# Coordination Sequence:
#
# PCOD9123775 Si02
#       6
#     4   4   4   2   4   4
#     4  10  21  40  70  92 135 180 222 283 335 411
#     4   9  20  40  61  92 132 175 220 279 338 401
#     4   9  22  41  65  94 131 173 220 278 346 401
#     4  10  20  40  62  96 138 176 230 278 332 404
#     4  11  27  44  72 103 140 179 232 287 343 412
#     4  10  23  42  68  95 134 179 225 277 355 399
#
# _framework density 23.175891
#
# number of rings (size 3 to 8) (size 9 to 14) (size 15 to 20)
#    0.000    2.182    0.000    0.545   10.182    4.364 
#    0.000   21.818    0.000    0.000    0.000    0.000 
#    0.000    0.000    0.000    0.000    0.000    0.000 
#
# Total GULP energy -61249.871917 kJ/mol
# GULP energy per Si atom -5568.170174 kJ/mol
# Density = 2.312314 g / cm^3
# Si number density = 23.175891 Si / 1000 Ang^3
#
#
#
# Elastic Constant Matrix: (Units=GPa)
#
#
# Indices 1 2 3 4 5 6 
#
# 1 83.4795 43.5948 35.1935 0.0000 -29.1840 0.0000
# 2 43.5948 76.9826 13.5726 0.0000 -16.5498 0.0000
# 3 35.1935 13.5726 100.3932 0.0000 -19.1467 0.0000
# 4 0.0000 0.0000 0.0000 12.7681 0.0000 2.5929
# 5 -29.1840 -16.5498 -19.1467 0.0000 46.2473 0.0000
# 6 0.0000 0.0000 0.0000 2.5929 0.0000 47.2154
#
#
#
# Elastic Compliance Matrix: (Units=1/GPa)
#
#
# Indices 1 2 3 4 5 6 
#
# 1 0.022098 -0.009855 -0.004807 0.000000 0.008428 0.000000
# 2 -0.009855 0.018565 0.001114 0.000000 0.000886 0.000000
# 3 -0.004807 0.001114 0.011935 0.000000 0.002306 0.000000
# 4 0.000000 0.000000 0.000000 0.079203 0.000000 -0.004350
# 5 0.008428 0.000886 0.002306 0.000000 0.028213 0.000000
# 6 0.000000 0.000000 0.000000 -0.004350 0.000000 0.021418
#
#
# Mechanical properties :
#
#
# Convention : Reuss Voigt Hill
#
# Bulk Modulus (GPa) = 39.21213 49.50857 44.36035
# Shear Modulus (GPa) = 23.03826 32.47912 27.75869
#
# Velocity S-wave (km/s) = 3.15629 3.74761 3.46459
# Velocity P-wave (km/s) = 5.49900 6.33519 5.93185
#
# Compressibility (1/GPa) = 0.02550231
#
# Stress axis : x y z
#
# Youngs Moduli (GPa) = 45.25208 53.86562 83.78527
#
# Poissons Ratio (x) = 0.53083 0.40276
# Poissons Ratio (y) = 0.44595 -0.09332
# Poissons Ratio (z) = 0.21753 -0.05999
#
# Static dielectric constant tensor:
#      x y z
#    x 1.978930 0.000000 -0.027210 
#    y 0.000000 2.097850 0.000000 
#    z -0.027210 0.000000 1.855520 
# 
# From -- ./inp_files/11005.got.cif
#   From: 2010.05.17/outbox.cif.g08.bks.cpg/sg5_6_cif.got.tgz:11005.got - 2010.06.03 18:56:24.
