data_PCOD9123041
_publ_section_title
;
Structure prediction by ZEFSAII (Michael W. Deem and Ramdas Pophale) SiO2 
 PCOD9123041
Probable space group: C 2
;
_chemical_formula_sum "Si O2"
_cell_formula_units_Z 28
_cell_length_a 8.611518
_cell_length_b 11.314359
_cell_length_c 14.916068
_cell_angle_alpha 90.000000
_cell_angle_beta 116.656612
_cell_angle_gamma 90.000000
_cell_volume 1298.856922
_symmetry_space_group_name_H-M "C 2"
_symmetry_group_IT_number 5
_symmetry_cell_setting 'monoclinic'
loop_
_space_group_symop_operation_xyz
x,y,z
-x,y,-z
1/2+x,1/2+y,z
1/2-x,1/2+y,-z
loop_
_atom_site_type_symbol
_atom_site_label
_atom_site_fract_x
_atom_site_fract_y
_atom_site_fract_z
Si Si1 0.010186 0.362840 0.369513
Si Si2 0.599630 0.098455 0.756564
Si Si3 0.853083 0.974018 0.532954
Si Si4 0.255769 0.674474 0.387166
Si Si5 0.883351 0.011562 0.259120
Si Si6 0.957877 0.218790 0.802517
Si Si7 0.476444 0.948091 0.891557
O O1 0.178137 0.403473 0.468475
O O2 0.074197 0.290020 0.298896
O O3 0.918104 0.482167 0.310684
O O4 0.874408 0.281036 0.385993
O O5 0.449760 0.186169 0.679851
O O6 0.784509 0.160405 0.797034
O O7 0.553940 0.045742 0.843359
O O8 0.000000 0.932561 0.500000
O O9 0.808452 0.111101 0.494234
O O10 0.936680 0.965116 0.652691
O O11 0.301414 0.573059 0.325975
O O12 0.920246 0.110709 0.194937
O O13 0.729555 0.931712 0.182659
O O14 0.047709 0.317077 0.888436
O O15 0.500000 0.981778 0.000000
#
# Coordination Sequence:
#
# PCOD9123041 Si02
#       7
#     4   4   4   4   4   4   4
#     4   9  18  35  55  81 117 152 185 220 262 323
#     4   9  19  36  58  85 114 142 182 229 275 333
#     4   9  16  33  54  79 116 151 187 226 263 315
#     4   8  16  33  56  80 115 156 183 215 266 322
#     4   9  19  37  57  81 114 146 184 234 277 324
#     4  10  20  37  60  85 113 146 184 230 279 328
#     4  10  22  41  61  79 105 143 184 234 294 343
#
# _framework density 21.557418999999999
#
# number of rings (size 3 to 8) (size 9 to 14) (size 15 to 20)
#    0.000    2.857    0.000    2.571    0.000    2.286 
#    0.000   37.143    0.000    1.714    0.000    0.000 
#    0.000    0.000    0.000    0.000    0.000    0.000 
#
# Total GULP energy -78145.717343 kJ/mol
# GULP energy per Si atom -5581.836953 kJ/mol
# Density = 2.150835 g / cm^3
# Si number density = 21.557419 Si / 1000 Ang^3
#
#
#
# Elastic Constant Matrix: (Units=GPa)
#
#
# Indices 1 2 3 4 5 6 
#
# 1 57.7659 26.7956 17.0974 0.0000 -9.0727 0.0000
# 2 26.7956 89.9689 22.3857 0.0000 -12.4791 0.0000
# 3 17.0974 22.3857 74.1478 0.0000 -14.4840 0.0000
# 4 0.0000 0.0000 0.0000 15.2738 0.0000 -3.6957
# 5 -9.0727 -12.4791 -14.4840 0.0000 11.7146 0.0000
# 6 0.0000 0.0000 0.0000 -3.6957 0.0000 41.2597
#
#
#
# Elastic Compliance Matrix: (Units=1/GPa)
#
#
# Indices 1 2 3 4 5 6 
#
# 1 0.021471 -0.004645 -0.001670 0.000000 0.009615 0.000000
# 2 -0.004645 0.014195 -0.001270 0.000000 0.009953 0.000000
# 3 -0.001670 -0.001270 0.018113 0.000000 0.019748 0.000000
# 4 0.000000 0.000000 0.000000 0.066922 0.000000 0.005994
# 5 0.009615 0.009953 0.019748 0.000000 0.127830 0.000000
# 6 0.000000 0.000000 0.000000 0.005994 0.000000 0.024774
#
#
# Mechanical properties :
#
#
# Convention : Reuss Voigt Hill
#
# Bulk Modulus (GPa) = 25.90203 39.38221 32.64212
# Shear Modulus (GPa) = 16.59230 24.02322 20.30776
#
# Velocity S-wave (km/s) = 2.77732 3.34186 3.07258
# Velocity P-wave (km/s) = 4.72505 5.76185 5.26901
#
# Compressibility (1/GPa) = 0.03860702
#
# Stress axis : x y z
#
# Youngs Moduli (GPa) = 46.57547 70.44681 55.20963
#
# Poissons Ratio (x) = 0.32725 0.09221
# Poissons Ratio (y) = 0.21636 0.07012
# Poissons Ratio (z) = 0.07779 0.08948
#
# Static dielectric constant tensor:
#      x y z
#    x 1.804850 0.000000 0.009360 
#    y 0.000000 1.837960 0.000000 
#    z 0.009360 0.000000 1.811840 
# 
# From -- ./inp_files/50326.got.cif
#   From: 2010.05.17/outbox.cif.g08.bks.cpg/sg5_26_cif.got.tgz:50326.got - 2010.06.03 18:56:24.
