data_PCOD9123183
_publ_section_title
;
Structure prediction by ZEFSAII (Michael W. Deem and Ramdas Pophale) SiO2 
 PCOD9123183
Probable space group: C 2
;
_chemical_formula_sum "Si O2"
_cell_formula_units_Z 32
_cell_length_a 11.133335
_cell_length_b 15.956733
_cell_length_c 16.492998
_cell_angle_alpha 90.000000
_cell_angle_beta 31.093374
_cell_angle_gamma 90.000000
_cell_volume 1513.156829
_symmetry_space_group_name_H-M "C 2"
_symmetry_group_IT_number 5
_symmetry_cell_setting 'monoclinic'
loop_
_space_group_symop_operation_xyz
x,y,z
-x,y,-z
1/2+x,1/2+y,z
1/2-x,1/2+y,-z
loop_
_atom_site_type_symbol
_atom_site_label
_atom_site_fract_x
_atom_site_fract_y
_atom_site_fract_z
Si Si1 0.302798 0.369990 0.754149
Si Si2 0.528775 0.027198 0.071380
Si Si3 0.468927 0.705028 0.115229
Si Si4 0.256787 0.468444 0.504922
Si Si5 0.770731 0.622177 0.361416
Si Si6 0.040703 0.779461 0.177082
Si Si7 0.848967 0.382815 0.669393
Si Si8 0.424962 0.534781 0.230939
O O1 0.523839 0.416570 0.589209
O O2 0.380578 0.349098 0.802393
O O3 0.097847 0.437367 0.861943
O O4 0.210851 0.281715 0.775430
O O5 0.395298 0.085599 0.210490
O O6 0.500000 0.067220 0.000000
O O7 0.799491 0.019501 0.933915
O O8 0.392087 0.627987 0.215252
O O9 0.500000 0.683897 0.000000
O O10 0.723764 0.739217 0.993221
O O11 0.200487 0.548348 0.591031
O O12 0.332140 0.509741 0.374383
O O13 0.048491 0.400887 0.619297
O O14 0.500000 0.637319 0.500000
O O15 0.900826 0.707980 0.307017
O O16 0.857745 0.815225 0.217174
O O17 0.715796 0.471000 0.743325
O O18 0.000000 0.369326 0.500000
#
# Coordination Sequence:
#
# PCOD9123183 Si02
#       8
#     4   4   4   4   4   4   4   4
#     4  11  21  40  66  93 130 173 226 257 333 397
#     4  12  21  42  71  91 124 179 226 269 326 402
#     4  10  23  37  66 103 128 167 228 284 322 381
#     4  11  24  42  65  99 128 183 214 266 339 403
#     4  12  25  41  65 100 140 164 223 277 331 395
#     4  11  21  40  65 100 126 175 220 269 332 394
#     4  10  20  37  65  91 131 171 218 254 333 402
#     4  11  21  40  65  98 128 171 221 272 329 392
#
# _framework density 21.147842000000001
#
# number of rings (size 3 to 8) (size 9 to 14) (size 15 to 20)
#    0.000    1.000    6.250    2.250    3.500    0.000 
#    0.000    2.500    2.750    0.750    3.250    0.000 
#    0.000    0.000    0.000    0.000    0.000    0.000 
#
# Total GULP energy -89317.185850 kJ/mol
# GULP energy per Si atom -5582.324116 kJ/mol
# Density = 2.109971 g / cm^3
# Si number density = 21.147842 Si / 1000 Ang^3
#
#
#
# Elastic Constant Matrix: (Units=GPa)
#
#
# Indices 1 2 3 4 5 6 
#
# 1 56.3291 35.8276 38.2821 -0.0107 -21.9474 0.0011
# 2 35.8276 102.2317 34.0497 -0.0183 -3.4805 -0.0012
# 3 38.2821 34.0497 76.9694 -0.0191 -18.2196 0.0081
# 4 -0.0107 -0.0183 -0.0191 36.6811 -0.0021 -12.2419
# 5 -21.9474 -3.4805 -18.2196 -0.0021 31.4953 0.0060
# 6 0.0011 -0.0012 0.0081 -12.2419 0.0060 37.6539
#
#
#
# Elastic Compliance Matrix: (Units=1/GPa)
#
#
# Indices 1 2 3 4 5 6 
#
# 1 0.038394 -0.009360 -0.010274 0.000002 0.019777 -0.000002
# 2 -0.009360 0.013856 -0.003077 0.000003 -0.006772 0.000004
# 3 -0.010274 -0.003077 0.020495 0.000005 0.004356 -0.000003
# 4 0.000002 0.000003 0.000005 0.030580 0.000005 0.009942
# 5 0.019777 -0.006772 0.004356 0.000005 0.047304 -0.000008
# 6 -0.000002 0.000004 -0.000003 0.009942 -0.000008 0.029790
#
#
# Mechanical properties :
#
#
# Convention : Reuss Voigt Hill
#
# Bulk Modulus (GPa) = 36.59952 50.20544 43.40248
# Shear Modulus (GPa) = 21.28112 29.65746 25.46929
#
# Velocity S-wave (km/s) = 3.17567 3.74891 3.47413
# Velocity P-wave (km/s) = 5.54892 6.52157 6.05481
#
# Compressibility (1/GPa) = 0.02732276
#
# Stress axis : x y z
#
# Youngs Moduli (GPa) = 26.04544 72.16866 48.79346
#
# Poissons Ratio (x) = 0.67552 0.50129
# Poissons Ratio (y) = 0.24379 0.15015
# Poissons Ratio (z) = 0.26759 0.22207
#
# Static dielectric constant tensor:
#      x y z
#    x 1.745760 0.000030 0.040370 
#    y 0.000030 1.756640 -0.000030 
#    z 0.040370 -0.000030 1.773710 
# 
# From -- ./inp_files/60685.got.cif
#   From: 2010.05.17/outbox.cif.g08.bks.cpg/sg5_31_cif.got.tgz:60685.got - 2010.06.03 18:56:24.
