data_PCOD9123155
_publ_section_title
;
Structure prediction by ZEFSAII (Michael W. Deem and Ramdas Pophale) SiO2 
 PCOD9123155
Probable space group: C 2
;
_chemical_formula_sum "Si O2"
_cell_formula_units_Z 18
_cell_length_a 18.799920
_cell_length_b 4.779934
_cell_length_c 8.995590
_cell_angle_alpha 90.000000
_cell_angle_beta 53.703726
_cell_angle_gamma 90.000000
_cell_volume 651.515415
_symmetry_space_group_name_H-M "C 2"
_symmetry_group_IT_number 5
_symmetry_cell_setting 'monoclinic'
loop_
_space_group_symop_operation_xyz
x,y,z
-x,y,-z
1/2+x,1/2+y,z
1/2-x,1/2+y,-z
loop_
_atom_site_type_symbol
_atom_site_label
_atom_site_fract_x
_atom_site_fract_y
_atom_site_fract_z
Si Si1 0.632027 0.533080 0.768172
Si Si2 0.000000 0.714067 0.500000
Si Si3 0.694656 0.736825 0.128364
Si Si4 0.465373 0.593558 0.829786
Si Si5 0.322255 0.282367 0.594976
O O1 0.554612 0.719652 0.787163
O O2 0.651339 0.325614 0.609529
O O3 0.723280 0.671694 0.699388
O O4 0.583701 0.429398 0.976674
O O5 0.015833 0.903674 0.335493
O O6 0.098590 0.602477 0.423749
O O7 0.604501 0.806197 0.151761
O O8 0.683889 0.568373 0.297914
O O9 0.756020 0.003770 0.034973
#
# Coordination Sequence:
#
# PCOD9123155 Si02
#       5
#     4   2   4   4   4
#     4  10  20  37  63  95 142 174 228 285 349 408
#     4   8  18  38  60  90 128 188 230 284 336 428
#     4  11  23  42  70  99 136 186 233 284 343 420
#     4   9  19  39  63  92 137 179 228 280 349 407
#     4  10  21  37  65  96 138 178 234 280 353 408
#
# _framework density 27.627897000000001
#
# number of rings (size 3 to 8) (size 9 to 14) (size 15 to 20)
#    0.000    2.222    2.222    0.000    3.111    0.000 
#    0.000    6.667    0.000   20.000    0.000    0.000 
#    0.000    0.000    0.000    0.000    0.000    0.000 
#
# Total GULP energy -50267.753776 kJ/mol
# GULP energy per Si atom -5585.305975 kJ/mol
# Density = 2.756501 g / cm^3
# Si number density = 27.627897 Si / 1000 Ang^3
#
#
#
# Elastic Constant Matrix: (Units=GPa)
#
#
# Indices 1 2 3 4 5 6 
#
# 1 311.6055 67.7925 69.6345 0.0000 -10.8703 0.0001
# 2 67.7925 69.7339 19.2717 0.0003 -0.9567 0.0007
# 3 69.6345 19.2717 209.3363 -0.0001 30.5159 0.0000
# 4 0.0000 0.0003 -0.0001 23.2530 0.0000 14.0992
# 5 -10.8703 -0.9567 30.5159 0.0000 53.0079 0.0000
# 6 0.0001 0.0007 0.0000 14.0992 0.0000 24.8333
#
#
#
# Elastic Compliance Matrix: (Units=1/GPa)
#
#
# Indices 1 2 3 4 5 6 
#
# 1 0.004413 -0.003897 -0.001344 0.000000 0.001608 0.000000
# 2 -0.003897 0.018219 -0.000341 0.000000 -0.000274 -0.000001
# 3 -0.001344 -0.000341 0.005782 0.000000 -0.003610 0.000000
# 4 0.000000 0.000000 0.000000 0.065582 0.000000 -0.037234
# 5 0.001608 -0.000274 -0.003610 0.000000 0.021268 0.000000
# 6 0.000000 -0.000001 0.000000 -0.037234 0.000000 0.061408
#
#
# Mechanical properties :
#
#
# Convention : Reuss Voigt Hill
#
# Bulk Modulus (GPa) = 57.96891 100.45259 79.21075
# Shear Modulus (GPa) = 25.82818 49.15065 37.48941
#
# Velocity S-wave (km/s) = 3.06086 4.22242 3.68766
# Velocity P-wave (km/s) = 5.78960 7.75950 6.84577
#
# Compressibility (1/GPa) = 0.01725063
#
# Stress axis : x y z
#
# Youngs Moduli (GPa) = 226.58056 54.88678 172.96063
#
# Poissons Ratio (x) = 0.21390 0.23242
# Poissons Ratio (y) = 0.88301 0.05898
# Poissons Ratio (z) = 0.30448 0.01872
#
# Static dielectric constant tensor:
#      x y z
#    x 2.186480 0.000000 -0.113040 
#    y 0.000000 2.178150 0.000000 
#    z -0.113040 0.000000 2.269360 
# 
# From -- ./inp_files/25916.got.cif
#   From: 2010.05.17/outbox.cif.g08.bks.cpg/sg5_13_cif.got.tgz:25916.got - 2010.06.03 18:56:24.
