data_PCOD9123839
_publ_section_title
;
Structure prediction by ZEFSAII (Michael W. Deem and Ramdas Pophale) SiO2 
 PCOD9123839
Probable space group: C 2
;
_chemical_formula_sum "Si O2"
_cell_formula_units_Z 22
_cell_length_a 7.660680
_cell_length_b 22.811929
_cell_length_c 6.038391
_cell_angle_alpha 90.000000
_cell_angle_beta 118.029382
_cell_angle_gamma 90.000000
_cell_volume 931.465984
_symmetry_space_group_name_H-M "C 2"
_symmetry_group_IT_number 5
_symmetry_cell_setting 'monoclinic'
loop_
_space_group_symop_operation_xyz
x,y,z
-x,y,-z
1/2+x,1/2+y,z
1/2-x,1/2+y,-z
loop_
_atom_site_type_symbol
_atom_site_label
_atom_site_fract_x
_atom_site_fract_y
_atom_site_fract_z
Si Si1 0.500000 0.807791 0.000000
Si Si2 0.212493 0.111205 0.746338
Si Si3 0.000000 0.056158 0.000000
Si Si4 0.291141 0.964071 0.263481
Si Si5 0.712602 0.743417 0.749416
Si Si6 0.188762 0.850753 0.464627
Si Si7 0.500000 0.015813 0.000000
O O1 0.657697 0.767732 0.959948
O O2 0.378106 0.844049 0.742199
O O3 0.154792 0.095911 0.964323
O O4 0.288488 0.177371 0.779125
O O5 0.370502 0.061633 0.777259
O O6 0.000000 0.107579 0.500000
O O7 0.875322 0.011301 0.775313
O O8 0.500000 0.975222 0.500000
O O9 0.224284 0.900711 0.303629
O O10 0.344685 0.975525 0.038648
O O11 0.500000 0.742269 0.500000
O O12 0.837186 0.790171 0.684555
O O13 0.000000 0.864400 0.500000
#
# Coordination Sequence:
#
# PCOD9123839 Si02
#       7
#     2   4   2   4   4   4   2
#     4  10  21  43  64  90 128 159 197 252 314 364
#     4  10  20  40  65  92 125 158 202 251 301 365
#     4  10  23  40  62  92 124 164 203 246 304 360
#     4  11  24  42  63  89 124 164 207 253 302 362
#     4   9  20  40  67  95 123 159 201 251 309 367
#     4  11  26  42  62  93 124 161 207 254 307 366
#     4  10  24  41  62  92 124 165 206 250 304 356
#
# _framework density 23.618682
#
# number of rings (size 3 to 8) (size 9 to 14) (size 15 to 20)
#    0.000    1.818    0.000    3.273    0.000   11.636 
#    0.000    4.545    0.000    0.000    0.000    0.000 
#    0.000    0.000    0.000    0.000    0.000    0.000 
#
# Total GULP energy -61485.861807 kJ/mol
# GULP energy per Si atom -5589.623801 kJ/mol
# Density = 2.356493 g / cm^3
# Si number density = 23.618682 Si / 1000 Ang^3
#
#
#
# Elastic Constant Matrix: (Units=GPa)
#
#
# Indices 1 2 3 4 5 6 
#
# 1 112.7204 60.7773 19.5942 0.0000 -4.4809 0.0000
# 2 60.7773 186.8733 62.7004 0.0000 -19.3662 0.0000
# 3 19.5942 62.7004 49.9933 0.0000 5.9852 0.0000
# 4 0.0000 0.0000 0.0000 22.0775 0.0000 1.0197
# 5 -4.4809 -19.3662 5.9852 0.0000 44.7397 0.0000
# 6 0.0000 0.0000 0.0000 1.0197 0.0000 14.1193
#
#
#
# Elastic Compliance Matrix: (Units=1/GPa)
#
#
# Indices 1 2 3 4 5 6 
#
# 1 0.010775 -0.003759 0.000566 0.000000 -0.000624 0.000000
# 2 -0.003759 0.012201 -0.014650 0.000000 0.006865 0.000000
# 3 0.000566 -0.014650 0.039541 0.000000 -0.011575 0.000000
# 4 0.000000 0.000000 0.000000 0.045447 0.000000 -0.003282
# 5 -0.000624 0.006865 -0.011575 0.000000 0.026809 0.000000
# 6 0.000000 0.000000 0.000000 -0.003282 0.000000 0.071062
#
#
# Mechanical properties :
#
#
# Convention : Reuss Voigt Hill
#
# Bulk Modulus (GPa) = 37.27217 70.63677 53.95447
# Shear Modulus (GPa) = 19.96292 29.95499 24.95896
#
# Velocity S-wave (km/s) = 2.91042 3.56515 3.25429
# Velocity P-wave (km/s) = 5.20664 6.84975 6.08392
#
# Compressibility (1/GPa) = 0.02682967
#
# Stress axis : x y z
#
# Youngs Moduli (GPa) = 92.80650 81.96245 25.29028
#
# Poissons Ratio (x) = 0.30809 -0.01431
# Poissons Ratio (y) = 0.34885 0.37051
# Poissons Ratio (z) = -0.05251 1.20079
#
# Static dielectric constant tensor:
#      x y z
#    x 1.885900 0.000000 -0.004660 
#    y 0.000000 1.874950 0.000000 
#    z -0.004660 0.000000 1.986410 
# 
# From -- ./inp_files/3062.got.cif
#   From: 2010.05.17/outbox.cif.g08.bks.cpg/sg5_2_cif.got.tgz:3062.got - 2010.06.03 18:56:24.
