data_PCOD9123292
_publ_section_title
;
Structure prediction by ZEFSAII (Michael W. Deem and Ramdas Pophale) SiO2 
 PCOD9123292
Probable space group: C 2
;
_chemical_formula_sum "Si O2"
_cell_formula_units_Z 28
_cell_length_a 14.945128
_cell_length_b 9.944001
_cell_length_c 10.085790
_cell_angle_alpha 90.000000
_cell_angle_beta 64.726530
_cell_angle_gamma 90.000000
_cell_volume 1355.419739
_symmetry_space_group_name_H-M "C 2"
_symmetry_group_IT_number 5
_symmetry_cell_setting 'monoclinic'
loop_
_space_group_symop_operation_xyz
x,y,z
-x,y,-z
1/2+x,1/2+y,z
1/2-x,1/2+y,-z
loop_
_atom_site_type_symbol
_atom_site_label
_atom_site_fract_x
_atom_site_fract_y
_atom_site_fract_z
Si Si1 0.784583 0.884630 0.164333
Si Si2 0.202799 0.168546 0.716884
Si Si3 0.500000 0.266778 0.000000
Si Si4 0.500000 0.621767 0.500000
Si Si5 0.991657 0.254397 0.786569
Si Si6 0.181522 0.349408 0.955889
Si Si7 0.919906 0.525986 0.196099
Si Si8 0.280503 0.645025 0.597009
O O1 0.737779 0.760123 0.278912
O O2 0.769239 0.018623 0.259707
O O3 0.738726 0.902527 0.047056
O O4 0.899877 0.851683 0.063860
O O5 0.083445 0.181758 0.797560
O O6 0.241510 0.274202 0.801813
O O7 0.223244 0.202250 0.550510
O O8 0.520124 0.162707 0.865844
O O9 0.484431 0.705103 0.642978
O O10 0.386446 0.568255 0.549192
O O11 0.018892 0.411964 0.769243
O O12 0.892422 0.240497 0.932216
O O13 0.115924 0.461556 0.922051
O O14 0.815801 0.552617 0.331922
#
# Coordination Sequence:
#
# PCOD9123292 Si02
#       8
#     4   4   2   2   4   4   4   4
#     4  11  25  40  63  90 126 160 212 260 313 371
#     4  10  24  38  62  90 129 158 207 258 312 373
#     4  10  22  40  56  90 118 164 196 258 320 358
#     4  10  20  38  60  90 120 156 216 250 294 378
#     4  10  20  38  64  91 119 165 210 256 308 361
#     4  11  22  39  67  92 117 165 220 256 305 360
#     4  10  20  39  64  87 125 160 204 258 310 372
#     4  10  23  40  62  89 123 168 205 250 325 360
#
# _framework density 20.657806999999998
#
# number of rings (size 3 to 8) (size 9 to 14) (size 15 to 20)
#    0.000    1.714    2.857    1.286   12.000    0.000 
#    2.571    0.000    0.000    2.571    0.000    1.000 
#    0.000    0.000    0.000    0.000    0.000    0.000 
#
# Total GULP energy -77981.867129 kJ/mol
# GULP energy per Si atom -5570.133366 kJ/mol
# Density = 2.061079 g / cm^3
# Si number density = 20.657807 Si / 1000 Ang^3
#
#
#
# Elastic Constant Matrix: (Units=GPa)
#
#
# Indices 1 2 3 4 5 6 
#
# 1 37.8124 -8.7626 26.8658 0.0000 -3.9429 0.0000
# 2 -8.7626 25.7994 -2.0141 0.0000 4.5938 0.0000
# 3 26.8658 -2.0141 103.1439 0.0000 5.9115 0.0000
# 4 0.0000 0.0000 0.0000 8.6784 0.0000 -9.7226
# 5 -3.9429 4.5938 5.9115 0.0000 43.9807 0.0000
# 6 0.0000 0.0000 0.0000 -9.7226 0.0000 8.1791
#
#
#
# Elastic Compliance Matrix: (Units=1/GPa)
#
#
# Indices 1 2 3 4 5 6 
#
# 1 0.035958 0.010888 -0.009345 0.000000 0.003342 0.000000
# 2 0.010888 0.042898 -0.001811 0.000000 -0.003261 0.000000
# 3 -0.009345 -0.001811 0.012225 0.000000 -0.002292 0.000000
# 4 0.000000 0.000000 0.000000 -0.347352 0.000000 -0.412902
# 5 0.003342 -0.003261 -0.002292 0.000000 0.023686 0.000000
# 6 0.000000 0.000000 0.000000 -0.412902 0.000000 -0.368559
#
#
# Mechanical properties :
#
#
# Convention : Reuss Voigt Hill
#
# Bulk Modulus (GPa) = 11.04429 22.10377 16.57403
# Shear Modulus (GPa) = -8.76537 22.21208 6.72336
#
# Velocity S-wave (km/s) = -2.06212 3.28264 1.80602
# Velocity P-wave (km/s) = 0.55846 5.00907 3.51987
#
# Compressibility (1/GPa) = 0.09054455
#
# Stress axis : x y z
#
# Youngs Moduli (GPa) = 27.81052 23.31113 81.79823
#
# Poissons Ratio (x) = -0.25381 0.76439
# Poissons Ratio (y) = -0.30280 0.14817
# Poissons Ratio (z) = 0.25988 0.04223
#
# Static dielectric constant tensor:
#      x y z
#    x 1.780600 0.000000 0.015030 
#    y 0.000000 1.749860 0.000000 
#    z 0.015030 0.000000 2.017120 
# 
# From -- ./inp_files/23620.got.cif
#   From: 2010.05.17/outbox.cif.g08.bks.cpg/sg5_12_cif.got.tgz:23620.got - 2010.06.03 18:56:24.
