data_PCOD9123866
_publ_section_title
;
Structure prediction by ZEFSAII (Michael W. Deem and Ramdas Pophale) SiO2 
 PCOD9123866
Probable space group: C 2
;
_chemical_formula_sum "Si O2"
_cell_formula_units_Z 20
_cell_length_a 13.280430
_cell_length_b 7.133093
_cell_length_c 13.817527
_cell_angle_alpha 90.000000
_cell_angle_beta 145.110330
_cell_angle_gamma 90.000000
_cell_volume 748.712102
_symmetry_space_group_name_H-M "C 2"
_symmetry_group_IT_number 5
_symmetry_cell_setting 'monoclinic'
loop_
_space_group_symop_operation_xyz
x,y,z
-x,y,-z
1/2+x,1/2+y,z
1/2-x,1/2+y,-z
loop_
_atom_site_type_symbol
_atom_site_label
_atom_site_fract_x
_atom_site_fract_y
_atom_site_fract_z
Si Si1 0.901667 0.157300 0.753984
Si Si2 0.183636 0.686759 0.088132
Si Si3 0.304227 0.811979 0.354572
Si Si4 0.618927 0.332516 0.406191
Si Si5 0.218297 0.603197 0.898854
O O1 0.757424 0.306515 0.603064
O O2 0.811589 0.001831 0.751373
O O3 0.940832 0.031131 0.687513
O O4 0.089179 0.201399 0.949500
O O5 0.301430 0.643189 0.274557
O O6 0.255059 0.892099 0.114641
O O7 0.167182 0.591714 0.972453
O O8 0.000000 0.695630 0.000000
O O9 0.500000 0.882777 0.500000
O O10 0.229746 0.754864 0.400124
O O11 0.442153 0.210827 0.278365
#
# Coordination Sequence:
#
# PCOD9123866 Si02
#       5
#     4   4   4   4   4
#     4  10  22  38  64 101 131 178 222 278 341 389
#     4  12  22  44  69  95 135 177 230 268 345 400
#     4  10  20  40  66  95 127 180 222 272 333 410
#     4  10  22  38  64 101 131 178 222 278 341 389
#     4  12  22  42  70  98 138 172 228 288 326 410
#
# _framework density 26.712537000000001
#
# number of rings (size 3 to 8) (size 9 to 14) (size 15 to 20)
#    1.200    0.000    6.000    2.400    2.800    0.000 
#    0.000    1.000    4.400    3.600    0.000    0.000 
#    0.000    0.000    0.000    0.000    0.000    0.000 
#
# Total GULP energy -55728.391458 kJ/mol
# GULP energy per Si atom -5572.839146 kJ/mol
# Density = 2.665174 g / cm^3
# Si number density = 26.712537 Si / 1000 Ang^3
#
#
#
# Elastic Constant Matrix: (Units=GPa)
#
#
# Indices 1 2 3 4 5 6 
#
# 1 102.9337 -9.9628 15.1413 0.0000 3.2337 0.0000
# 2 -9.9628 62.8234 3.3771 0.0000 4.1525 0.0000
# 3 15.1413 3.3771 122.3446 0.0000 33.3614 0.0000
# 4 0.0000 0.0000 0.0000 2.4147 0.0000 -5.3272
# 5 3.2337 4.1525 33.3614 0.0000 49.7407 0.0000
# 6 0.0000 0.0000 0.0000 -5.3272 0.0000 35.9485
#
#
#
# Elastic Compliance Matrix: (Units=1/GPa)
#
#
# Indices 1 2 3 4 5 6 
#
# 1 0.010067 0.001661 -0.001316 0.000000 0.000090 0.000000
# 2 0.001661 0.016281 -0.000312 0.000000 -0.001258 0.000000
# 3 -0.001316 -0.000312 0.010176 0.000000 -0.006713 0.000000
# 4 0.000000 0.000000 0.000000 0.615303 0.000000 0.091182
# 5 0.000090 -0.001258 -0.006713 0.000000 0.024706 0.000000
# 6 0.000000 0.000000 0.000000 0.091182 0.000000 0.041330
#
#
# Mechanical properties :
#
#
# Convention : Reuss Voigt Hill
#
# Bulk Modulus (GPa) = 27.33022 33.91256 30.62139
# Shear Modulus (GPa) = 6.84938 36.25717 21.55328
#
# Velocity S-wave (km/s) = 1.60302 3.68816 2.84361
# Velocity P-wave (km/s) = 3.69861 5.55515 4.71908
#
# Compressibility (1/GPa) = 0.03658953
#
# Stress axis : x y z
#
# Youngs Moduli (GPa) = 99.33880 61.42129 98.27279
#
# Poissons Ratio (x) = -0.10203 0.12934
# Poissons Ratio (y) = -0.16502 0.03066
# Poissons Ratio (z) = 0.13074 0.01916
#
# Static dielectric constant tensor:
#      x y z
#    x 2.106220 0.000000 -0.078010 
#    y 0.000000 2.137920 0.000000 
#    z -0.078010 0.000000 2.411810 
# 
# From -- ./inp_files/30508.got.cif
#   From: 2010.05.17/outbox.cif.g08.bks.cpg/sg5_16_cif.got.tgz:30508.got - 2010.06.03 18:56:24.
