data_PCOD9123780
_publ_section_title
;
Structure prediction by ZEFSAII (Michael W. Deem and Ramdas Pophale) SiO2 
 PCOD9123780
Probable space group: C 2
;
_chemical_formula_sum "Si O2"
_cell_formula_units_Z 16
_cell_length_a 9.489836
_cell_length_b 10.207332
_cell_length_c 8.172857
_cell_angle_alpha 90.000000
_cell_angle_beta 68.604755
_cell_angle_gamma 90.000000
_cell_volume 737.114048
_symmetry_space_group_name_H-M "C 2"
_symmetry_group_IT_number 5
_symmetry_cell_setting 'monoclinic'
loop_
_space_group_symop_operation_xyz
x,y,z
-x,y,-z
1/2+x,1/2+y,z
1/2-x,1/2+y,-z
loop_
_atom_site_type_symbol
_atom_site_label
_atom_site_fract_x
_atom_site_fract_y
_atom_site_fract_z
Si Si1 0.559675 0.026860 0.312381
Si Si2 0.899581 0.011097 0.196966
Si Si3 0.500000 0.621252 0.500000
Si Si4 0.324802 0.209185 0.257495
Si Si5 0.000000 0.511012 0.000000
O O1 0.500000 0.958943 0.500000
O O2 0.447305 0.149440 0.332151
O O3 0.533844 0.942414 0.157044
O O4 0.731328 0.070127 0.257417
O O5 0.968630 0.040581 0.345851
O O6 0.867879 0.855728 0.196279
O O7 0.000000 0.053399 0.000000
O O8 0.656484 0.696046 0.395947
O O9 0.358002 0.108422 0.093743
#
# Coordination Sequence:
#
# PCOD9123780 Si02
#       5
#     4   4   2   4   2
#     4  10  20  40  63  86 126 164 194 259 308 353
#     4  12  24  40  68  92 121 169 207 248 315 367
#     4  12  26  38  66  98 120 162 216 248 304 378
#     4  10  23  43  60  92 131 156 205 262 300 365
#     4   8  18  40  60  80 126 158 190 256 300 348
#
# _framework density 21.706274000000001
#
# number of rings (size 3 to 8) (size 9 to 14) (size 15 to 20)
#    1.500    0.000    3.750    1.500    3.500    0.000 
#    0.000    0.000    8.250    0.000    0.000    0.000 
#    0.000    0.000    0.000    0.000    0.000    0.000 
#
# Total GULP energy -44562.298374 kJ/mol
# GULP energy per Si atom -5570.287297 kJ/mol
# Density = 2.165687 g / cm^3
# Si number density = 21.706274 Si / 1000 Ang^3
#
#
#
# Elastic Constant Matrix: (Units=GPa)
#
#
# Indices 1 2 3 4 5 6 
#
# 1 154.5387 19.1577 79.0921 0.0000 -9.0920 0.0000
# 2 19.1577 21.0064 11.1871 0.0000 -8.9541 0.0000
# 3 79.0921 11.1871 203.2821 0.0000 5.5160 0.0000
# 4 0.0000 0.0000 0.0000 12.4709 0.0000 -6.5695
# 5 -9.0920 -8.9541 5.5160 0.0000 66.0243 0.0000
# 6 0.0000 0.0000 0.0000 -6.5695 0.0000 4.5189
#
#
#
# Elastic Compliance Matrix: (Units=1/GPa)
#
#
# Indices 1 2 3 4 5 6 
#
# 1 0.008874 -0.006148 -0.003132 0.000000 0.000650 0.000000
# 2 -0.006148 0.056644 -0.000913 0.000000 0.006911 0.000000
# 3 -0.003132 -0.000913 0.006217 0.000000 -0.001074 0.000000
# 4 0.000000 0.000000 0.000000 0.342421 0.000000 0.497805
# 5 0.000650 0.006911 -0.001074 0.000000 0.016263 0.000000
# 6 0.000000 0.000000 0.000000 0.497805 0.000000 0.944993
#
#
# Mechanical properties :
#
#
# Convention : Reuss Voigt Hill
#
# Bulk Modulus (GPa) = 19.47445 66.41123 42.94284
# Shear Modulus (GPa) = 3.53879 34.56218 19.05048
#
# Velocity S-wave (km/s) = 1.27822 3.99465 2.96573
# Velocity P-wave (km/s) = 3.34212 7.20681 5.61729
#
# Compressibility (1/GPa) = 0.05134934
#
# Stress axis : x y z
#
# Youngs Moduli (GPa) = 112.68557 17.65421 160.84274
#
# Poissons Ratio (x) = 0.10854 0.50377
# Poissons Ratio (y) = 0.69282 0.14679
# Poissons Ratio (z) = 0.35294 0.01611
#
# Static dielectric constant tensor:
#      x y z
#    x 1.799470 0.000000 0.036060 
#    y 0.000000 1.750800 0.000000 
#    z 0.036060 0.000000 1.871690 
# 
# From -- ./inp_files/13926.got.cif
#   From: 2010.05.17/outbox.cif.g08.bks.cpg/sg5_7_cif.got.tgz:13926.got - 2010.06.03 18:56:24.
