data_PCOD9123899
_publ_section_title
;
Structure prediction by ZEFSAII (Michael W. Deem and Ramdas Pophale) SiO2 
 PCOD9123899
Probable space group: C 2
;
_chemical_formula_sum "Si O2"
_cell_formula_units_Z 30
_cell_length_a 20.489323
_cell_length_b 16.102495
_cell_length_c 9.338010
_cell_angle_alpha 90.000000
_cell_angle_beta 27.733768
_cell_angle_gamma 90.000000
_cell_volume 1433.731073
_symmetry_space_group_name_H-M "C 2"
_symmetry_group_IT_number 5
_symmetry_cell_setting 'monoclinic'
loop_
_space_group_symop_operation_xyz
x,y,z
-x,y,-z
1/2+x,1/2+y,z
1/2-x,1/2+y,-z
loop_
_atom_site_type_symbol
_atom_site_label
_atom_site_fract_x
_atom_site_fract_y
_atom_site_fract_z
Si Si1 0.672541 0.157310 0.852077
Si Si2 0.079109 0.256480 0.698924
Si Si3 0.000000 0.771871 0.000000
Si Si4 0.600287 0.822452 0.170559
Si Si5 0.633496 0.263704 0.179785
Si Si6 0.775322 0.903877 0.341227
Si Si7 0.791054 0.468697 0.232935
Si Si8 0.983458 0.938728 0.698197
O O1 0.809656 0.182530 0.493467
O O2 0.538810 0.207946 0.051469
O O3 0.654425 0.060671 0.902481
O O4 0.710811 0.201340 0.925753
O O5 0.164968 0.339804 0.487548
O O6 0.966598 0.247492 0.791386
O O7 0.000000 0.272332 0.000000
O O8 0.127194 0.837422 0.759792
O O9 0.500000 0.841056 0.500000
O O10 0.753866 0.799490 0.930145
O O11 0.622087 0.899470 0.020901
O O12 0.500000 0.215731 0.500000
O O13 0.558734 0.341665 0.245060
O O14 0.707062 0.956740 0.599670
O O15 0.861900 0.956141 0.054273
O O16 0.630699 0.458164 0.487835
O O17 0.000000 0.970900 0.500000
#
# Coordination Sequence:
#
# PCOD9123899 Si02
#       8
#     4   4   2   4   4   4   4   4
#     4  11  25  41  62 101 134 162 217 285 330 377
#     4  11  23  39  64  94 132 172 218 265 332 394
#     4  10  20  40  68  84 126 174 216 262 308 394
#     4  12  23  41  67  97 131 178 219 271 327 396
#     4  11  21  41  70  92 123 176 232 258 313 409
#     4  11  20  40  70  94 122 177 230 259 310 410
#     4  12  24  39  68 100 132 167 215 285 332 373
#     4  11  20  39  70  98 120 169 231 261 306 400
#
# _framework density 20.924426
#
# number of rings (size 3 to 8) (size 9 to 14) (size 15 to 20)
#    0.000    0.800    9.333    0.000    0.000    2.667 
#    2.400    0.000    2.933    0.000    0.000    0.000 
#    0.000    0.000    0.000    0.000    0.000    0.000 
#
# Total GULP energy -83551.693897 kJ/mol
# GULP energy per Si atom -5570.112926 kJ/mol
# Density = 2.087680 g / cm^3
# Si number density = 20.924426 Si / 1000 Ang^3
#
#
#
# Elastic Constant Matrix: (Units=GPa)
#
#
# Indices 1 2 3 4 5 6 
#
# 1 72.3686 23.1428 19.8842 0.0000 5.0533 0.0000
# 2 23.1428 47.4988 -2.0623 0.0000 3.1637 0.0000
# 3 19.8842 -2.0623 105.2208 0.0000 16.1432 0.0000
# 4 0.0000 0.0000 0.0000 16.0543 0.0000 1.1933
# 5 5.0533 3.1637 16.1432 0.0000 44.5795 0.0000
# 6 0.0000 0.0000 0.0000 1.1933 0.0000 9.0311
#
#
#
# Elastic Compliance Matrix: (Units=1/GPa)
#
#
# Indices 1 2 3 4 5 6 
#
# 1 0.017562 -0.008700 -0.003472 0.000000 -0.000116 0.000000
# 2 -0.008700 0.025509 0.002404 0.000000 -0.001695 0.000000
# 3 -0.003472 0.002404 0.010771 0.000000 -0.003678 0.000000
# 4 0.000000 0.000000 0.000000 0.062906 0.000000 -0.008312
# 5 -0.000116 -0.001695 -0.003678 0.000000 0.023897 0.000000
# 6 0.000000 0.000000 0.000000 -0.008312 0.000000 0.111826
#
#
# Mechanical properties :
#
#
# Convention : Reuss Voigt Hill
#
# Bulk Modulus (GPa) = 29.14766 34.11305 31.63036
# Shear Modulus (GPa) = 17.64023 26.20789 21.92406
#
# Velocity S-wave (km/s) = 2.90667 3.54291 3.24045
# Velocity P-wave (km/s) = 5.02247 5.75106 5.39907
#
# Compressibility (1/GPa) = 0.03430807
#
# Stress axis : x y z
#
# Youngs Moduli (GPa) = 56.94043 39.20154 92.84020
#
# Poissons Ratio (x) = 0.34105 0.32230
# Poissons Ratio (y) = 0.49537 -0.22319
# Poissons Ratio (z) = 0.19767 -0.09424
#
# Static dielectric constant tensor:
#      x y z
#    x 1.825580 0.000000 0.029010 
#    y 0.000000 1.712960 0.000000 
#    z 0.029010 0.000000 1.879310 
# 
# From -- ./inp_files/30039.got.cif
#   From: 2010.05.17/outbox.cif.g08.bks.cpg/sg5_16_cif.got.tgz:30039.got - 2010.06.03 18:56:24.
