data_PCOD9123071
_publ_section_title
;
Structure prediction by ZEFSAII (Michael W. Deem and Ramdas Pophale) SiO2 
 PCOD9123071
Probable space group: C 2
;
_chemical_formula_sum "Si O2"
_cell_formula_units_Z 24
_cell_length_a 27.840737
_cell_length_b 7.617229
_cell_length_c 10.996987
_cell_angle_alpha 90.000000
_cell_angle_beta 24.443475
_cell_angle_gamma 90.000000
_cell_volume 965.021584
_symmetry_space_group_name_H-M "C 2"
_symmetry_group_IT_number 5
_symmetry_cell_setting 'monoclinic'
loop_
_space_group_symop_operation_xyz
x,y,z
-x,y,-z
1/2+x,1/2+y,z
1/2-x,1/2+y,-z
loop_
_atom_site_type_symbol
_atom_site_label
_atom_site_fract_x
_atom_site_fract_y
_atom_site_fract_z
Si Si1 0.340437 0.237630 0.377629
Si Si2 0.667073 0.034072 0.073603
Si Si3 0.211154 0.919611 0.969081
Si Si4 0.398114 0.720911 0.914749
Si Si5 0.310833 0.860622 0.474711
Si Si6 0.407287 0.544436 0.368729
O O1 0.306780 0.329116 0.329092
O O2 0.422482 0.351640 0.275877
O O3 0.370818 0.034988 0.286062
O O4 0.215086 0.235752 0.736958
O O5 0.789632 0.030569 0.718578
O O6 0.700771 0.950308 0.124344
O O7 0.640056 0.239540 0.150176
O O8 0.582307 0.912649 0.189140
O O9 0.133722 0.090550 0.122836
O O10 0.282205 0.899319 0.680536
O O11 0.496973 0.630336 0.766379
O O12 0.379405 0.678602 0.322678
#
# Coordination Sequence:
#
# PCOD9123071 Si02
#       6
#     4   4   4   4   4   4
#     4  10  20  39  63  83 122 165 199 256 318 363
#     4  10  20  39  63  83 122 165 199 256 318 363
#     4  10  20  37  61  86 120 163 203 247 318 375
#     4  10  22  38  62  90 117 158 215 257 304 372
#     4  10  20  37  61  86 120 163 203 247 318 375
#     4  10  22  38  62  90 117 158 215 257 304 372
#
# _framework density 24.869910000000001
#
# number of rings (size 3 to 8) (size 9 to 14) (size 15 to 20)
#    0.000    2.000    3.333    0.000    0.000    2.667 
#    0.000    0.000   14.667    0.000    0.000    0.000 
#    0.000    0.000    0.000    0.000    0.000    0.000 
#
# Total GULP energy -67119.344997 kJ/mol
# GULP energy per Si atom -5593.278750 kJ/mol
# Density = 2.481330 g / cm^3
# Si number density = 24.869910 Si / 1000 Ang^3
#
#
#
# Elastic Constant Matrix: (Units=GPa)
#
#
# Indices 1 2 3 4 5 6 
#
# 1 115.7804 26.5159 28.5551 0.0000 -17.9365 0.0000
# 2 26.5159 101.9788 0.0033 0.0000 -10.1911 0.0000
# 3 28.5551 0.0033 84.6067 0.0000 -17.3830 0.0000
# 4 0.0000 0.0000 0.0000 12.9321 0.0000 -11.8928
# 5 -17.9365 -10.1911 -17.3830 0.0000 39.6481 0.0000
# 6 0.0000 0.0000 0.0000 -11.8928 0.0000 54.2935
#
#
#
# Elastic Compliance Matrix: (Units=1/GPa)
#
#
# Indices 1 2 3 4 5 6 
#
# 1 0.010339 -0.002411 -0.002919 0.000000 0.002778 0.000000
# 2 -0.002411 0.010653 0.001266 0.000000 0.002203 0.000000
# 3 -0.002919 0.001266 0.013847 0.000000 0.005076 0.000000
# 4 0.000000 0.000000 0.000000 0.096834 0.000000 0.021211
# 5 0.002778 0.002203 0.005076 0.000000 0.029270 0.000000
# 6 0.000000 0.000000 0.000000 0.021211 0.000000 0.023065
#
#
# Mechanical properties :
#
#
# Convention : Reuss Voigt Hill
#
# Bulk Modulus (GPa) = 37.43600 45.83495 41.63548
# Shear Modulus (GPa) = 24.87074 37.86084 31.36579
#
# Velocity S-wave (km/s) = 3.16576 3.90597 3.55518
# Velocity P-wave (km/s) = 5.33368 6.22993 5.79914
#
# Compressibility (1/GPa) = 0.02671225
#
# Stress axis : x y z
#
# Youngs Moduli (GPa) = 96.71779 93.87175 72.21619
#
# Poissons Ratio (x) = 0.22629 0.21078
# Poissons Ratio (y) = 0.23315 -0.09140
# Poissons Ratio (z) = 0.28229 -0.11881
#
# Static dielectric constant tensor:
#      x y z
#    x 1.913720 0.000000 0.028030 
#    y 0.000000 2.037870 0.000000 
#    z 0.028030 0.000000 2.032400 
# 
# From -- ./inp_files/47229.got.cif
#   From: 2010.05.17/outbox.cif.g08.bks.cpg/sg5_24_cif.got.tgz:47229.got - 2010.06.03 18:56:24.
