data_PCOD9123144
_publ_section_title
;
Structure prediction by ZEFSAII (Michael W. Deem and Ramdas Pophale) SiO2 
 PCOD9123144
Probable space group: C 2
;
_chemical_formula_sum "Si O2"
_cell_formula_units_Z 30
_cell_length_a 17.441841
_cell_length_b 11.641798
_cell_length_c 14.331559
_cell_angle_alpha 90.000000
_cell_angle_beta 148.527073
_cell_angle_gamma 90.000000
_cell_volume 1519.343145
_symmetry_space_group_name_H-M "C 2"
_symmetry_group_IT_number 5
_symmetry_cell_setting 'monoclinic'
loop_
_space_group_symop_operation_xyz
x,y,z
-x,y,-z
1/2+x,1/2+y,z
1/2-x,1/2+y,-z
loop_
_atom_site_type_symbol
_atom_site_label
_atom_site_fract_x
_atom_site_fract_y
_atom_site_fract_z
Si Si1 0.000000 0.538520 0.500000
Si Si2 0.724490 0.698055 0.250092
Si Si3 0.419201 0.393473 0.514718
Si Si4 0.155824 0.337912 0.750427
Si Si5 0.466991 0.643030 0.117130
Si Si6 0.928060 0.885387 0.137194
Si Si7 0.365775 0.276618 0.802630
Si Si8 0.420553 0.662530 0.566252
O O1 0.868113 0.619493 0.394426
O O2 0.942322 0.451823 0.359802
O O3 0.771370 0.819423 0.345096
O O4 0.604661 0.634691 0.189749
O O5 0.654648 0.705577 0.073455
O O6 0.500000 0.381566 0.500000
O O7 0.512001 0.349629 0.699723
O O8 0.413479 0.528140 0.534288
O O9 0.265590 0.342341 0.775027
O O10 0.047427 0.229629 0.641053
O O11 0.269594 0.331169 0.953129
O O12 0.408329 0.520758 0.094161
O O13 0.534058 0.694663 0.281099
O O14 0.049528 0.848685 0.187208
O O15 0.243885 0.202159 0.625553
O O16 0.500000 0.218749 0.000000
#
# Coordination Sequence:
#
# PCOD9123144 Si02
#       8
#     2   4   4   4   4   4   4   4
#     4  12  20  36  66  96 116 154 220 272 320 366
#     4  11  23  41  64  91 126 171 212 266 320 384
#     4  11  24  42  62  87 136 176 210 251 325 389
#     4  11  21  36  66  98 122 155 216 271 321 365
#     4  10  23  40  64  93 128 170 214 263 328 377
#     4  10  22  39  66  97 127 164 215 276 319 376
#     4  10  20  37  63  92 120 158 207 272 320 362
#     4  11  23  41  64  91 130 171 214 264 319 391
#
# _framework density 19.745376
#
# number of rings (size 3 to 8) (size 9 to 14) (size 15 to 20)
#    0.000    1.333    3.333    2.400    5.600    0.000 
#    2.400    0.000    2.933    0.000    0.000    0.000 
#    0.000    0.000    0.000    0.000    0.000    0.000 
#
# Total GULP energy -83563.700705 kJ/mol
# GULP energy per Si atom -5570.913380 kJ/mol
# Density = 1.970043 g / cm^3
# Si number density = 19.745376 Si / 1000 Ang^3
#
#
#
# Elastic Constant Matrix: (Units=GPa)
#
#
# Indices 1 2 3 4 5 6 
#
# 1 66.0708 4.3061 60.1865 0.0000 -21.6519 0.0000
# 2 4.3061 64.5891 52.2882 0.0000 0.9577 0.0000
# 3 60.1865 52.2882 191.1129 0.0000 -15.2810 0.0000
# 4 0.0000 0.0000 0.0000 24.6067 0.0000 -8.7039
# 5 -21.6519 0.9577 -15.2810 0.0000 45.3928 0.0000
# 6 0.0000 0.0000 0.0000 -8.7039 0.0000 5.1851
#
#
#
# Elastic Compliance Matrix: (Units=1/GPa)
#
#
# Indices 1 2 3 4 5 6 
#
# 1 0.025905 0.005319 -0.008873 0.000000 0.009257 0.000000
# 2 0.005319 0.021219 -0.007516 0.000000 -0.000441 0.000000
# 3 -0.008873 -0.007516 0.010027 0.000000 -0.000698 0.000000
# 4 0.000000 0.000000 0.000000 0.100042 0.000000 0.167936
# 5 0.009257 -0.000441 -0.000698 0.000000 0.026220 0.000000
# 6 0.000000 0.000000 0.000000 0.167936 0.000000 0.474768
#
#
# Mechanical properties :
#
#
# Convention : Reuss Voigt Hill
#
# Bulk Modulus (GPa) = 28.56200 61.70381 45.13290
# Shear Modulus (GPa) = 7.22551 28.70305 17.96428
#
# Velocity S-wave (km/s) = 1.91502 3.81682 3.01956
# Velocity P-wave (km/s) = 4.40299 7.12333 5.92149
#
# Compressibility (1/GPa) = 0.03501156
#
# Stress axis : x y z
#
# Youngs Moduli (GPa) = 38.60188 47.12802 99.72622
#
# Poissons Ratio (x) = -0.25068 0.88491
# Poissons Ratio (y) = -0.20533 0.74952
# Poissons Ratio (z) = 0.34253 0.35420
#
# Static dielectric constant tensor:
#      x y z
#    x 1.712270 0.000000 -0.049270 
#    y 0.000000 1.722770 0.000000 
#    z -0.049270 0.000000 1.739000 
# 
# From -- ./inp_files/55992.got.cif
#   From: 2010.05.17/outbox.cif.g08.bks.cpg/sg5_28_cif.got.tgz:55992.got - 2010.06.03 18:56:24.
