data_PCOD9123621
_publ_section_title
;
Structure prediction by ZEFSAII (Michael W. Deem and Ramdas Pophale) SiO2 
 PCOD9123621
Probable space group: C 2
;
_chemical_formula_sum "Si O2"
_cell_formula_units_Z 28
_cell_length_a 14.348693
_cell_length_b 10.197213
_cell_length_c 20.497126
_cell_angle_alpha 90.000000
_cell_angle_beta 150.904643
_cell_angle_gamma 90.000000
_cell_volume 1458.342172
_symmetry_space_group_name_H-M "C 2"
_symmetry_group_IT_number 5
_symmetry_cell_setting 'monoclinic'
loop_
_space_group_symop_operation_xyz
x,y,z
-x,y,-z
1/2+x,1/2+y,z
1/2-x,1/2+y,-z
loop_
_atom_site_type_symbol
_atom_site_label
_atom_site_fract_x
_atom_site_fract_y
_atom_site_fract_z
Si Si1 0.026574 0.654540 0.438380
Si Si2 0.040353 0.268018 0.861162
Si Si3 0.441957 0.539612 0.703020
Si Si4 0.325119 0.020226 0.688278
Si Si5 0.015960 0.966870 0.609783
Si Si6 0.680786 0.659905 0.148572
Si Si7 0.587383 0.270800 0.832361
O O1 0.231572 0.589040 0.554287
O O2 0.000000 0.651088 0.500000
O O3 0.853895 0.586660 0.292287
O O4 0.015840 0.808812 0.412254
O O5 0.025832 0.141077 0.806469
O O6 0.950165 0.388478 0.766947
O O7 0.915867 0.241489 0.851028
O O8 0.254615 0.296153 0.015638
O O9 0.556223 0.522657 0.705632
O O10 0.450908 0.395097 0.739176
O O11 0.184928 0.007241 0.664539
O O12 0.462839 0.143949 0.772483
O O13 0.182148 0.023798 0.539775
O O14 0.789631 0.740285 0.158182
O O15 0.500000 0.594010 0.000000
#
# Coordination Sequence:
#
# PCOD9123621 Si02
#       7
#     4   4   4   4   4   4   4
#     4  12  19  41  64  92 124 165 212 257 303 384
#     4  11  21  41  65  88 127 171 208 253 306 388
#     4  12  23  38  65  97 124 159 216 261 312 366
#     4  11  21  42  63  87 126 164 206 258 311 374
#     4  11  21  38  64  89 121 164 211 254 308 371
#     4  10  20  39  64  91 123 167 211 250 306 382
#     4  11  24  38  61  98 127 161 210 262 318 359
#
# _framework density 19.199884000000001
#
# number of rings (size 3 to 8) (size 9 to 14) (size 15 to 20)
#    0.000    0.857    7.143    1.714    0.000    0.000 
#    2.571    3.571    0.000    0.000    0.000    0.000 
#    0.000    0.000    0.000    0.000    0.000    0.000 
#
# Total GULP energy -78091.335076 kJ/mol
# GULP energy per Si atom -5577.952505 kJ/mol
# Density = 1.915618 g / cm^3
# Si number density = 19.199884 Si / 1000 Ang^3
#
#
#
# Elastic Constant Matrix: (Units=GPa)
#
#
# Indices 1 2 3 4 5 6 
#
# 1 74.9813 49.0717 31.0871 0.0000 -7.3445 0.0000
# 2 49.0717 82.8809 9.4433 0.0002 2.9543 0.0000
# 3 31.0871 9.4433 105.2333 0.0005 -6.9822 0.0001
# 4 0.0000 0.0002 0.0005 18.2348 0.0002 2.6710
# 5 -7.3445 2.9543 -6.9822 0.0002 26.8037 0.0001
# 6 0.0000 0.0000 0.0001 2.6710 0.0001 8.2940
#
#
#
# Elastic Compliance Matrix: (Units=1/GPa)
#
#
# Indices 1 2 3 4 5 6 
#
# 1 0.026561 -0.015308 -0.005981 0.000000 0.007407 0.000000
# 2 -0.015308 0.021086 0.002236 0.000000 -0.005936 0.000000
# 3 -0.005981 0.002236 0.011136 0.000000 0.001016 0.000000
# 4 0.000000 0.000000 0.000000 0.057555 0.000000 -0.018535
# 5 0.007407 -0.005936 0.001016 0.000000 0.040257 0.000000
# 6 0.000000 0.000000 0.000000 -0.018535 0.000000 0.126539
#
#
# Mechanical properties :
#
#
# Convention : Reuss Voigt Hill
#
# Bulk Modulus (GPa) = 48.36450 49.14440 48.75445
# Shear Modulus (GPa) = 15.23775 22.23272 18.73524
#
# Velocity S-wave (km/s) = 2.82021 3.40657 3.12717
# Velocity P-wave (km/s) = 5.98744 6.41286 6.20380
#
# Compressibility (1/GPa) = 0.02067632
#
# Stress axis : x y z
#
# Youngs Moduli (GPa) = 37.64981 47.42473 89.79655
#
# Poissons Ratio (x) = 0.72600 0.53708
# Poissons Ratio (y) = 0.57636 -0.20080
# Poissons Ratio (z) = 0.22519 -0.10605
#
# Static dielectric constant tensor:
#      x y z
#    x 1.681660 0.000000 -0.006880 
#    y 0.000000 1.638940 0.000000 
#    z -0.006880 0.000000 1.716890 
# 
# From -- ./inp_files/56929.got.cif
#   From: 2010.05.17/outbox.cif.g08.bks.cpg/sg5_29_cif.got.tgz:56929.got - 2010.06.03 18:56:24.
