data_PCOD9123278
_publ_section_title
;
Structure prediction by ZEFSAII (Michael W. Deem and Ramdas Pophale) SiO2 
 PCOD9123278
Probable space group: C 2
;
_chemical_formula_sum "Si O2"
_cell_formula_units_Z 24
_cell_length_a 13.853013
_cell_length_b 4.882112
_cell_length_c 13.681996
_cell_angle_alpha 90.000000
_cell_angle_beta 65.302557
_cell_angle_gamma 90.000000
_cell_volume 840.696412
_symmetry_space_group_name_H-M "C 2"
_symmetry_group_IT_number 5
_symmetry_cell_setting 'monoclinic'
loop_
_space_group_symop_operation_xyz
x,y,z
-x,y,-z
1/2+x,1/2+y,z
1/2-x,1/2+y,-z
loop_
_atom_site_type_symbol
_atom_site_label
_atom_site_fract_x
_atom_site_fract_y
_atom_site_fract_z
Si Si1 0.680658 0.526310 0.049351
Si Si2 0.972666 0.673204 0.645208
Si Si3 0.650341 0.758005 0.780747
Si Si4 0.527326 0.243636 0.854787
Si Si5 0.650347 0.658835 0.280750
Si Si6 0.319342 0.890569 0.450651
O O1 0.576732 0.373215 0.053087
O O2 0.643056 0.664325 0.166000
O O3 0.763069 0.273872 0.031635
O O4 0.941903 0.978446 0.630162
O O5 0.999996 0.708419 0.749998
O O6 0.076729 0.543643 0.553083
O O7 0.871995 0.468219 0.678622
O O8 0.627999 0.448618 0.821371
O O9 0.749997 0.958416 0.750001
O O10 0.643052 0.752535 0.665996
O O11 0.558089 0.938394 0.869835
O O12 0.263063 0.643012 0.531640
#
# Coordination Sequence:
#
# PCOD9123278 Si02
#       6
#     4   4   4   4   4   4
#     4  11  21  37  59  85 112 148 193 240 287 346
#     4  10  20  38  60  82 114 158 194 228 289 367
#     4  11  22  39  60  85 115 154 196 240 290 351
#     4  10  20  38  60  82 114 158 194 228 289 367
#     4  11  22  39  60  85 115 154 196 240 290 351
#     4  11  21  37  59  85 112 148 193 240 287 346
#
# _framework density 28.547758999999999
#
# number of rings (size 3 to 8) (size 9 to 14) (size 15 to 20)
#    0.000    1.333    0.000   11.000    0.000    0.000 
#    0.000   10.000    0.000    0.000    0.000    0.000 
#    0.000    0.000    0.000    0.000    0.000    0.000 
#
# Total GULP energy -67174.647675 kJ/mol
# GULP energy per Si atom -5597.887306 kJ/mol
# Density = 2.848278 g / cm^3
# Si number density = 28.547759 Si / 1000 Ang^3
#
#
#
# Elastic Constant Matrix: (Units=GPa)
#
#
# Indices 1 2 3 4 5 6 
#
# 1 67.9970 17.6306 20.0580 0.0001 -16.4946 0.0009
# 2 17.6306 218.7774 46.6829 0.0014 -19.4099 0.0049
# 3 20.0580 46.6829 140.0832 -0.0002 -5.3970 0.0002
# 4 0.0001 0.0014 -0.0002 62.0886 -0.0003 -19.0364
# 5 -16.4946 -19.4099 -5.3970 -0.0003 34.4854 0.0007
# 6 0.0009 0.0049 0.0002 -19.0364 0.0007 47.8163
#
#
#
# Elastic Compliance Matrix: (Units=1/GPa)
#
#
# Indices 1 2 3 4 5 6 
#
# 1 0.017280 -0.000255 -0.002089 0.000000 0.007794 0.000000
# 2 -0.000255 0.005154 -0.001583 0.000000 0.002531 -0.000001
# 3 -0.002089 -0.001583 0.007940 0.000000 -0.000648 0.000000
# 4 0.000000 0.000000 0.000000 0.018345 0.000000 0.007304
# 5 0.007794 0.002531 -0.000648 0.000000 0.034049 -0.000001
# 6 0.000000 -0.000001 0.000000 0.007304 -0.000001 0.023821
#
#
# Mechanical properties :
#
#
# Convention : Reuss Voigt Hill
#
# Bulk Modulus (GPa) = 44.40739 66.17784 55.29261
# Shear Modulus (GPa) = 41.00018 51.71047 46.35532
#
# Velocity S-wave (km/s) = 3.79383 4.26063 4.03399
# Velocity P-wave (km/s) = 5.89746 6.88736 6.41155
#
# Compressibility (1/GPa) = 0.02251878
#
# Stress axis : x y z
#
# Youngs Moduli (GPa) = 57.87154 194.02965 125.93744
#
# Poissons Ratio (x) = 0.04953 0.26306
# Poissons Ratio (y) = 0.01477 0.19942
# Poissons Ratio (z) = 0.12088 0.30724
#
# Static dielectric constant tensor:
#      x y z
#    x 2.379250 0.000000 0.025620 
#    y 0.000000 2.047380 0.000000 
#    z 0.025620 0.000000 2.246730 
# 
# From -- ./inp_files/66403.got.cif
#   From: 2010.05.17/outbox.cif.g08.bks.cpg/sg5_34_cif.got.tgz:66403.got - 2010.06.03 18:56:24.
