data_PCOD9123643
_publ_section_title
;
Structure prediction by ZEFSAII (Michael W. Deem and Ramdas Pophale) SiO2 
 PCOD9123643
Probable space group: C 2
;
_chemical_formula_sum "Si O2"
_cell_formula_units_Z 32
_cell_length_a 26.894479
_cell_length_b 9.041653
_cell_length_c 16.693220
_cell_angle_alpha 90.000000
_cell_angle_beta 20.785434
_cell_angle_gamma 90.000000
_cell_volume 1440.520729
_symmetry_space_group_name_H-M "C 2"
_symmetry_group_IT_number 5
_symmetry_cell_setting 'monoclinic'
loop_
_space_group_symop_operation_xyz
x,y,z
-x,y,-z
1/2+x,1/2+y,z
1/2-x,1/2+y,-z
loop_
_atom_site_type_symbol
_atom_site_label
_atom_site_fract_x
_atom_site_fract_y
_atom_site_fract_z
Si Si1 0.683703 0.016860 0.931647
Si Si2 0.616434 0.556872 0.649914
Si Si3 0.470265 0.302373 0.794441
Si Si4 0.430030 0.789343 0.689653
Si Si5 0.233170 0.129656 0.644960
Si Si6 0.597485 0.858607 0.583795
Si Si7 0.149512 0.426323 0.807838
Si Si8 0.333238 0.465414 0.864314
O O1 0.654074 0.188136 0.998482
O O2 0.538008 0.931319 0.168646
O O3 0.705949 0.000755 0.803696
O O4 0.798122 0.952155 0.821882
O O5 0.488293 0.444540 0.825291
O O6 0.650967 0.613476 0.685806
O O7 0.613165 0.700036 0.599400
O O8 0.748624 0.462532 0.419106
O O9 0.611324 0.204646 0.591062
O O10 0.448476 0.366794 0.737236
O O11 0.500000 0.757011 0.500000
O O12 0.554357 0.845305 0.557637
O O13 0.369710 0.637780 0.818485
O O14 0.309423 0.913535 0.876670
O O15 0.150308 0.249549 0.822268
O O16 0.267104 0.961977 0.616306
O O17 0.000000 0.475920 0.000000
#
# Coordination Sequence:
#
# PCOD9123643 Si02
#       8
#     4   4   4   4   4   4   4   4
#     4  10  22  40  65  95 133 169 224 282 341 419
#     4  11  21  38  68  90 124 177 220 276 353 405
#     4  10  20  39  65  94 127 176 221 272 351 413
#     4  11  25  44  69 101 139 181 231 283 347 427
#     4  10  22  40  60  89 130 172 223 279 339 416
#     4  10  21  41  61  92 130 171 214 280 340 399
#     4  11  23  41  63  95 128 172 230 285 343 412
#     4  11  22  43  70  98 141 182 225 294 351 411
#
# _framework density 22.214189000000001
#
# number of rings (size 3 to 8) (size 9 to 14) (size 15 to 20)
#    0.000    1.500    2.500    3.750    1.750    0.000 
#    4.500    3.750    0.000    0.000    0.000    0.000 
#    0.000    0.000    0.000    0.000    0.000    0.000 
#
# Total GULP energy -89276.067238 kJ/mol
# GULP energy per Si atom -5579.754202 kJ/mol
# Density = 2.216363 g / cm^3
# Si number density = 22.214189 Si / 1000 Ang^3
#
#
#
# Elastic Constant Matrix: (Units=GPa)
#
#
# Indices 1 2 3 4 5 6 
#
# 1 111.8474 20.3508 21.4476 0.0000 -5.3784 0.0000
# 2 20.3508 91.0496 27.8045 0.0000 6.9066 0.0000
# 3 21.4476 27.8045 30.0455 0.0000 2.6165 0.0000
# 4 0.0000 0.0000 0.0000 22.7941 0.0000 -7.4597
# 5 -5.3784 6.9066 2.6165 0.0000 19.1544 0.0000
# 6 0.0000 0.0000 0.0000 -7.4597 0.0000 37.4205
#
#
#
# Elastic Compliance Matrix: (Units=1/GPa)
#
#
# Indices 1 2 3 4 5 6 
#
# 1 0.010674 -0.000369 -0.007642 0.000000 0.004174 0.000000
# 2 -0.000369 0.015575 -0.013817 0.000000 -0.003832 0.000000
# 3 -0.007642 -0.013817 0.051894 0.000000 -0.004252 0.000000
# 4 0.000000 0.000000 0.000000 0.046933 0.000000 0.009356
# 5 0.004174 -0.003832 -0.004252 0.000000 0.055342 0.000000
# 6 0.000000 0.000000 0.000000 0.009356 0.000000 0.028588
#
#
# Mechanical properties :
#
#
# Convention : Reuss Voigt Hill
#
# Bulk Modulus (GPa) = 28.99453 41.34981 35.17217
# Shear Modulus (GPa) = 18.92810 26.76311 22.84560
#
# Velocity S-wave (km/s) = 2.92219 3.47475 3.21038
# Velocity P-wave (km/s) = 4.94633 5.89518 5.44148
#
# Compressibility (1/GPa) = 0.03448926
#
# Stress axis : x y z
#
# Youngs Moduli (GPa) = 93.68633 64.20357 19.27000
#
# Poissons Ratio (x) = 0.02368 0.14725
# Poissons Ratio (y) = 0.03455 0.26625
# Poissons Ratio (z) = 0.71592 0.88708
#
# Static dielectric constant tensor:
#      x y z
#    x 1.854170 0.000000 0.002260 
#    y 0.000000 1.843690 0.000000 
#    z 0.002260 0.000000 1.889550 
# 
# From -- ./inp_files/57677.got.cif
#   From: 2010.05.17/outbox.cif.g08.bks.cpg/sg5_29_cif.got.tgz:57677.got - 2010.06.03 18:56:24.
