data_PCOD9123843
_publ_section_title
;
Structure prediction by ZEFSAII (Michael W. Deem and Ramdas Pophale) SiO2 
 PCOD9123843
Probable space group: C 2
;
_chemical_formula_sum "Si O2"
_cell_formula_units_Z 30
_cell_length_a 12.845085
_cell_length_b 8.460495
_cell_length_c 13.866037
_cell_angle_alpha 90.000000
_cell_angle_beta 65.527405
_cell_angle_gamma 90.000000
_cell_volume 1371.521517
_symmetry_space_group_name_H-M "C 2"
_symmetry_group_IT_number 5
_symmetry_cell_setting 'monoclinic'
loop_
_space_group_symop_operation_xyz
x,y,z
-x,y,-z
1/2+x,1/2+y,z
1/2-x,1/2+y,-z
loop_
_atom_site_type_symbol
_atom_site_label
_atom_site_fract_x
_atom_site_fract_y
_atom_site_fract_z
Si Si1 0.046988 0.996340 0.294680
Si Si2 0.699252 0.064020 0.491265
Si Si3 0.413493 0.756982 0.444052
Si Si4 0.500000 0.298158 0.500000
Si Si5 0.249045 0.188693 0.139505
Si Si6 0.224740 0.429499 0.994409
Si Si7 0.158945 0.924623 0.742640
Si Si8 0.130426 0.141866 0.934321
O O1 0.046904 0.907042 0.396113
O O2 0.965019 0.898154 0.256276
O O3 0.165819 0.050662 0.206956
O O4 0.981453 0.161866 0.337655
O O5 0.803168 0.146685 0.507479
O O6 0.604486 0.191086 0.497306
O O7 0.635640 0.923767 0.570785
O O8 0.754488 0.978626 0.375399
O O9 0.500000 0.779701 0.500000
O O10 0.302704 0.273834 0.210527
O O11 0.328170 0.088552 0.033774
O O12 0.183720 0.327316 0.104128
O O13 0.213285 0.289273 0.921526
O O14 0.339113 0.505135 0.998656
O O15 0.149227 0.066148 0.823281
O O16 0.000000 0.191672 0.000000
#
# Coordination Sequence:
#
# PCOD9123843 Si02
#       8
#     4   4   4   2   4   4   4   4
#     4  11  24  42  66  97 134 184 224 279 341 392
#     4  11  24  42  65  98 132 179 237 280 340 406
#     4  11  22  43  67  92 135 180 228 284 339 396
#     4  12  26  42  66 102 138 192 236 286 340 404
#     4  10  21  41  69  94 134 170 220 278 336 406
#     4   9  20  39  67  95 123 171 210 266 340 396
#     4  10  22  39  64  95 129 177 220 274 337 401
#     4  10  20  40  65  93 131 166 214 275 336 398
#
# _framework density 21.873515999999999
#
# number of rings (size 3 to 8) (size 9 to 14) (size 15 to 20)
#    0.000    1.600    1.333    4.000    1.867    0.000 
#    0.000    8.667    2.933    0.000    0.000    0.000 
#    0.000    0.000    0.000    0.000    0.000    0.000 
#
# Total GULP energy -83626.852730 kJ/mol
# GULP energy per Si atom -5575.123515 kJ/mol
# Density = 2.182373 g / cm^3
# Si number density = 21.873516 Si / 1000 Ang^3
#
#
#
# Elastic Constant Matrix: (Units=GPa)
#
#
# Indices 1 2 3 4 5 6 
#
# 1 92.0765 43.3300 9.9004 0.0000 1.5751 0.0000
# 2 43.3300 117.6004 36.8585 0.0000 -4.2416 0.0000
# 3 9.9004 36.8585 44.2360 0.0000 3.0029 0.0000
# 4 0.0000 0.0000 0.0000 22.5991 0.0000 7.2784
# 5 1.5751 -4.2416 3.0029 0.0000 24.0955 0.0000
# 6 0.0000 0.0000 0.0000 7.2784 0.0000 26.6665
#
#
#
# Elastic Compliance Matrix: (Units=1/GPa)
#
#
# Indices 1 2 3 4 5 6 
#
# 1 0.013309 -0.005534 0.001772 0.000000 -0.002065 0.000000
# 2 -0.005534 0.014068 -0.010767 0.000000 0.004180 0.000000
# 3 0.001772 -0.010767 0.031584 0.000000 -0.005947 0.000000
# 4 0.000000 0.000000 0.000000 0.048514 0.000000 -0.013241
# 5 -0.002065 0.004180 -0.005947 0.000000 0.043114 0.000000
# 6 0.000000 0.000000 0.000000 -0.013241 0.000000 0.041114
#
#
# Mechanical properties :
#
#
# Convention : Reuss Voigt Hill
#
# Bulk Modulus (GPa) = 33.43945 48.23231 40.83588
# Shear Modulus (GPa) = 21.67055 25.59381 23.63218
#
# Velocity S-wave (km/s) = 3.15099 3.42436 3.29051
# Velocity P-wave (km/s) = 5.34407 6.14275 5.75728
#
# Compressibility (1/GPa) = 0.02990480
#
# Stress axis : x y z
#
# Youngs Moduli (GPa) = 75.13454 71.08539 31.66151
#
# Poissons Ratio (x) = 0.39338 -0.05612
# Poissons Ratio (y) = 0.41578 0.34089
# Poissons Ratio (z) = -0.13316 0.76535
#
# Static dielectric constant tensor:
#      x y z
#    x 1.818760 0.000000 -0.008510 
#    y 0.000000 1.810250 0.000000 
#    z -0.008510 0.000000 1.852530 
# 
# From -- ./inp_files/52418.got.cif
#   From: 2010.05.17/outbox.cif.g08.bks.cpg/sg5_27_cif.got.tgz:52418.got - 2010.06.03 18:56:24.
