data_PCOD9123192
_publ_section_title
;
Structure prediction by ZEFSAII (Michael W. Deem and Ramdas Pophale) SiO2 
 PCOD9123192
Probable space group: C 2
;
_chemical_formula_sum "Si O2"
_cell_formula_units_Z 28
_cell_length_a 14.274035
_cell_length_b 8.741238
_cell_length_c 10.210349
_cell_angle_alpha 90.000000
_cell_angle_beta 78.509097
_cell_angle_gamma 90.000000
_cell_volume 1248.438115
_symmetry_space_group_name_H-M "C 2"
_symmetry_group_IT_number 5
_symmetry_cell_setting 'monoclinic'
loop_
_space_group_symop_operation_xyz
x,y,z
-x,y,-z
1/2+x,1/2+y,z
1/2-x,1/2+y,-z
loop_
_atom_site_type_symbol
_atom_site_label
_atom_site_fract_x
_atom_site_fract_y
_atom_site_fract_z
Si Si1 0.500000 0.073790 0.500000
Si Si2 0.637120 0.385166 0.836242
Si Si3 0.188496 0.228579 0.117624
Si Si4 0.577268 0.404474 0.149852
Si Si5 0.500478 0.828565 0.276859
Si Si6 0.852591 0.813166 0.612485
Si Si7 0.817541 0.234801 0.189161
Si Si8 0.000000 0.072883 0.500000
O O1 0.405036 0.177559 0.524691
O O2 0.489447 0.971391 0.374532
O O3 0.719825 0.256562 0.814217
O O4 0.536348 0.396406 0.788984
O O5 0.684540 0.550415 0.799122
O O6 0.598738 0.369183 0.994897
O O7 0.105372 0.340929 0.186857
O O8 0.136686 0.063753 0.148609
O O9 0.207795 0.261118 0.957887
O O10 0.618117 0.290125 0.243970
O O11 0.424502 0.797691 0.183479
O O12 0.491953 0.682874 0.377146
O O13 0.740122 0.806183 0.670208
O O14 0.906393 0.965514 0.547126
#
# Coordination Sequence:
#
# PCOD9123192 Si02
#       8
#     2   4   4   4   4   4   4   2
#     4  10  26  42  62  86 132 182 222 284 328 392
#     4  10  20  37  65  98 133 174 210 271 348 407
#     4  11  20  38  69  99 131 168 222 276 344 413
#     4  10  20  39  63  94 136 174 218 269 336 411
#     4  11  22  43  63  95 129 175 232 272 336 411
#     4  11  21  43  61  93 132 172 223 281 335 398
#     4  11  22  37  67  97 132 172 215 286 345 402
#     4  10  22  40  68  82 126 188 226 280 324 402
#
# _framework density 22.428025000000002
#
# number of rings (size 3 to 8) (size 9 to 14) (size 15 to 20)
#    0.000    1.429    4.286    1.286    0.000    1.143 
#    2.571    5.714    3.143    0.000    0.000    0.000 
#    0.000    0.000    0.000    0.000    0.000    0.000 
#
# Total GULP energy -77987.144266 kJ/mol
# GULP energy per Si atom -5570.510305 kJ/mol
# Density = 2.237698 g / cm^3
# Si number density = 22.428025 Si / 1000 Ang^3
#
#
#
# Elastic Constant Matrix: (Units=GPa)
#
#
# Indices 1 2 3 4 5 6 
#
# 1 99.6628 23.1606 -3.9930 0.0000 -24.1566 0.0000
# 2 23.1606 54.7547 20.5605 0.0000 -9.2351 0.0000
# 3 -3.9930 20.5605 70.8691 0.0000 -31.0863 0.0000
# 4 0.0000 0.0000 0.0000 25.2256 0.0000 0.1669
# 5 -24.1566 -9.2351 -31.0863 0.0000 37.8783 0.0000
# 6 0.0000 0.0000 0.0000 0.1669 0.0000 5.8590
#
#
#
# Elastic Compliance Matrix: (Units=1/GPa)
#
#
# Indices 1 2 3 4 5 6 
#
# 1 0.016707 -0.008249 0.011134 0.000000 0.017781 0.000000
# 2 -0.008249 0.024569 -0.011363 0.000000 -0.008596 0.000000
# 3 0.011134 -0.011363 0.031146 0.000000 0.029892 0.000000
# 4 0.000000 0.000000 0.000000 0.039650 0.000000 -0.001130
# 5 0.017781 -0.008596 0.029892 0.000000 0.060176 0.000000
# 6 0.000000 0.000000 0.000000 -0.001130 0.000000 0.170709
#
#
# Mechanical properties :
#
#
# Convention : Reuss Voigt Hill
#
# Bulk Modulus (GPa) = 18.02899 33.86031 25.94465
# Shear Modulus (GPa) = 13.21348 26.16315 19.68831
#
# Velocity S-wave (km/s) = 2.42987 3.41917 2.96606
# Velocity P-wave (km/s) = 3.99104 5.54236 4.82940
#
# Compressibility (1/GPa) = 0.05546623
#
# Stress axis : x y z
#
# Youngs Moduli (GPa) = 59.85665 40.70090 32.10649
#
# Poissons Ratio (x) = 0.33572 -0.35747
# Poissons Ratio (y) = 0.49373 0.36484
# Poissons Ratio (z) = -0.66643 0.46250
#
# Static dielectric constant tensor:
#      x y z
#    x 1.971140 0.000000 -0.067890 
#    y 0.000000 1.854660 0.000000 
#    z -0.067890 0.000000 1.864160 
# 
# From -- ./inp_files/41729.got.cif
#   From: 2010.05.17/outbox.cif.g08.bks.cpg/sg5_21_cif.got.tgz:41729.got - 2010.06.03 18:56:24.
