data_PCOD9123171
_publ_section_title
;
Structure prediction by ZEFSAII (Michael W. Deem and Ramdas Pophale) SiO2 
 PCOD9123171
Probable space group: C 2
;
_chemical_formula_sum "Si O2"
_cell_formula_units_Z 26
_cell_length_a 15.759510
_cell_length_b 8.767209
_cell_length_c 13.261975
_cell_angle_alpha 90.000000
_cell_angle_beta 36.201250
_cell_angle_gamma 90.000000
_cell_volume 1082.238128
_symmetry_space_group_name_H-M "C 2"
_symmetry_group_IT_number 5
_symmetry_cell_setting 'monoclinic'
loop_
_space_group_symop_operation_xyz
x,y,z
-x,y,-z
1/2+x,1/2+y,z
1/2-x,1/2+y,-z
loop_
_atom_site_type_symbol
_atom_site_label
_atom_site_fract_x
_atom_site_fract_y
_atom_site_fract_z
Si Si1 0.410712 0.856840 0.875378
Si Si2 0.624390 0.092249 0.699542
Si Si3 0.759859 0.587708 0.860539
Si Si4 0.517884 0.418739 0.838409
Si Si5 0.040919 0.088426 0.632455
Si Si6 0.500000 0.759922 0.500000
Si Si7 0.172976 0.539815 0.419338
O O1 0.522552 0.736540 0.720348
O O2 0.516092 0.961465 0.839696
O O3 0.341900 0.973492 0.859201
O O4 0.294612 0.744460 0.037144
O O5 0.564416 0.246187 0.804800
O O6 0.793563 0.066146 0.558313
O O7 0.617465 0.098931 0.581377
O O8 0.839768 0.619979 0.678106
O O9 0.617825 0.485109 0.973717
O O10 0.486738 0.447924 0.749307
O O11 0.659264 0.517672 0.721168
O O12 0.938273 0.142562 0.640600
O O13 0.606477 0.873815 0.455243
#
# Coordination Sequence:
#
# PCOD9123171 Si02
#       7
#     4   4   4   4   4   2   4
#     4  11  22  40  65  98 136 181 222 278 343 413
#     4  11  20  40  67  96 126 176 232 274 333 397
#     4  11  23  40  65  95 138 181 223 275 345 410
#     4  10  22  38  62  96 131 178 218 280 335 411
#     4  10  20  37  64  95 129 170 225 282 334 391
#     4  12  18  38  66 100 126 174 226 290 328 394
#     4  11  21  38  69  95 129 179 232 272 334 402
#
# _framework density 24.024284999999999
#
# number of rings (size 3 to 8) (size 9 to 14) (size 15 to 20)
#    0.000    1.231    4.615    2.308    0.000    0.000 
#    0.000    5.385    0.000   18.462    0.000    0.000 
#    0.000    0.000    0.000    0.000    0.000    0.000 
#
# Total GULP energy -72465.788015 kJ/mol
# GULP energy per Si atom -5574.291386 kJ/mol
# Density = 2.396961 g / cm^3
# Si number density = 24.024285 Si / 1000 Ang^3
#
#
#
# Elastic Constant Matrix: (Units=GPa)
#
#
# Indices 1 2 3 4 5 6 
#
# 1 60.2481 9.7322 30.9884 0.0000 7.7447 0.0000
# 2 9.7322 71.7922 34.8244 0.0000 -0.3070 0.0000
# 3 30.9884 34.8244 96.9610 0.0000 -17.8495 0.0000
# 4 0.0000 0.0000 0.0000 41.5744 0.0000 -3.6502
# 5 7.7447 -0.3070 -17.8495 0.0000 35.0105 0.0000
# 6 0.0000 0.0000 0.0000 -3.6502 0.0000 30.2288
#
#
#
# Elastic Compliance Matrix: (Units=1/GPa)
#
#
# Indices 1 2 3 4 5 6 
#
# 1 0.022538 0.001546 -0.009572 0.000000 -0.009852 0.000000
# 2 0.001546 0.017315 -0.007447 0.000000 -0.003987 0.000000
# 3 -0.009572 -0.007447 0.018126 0.000000 0.011293 0.000000
# 4 0.000000 0.000000 0.000000 0.024311 0.000000 0.002936
# 5 -0.009852 -0.003987 0.011293 0.000000 0.036465 0.000000
# 6 0.000000 0.000000 0.000000 0.002936 0.000000 0.033435
#
#
# Mechanical properties :
#
#
# Convention : Reuss Voigt Hill
#
# Bulk Modulus (GPa) = 36.99166 42.23238 39.61202
# Shear Modulus (GPa) = 26.02176 31.59318 28.80747
#
# Velocity S-wave (km/s) = 3.29469 3.63030 3.46656
# Velocity P-wave (km/s) = 5.46848 5.93206 5.70498
#
# Compressibility (1/GPa) = 0.02703312
#
# Stress axis : x y z
#
# Youngs Moduli (GPa) = 44.36940 57.75455 55.16923
#
# Poissons Ratio (x) = -0.08927 0.52807
# Poissons Ratio (y) = -0.06858 0.41082
# Poissons Ratio (z) = 0.42470 0.43007
#
# Static dielectric constant tensor:
#      x y z
#    x 2.087660 0.000000 0.080650 
#    y 0.000000 1.931740 0.000000 
#    z 0.080650 0.000000 1.974730 
# 
# From -- ./inp_files/54303.got.cif
#   From: 2010.05.17/outbox.cif.g08.bks.cpg/sg5_28_cif.got.tgz:54303.got - 2010.06.03 18:56:24.
