data_PCOD9123637
_publ_section_title
;
Structure prediction by ZEFSAII (Michael W. Deem and Ramdas Pophale) SiO2 
 PCOD9123637
Probable space group: C 2
;
_chemical_formula_sum "Si O2"
_cell_formula_units_Z 20
_cell_length_a 5.248458
_cell_length_b 18.065466
_cell_length_c 8.924716
_cell_angle_alpha 90.000000
_cell_angle_beta 97.647256
_cell_angle_gamma 90.000000
_cell_volume 838.678401
_symmetry_space_group_name_H-M "C 2"
_symmetry_group_IT_number 5
_symmetry_cell_setting 'monoclinic'
loop_
_space_group_symop_operation_xyz
x,y,z
-x,y,-z
1/2+x,1/2+y,z
1/2-x,1/2+y,-z
loop_
_atom_site_type_symbol
_atom_site_label
_atom_site_fract_x
_atom_site_fract_y
_atom_site_fract_z
Si Si1 0.893446 0.233100 0.647844
Si Si2 0.753433 0.884958 0.533705
Si Si3 0.525378 0.015080 0.180070
Si Si4 0.083552 0.682413 0.182654
Si Si5 0.475553 0.427214 0.823967
O O1 0.803319 0.313947 0.574918
O O2 0.646407 0.207868 0.723831
O O3 0.000000 0.196589 0.500000
O O4 0.142971 0.222677 0.772030
O O5 0.500000 0.932404 0.500000
O O6 0.838690 0.866431 0.708958
O O7 0.000000 0.927994 0.500000
O O8 0.617921 0.096024 0.231727
O O9 0.237770 0.992483 0.206614
O O10 0.500000 0.020529 0.000000
O O11 0.745580 0.952608 0.211576
O O12 0.000000 0.688354 0.000000
O O13 0.500000 0.406128 0.000000
#
# Coordination Sequence:
#
# PCOD9123637 Si02
#       5
#     4   4   4   4   4
#     4  11  23  42  63  90 133 173 209 267 324 371
#     4  11  23  42  62  84 126 170 206 263 321 368
#     4   9  19  36  63  96 126 155 205 268 317 371
#     4  11  22  41  68  96 127 170 216 261 317 386
#     4  10  20  39  65  92 121 162 210 259 317 382
#
# _framework density 23.847044
#
# number of rings (size 3 to 8) (size 9 to 14) (size 15 to 20)
#    0.000    1.600    0.000    6.000    0.000    3.200 
#    0.000   23.000    0.000    0.000    0.000    0.000 
#    0.000    0.000    0.000    0.000    0.000    0.000 
#
# Total GULP energy -55672.092146 kJ/mol
# GULP energy per Si atom -5567.209215 kJ/mol
# Density = 2.379277 g / cm^3
# Si number density = 23.847044 Si / 1000 Ang^3
#
#
#
# Elastic Constant Matrix: (Units=GPa)
#
#
# Indices 1 2 3 4 5 6 
#
# 1 194.4783 21.7419 49.2622 0.0000 1.3047 0.0000
# 2 21.7419 57.1895 14.2580 0.0000 9.0126 0.0000
# 3 49.2622 14.2580 133.9922 0.0000 26.1588 0.0000
# 4 0.0000 0.0000 0.0000 0.7784 0.0000 4.0053
# 5 1.3047 9.0126 26.1588 0.0000 56.4477 0.0000
# 6 0.0000 0.0000 0.0000 4.0053 0.0000 19.7383
#
#
#
# Elastic Compliance Matrix: (Units=1/GPa)
#
#
# Indices 1 2 3 4 5 6 
#
# 1 0.005902 -0.001882 -0.002201 0.000000 0.001184 0.000000
# 2 -0.001882 0.018809 -0.000805 0.000000 -0.002587 0.000000
# 3 -0.002201 -0.000805 0.009151 0.000000 -0.004061 0.000000
# 4 0.000000 0.000000 0.000000-29.121639 0.000000 5.909390
# 5 0.001184 -0.002587 -0.004061 0.000000 0.019983 0.000000
# 6 0.000000 0.000000 0.000000 5.909390 0.000000 -1.148476
#
#
# Mechanical properties :
#
#
# Convention : Reuss Voigt Hill
#
# Bulk Modulus (GPa) = 41.51481 61.79823 51.65652
# Shear Modulus (GPa) = -0.16557 35.41940 17.62692
#
# Velocity S-wave (km/s) = -0.26378 3.85811 2.72171
# Velocity P-wave (km/s) = 4.16579 6.76885 5.62010
#
# Compressibility (1/GPa) = 0.02408779
#
# Stress axis : x y z
#
# Youngs Moduli (GPa) = 169.43922 53.16511 109.28134
#
# Poissons Ratio (x) = 0.10004 0.24050
# Poissons Ratio (y) = 0.31882 0.08794
# Poissons Ratio (z) = 0.37288 0.04278
#
# Static dielectric constant tensor:
#      x y z
#    x 2.041530 0.000000 -0.006000 
#    y 0.000000 1.941800 0.000000 
#    z -0.006000 0.000000 2.122770 
# 
# From -- ./inp_files/12530.got.cif
#   From: 2010.05.17/outbox.cif.g08.bks.cpg/sg5_7_cif.got.tgz:12530.got - 2010.06.03 18:56:24.
