data_PCOD9123417
_publ_section_title
;
Structure prediction by ZEFSAII (Michael W. Deem and Ramdas Pophale) SiO2 
 PCOD9123417
Probable space group: C 2
;
_chemical_formula_sum "Si O2"
_cell_formula_units_Z 28
_cell_length_a 4.997960
_cell_length_b 32.785764
_cell_length_c 8.133971
_cell_angle_alpha 90.000000
_cell_angle_beta 62.331859
_cell_angle_gamma 90.000000
_cell_volume 1180.439662
_symmetry_space_group_name_H-M "C 2"
_symmetry_group_IT_number 5
_symmetry_cell_setting 'monoclinic'
loop_
_space_group_symop_operation_xyz
x,y,z
-x,y,-z
1/2+x,1/2+y,z
1/2-x,1/2+y,-z
loop_
_atom_site_type_symbol
_atom_site_label
_atom_site_fract_x
_atom_site_fract_y
_atom_site_fract_z
Si Si1 0.853132 0.615420 0.873886
Si Si2 0.183541 0.246859 0.190061
Si Si3 0.221036 0.531521 0.208310
Si Si4 0.777474 0.416361 0.293467
Si Si5 0.500000 0.975137 0.000000
Si Si6 0.427993 0.199299 0.700801
Si Si7 0.149299 0.328753 0.633401
Si Si8 0.000000 0.471915 0.500000
O O1 0.881838 0.578035 0.738755
O O2 0.979120 0.659884 0.798357
O O3 0.500000 0.622387 0.000000
O O4 0.000000 0.600285 0.000000
O O5 0.318042 0.232557 0.326404
O O6 0.911473 0.217794 0.204421
O O7 0.036504 0.291293 0.239359
O O8 0.500000 0.245380 0.000000
O O9 0.250328 0.505517 0.367450
O O10 0.500000 0.532774 0.000000
O O11 0.999300 0.505635 0.154817
O O12 0.500000 0.417587 0.500000
O O13 0.857084 0.369127 0.252775
O O14 0.008597 0.440967 0.343573
O O15 0.750459 0.441687 0.132354
O O16 0.500000 0.184231 0.500000
O O17 0.500000 0.317752 0.500000
O O18 0.000000 0.339237 0.500000
#
# Coordination Sequence:
#
# PCOD9123417 Si02
#       8
#     4   4   4   4   2   4   4   2
#     4  11  23  42  66  96 135 173 216 272 331 387
#     4  12  25  45  69 100 131 177 219 275 333 405
#     4  10  21  37  63  93 130 171 218 272 330 384
#     4  10  21  39  63  91 131 173 222 274 334 388
#     4  10  20  40  62  92 126 172 228 262 338 392
#     4  12  25  43  71  97 135 174 223 270 336 401
#     4  11  23  44  68  97 135 176 220 277 337 393
#     4  10  20  38  64  92 126 172 228 262 336 390
#
# _framework density 23.719974000000001
#
# number of rings (size 3 to 8) (size 9 to 14) (size 15 to 20)
#    0.000    1.143    1.429    6.000    1.000    0.000 
#    7.714    0.714    0.000    0.000    0.000    0.000 
#    0.000    0.000    0.000    0.000    0.000    0.000 
#
# Total GULP energy -77998.629907 kJ/mol
# GULP energy per Si atom -5571.330708 kJ/mol
# Density = 2.366599 g / cm^3
# Si number density = 23.719974 Si / 1000 Ang^3
#
#
#
# Elastic Constant Matrix: (Units=GPa)
#
#
# Indices 1 2 3 4 5 6 
#
# 1 89.0427 15.9271 8.1689 0.0000 -22.6585 0.0000
# 2 15.9271 166.4322 26.6118 0.0000 -24.3302 0.0000
# 3 8.1689 26.6118 62.3089 0.0000 -10.6322 0.0000
# 4 0.0000 0.0000 0.0000 1.0260 0.0000 -23.0478
# 5 -22.6585 -24.3302 -10.6322 0.0000 27.8062 0.0000
# 6 0.0000 0.0000 0.0000 -23.0478 0.0000 16.0428
#
#
#
# Elastic Compliance Matrix: (Units=1/GPa)
#
#
# Indices 1 2 3 4 5 6 
#
# 1 0.014190 0.000380 0.000008 0.000000 0.011898 0.000000
# 2 0.000380 0.007153 -0.002122 0.000000 0.005757 0.000000
# 3 0.000008 -0.002122 0.017800 0.000000 0.004955 0.000000
# 4 0.000000 0.000000 0.000000 -0.031167 0.000000 -0.044775
# 5 0.011898 0.005757 0.004955 0.000000 0.052591 0.000000
# 6 0.000000 0.000000 0.000000 -0.044775 0.000000 -0.001993
#
#
# Mechanical properties :
#
#
# Convention : Reuss Voigt Hill
#
# Bulk Modulus (GPa) = 28.03201 46.57768 37.30484
# Shear Modulus (GPa) = 67.62747 26.78005 47.20376
#
# Velocity S-wave (km/s) = 5.34534 3.36372 4.46583
# Velocity P-wave (km/s) = 7.06685 5.89621 6.50791
#
# Compressibility (1/GPa) = 0.03567351
#
# Stress axis : x y z
#
# Youngs Moduli (GPa) = 70.47414 139.80034 56.17932
#
# Poissons Ratio (x) = -0.05316 -0.00043
# Poissons Ratio (y) = -0.02680 0.11924
# Poissons Ratio (z) = -0.00054 0.29673
#
# Static dielectric constant tensor:
#      x y z
#    x 1.974520 0.000000 0.025400 
#    y 0.000000 1.892130 0.000000 
#    z 0.025400 0.000000 1.987300 
# 
# From -- ./inp_files/13301.got.cif
#   From: 2010.05.17/outbox.cif.g08.bks.cpg/sg5_7_cif.got.tgz:13301.got - 2010.06.03 18:56:24.
