data_PCOD9123333
_publ_section_title
;
Structure prediction by ZEFSAII (Michael W. Deem and Ramdas Pophale) SiO2 
 PCOD9123333
Probable space group: C 2
;
_chemical_formula_sum "Si O2"
_cell_formula_units_Z 26
_cell_length_a 13.748153
_cell_length_b 7.195877
_cell_length_c 14.815184
_cell_angle_alpha 90.000000
_cell_angle_beta 134.830875
_cell_angle_gamma 90.000000
_cell_volume 1039.437327
_symmetry_space_group_name_H-M "C 2"
_symmetry_group_IT_number 5
_symmetry_cell_setting 'monoclinic'
loop_
_space_group_symop_operation_xyz
x,y,z
-x,y,-z
1/2+x,1/2+y,z
1/2-x,1/2+y,-z
loop_
_atom_site_type_symbol
_atom_site_label
_atom_site_fract_x
_atom_site_fract_y
_atom_site_fract_z
Si Si1 0.155600 0.898360 0.121589
Si Si2 0.813394 0.905881 0.661912
Si Si3 0.000000 0.876966 0.500000
Si Si4 0.925028 0.297063 0.199558
Si Si5 0.719602 0.841110 0.401403
Si Si6 0.422068 0.410530 0.258973
Si Si7 0.123315 0.296610 0.035852
O O1 0.215710 0.835950 0.257254
O O2 0.276803 0.872805 0.128879
O O3 0.139586 0.121151 0.111862
O O4 0.000000 0.831129 0.000000
O O5 0.746585 0.832807 0.526249
O O6 0.973988 0.860175 0.751746
O O7 0.783811 0.128608 0.637621
O O8 0.153367 0.944271 0.565824
O O9 0.045701 0.799284 0.628203
O O10 0.064672 0.417296 0.289312
O O11 0.953046 0.130397 0.288841
O O12 0.909591 0.231413 0.086396
O O13 0.265898 0.400382 0.129518
O O14 0.000000 0.409955 0.000000
#
# Coordination Sequence:
#
# PCOD9123333 Si02
#       7
#     4   4   2   4   4   4   4
#     4  11  23  40  62  86 120 158 198 243 292 349
#     4  10  22  40  60  87 120 155 196 242 292 348
#     4  10  20  38  62  84 116 156 198 238 290 352
#     4  11  23  38  59  89 120 150 196 248 294 343
#     4  10  22  39  60  88 119 155 197 241 291 349
#     4  10  21  38  59  84 117 153 193 243 294 344
#     4  11  21  39  63  85 116 156 199 240 291 355
#
# _framework density 25.013532999999999
#
# number of rings (size 3 to 8) (size 9 to 14) (size 15 to 20)
#    0.000    1.538    0.000    7.385    0.000    8.615 
#    0.000    4.615    0.000    0.000    0.000    0.000 
#    0.000    0.000    0.000    0.000    0.000    0.000 
#
# Total GULP energy -72424.137709 kJ/mol
# GULP energy per Si atom -5571.087516 kJ/mol
# Density = 2.495660 g / cm^3
# Si number density = 25.013533 Si / 1000 Ang^3
#
#
#
# Elastic Constant Matrix: (Units=GPa)
#
#
# Indices 1 2 3 4 5 6 
#
# 1 181.6190 22.4654 74.7572 0.0000 10.6727 0.0000
# 2 22.4654 52.0789 7.9342 0.0000 8.4885 0.0000
# 3 74.7572 7.9342 134.2908 0.0000 1.8739 0.0000
# 4 0.0000 0.0000 0.0000 22.5688 0.0000 -0.1709
# 5 10.6727 8.4885 1.8739 0.0000 64.7398 0.0000
# 6 0.0000 0.0000 0.0000 -0.1709 0.0000 17.6918
#
#
#
# Elastic Compliance Matrix: (Units=1/GPa)
#
#
# Indices 1 2 3 4 5 6 
#
# 1 0.007520 -0.002501 -0.004027 0.000000 -0.000795 0.000000
# 2 -0.002501 0.020624 0.000206 0.000000 -0.002298 0.000000
# 3 -0.004027 0.000206 0.009671 0.000000 0.000357 0.000000
# 4 0.000000 0.000000 0.000000 0.044312 0.000000 0.000428
# 5 -0.000795 -0.002298 0.000357 0.000000 0.015869 0.000000
# 6 0.000000 0.000000 0.000000 0.000428 0.000000 0.056528
#
#
# Mechanical properties :
#
#
# Convention : Reuss Voigt Hill
#
# Bulk Modulus (GPa) = 39.72977 64.25580 51.99279
# Shear Modulus (GPa) = 28.48069 38.52219 33.50144
#
# Velocity S-wave (km/s) = 3.37799 3.92861 3.66366
# Velocity P-wave (km/s) = 5.57963 6.80609 6.22314
#
# Compressibility (1/GPa) = 0.02517004
#
# Stress axis : x y z
#
# Youngs Moduli (GPa) = 132.98287 48.48832 103.39874
#
# Poissons Ratio (x) = 0.12125 0.41641
# Poissons Ratio (y) = 0.33254 -0.02126
# Poissons Ratio (z) = 0.53556 -0.00997
#
# Static dielectric constant tensor:
#      x y z
#    x 2.014110 0.000000 0.102880 
#    y 0.000000 2.016540 0.000000 
#    z 0.102880 0.000000 1.962870 
# 
# From -- ./inp_files/47263.got.cif
#   From: 2010.05.17/outbox.cif.g08.bks.cpg/sg5_24_cif.got.tgz:47263.got - 2010.06.03 18:56:24.
