data_PCOD9123841
_publ_section_title
;
Structure prediction by ZEFSAII (Michael W. Deem and Ramdas Pophale) SiO2 
 PCOD9123841
Probable space group: C 2
;
_chemical_formula_sum "Si O2"
_cell_formula_units_Z 28
_cell_length_a 11.519192
_cell_length_b 13.269921
_cell_length_c 13.343659
_cell_angle_alpha 90.000000
_cell_angle_beta 39.010549
_cell_angle_gamma 90.000000
_cell_volume 1283.913653
_symmetry_space_group_name_H-M "C 2"
_symmetry_group_IT_number 5
_symmetry_cell_setting 'monoclinic'
loop_
_space_group_symop_operation_xyz
x,y,z
-x,y,-z
1/2+x,1/2+y,z
1/2-x,1/2+y,-z
loop_
_atom_site_type_symbol
_atom_site_label
_atom_site_fract_x
_atom_site_fract_y
_atom_site_fract_z
Si Si1 0.524702 0.434460 0.804837
Si Si2 0.500000 0.169578 0.500000
Si Si3 0.876215 0.355506 0.875665
Si Si4 0.214463 0.526403 0.204784
Si Si5 0.500000 0.097637 0.000000
Si Si6 0.092529 0.852457 0.564195
Si Si7 0.784125 0.432848 0.251311
Si Si8 0.178267 0.131732 0.074531
O O1 0.637629 0.466244 0.826876
O O2 0.640699 0.371065 0.646495
O O3 0.451074 0.538929 0.804945
O O4 0.338532 0.374236 0.956158
O O5 0.613887 0.098991 0.349871
O O6 0.616761 0.244998 0.493832
O O7 0.905091 0.438379 0.768781
O O8 0.912032 0.238010 0.838827
O O9 0.014008 0.384588 0.872265
O O10 0.288801 0.598131 0.064116
O O11 0.378965 0.142902 0.991594
O O12 0.337563 0.037069 0.165813
O O13 0.194847 0.930752 0.422129
O O14 0.871372 0.873108 0.705837
#
# Coordination Sequence:
#
# PCOD9123841 Si02
#       8
#     4   2   4   4   2   4   4   4
#     4  11  23  43  65  96 138 166 219 283 328 390
#     4  10  24  44  68  92 132 178 230 258 334 400
#     4  11  23  42  65  94 134 174 218 271 332 388
#     4  11  25  43  64 101 134 177 218 283 328 394
#     4  12  20  40  68  94 128 174 224 276 316 408
#     4  10  23  42  68  99 125 175 216 281 328 389
#     4  10  20  40  65  93 128 168 224 270 325 386
#     4  11  24  39  68  97 128 178 225 267 338 386
#
# _framework density 21.808319999999998
#
# number of rings (size 3 to 8) (size 9 to 14) (size 15 to 20)
#    0.000    1.429    4.286    2.571    8.000    1.143 
#    2.571    0.000    3.143    0.000    0.000    0.000 
#    0.000    0.000    0.000    0.000    0.000    0.000 
#
# Total GULP energy -77980.163383 kJ/mol
# GULP energy per Si atom -5570.011670 kJ/mol
# Density = 2.175868 g / cm^3
# Si number density = 21.808320 Si / 1000 Ang^3
#
#
#
# Elastic Constant Matrix: (Units=GPa)
#
#
# Indices 1 2 3 4 5 6 
#
# 1 128.2372 23.0266 28.4295 0.0000 4.2370 0.0000
# 2 23.0266 111.6658 27.2029 0.0000 14.3599 0.0000
# 3 28.4295 27.2029 87.9354 0.0003 24.2235 0.0000
# 4 0.0000 0.0000 0.0003 17.5480 -0.0001 4.4135
# 5 4.2370 14.3599 24.2235 -0.0001 35.0294 0.0000
# 6 0.0000 0.0000 0.0000 4.4135 0.0000 4.3079
#
#
#
# Elastic Compliance Matrix: (Units=1/GPa)
#
#
# Indices 1 2 3 4 5 6 
#
# 1 0.008595 -0.001278 -0.002769 0.000000 0.001399 0.000000
# 2 -0.001278 0.010034 -0.001977 0.000000 -0.002592 0.000000
# 3 -0.002769 -0.001977 0.015520 0.000000 -0.009587 0.000000
# 4 0.000000 0.000000 0.000000 0.076768 0.000001 -0.078650
# 5 0.001399 -0.002592 -0.009587 0.000001 0.036070 -0.000001
# 6 0.000000 0.000000 0.000000 -0.078650 -0.000001 0.312711
#
#
# Mechanical properties :
#
#
# Convention : Reuss Voigt Hill
#
# Bulk Modulus (GPa) = 45.24641 53.90626 49.57634
# Shear Modulus (GPa) = 10.43599 27.98900 19.21249
#
# Velocity S-wave (km/s) = 2.18991 3.58636 2.97134
# Velocity P-wave (km/s) = 5.21408 6.47465 5.87826
#
# Compressibility (1/GPa) = 0.02210120
#
# Stress axis : x y z
#
# Youngs Moduli (GPa) = 116.34516 99.66465 64.43472
#
# Poissons Ratio (x) = 0.12735 0.17841
# Poissons Ratio (y) = 0.14866 0.12738
# Poissons Ratio (z) = 0.32215 0.19703
#
# Static dielectric constant tensor:
#      x y z
#    x 1.880450 0.000000 -0.002620 
#    y 0.000000 1.830000 0.000000 
#    z -0.002620 0.000000 1.840980 
# 
# From -- ./inp_files/53057.got.cif
#   From: 2010.05.17/outbox.cif.g08.bks.cpg/sg5_27_cif.got.tgz:53057.got - 2010.06.03 18:56:24.
