data_PCOD9123913
_publ_section_title
;
Structure prediction by ZEFSAII (Michael W. Deem and Ramdas Pophale) SiO2 
 PCOD9123913
Probable space group: C 2
;
_chemical_formula_sum "Si O2"
_cell_formula_units_Z 24
_cell_length_a 18.377277
_cell_length_b 9.425417
_cell_length_c 19.022854
_cell_angle_alpha 90.000000
_cell_angle_beta 157.638791
_cell_angle_gamma 90.000000
_cell_volume 1253.569856
_symmetry_space_group_name_H-M "C 2"
_symmetry_group_IT_number 5
_symmetry_cell_setting 'monoclinic'
loop_
_space_group_symop_operation_xyz
x,y,z
-x,y,-z
1/2+x,1/2+y,z
1/2-x,1/2+y,-z
loop_
_atom_site_type_symbol
_atom_site_label
_atom_site_fract_x
_atom_site_fract_y
_atom_site_fract_z
Si Si1 0.419689 0.210100 0.672025
Si Si2 0.793665 0.706028 0.945882
Si Si3 0.000000 0.780924 0.000000
Si Si4 0.060562 0.035180 0.317131
Si Si5 0.097380 0.043203 0.181118
Si Si6 0.832086 0.512976 0.205924
Si Si7 0.500000 0.058269 0.500000
O O1 0.215194 0.136615 0.490970
O O2 0.407723 0.371664 0.636008
O O3 0.548680 0.120063 0.734001
O O4 0.525676 0.205811 0.841224
O O5 0.861259 0.691064 0.925620
O O6 0.644704 0.592537 0.842071
O O7 0.705504 0.865408 0.867845
O O8 0.893146 0.888265 0.849456
O O9 0.089623 0.042296 0.258666
O O10 0.290632 0.125854 0.330928
O O11 0.877397 0.080974 0.964765
O O12 0.950401 0.481380 0.382453
#
# Coordination Sequence:
#
# PCOD9123913 Si02
#       7
#     4   4   2   4   4   4   2
#     4  12  23  40  64  96 132 170 222 267 327 396
#     4  11  22  42  66  94 131 167 220 278 325 381
#     4  10  20  40  68  96 122 164 230 272 320 362
#     4  12  25  39  66  96 132 175 214 268 330 393
#     4  11  20  37  61  99 123 163 213 275 316 375
#     4  11  22  39  67  95 129 168 221 278 325 380
#     4  12  20  36  64  98 126 166 228 272 310 386
#
# _framework density 19.145323999999999
#
# number of rings (size 3 to 8) (size 9 to 14) (size 15 to 20)
#    0.000    0.667   10.000    1.000    0.000    0.000 
#    0.000    0.000    7.333    0.000    0.000    0.000 
#    0.000    0.000    0.000    0.000    0.000    0.000 
#
# Total GULP energy -66824.090318 kJ/mol
# GULP energy per Si atom -5568.674193 kJ/mol
# Density = 1.910175 g / cm^3
# Si number density = 19.145324 Si / 1000 Ang^3
#
#
#
# Elastic Constant Matrix: (Units=GPa)
#
#
# Indices 1 2 3 4 5 6 
#
# 1 112.6166 28.6117 17.2035 0.0004 -1.9763 -0.0001
# 2 28.6117 72.5419 22.1861 0.0011 -4.9563 0.0003
# 3 17.2035 22.1861 99.6215 0.0017 -15.4241 0.0003
# 4 0.0004 0.0011 0.0017 24.7995 0.0008 5.6987
# 5 -1.9763 -4.9563 -15.4241 0.0008 46.0263 0.0000
# 6 -0.0001 0.0003 0.0003 5.6987 0.0000 27.3968
#
#
#
# Elastic Compliance Matrix: (Units=1/GPa)
#
#
# Indices 1 2 3 4 5 6 
#
# 1 0.009948 -0.003653 -0.000948 0.000000 -0.000284 0.000000
# 2 -0.003653 0.016146 -0.002869 0.000000 0.000620 0.000000
# 3 -0.000948 -0.002869 0.011377 -0.000001 0.003463 0.000000
# 4 0.000000 0.000000 -0.000001 0.042348 -0.000001 -0.008809
# 5 -0.000284 0.000620 0.003463 -0.000001 0.022942 0.000000
# 6 0.000000 0.000000 0.000000 -0.008809 0.000000 0.038333
#
#
# Mechanical properties :
#
#
# Convention : Reuss Voigt Hill
#
# Bulk Modulus (GPa) = 44.38515 46.75362 45.56939
# Shear Modulus (GPa) = 30.57314 34.09644 32.33479
#
# Velocity S-wave (km/s) = 4.00046 4.22468 4.11410
# Velocity P-wave (km/s) = 6.67621 6.94771 6.81331
#
# Compressibility (1/GPa) = 0.02253006
#
# Stress axis : x y z
#
# Youngs Moduli (GPa) = 100.52651 61.93611 87.89813
#
# Poissons Ratio (x) = 0.22625 0.08335
# Poissons Ratio (y) = 0.36721 0.25217
# Poissons Ratio (z) = 0.09533 0.17768
#
# Static dielectric constant tensor:
#      x y z
#    x 1.717950 0.000000 0.023830 
#    y 0.000000 1.641590 0.000000 
#    z 0.023830 0.000000 1.718170 
# 
# From -- ./inp_files/67070.got.cif
#   From: 2010.05.17/outbox.cif.g08.bks.cpg/sg5_34_cif.got.tgz:67070.got - 2010.06.03 18:56:24.
