data_PCOD9123400
_publ_section_title
;
Structure prediction by ZEFSAII (Michael W. Deem and Ramdas Pophale) SiO2 
 PCOD9123400
Probable space group: C 2
;
_chemical_formula_sum "Si O2"
_cell_formula_units_Z 20
_cell_length_a 18.485317
_cell_length_b 9.151826
_cell_length_c 17.382703
_cell_angle_alpha 90.000000
_cell_angle_beta 20.700614
_cell_angle_gamma 90.000000
_cell_volume 1039.495933
_symmetry_space_group_name_H-M "C 2"
_symmetry_group_IT_number 5
_symmetry_cell_setting 'monoclinic'
loop_
_space_group_symop_operation_xyz
x,y,z
-x,y,-z
1/2+x,1/2+y,z
1/2-x,1/2+y,-z
loop_
_atom_site_type_symbol
_atom_site_label
_atom_site_fract_x
_atom_site_fract_y
_atom_site_fract_z
Si Si1 0.678933 0.860080 0.632590
Si Si2 0.063770 0.774767 0.847364
Si Si3 0.417158 0.555246 0.497640
Si Si4 0.202361 0.562247 0.993853
Si Si5 0.551013 0.534848 0.759623
O O1 0.671650 0.686848 0.640362
O O2 0.761280 0.926698 0.630480
O O3 0.827622 0.927489 0.419761
O O4 0.455147 0.928916 0.842723
O O5 0.288882 0.704304 0.612902
O O6 0.049670 0.944819 0.839902
O O7 0.000000 0.746557 0.000000
O O8 0.923386 0.693027 0.922496
O O9 0.500000 0.548894 0.500000
O O10 0.611064 0.540001 0.250112
O O11 0.324563 0.574105 0.952721
#
# Coordination Sequence:
#
# PCOD9123400 Si02
#       5
#     4   4   4   4   4
#     4  10  22  37  62  88 119 160 202 252 297 360
#     4  11  22  39  64  91 122 163 201 247 300 363
#     4  10  20  39  62  86 120 159 203 243 301 361
#     4  10  20  38  64  86 116 163 198 244 304 359
#     4  11  22  40  60  92 124 154 207 251 300 355
#
# _framework density 19.240093000000002
#
# number of rings (size 3 to 8) (size 9 to 14) (size 15 to 20)
#    0.000    1.600    2.000    4.800    0.000    1.600 
#    3.600    1.000    0.000    0.000    0.000    0.000 
#    0.000    0.000    0.000    0.000    0.000    0.000 
#
# Total GULP energy -55758.138956 kJ/mol
# GULP energy per Si atom -5575.813896 kJ/mol
# Density = 1.919630 g / cm^3
# Si number density = 19.240093 Si / 1000 Ang^3
#
#
#
# Elastic Constant Matrix: (Units=GPa)
#
#
# Indices 1 2 3 4 5 6 
#
# 1 86.1623 32.3155 17.2857 -0.0002 -23.4433 -0.0001
# 2 32.3155 126.6301 11.0678 -0.0003 -12.3184 0.0001
# 3 17.2857 11.0678 78.3054 -0.0002 -11.3277 0.0000
# 4 -0.0002 -0.0003 -0.0002 15.6856 0.0003 10.3103
# 5 -23.4433 -12.3184 -11.3277 0.0003 30.1940 0.0000
# 6 -0.0001 0.0001 0.0000 10.3103 0.0000 19.6493
#
#
#
# Elastic Compliance Matrix: (Units=1/GPa)
#
#
# Indices 1 2 3 4 5 6 
#
# 1 0.015877 -0.002887 -0.001569 0.000000 0.010561 0.000000
# 2 -0.002887 0.008787 -0.000434 0.000000 0.001180 0.000000
# 3 -0.001569 -0.000434 0.013721 0.000000 0.003752 0.000000
# 4 0.000000 0.000000 0.000000 0.097318 -0.000001 -0.051064
# 5 0.010561 0.001180 0.003752 -0.000001 0.043208 0.000001
# 6 0.000000 0.000000 0.000000 -0.051064 0.000001 0.077687
#
#
# Mechanical properties :
#
#
# Convention : Reuss Voigt Hill
#
# Bulk Modulus (GPa) = 34.95969 45.82622 40.39296
# Shear Modulus (GPa) = 18.12170 28.46769 23.29469
#
# Velocity S-wave (km/s) = 3.07232 3.85073 3.48334
# Velocity P-wave (km/s) = 5.54934 6.60611 6.10065
#
# Compressibility (1/GPa) = 0.02860437
#
# Stress axis : x y z
#
# Youngs Moduli (GPa) = 62.98401 113.81009 72.88096
#
# Poissons Ratio (x) = 0.32860 0.11435
# Poissons Ratio (y) = 0.18185 0.03162
# Poissons Ratio (z) = 0.09882 0.04937
#
# Static dielectric constant tensor:
#      x y z
#    x 1.716780 0.000000 -0.005890 
#    y 0.000000 1.683780 0.000000 
#    z -0.005890 0.000000 1.678380 
# 
# From -- ./inp_files/7992.got.cif
#   From: 2010.05.17/outbox.cif.g08.bks.cpg/sg5_4_cif.got.tgz:7992.got - 2010.06.03 18:56:24.
