data_PCOD9123436
_publ_section_title
;
Structure prediction by ZEFSAII (Michael W. Deem and Ramdas Pophale) SiO2 
 PCOD9123436
Probable space group: C 2
;
_chemical_formula_sum "Si O2"
_cell_formula_units_Z 32
_cell_length_a 11.141397
_cell_length_b 11.169421
_cell_length_c 20.279685
_cell_angle_alpha 90.000000
_cell_angle_beta 39.376953
_cell_angle_gamma 90.000000
_cell_volume 1601.061925
_symmetry_space_group_name_H-M "C 2"
_symmetry_group_IT_number 5
_symmetry_cell_setting 'monoclinic'
loop_
_space_group_symop_operation_xyz
x,y,z
-x,y,-z
1/2+x,1/2+y,z
1/2-x,1/2+y,-z
loop_
_atom_site_type_symbol
_atom_site_label
_atom_site_fract_x
_atom_site_fract_y
_atom_site_fract_z
Si Si1 0.553701 0.404780 0.901219
Si Si2 0.366695 0.820915 0.618827
Si Si3 0.818511 0.039118 0.620552
Si Si4 0.480287 0.468885 0.796746
Si Si5 0.185307 0.428602 0.806607
Si Si6 0.540767 0.731188 0.159360
Si Si7 0.548383 0.144029 0.054013
Si Si8 0.456808 0.917438 0.720051
O O1 0.418765 0.443325 0.898947
O O2 0.577593 0.262070 0.878310
O O3 0.748400 0.475361 0.807613
O O4 0.500000 0.419068 0.000000
O O5 0.500000 0.851381 0.500000
O O6 0.326339 0.679477 0.633285
O O7 0.166830 0.891368 0.702182
O O8 0.470531 0.853912 0.643359
O O9 0.000000 0.008627 0.500000
O O10 0.813600 0.962679 0.689531
O O11 0.628619 0.004874 0.661791
O O12 0.313041 0.440980 0.817144
O O13 0.528593 0.609229 0.777466
O O14 0.094242 0.298772 0.834653
O O15 0.019488 0.530603 0.875706
O O16 0.558951 0.825977 0.211487
O O17 0.739063 0.695794 0.040053
O O18 0.500000 0.108462 0.000000
#
# Coordination Sequence:
#
# PCOD9123436 Si02
#       8
#     4   4   4   4   4   4   4   4
#     4  10  20  38  65  89 125 178 218 264 337 397
#     4  10  23  42  67  95 124 173 220 277 339 392
#     4  10  23  42  68  94 124 174 226 275 338 400
#     4  11  23  39  63  95 136 165 220 283 327 397
#     4  11  24  41  66  96 132 175 223 279 328 399
#     4  11  23  39  63  95 133 175 219 264 342 397
#     4  11  20  39  66  88 125 179 219 264 331 401
#     4  10  20  41  65  91 129 169 223 271 327 404
#
# _framework density 19.986734999999999
#
# number of rings (size 3 to 8) (size 9 to 14) (size 15 to 20)
#    0.000    1.500    3.750    2.250    3.500    2.000 
#    0.000    4.375    0.000    0.000    0.000    0.000 
#    0.000    0.000    0.000    0.000    0.000    0.000 
#
# Total GULP energy -89251.469337 kJ/mol
# GULP energy per Si atom -5578.216834 kJ/mol
# Density = 1.994124 g / cm^3
# Si number density = 19.986735 Si / 1000 Ang^3
#
#
#
# Elastic Constant Matrix: (Units=GPa)
#
#
# Indices 1 2 3 4 5 6 
#
# 1 150.8479 48.8570 53.1626 0.0000 12.1629 0.0000
# 2 48.8570 53.4604 20.7114 0.0000 -0.4842 0.0000
# 3 53.1626 20.7114 104.0687 -0.0001 4.9010 0.0001
# 4 0.0000 0.0000 -0.0001 22.4413 0.0000 7.2320
# 5 12.1629 -0.4842 4.9010 0.0000 27.3610 0.0000
# 6 0.0000 0.0000 0.0001 7.2320 0.0000 20.7218
#
#
#
# Elastic Compliance Matrix: (Units=1/GPa)
#
#
# Indices 1 2 3 4 5 6 
#
# 1 0.011149 -0.008781 -0.003739 0.000000 -0.004442 0.000000
# 2 -0.008781 0.027216 -0.001147 0.000000 0.004590 0.000000
# 3 -0.003739 -0.001147 0.011769 0.000000 -0.000466 0.000000
# 4 0.000000 0.000000 0.000000 0.050208 0.000000 -0.017523
# 5 -0.004442 0.004590 -0.000466 0.000000 0.038688 0.000000
# 6 0.000000 0.000000 0.000000 -0.017523 0.000000 0.054374
#
#
# Mechanical properties :
#
#
# Convention : Reuss Voigt Hill
#
# Bulk Modulus (GPa) = 43.85729 61.53767 52.69748
# Shear Modulus (GPa) = 21.89756 26.48124 24.18940
#
# Velocity S-wave (km/s) = 3.31358 3.64392 3.48267
# Velocity P-wave (km/s) = 6.05232 6.96852 6.52652
#
# Compressibility (1/GPa) = 0.02280123
#
# Stress axis : x y z
#
# Youngs Moduli (GPa) = 89.69570 36.74316 84.96810
#
# Poissons Ratio (x) = 0.32263 0.31766
# Poissons Ratio (y) = 0.78759 0.09747
# Poissons Ratio (z) = 0.33534 0.04215
#
# Static dielectric constant tensor:
#      x y z
#    x 1.755020 0.000000 -0.007340 
#    y 0.000000 1.722990 0.000000 
#    z -0.007340 0.000000 1.744780 
# 
# From -- ./inp_files/65240.got.cif
#   From: 2010.05.17/outbox.cif.g08.bks.cpg/sg5_33_cif.got.tgz:65240.got - 2010.06.03 18:56:24.
