data_PCOD9123051
_publ_section_title
;
Structure prediction by ZEFSAII (Michael W. Deem and Ramdas Pophale) SiO2 
 PCOD9123051
Probable space group: C 2
;
_chemical_formula_sum "Si O2"
_cell_formula_units_Z 30
_cell_length_a 25.246267
_cell_length_b 8.119906
_cell_length_c 12.364811
_cell_angle_alpha 90.000000
_cell_angle_beta 27.742985
_cell_angle_gamma 90.000000
_cell_volume 1179.943170
_symmetry_space_group_name_H-M "C 2"
_symmetry_group_IT_number 5
_symmetry_cell_setting 'monoclinic'
loop_
_space_group_symop_operation_xyz
x,y,z
-x,y,-z
1/2+x,1/2+y,z
1/2-x,1/2+y,-z
loop_
_atom_site_type_symbol
_atom_site_label
_atom_site_fract_x
_atom_site_fract_y
_atom_site_fract_z
Si Si1 0.173515 0.169800 0.747857
Si Si2 0.859848 0.840727 0.303746
Si Si3 0.000000 0.896566 0.500000
Si Si4 0.858840 0.402444 0.016301
Si Si5 0.645646 0.605040 0.375786
Si Si6 0.936564 0.732846 0.940482
Si Si7 0.767420 0.694961 0.929836
Si Si8 0.279991 0.939664 0.721081
O O1 0.231898 0.302252 0.565915
O O2 0.103367 0.269454 0.963483
O O3 0.121694 0.023736 0.772660
O O4 0.269820 0.071955 0.644027
O O5 0.889460 0.719430 0.149640
O O6 0.942112 0.810606 0.255840
O O7 0.887094 0.790035 0.724926
O O8 0.966822 0.010738 0.457555
O O9 0.736423 0.487314 0.271536
O O10 0.939001 0.561534 0.872250
O O11 0.823464 0.306537 0.972162
O O12 0.635645 0.785150 0.446157
O O13 0.710833 0.644008 0.144156
O O14 0.844912 0.854136 0.053508
O O15 0.794862 0.538110 0.804848
#
# Coordination Sequence:
#
# PCOD9123051 Si02
#       8
#     4   4   2   4   4   4   4   4
#     4  10  20  37  60  87 124 155 196 259 310 375
#     4  10  20  37  60  87 117 163 203 243 321 373
#     4  10  22  38  62  92 116 176 222 252 322 384
#     4   9  19  38  60  87 125 154 203 263 310 363
#     4  10  20  40  62  89 131 169 208 269 318 376
#     4   9  19  38  60  85 119 157 203 249 307 383
#     4  10  20  39  62  93 128 170 209 267 318 379
#     4   9  19  37  57  86 124 155 201 259 312 364
#
# _framework density 25.424952000000001
#
# number of rings (size 3 to 8) (size 9 to 14) (size 15 to 20)
#    0.000    2.400    0.000    2.400    0.000    0.533 
#   24.000   14.667    0.000    0.000    0.000    0.000 
#    0.000    0.000    0.000    0.000    0.000    0.000 
#
# Total GULP energy -83888.957427 kJ/mol
# GULP energy per Si atom -5592.597162 kJ/mol
# Density = 2.536708 g / cm^3
# Si number density = 25.424952 Si / 1000 Ang^3
#
#
#
# Elastic Constant Matrix: (Units=GPa)
#
#
# Indices 1 2 3 4 5 6 
#
# 1 75.0662 51.5667 34.3600 0.0000 -18.6302 0.0000
# 2 51.5667 143.1069 23.6058 0.0000 -12.6695 0.0000
# 3 34.3600 23.6058 62.3550 0.0000 -3.6830 0.0000
# 4 0.0000 0.0000 0.0000 24.2135 0.0000 0.5568
# 5 -18.6302 -12.6695 -3.6830 0.0000 30.6889 0.0000
# 6 0.0000 0.0000 0.0000 0.5568 0.0000 52.6314
#
#
#
# Elastic Compliance Matrix: (Units=1/GPa)
#
#
# Indices 1 2 3 4 5 6 
#
# 1 0.025638 -0.006393 -0.011022 0.000000 0.011602 0.000000
# 2 -0.006393 0.009287 0.000004 0.000000 -0.000047 0.000000
# 3 -0.011022 0.000004 0.021869 0.000000 -0.004065 0.000000
# 4 0.000000 0.000000 0.000000 0.041309 0.000000 -0.000437
# 5 0.011602 -0.000047 -0.004065 0.000000 0.039121 0.000000
# 6 0.000000 0.000000 0.000000 -0.000437 0.000000 0.019005
#
#
# Mechanical properties :
#
#
# Convention : Reuss Voigt Hill
#
# Bulk Modulus (GPa) = 45.51200 55.51036 50.51118
# Shear Modulus (GPa) = 25.20499 32.90646 29.05573
#
# Velocity S-wave (km/s) = 3.15198 3.60148 3.38421
# Velocity P-wave (km/s) = 5.58445 6.25897 5.93130
#
# Compressibility (1/GPa) = 0.02197223
#
# Stress axis : x y z
#
# Youngs Moduli (GPa) = 39.00510 107.68244 45.72692
#
# Poissons Ratio (x) = 0.68841 0.50400
# Poissons Ratio (y) = 0.24936 -0.00020
# Poissons Ratio (z) = 0.42991 -0.00047
#
# Static dielectric constant tensor:
#      x y z
#    x 2.016970 0.000000 -0.017590 
#    y 0.000000 2.032760 0.000000 
#    z -0.017590 0.000000 1.984580 
# 
# From -- ./inp_files/58072.got.cif
#   From: 2010.05.17/outbox.cif.g08.bks.cpg/sg5_30_cif.got.tgz:58072.got - 2010.06.03 18:56:24.
