data_PCOD9123356
_publ_section_title
;
Structure prediction by ZEFSAII (Michael W. Deem and Ramdas Pophale) SiO2 
 PCOD9123356
Probable space group: C 2
;
_chemical_formula_sum "Si O2"
_cell_formula_units_Z 26
_cell_length_a 7.038935
_cell_length_b 13.186804
_cell_length_c 11.208301
_cell_angle_alpha 90.000000
_cell_angle_beta 102.868512
_cell_angle_gamma 90.000000
_cell_volume 1014.236224
_symmetry_space_group_name_H-M "C 2"
_symmetry_group_IT_number 5
_symmetry_cell_setting 'monoclinic'
loop_
_space_group_symop_operation_xyz
x,y,z
-x,y,-z
1/2+x,1/2+y,z
1/2-x,1/2+y,-z
loop_
_atom_site_type_symbol
_atom_site_label
_atom_site_fract_x
_atom_site_fract_y
_atom_site_fract_z
Si Si1 0.319211 0.921520 0.101610
Si Si2 0.266112 0.770325 0.469659
Si Si3 0.289303 0.669882 0.716753
Si Si4 0.744216 0.728186 0.782969
Si Si5 0.500000 0.105148 0.000000
Si Si6 0.275897 0.362699 0.166349
Si Si7 0.566545 0.478762 0.381585
O O1 0.230865 0.849647 0.192419
O O2 0.544605 0.885154 0.143288
O O3 0.197245 0.887245 0.968195
O O4 0.364372 0.037989 0.072365
O O5 0.500000 0.776966 0.500000
O O6 0.210291 0.721472 0.585607
O O7 0.200592 0.706884 0.345501
O O8 0.184247 0.882578 0.445877
O O9 0.519942 0.694014 0.761137
O O10 0.196164 0.743093 0.803863
O O11 0.300146 0.550983 0.684789
O O12 0.856778 0.668372 0.898568
O O13 0.389066 0.435321 0.275106
O O14 0.500000 0.530477 0.500000
#
# Coordination Sequence:
#
# PCOD9123356 Si02
#       7
#     4   4   4   4   2   4   4
#     4   9  20  38  64  87 125 160 203 257 302 366
#     4  10  23  43  57  92 130 158 209 269 308 367
#     4  10  20  40  64  89 122 162 205 258 316 359
#     4  10  21  39  60  88 126 159 205 258 304 369
#     4  10  20  38  62  92 112 172 204 234 318 368
#     4   9  19  38  61  91 122 157 211 251 298 377
#     4  12  22  38  68  93 122 172 210 253 319 379
#
# _framework density 25.635055999999999
#
# number of rings (size 3 to 8) (size 9 to 14) (size 15 to 20)
#    0.000    2.154    1.538    3.231    2.154    0.000 
#    5.538    0.000    3.385    0.000    0.000    0.000 
#    0.000    0.000    0.000    0.000    0.000    0.000 
#
# Total GULP energy -72589.372055 kJ/mol
# GULP energy per Si atom -5583.797850 kJ/mol
# Density = 2.557671 g / cm^3
# Si number density = 25.635056 Si / 1000 Ang^3
#
#
#
# Elastic Constant Matrix: (Units=GPa)
#
#
# Indices 1 2 3 4 5 6 
#
# 1 55.8385 1.4953 31.7323 0.0000 14.2176 0.0000
# 2 1.4953 165.6666 48.3995 0.0000 15.9537 0.0000
# 3 31.7323 48.3995 147.7185 0.0000 34.3575 0.0000
# 4 0.0000 0.0000 0.0000 45.1630 0.0000 5.2543
# 5 14.2176 15.9537 34.3575 0.0000 35.7864 0.0000
# 6 0.0000 0.0000 0.0000 5.2543 0.0000 22.7001
#
#
#
# Elastic Compliance Matrix: (Units=1/GPa)
#
#
# Indices 1 2 3 4 5 6 
#
# 1 0.021431 0.001446 -0.003795 0.000000 -0.005516 0.000000
# 2 0.001446 0.006808 -0.002191 0.000000 -0.001506 0.000000
# 3 -0.003795 -0.002191 0.009946 0.000000 -0.007064 0.000000
# 4 0.000000 0.000000 0.000000 0.022755 0.000000 -0.005267
# 5 -0.005516 -0.001506 -0.007064 0.000000 0.037589 0.000000
# 6 0.000000 0.000000 0.000000 -0.005267 0.000000 0.045272
#
#
# Mechanical properties :
#
#
# Convention : Reuss Voigt Hill
#
# Bulk Modulus (GPa) = 34.35688 59.16422 46.76055
# Shear Modulus (GPa) = 30.75385 39.90300 35.32843
#
# Velocity S-wave (km/s) = 3.46740 3.94963 3.71634
# Velocity P-wave (km/s) = 5.42788 6.62789 6.05767
#
# Compressibility (1/GPa) = 0.02910626
#
# Stress axis : x y z
#
# Youngs Moduli (GPa) = 46.66137 146.87860 100.54536
#
# Poissons Ratio (x) = -0.21244 0.38154
# Poissons Ratio (y) = -0.06749 0.22031
# Poissons Ratio (z) = 0.17706 0.32183
#
# Static dielectric constant tensor:
#      x y z
#    x 2.113640 0.000000 -0.089560 
#    y 0.000000 2.074470 0.000000 
#    z -0.089560 0.000000 1.972790 
# 
# From -- ./inp_files/36248.got.cif
#   From: 2010.05.17/outbox.cif.g08.bks.cpg/sg5_19_cif.got.tgz:36248.got - 2010.06.03 18:56:24.
