data_PCOD9123427
_publ_section_title
;
Structure prediction by ZEFSAII (Michael W. Deem and Ramdas Pophale) SiO2 
 PCOD9123427
Probable space group: C 2
;
_chemical_formula_sum "Si O2"
_cell_formula_units_Z 28
_cell_length_a 21.748597
_cell_length_b 7.704819
_cell_length_c 15.532194
_cell_angle_alpha 90.000000
_cell_angle_beta 148.779132
_cell_angle_gamma 90.000000
_cell_volume 1349.087041
_symmetry_space_group_name_H-M "C 2"
_symmetry_group_IT_number 5
_symmetry_cell_setting 'monoclinic'
loop_
_space_group_symop_operation_xyz
x,y,z
-x,y,-z
1/2+x,1/2+y,z
1/2-x,1/2+y,-z
loop_
_atom_site_type_symbol
_atom_site_label
_atom_site_fract_x
_atom_site_fract_y
_atom_site_fract_z
Si Si1 0.329235 0.009310 0.973103
Si Si2 0.424036 0.796080 0.581564
Si Si3 0.642469 0.975022 0.657988
Si Si4 0.684636 0.795274 0.878124
Si Si5 0.131227 0.868593 0.615692
Si Si6 0.084153 0.590526 0.294507
Si Si7 0.837013 0.960409 0.543358
O O1 0.289640 0.163859 0.988551
O O2 0.227847 0.982268 0.781820
O O3 0.322301 0.850299 0.031358
O O4 0.460678 0.053128 0.098006
O O5 0.551187 0.728455 0.700604
O O6 0.437213 0.987099 0.640597
O O7 0.387463 0.657107 0.610342
O O8 0.339741 0.836420 0.398497
O O9 0.500000 0.976671 0.500000
O O10 0.674622 0.169495 0.671466
O O11 0.699917 0.931297 0.818452
O O12 0.000000 0.882063 0.500000
O O13 0.130918 0.919384 0.516329
O O14 0.197636 0.493307 0.390891
O O15 0.113816 0.795104 0.343995
#
# Coordination Sequence:
#
# PCOD9123427 Si02
#       7
#     4   4   4   4   4   4   4
#     4  11  24  39  59 101 136 178 224 285 342 400
#     4  10  20  38  64  95 125 169 231 274 332 394
#     4   9  18  36  60  94 133 171 217 276 333 406
#     4  10  21  35  59  90 142 167 215 284 343 397
#     4  11  23  39  69 100 132 179 227 280 352 403
#     4  11  25  42  64  98 131 181 228 281 325 403
#     4  12  23  43  72  90 133 180 235 271 336 406
#
# _framework density 20.754776
#
# number of rings (size 3 to 8) (size 9 to 14) (size 15 to 20)
#    0.000    1.429    2.857    2.571    6.000    1.714 
#    0.000    0.000    0.000    0.000    0.000    0.000 
#    0.000    0.000    0.000    0.000    0.000    0.000 
#
# Total GULP energy -77986.641830 kJ/mol
# GULP energy per Si atom -5570.474416 kJ/mol
# Density = 2.070754 g / cm^3
# Si number density = 20.754776 Si / 1000 Ang^3
#
#
#
# Elastic Constant Matrix: (Units=GPa)
#
#
# Indices 1 2 3 4 5 6 
#
# 1 31.6504 7.1939 2.9506 0.0000 5.8871 0.0000
# 2 7.1939 96.1119 19.3757 0.0000 11.4167 0.0000
# 3 2.9506 19.3757 58.1859 0.0000 8.9300 0.0000
# 4 0.0000 0.0000 0.0000 18.4916 0.0000 2.7406
# 5 5.8871 11.4167 8.9300 0.0000 28.9876 0.0000
# 6 0.0000 0.0000 0.0000 2.7406 0.0000 34.6643
#
#
#
# Elastic Compliance Matrix: (Units=1/GPa)
#
#
# Indices 1 2 3 4 5 6 
#
# 1 0.033119 -0.001731 -0.000184 0.000000 -0.005988 0.000000
# 2 -0.001731 0.011574 -0.003276 0.000000 -0.003198 0.000000
# 3 -0.000184 -0.003276 0.018980 0.000000 -0.004520 0.000000
# 4 0.000000 0.000000 0.000000 0.054720 0.000000 -0.004326
# 5 -0.005988 -0.003198 -0.004520 0.000000 0.038365 0.000000
# 6 0.000000 0.000000 0.000000 -0.004326 0.000000 0.029190
#
#
# Mechanical properties :
#
#
# Convention : Reuss Voigt Hill
#
# Bulk Modulus (GPa) = 18.76421 27.22096 22.99258
# Shear Modulus (GPa) = 23.35418 26.85723 25.10570
#
# Velocity S-wave (km/s) = 3.35810 3.60116 3.48175
# Velocity P-wave (km/s) = 4.90880 5.51680 5.22166
#
# Compressibility (1/GPa) = 0.05329296
#
# Stress axis : x y z
#
# Youngs Moduli (GPa) = 30.19369 86.39837 52.68695
#
# Poissons Ratio (x) = 0.14952 0.00971
# Poissons Ratio (y) = 0.05225 0.17258
# Poissons Ratio (z) = 0.00556 0.28301
#
# Static dielectric constant tensor:
#      x y z
#    x 1.773220 0.000000 -0.017820 
#    y 0.000000 1.905330 0.000000 
#    z -0.017820 0.000000 1.789660 
# 
# From -- ./inp_files/47172.got.cif
#   From: 2010.05.17/outbox.cif.g08.bks.cpg/sg5_24_cif.got.tgz:47172.got - 2010.06.03 18:56:24.
