data_PCOD9123998
_publ_section_title
;
Structure prediction by ZEFSAII (Michael W. Deem and Ramdas Pophale) SiO2 
 PCOD9123998
Probable space group: C 2
;
_chemical_formula_sum "Si O2"
_cell_formula_units_Z 28
_cell_length_a 13.768342
_cell_length_b 6.513260
_cell_length_c 17.796880
_cell_angle_alpha 90.000000
_cell_angle_beta 53.779856
_cell_angle_gamma 90.000000
_cell_volume 1287.550629
_symmetry_space_group_name_H-M "C 2"
_symmetry_group_IT_number 5
_symmetry_cell_setting 'monoclinic'
loop_
_space_group_symop_operation_xyz
x,y,z
-x,y,-z
1/2+x,1/2+y,z
1/2-x,1/2+y,-z
loop_
_atom_site_type_symbol
_atom_site_label
_atom_site_fract_x
_atom_site_fract_y
_atom_site_fract_z
Si Si1 0.651919 0.647350 0.120638
Si Si2 0.575928 0.826591 0.686458
Si Si3 0.218906 0.898140 0.224249
Si Si4 0.257614 0.528468 0.302272
Si Si5 0.054636 0.201224 0.398077
Si Si6 0.572551 0.153246 0.802064
Si Si7 0.398031 0.361324 0.983207
O O1 0.538117 0.746791 0.213153
O O2 0.684370 0.447276 0.155489
O O3 0.618882 0.574290 0.052953
O O4 0.768785 0.789282 0.071203
O O5 0.689527 0.689986 0.661448
O O6 0.543883 0.790704 0.614792
O O7 0.582994 0.058858 0.713644
O O8 0.218372 0.664151 0.249073
O O9 0.127870 0.027488 0.319134
O O10 0.348596 0.996691 0.184005
O O11 0.147437 0.384038 0.375798
O O12 0.363204 0.373667 0.230321
O O13 0.000000 0.119463 0.500000
O O14 0.447213 0.192504 0.900567
O O15 0.500000 0.374284 0.000000
#
# Coordination Sequence:
#
# PCOD9123998 Si02
#       7
#     4   4   4   4   4   4   4
#     4  11  23  40  60  94 127 178 225 269 341 384
#     4  10  22  41  65  91 127 175 217 266 334 402
#     4   9  21  41  67  89 128 171 217 265 328 403
#     4  10  21  41  66  95 121 179 215 263 338 392
#     4  10  23  42  65 101 130 162 219 274 331 398
#     4  10  20  41  63  87 130 167 219 270 319 394
#     4  12  24  39  60  94 132 165 225 282 317 381
#
# _framework density 21.746718999999999
#
# number of rings (size 3 to 8) (size 9 to 14) (size 15 to 20)
#    0.000    1.714    2.857    0.857    2.000    1.714 
#    7.714    0.000    0.000    0.000    0.000    0.000 
#    0.000    0.000    0.000    0.000    0.000    0.000 
#
# Total GULP energy -78250.014822 kJ/mol
# GULP energy per Si atom -5589.286773 kJ/mol
# Density = 2.169722 g / cm^3
# Si number density = 21.746719 Si / 1000 Ang^3
#
#
#
# Elastic Constant Matrix: (Units=GPa)
#
#
# Indices 1 2 3 4 5 6 
#
# 1 79.3061 14.9628 20.2665 0.0001 18.5701 0.0002
# 2 14.9628 69.5345 8.5856 0.0001 5.1885 0.0004
# 3 20.2665 8.5856 42.2437 0.0000 19.9892 0.0000
# 4 0.0001 0.0001 0.0000 14.8668 0.0000 9.8302
# 5 18.5701 5.1885 19.9892 0.0000 24.8753 0.0000
# 6 0.0002 0.0004 0.0000 9.8302 0.0000 21.8694
#
#
#
# Elastic Compliance Matrix: (Units=1/GPa)
#
#
# Indices 1 2 3 4 5 6 
#
# 1 0.015919 -0.002395 -0.002845 0.000000 -0.009098 0.000000
# 2 -0.002395 0.015130 -0.002063 0.000000 0.000290 0.000000
# 3 -0.002845 -0.002063 0.039125 0.000000 -0.028885 0.000000
# 4 0.000000 0.000000 0.000000 0.095710 0.000000 -0.043021
# 5 -0.009098 0.000290 -0.028885 0.000000 0.070143 0.000000
# 6 0.000000 0.000000 0.000000 -0.043021 0.000000 0.065064
#
#
# Mechanical properties :
#
#
# Convention : Reuss Voigt Hill
#
# Bulk Modulus (GPa) = 17.99674 30.96823 24.48249
# Shear Modulus (GPa) = 14.96025 22.14027 18.55026
#
# Velocity S-wave (km/s) = 2.62569 3.19423 2.92381
# Velocity P-wave (km/s) = 4.18162 5.27972 4.76242
#
# Compressibility (1/GPa) = 0.05556561
#
# Stress axis : x y z
#
# Youngs Moduli (GPa) = 62.81913 66.09447 25.55938
#
# Poissons Ratio (x) = 0.15832 0.07272
# Poissons Ratio (y) = 0.15047 0.05273
# Poissons Ratio (z) = 0.17874 0.13637
#
# Static dielectric constant tensor:
#      x y z
#    x 1.831790 0.000000 0.015540 
#    y 0.000000 1.805060 0.000000 
#    z 0.015540 0.000000 1.781390 
# 
# From -- ./inp_files/61169.got.cif
#   From: 2010.05.17/outbox.cif.g08.bks.cpg/sg5_31_cif.got.tgz:61169.got - 2010.06.03 18:56:24.
