data_PCOD9123420
_publ_section_title
;
Structure prediction by ZEFSAII (Michael W. Deem and Ramdas Pophale) SiO2 
 PCOD9123420
Probable space group: C 2
;
_chemical_formula_sum "Si O2"
_cell_formula_units_Z 30
_cell_length_a 10.223702
_cell_length_b 23.195543
_cell_length_c 10.237522
_cell_angle_alpha 90.000000
_cell_angle_beta 34.559510
_cell_angle_gamma 90.000000
_cell_volume 1377.181544
_symmetry_space_group_name_H-M "C 2"
_symmetry_group_IT_number 5
_symmetry_cell_setting 'monoclinic'
loop_
_space_group_symop_operation_xyz
x,y,z
-x,y,-z
1/2+x,1/2+y,z
1/2-x,1/2+y,-z
loop_
_atom_site_type_symbol
_atom_site_label
_atom_site_fract_x
_atom_site_fract_y
_atom_site_fract_z
Si Si1 0.303519 0.079470 0.423412
Si Si2 0.400147 0.176431 0.726609
Si Si3 0.470732 0.370311 0.879439
Si Si4 0.975599 0.353931 0.172994
Si Si5 0.500000 0.117967 0.000000
Si Si6 0.079503 0.176228 0.207961
Si Si7 0.742630 0.270191 0.547473
Si Si8 0.652617 0.454678 0.506349
O O1 0.523749 0.109991 0.309531
O O2 0.099854 0.123884 0.626602
O O3 0.227132 0.014714 0.510271
O O4 0.367386 0.081578 0.217731
O O5 0.500000 0.188041 0.500000
O O6 0.547482 0.222582 0.688234
O O7 0.147974 0.184209 0.999109
O O8 0.653872 0.317376 0.722197
O O9 0.525403 0.415992 0.720067
O O10 0.500000 0.395517 0.000000
O O11 0.215558 0.347698 0.053290
O O12 0.789144 0.308901 0.381067
O O13 0.875209 0.417475 0.281754
O O14 0.000000 0.344674 0.000000
O O15 0.689499 0.157299 0.911444
O O16 0.971766 0.231721 0.366534
O O17 0.500000 0.462746 0.500000
#
# Coordination Sequence:
#
# PCOD9123420 Si02
#       8
#     4   4   4   4   2   4   4   4
#     4  10  23  41  64 100 133 175 222 288 338 410
#     4  10  23  42  64  99 136 178 230 277 344 420
#     4  11  26  49  65 105 142 180 234 296 356 413
#     4  11  24  43  72  99 132 178 235 291 343 412
#     4  10  20  38  64  92 140 162 228 272 338 410
#     4  10  21  42  60  98 133 176 215 280 340 410
#     4  10  24  40  67  95 134 180 225 279 348 414
#     4  11  23  43  73 102 132 182 241 285 350 417
#
# _framework density 21.783622000000001
#
# number of rings (size 3 to 8) (size 9 to 14) (size 15 to 20)
#    0.000    1.600    1.333    2.000    4.667    5.867 
#   33.600    0.000    0.000    0.000    0.000    0.000 
#    0.000    0.000    0.000    0.000    0.000    0.000 
#
# Total GULP energy -83709.500419 kJ/mol
# GULP energy per Si atom -5580.633361 kJ/mol
# Density = 2.173404 g / cm^3
# Si number density = 21.783622 Si / 1000 Ang^3
#
#
#
# Elastic Constant Matrix: (Units=GPa)
#
#
# Indices 1 2 3 4 5 6 
#
# 1 45.3142 -16.0071 3.6397 0.0000 4.9526 0.0000
# 2 -16.0071 109.1004 15.3302 0.0000 -11.1726 0.0000
# 3 3.6397 15.3302 108.3921 0.0000 7.1141 0.0000
# 4 0.0000 0.0000 0.0000 25.5256 0.0000 -5.9446
# 5 4.9526 -11.1726 7.1141 0.0000 30.5105 0.0000
# 6 0.0000 0.0000 0.0000 -5.9446 0.0000 8.3750
#
#
#
# Elastic Compliance Matrix: (Units=1/GPa)
#
#
# Indices 1 2 3 4 5 6 
#
# 1 0.023608 0.003382 -0.001118 0.000000 -0.002333 0.000000
# 2 0.003382 0.010289 -0.001808 0.000000 0.003640 0.000000
# 3 -0.001118 -0.001808 0.009699 0.000000 -0.002742 0.000000
# 4 0.000000 0.000000 0.000000 0.046935 0.000000 0.033314
# 5 -0.002333 0.003640 -0.002742 0.000000 0.035127 0.000000
# 6 0.000000 0.000000 0.000000 0.033314 0.000000 0.143050
#
#
# Mechanical properties :
#
#
# Convention : Reuss Voigt Hill
#
# Bulk Modulus (GPa) = 22.46794 29.85915 26.16355
# Shear Modulus (GPa) = 17.69096 30.20513 23.94804
#
# Velocity S-wave (km/s) = 2.85287 3.72775 3.31926
# Velocity P-wave (km/s) = 4.60308 5.68023 5.16979
#
# Compressibility (1/GPa) = 0.04450786
#
# Stress axis : x y z
#
# Youngs Moduli (GPa) = 42.35935 97.19277 103.10422
#
# Poissons Ratio (x) = -0.32869 0.11526
# Poissons Ratio (y) = -0.14325 0.18638
# Poissons Ratio (z) = 0.04735 0.17569
#
# Static dielectric constant tensor:
#      x y z
#    x 1.853290 0.000000 0.012410 
#    y 0.000000 1.766610 0.000000 
#    z 0.012410 0.000000 1.870390 
# 
# From -- ./inp_files/40712.got.cif
#   From: 2010.05.17/outbox.cif.g08.bks.cpg/sg5_21_cif.got.tgz:40712.got - 2010.06.03 18:56:24.
