data_PCOD9123495
_publ_section_title
;
Structure prediction by ZEFSAII (Michael W. Deem and Ramdas Pophale) SiO2 
 PCOD9123495
Probable space group: C 2
;
_chemical_formula_sum "Si O2"
_cell_formula_units_Z 24
_cell_length_a 14.640809
_cell_length_b 5.758449
_cell_length_c 13.425468
_cell_angle_alpha 90.000000
_cell_angle_beta 116.290305
_cell_angle_gamma 90.000000
_cell_volume 1014.799082
_symmetry_space_group_name_H-M "C 2"
_symmetry_group_IT_number 5
_symmetry_cell_setting 'monoclinic'
loop_
_space_group_symop_operation_xyz
x,y,z
-x,y,-z
1/2+x,1/2+y,z
1/2-x,1/2+y,-z
loop_
_atom_site_type_symbol
_atom_site_label
_atom_site_fract_x
_atom_site_fract_y
_atom_site_fract_z
Si Si1 0.172027 0.315890 0.724756
Si Si2 0.856616 0.572377 0.775883
Si Si3 0.131576 0.778699 0.436962
Si Si4 0.500000 0.046611 0.000000
Si Si5 0.311518 0.906983 0.041738
Si Si6 0.000000 0.429682 0.500000
Si Si7 0.816444 0.151809 0.663041
O O1 0.148483 0.397790 0.824379
O O2 0.247214 0.496692 0.703970
O O3 0.079761 0.286441 0.603948
O O4 0.243991 0.090289 0.766804
O O5 0.851635 0.670328 0.663256
O O6 0.882867 0.306639 0.768171
O O7 0.940053 0.687811 0.885892
O O8 0.230942 0.780213 0.554391
O O9 0.053517 0.610911 0.451381
O O10 0.113422 0.038265 0.389182
O O11 0.406705 0.917138 0.010868
O O12 0.248815 0.659923 0.996665
#
# Coordination Sequence:
#
# PCOD9123495 Si02
#       7
#     4   4   4   2   4   2   4
#     4  10  23  44  71 102 152 189 249 320 379 461
#     4  11  22  44  69 102 141 192 252 309 376 464
#     4  10  20  38  66  99 139 181 239 296 367 461
#     4  12  26  48  80 110 150 212 262 314 404 460
#     4  12  27  53  81 115 161 208 265 330 386 469
#     4  10  22  42  68 108 146 190 244 304 396 456
#     4  10  20  39  70  96 138 193 233 302 381 439
#
# _framework density 23.650003000000002
#
# number of rings (size 3 to 8) (size 9 to 14) (size 15 to 20)
#    0.000    1.333    3.333    2.000    0.000    0.667 
#    9.000    7.500    0.000    0.000    0.000    0.000 
#    0.000    0.000    0.000    0.000    0.000    0.000 
#
# Total GULP energy -66831.610367 kJ/mol
# GULP energy per Si atom -5569.300864 kJ/mol
# Density = 2.359617 g / cm^3
# Si number density = 23.650003 Si / 1000 Ang^3
#
#
#
# Elastic Constant Matrix: (Units=GPa)
#
#
# Indices 1 2 3 4 5 6 
#
# 1 119.1350 24.6053 46.2633 0.0000 -14.6906 0.0000
# 2 24.6053 60.8969 21.9030 0.0000 6.4166 0.0000
# 3 46.2633 21.9030 123.3610 0.0000 -16.4295 0.0000
# 4 0.0000 0.0000 0.0000 46.8339 0.0000 -35.3209
# 5 -14.6906 6.4166 -16.4295 0.0000 44.1249 0.0000
# 6 0.0000 0.0000 0.0000 -35.3209 0.0000 63.5125
#
#
#
# Elastic Compliance Matrix: (Units=1/GPa)
#
#
# Indices 1 2 3 4 5 6 
#
# 1 0.010643 -0.003544 -0.002969 0.000000 0.002953 0.000000
# 2 -0.003544 0.019385 -0.002783 0.000000 -0.005035 0.000000
# 3 -0.002969 -0.002783 0.010139 0.000000 0.003191 0.000000
# 4 0.000000 0.000000 0.000000 0.036777 0.000000 0.020453
# 5 0.002953 -0.005035 0.003191 0.000000 0.025567 0.000000
# 6 0.000000 0.000000 0.000000 0.020453 0.000000 0.027119
#
#
# Mechanical properties :
#
#
# Convention : Reuss Voigt Hill
#
# Bulk Modulus (GPa) = 46.35062 54.32622 50.33842
# Shear Modulus (GPa) = 32.17255 44.93568 38.55411
#
# Velocity S-wave (km/s) = 3.69231 4.36366 4.04195
# Velocity P-wave (km/s) = 6.14969 6.95769 6.56613
#
# Compressibility (1/GPa) = 0.02157469
#
# Stress axis : x y z
#
# Youngs Moduli (GPa) = 93.96091 51.58734 98.62989
#
# Poissons Ratio (x) = 0.18280 0.29281
# Poissons Ratio (y) = 0.33295 0.27453
# Poissons Ratio (z) = 0.27895 0.14359
#
# Static dielectric constant tensor:
#      x y z
#    x 1.927310 0.000000 0.100900 
#    y 0.000000 2.362410 0.000000 
#    z 0.100900 0.000000 1.460460 
# 
# From -- ./inp_files/53916.got.cif
#   From: 2010.05.17/outbox.cif.g08.bks.cpg/sg5_27_cif.got.tgz:53916.got - 2010.06.03 18:56:24.
