data_PCOD9123186
_publ_section_title
;
Structure prediction by ZEFSAII (Michael W. Deem and Ramdas Pophale) SiO2 
 PCOD9123186
Probable space group: C 2
;
_chemical_formula_sum "Si O2"
_cell_formula_units_Z 28
_cell_length_a 17.430704
_cell_length_b 5.390246
_cell_length_c 14.903181
_cell_angle_alpha 90.000000
_cell_angle_beta 114.342264
_cell_angle_gamma 90.000000
_cell_volume 1275.757961
_symmetry_space_group_name_H-M "C 2"
_symmetry_group_IT_number 5
_symmetry_cell_setting 'monoclinic'
loop_
_space_group_symop_operation_xyz
x,y,z
-x,y,-z
1/2+x,1/2+y,z
1/2-x,1/2+y,-z
loop_
_atom_site_type_symbol
_atom_site_label
_atom_site_fract_x
_atom_site_fract_y
_atom_site_fract_z
Si Si1 0.641784 0.777200 0.913874
Si Si2 0.702064 0.101492 0.454498
Si Si3 0.713872 0.991266 0.116772
Si Si4 0.316736 0.333018 0.749306
Si Si5 0.523902 0.121277 0.354864
Si Si6 0.968430 0.120160 0.758918
Si Si7 0.839595 0.603430 0.251065
O O1 0.726006 0.636747 0.923455
O O2 0.554681 0.633432 0.856356
O O3 0.640572 0.004198 0.840836
O O4 0.654263 0.834603 0.023818
O O5 0.759208 0.327013 0.519299
O O6 0.687934 0.177973 0.344180
O O7 0.609140 0.115054 0.453748
O O8 0.659465 0.163786 0.155051
O O9 0.782466 0.845166 0.209603
O O10 0.382434 0.558151 0.769891
O O11 0.223203 0.421397 0.728127
O O12 0.524071 0.382968 0.302597
O O13 0.428582 0.113414 0.343839
O O14 0.535174 0.876351 0.297847
#
# Coordination Sequence:
#
# PCOD9123186 Si02
#       7
#     4   4   4   4   4   4   4
#     4  10  20  37  65  95 128 186 230 262 318 391
#     4  11  24  45  74  95 128 168 219 272 343 414
#     4  11  20  37  67  94 134 176 227 275 319 386
#     4  10  25  40  68  97 131 173 222 284 343 381
#     4  10  21  41  70  97 125 176 218 263 338 410
#     4  10  21  40  67  93 134 178 223 265 326 397
#     4  10  21  38  67  91 132 173 219 267 325 396
#
# _framework density 21.947735000000002
#
# number of rings (size 3 to 8) (size 9 to 14) (size 15 to 20)
#    0.000    1.714    2.857    1.714    6.000    0.000 
#    0.000    1.429    9.429    0.000    0.000    0.000 
#    0.000    0.000    0.000    0.000    0.000    0.000 
#
# Total GULP energy -78113.492754 kJ/mol
# GULP energy per Si atom -5579.535197 kJ/mol
# Density = 2.189778 g / cm^3
# Si number density = 21.947735 Si / 1000 Ang^3
#
#
#
# Elastic Constant Matrix: (Units=GPa)
#
#
# Indices 1 2 3 4 5 6 
#
# 1 73.9796 10.2990 30.6884 0.0000 4.6295 0.0000
# 2 10.2990 74.2847 0.1233 0.0000 1.5206 0.0000
# 3 30.6884 0.1233 46.6603 0.0000 7.4787 0.0000
# 4 0.0000 0.0000 0.0000 33.7187 0.0000 5.7353
# 5 4.6295 1.5206 7.4787 0.0000 30.8577 0.0000
# 6 0.0000 0.0000 0.0000 5.7353 0.0000 24.7427
#
#
#
# Elastic Compliance Matrix: (Units=1/GPa)
#
#
# Indices 1 2 3 4 5 6 
#
# 1 0.019090 -0.002632 -0.012600 0.000000 0.000319 0.000000
# 2 -0.002632 0.013839 0.001811 0.000000 -0.000726 0.000000
# 3 -0.012600 0.001811 0.030614 0.000000 -0.005619 0.000000
# 4 0.000000 0.000000 0.000000 0.030874 0.000000 -0.007157
# 5 0.000319 -0.000726 -0.005619 0.000000 0.033756 0.000000
# 6 0.000000 0.000000 0.000000 -0.007157 0.000000 0.042075
#
#
# Mechanical properties :
#
#
# Convention : Reuss Voigt Hill
#
# Bulk Modulus (GPa) = 27.24745 30.79400 29.02073
# Shear Modulus (GPa) = 23.88630 28.11807 26.00219
#
# Velocity S-wave (km/s) = 3.30256 3.58318 3.44573
# Velocity P-wave (km/s) = 5.19463 5.58390 5.39278
#
# Compressibility (1/GPa) = 0.03670068
#
# Stress axis : x y z
#
# Youngs Moduli (GPa) = 52.38220 72.26202 32.66457
#
# Poissons Ratio (x) = 0.19022 0.41157
# Poissons Ratio (y) = 0.13789 -0.05916
# Poissons Ratio (z) = 0.66001 -0.13087
#
# Static dielectric constant tensor:
#      x y z
#    x 1.850040 0.000000 0.006830 
#    y 0.000000 1.843830 0.000000 
#    z 0.006830 0.000000 1.836400 
# 
# From -- ./inp_files/55405.got.cif
#   From: 2010.05.17/outbox.cif.g08.bks.cpg/sg5_28_cif.got.tgz:55405.got - 2010.06.03 18:56:24.
