data_PCOD9123307
_publ_section_title
;
Structure prediction by ZEFSAII (Michael W. Deem and Ramdas Pophale) SiO2 
 PCOD9123307
Probable space group: C 2
;
_chemical_formula_sum "Si O2"
_cell_formula_units_Z 32
_cell_length_a 22.054754
_cell_length_b 5.530980
_cell_length_c 20.504878
_cell_angle_alpha 90.000000
_cell_angle_beta 136.436774
_cell_angle_gamma 90.000000
_cell_volume 1723.765405
_symmetry_space_group_name_H-M "C 2"
_symmetry_group_IT_number 5
_symmetry_cell_setting 'monoclinic'
loop_
_space_group_symop_operation_xyz
x,y,z
-x,y,-z
1/2+x,1/2+y,z
1/2-x,1/2+y,-z
loop_
_atom_site_type_symbol
_atom_site_label
_atom_site_fract_x
_atom_site_fract_y
_atom_site_fract_z
Si Si1 0.791735 0.403550 0.504534
Si Si2 0.478139 0.612674 0.842641
Si Si3 0.736907 0.011360 0.069051
Si Si4 0.446074 0.998968 0.713158
Si Si5 0.104934 0.779381 0.872813
Si Si6 0.826192 0.729217 0.855045
Si Si7 0.688694 0.305095 0.300725
Si Si8 0.393531 0.737228 0.951966
O O1 0.744460 0.655172 0.490086
O O2 0.891536 0.430438 0.606757
O O3 0.768242 0.372670 0.410318
O O4 0.484421 0.776954 0.783755
O O5 0.544989 0.391275 0.883429
O O6 0.378056 0.526448 0.764587
O O7 0.517594 0.736863 0.936858
O O8 0.735626 0.193520 0.129736
O O9 0.832726 0.963344 0.116325
O O10 0.688291 0.774738 0.060773
O O11 0.672924 0.101798 0.961783
O O12 0.530282 0.167648 0.768213
O O13 0.374005 0.122808 0.706248
O O14 0.784943 0.721264 0.750804
O O15 0.885043 0.487219 0.905819
O O16 0.877953 0.980167 0.905711
#
# Coordination Sequence:
#
# PCOD9123307 Si02
#       8
#     4   4   4   4   4   4   4   4
#     4  10  20  38  61  86 120 154 200 249 305 363
#     4  11  19  36  53  83 119 157 198 245 299 357
#     4  10  22  35  58  80 122 159 198 248 288 367
#     4  10  21  36  57  89 120 153 201 253 307 361
#     4  11  21  35  57  87 121 159 201 252 305 342
#     4  10  23  39  53  84 118 163 200 228 295 360
#     4  10  23  37  58  84 122 163 196 250 302 371
#     4  10  21  38  52  80 117 156 202 233 284 362
#
# _framework density 18.564012000000002
#
# number of rings (size 3 to 8) (size 9 to 14) (size 15 to 20)
#    0.750    1.000    3.750    0.750    3.500    0.500 
#    0.000    0.000    0.000    0.000    0.000    5.250 
#    0.000    0.000    0.000    0.000    0.000    0.000 
#
# Total GULP energy -89109.429403 kJ/mol
# GULP energy per Si atom -5569.339338 kJ/mol
# Density = 1.852176 g / cm^3
# Si number density = 18.564012 Si / 1000 Ang^3
#
#
#
# Elastic Constant Matrix: (Units=GPa)
#
#
# Indices 1 2 3 4 5 6 
#
# 1 52.3445 14.9510 37.0300 0.0000 -5.4862 0.0004
# 2 14.9510 83.7341 45.4927 0.0004 -2.6203 0.0005
# 3 37.0300 45.4927 165.5075 0.0002 -19.0233 0.0009
# 4 0.0000 0.0004 0.0002 30.1902 0.0001 2.5563
# 5 -5.4862 -2.6203 -19.0233 0.0001 21.2434 -0.0001
# 6 0.0004 0.0005 0.0009 2.5563 -0.0001 18.8771
#
#
#
# Elastic Compliance Matrix: (Units=1/GPa)
#
#
# Indices 1 2 3 4 5 6 
#
# 1 0.022917 -0.001598 -0.004493 0.000000 0.001698 0.000000
# 2 -0.001598 0.014221 -0.003787 0.000000 -0.002050 0.000000
# 3 -0.004493 -0.003787 0.008808 0.000000 0.006260 0.000000
# 4 0.000000 0.000000 0.000000 0.033508 0.000000 -0.004538
# 5 0.001698 -0.002050 0.006260 0.000000 0.052865 0.000000
# 6 0.000000 0.000000 0.000000 -0.004538 0.000000 0.053589
#
#
# Mechanical properties :
#
#
# Convention : Reuss Voigt Hill
#
# Bulk Modulus (GPa) = 38.18215 55.17039 46.67627
# Shear Modulus (GPa) = 23.32171 27.66964 25.49567
#
# Velocity S-wave (km/s) = 3.54826 3.86489 3.70995
# Velocity P-wave (km/s) = 6.11550 7.04982 6.59922
#
# Compressibility (1/GPa) = 0.02619025
#
# Stress axis : x y z
#
# Youngs Moduli (GPa) = 43.63573 70.31752 113.53669
#
# Poissons Ratio (x) = 0.11235 0.51013
# Poissons Ratio (y) = 0.06972 0.42997
# Poissons Ratio (z) = 0.19606 0.26630
#
# Static dielectric constant tensor:
#      x y z
#    x 1.683590 0.000000 -0.031140 
#    y 0.000000 1.731600 0.000000 
#    z -0.031140 0.000000 1.627000 
# 
# From -- ./inp_files/67219.got.cif
#   From: 2010.05.17/outbox.cif.g08.bks.cpg/sg5_34_cif.got.tgz:67219.got - 2010.06.03 18:56:24.
