data_PCOD9123431
_publ_section_title
;
Structure prediction by ZEFSAII (Michael W. Deem and Ramdas Pophale) SiO2 
 PCOD9123431
Probable space group: C 2
;
_chemical_formula_sum "Si O2"
_cell_formula_units_Z 32
_cell_length_a 11.759544
_cell_length_b 16.130955
_cell_length_c 23.731388
_cell_angle_alpha 90.000000
_cell_angle_beta 159.756667
_cell_angle_gamma 90.000000
_cell_volume 1557.613483
_symmetry_space_group_name_H-M "C 2"
_symmetry_group_IT_number 5
_symmetry_cell_setting 'monoclinic'
loop_
_space_group_symop_operation_xyz
x,y,z
-x,y,-z
1/2+x,1/2+y,z
1/2-x,1/2+y,-z
loop_
_atom_site_type_symbol
_atom_site_label
_atom_site_fract_x
_atom_site_fract_y
_atom_site_fract_z
Si Si1 0.403401 0.142800 0.096884
Si Si2 0.284361 0.280397 0.954214
Si Si3 0.815360 0.415690 0.685345
Si Si4 0.259897 0.494658 0.232239
Si Si5 0.118343 0.873285 0.324375
Si Si6 0.758719 0.038033 0.817140
Si Si7 0.372713 0.205787 0.197072
Si Si8 0.052017 0.915779 0.880149
O O1 0.549160 0.190092 0.218919
O O2 0.684833 0.091713 0.195980
O O3 0.228178 0.203374 0.970568
O O4 0.137206 0.074849 0.997773
O O5 0.979432 0.332621 0.787199
O O6 0.500000 0.256498 0.000000
O O7 0.469376 0.346577 0.081047
O O8 0.500000 0.399328 0.500000
O O9 0.689981 0.469323 0.679884
O O10 0.096234 0.470835 0.784023
O O11 0.531884 0.453687 0.320046
O O12 0.920105 0.451255 0.054773
O O13 0.500000 0.858883 0.500000
O O14 0.952421 0.788345 0.267895
O O15 0.995402 0.883083 0.203770
O O16 0.570665 0.123870 0.739440
O O17 0.792852 0.988044 0.774970
O O18 0.000000 0.214117 0.000000
#
# Coordination Sequence:
#
# PCOD9123431 Si02
#       8
#     4   4   4   4   4   4   4   4
#     4  10  21  39  68 100 126 157 234 275 321 379
#     4  11  22  38  70  99 128 176 225 276 328 387
#     4  11  24  40  68 103 136 175 223 272 338 406
#     4  10  23  41  69  95 126 174 225 271 325 391
#     4  12  26  41  62  95 138 175 213 270 343 399
#     4  10  21  38  68  95 126 168 215 279 324 380
#     4  10  20  38  64  96 125 164 218 280 315 384
#     4  10  21  40  66  94 122 167 226 269 316 398
#
# _framework density 20.544249000000001
#
# number of rings (size 3 to 8) (size 9 to 14) (size 15 to 20)
#    0.000    1.500    3.750    1.125   12.250    2.500 
#    0.000    0.000    2.750    3.000    0.000    0.000 
#    0.000    0.000    0.000    0.000    0.000    0.000 
#
# Total GULP energy -89150.488499 kJ/mol
# GULP energy per Si atom -5571.905531 kJ/mol
# Density = 2.049749 g / cm^3
# Si number density = 20.544249 Si / 1000 Ang^3
#
#
#
# Elastic Constant Matrix: (Units=GPa)
#
#
# Indices 1 2 3 4 5 6 
#
# 1 40.9119 12.8873 9.1839 -0.0746 -0.1751 0.0411
# 2 12.8873 97.3921 24.9915 -0.0763 4.1670 0.0460
# 3 9.1839 24.9915 43.6200 -0.1111 -8.8747 0.0673
# 4 -0.0746 -0.0763 -0.1111 -14.7917 0.1087 5.0083
# 5 -0.1751 4.1670 -8.8747 0.1087 21.2897 0.0104
# 6 0.0411 0.0460 0.0673 5.0083 0.0104 36.0316
#
#
#
# Elastic Compliance Matrix: (Units=1/GPa)
#
#
# Indices 1 2 3 4 5 6 
#
# 1 0.026151 -0.002267 -0.004450 -0.000097 -0.001196 -0.000005
# 2 -0.002267 0.012906 -0.008124 -0.000035 -0.005931 0.000008
# 3 -0.004450 -0.008124 0.031505 -0.000077 0.014687 -0.000037
# 4 -0.000097 -0.000035 -0.000077 -0.064563 0.000299 0.008974
# 5 -0.001196 -0.005931 0.014687 0.000299 0.054243 -0.000076
# 6 -0.000005 0.000008 -0.000037 0.008974 -0.000076 0.026506
#
#
# Mechanical properties :
#
#
# Convention : Reuss Voigt Hill
#
# Bulk Modulus (GPa) = 24.46274 30.67216 27.56745
# Shear Modulus (GPa) = 38.44487 17.49666 27.97077
#
# Velocity S-wave (km/s) = 4.33057 2.92148 3.69384
# Velocity P-wave (km/s) = 6.07769 5.13247 5.62497
#
# Compressibility (1/GPa) = 0.04087849
#
# Stress axis : x y z
#
# Youngs Moduli (GPa) = 38.23991 77.48243 31.74129
#
# Poissons Ratio (x) = 0.17567 0.14126
# Poissons Ratio (y) = 0.08670 0.25786
# Poissons Ratio (z) = 0.17018 0.62946
#
# Static dielectric constant tensor:
#      x y z
#    x 1.782760 -0.000020 0.027210 
#    y -0.000020 1.791350 0.000030 
#    z 0.027210 0.000030 1.755320 
# 
# From -- ./inp_files/68447.got.cif
#   From: 2010.05.17/outbox.cif.g08.bks.cpg/sg5_35_cif.got.tgz:68447.got - 2010.06.03 18:56:24.
