data_PCOD9123939
_publ_section_title
;
Structure prediction by ZEFSAII (Michael W. Deem and Ramdas Pophale) SiO2 
 PCOD9123939
Probable space group: C 2
;
_chemical_formula_sum "Si O2"
_cell_formula_units_Z 28
_cell_length_a 7.490334
_cell_length_b 13.415800
_cell_length_c 16.460172
_cell_angle_alpha 90.000000
_cell_angle_beta 44.256585
_cell_angle_gamma 90.000000
_cell_volume 1154.325759
_symmetry_space_group_name_H-M "C 2"
_symmetry_group_IT_number 5
_symmetry_cell_setting 'monoclinic'
loop_
_space_group_symop_operation_xyz
x,y,z
-x,y,-z
1/2+x,1/2+y,z
1/2-x,1/2+y,-z
loop_
_atom_site_type_symbol
_atom_site_label
_atom_site_fract_x
_atom_site_fract_y
_atom_site_fract_z
Si Si1 0.583295 0.833140 0.851060
Si Si2 0.452773 0.010275 0.632457
Si Si3 0.691888 0.680199 0.324967
Si Si4 0.395638 0.286227 0.901519
Si Si5 0.000000 0.344819 0.500000
Si Si6 0.000000 0.008409 0.500000
Si Si7 0.719740 0.462965 0.875911
Si Si8 0.800254 0.725829 0.624853
O O1 0.766484 0.844711 0.868193
O O2 0.448989 0.932303 0.860790
O O3 0.727439 0.784851 0.728678
O O4 0.342905 0.765683 0.961075
O O5 0.738403 0.964676 0.550516
O O6 0.432183 0.121264 0.605552
O O7 0.349646 0.930415 0.603069
O O8 0.315830 0.014187 0.763578
O O9 0.689178 0.757202 0.401195
O O10 0.618360 0.575830 0.388784
O O11 0.457167 0.710043 0.342839
O O12 0.948545 0.695234 0.189061
O O13 0.591229 0.359846 0.883737
O O14 0.500000 0.515269 0.000000
O O15 0.000000 0.779121 0.500000
#
# Coordination Sequence:
#
# PCOD9123939 Si02
#       8
#     4   4   4   4   2   2   4   4
#     4  10  22  40  67 100 122 172 218 267 316 386
#     4  12  23  43  61  94 135 169 205 271 339 381
#     4  11  22  41  65  92 124 173 219 263 312 386
#     4  10  20  40  70  94 128 159 226 269 312 370
#     4  11  22  38  64  97 120 166 210 259 324 382
#     4  11  24  40  58  89 136 168 210 265 326 390
#     4  10  22  44  67  91 129 170 218 270 321 383
#     4  12  23  40  63  91 134 168 210 267 326 381
#
# _framework density 24.256584
#
# number of rings (size 3 to 8) (size 9 to 14) (size 15 to 20)
#    0.000    1.143    5.000    0.857    2.000    1.143 
#   10.286    0.000    0.000    0.000    0.000    0.000 
#    0.000    0.000    0.000    0.000    0.000    0.000 
#
# Total GULP energy -78076.392371 kJ/mol
# GULP energy per Si atom -5576.885169 kJ/mol
# Density = 2.420137 g / cm^3
# Si number density = 24.256584 Si / 1000 Ang^3
#
#
#
# Elastic Constant Matrix: (Units=GPa)
#
#
# Indices 1 2 3 4 5 6 
#
# 1 112.0286 1.3755 24.8111 -0.0003 4.9436 0.0021
# 2 1.3755 28.6077 11.8924 -0.0014 -2.8612 0.0016
# 3 24.8111 11.8924 211.1929 -0.0031 7.9215 0.0034
# 4 -0.0003 -0.0014 -0.0031 34.9014 0.0014 21.9085
# 5 4.9436 -2.8612 7.9215 0.0014 46.5125 -0.0016
# 6 0.0021 0.0016 0.0034 21.9085 -0.0016 78.2661
#
#
#
# Elastic Compliance Matrix: (Units=1/GPa)
#
#
# Indices 1 2 3 4 5 6 
#
# 1 0.009194 -0.000088 -0.001045 0.000000 -0.000805 0.000000
# 2 -0.000088 0.036100 -0.002120 0.000002 0.002591 -0.000001
# 3 -0.001045 -0.002120 0.005010 0.000001 -0.000873 0.000000
# 4 0.000000 0.000002 0.000001 0.034760 -0.000001 -0.009730
# 5 -0.000805 0.002591 -0.000873 -0.000001 0.021893 0.000001
# 6 0.000000 -0.000001 0.000000 -0.009730 0.000001 0.015501
#
#
# Mechanical properties :
#
#
# Convention : Reuss Voigt Hill
#
# Bulk Modulus (GPa) = 22.83168 47.55414 35.19291
# Shear Modulus (GPa) = 34.82783 52.85268 43.84026
#
# Velocity S-wave (km/s) = 3.79332 4.67293 4.25591
# Velocity P-wave (km/s) = 5.34964 6.98300 6.22017
#
# Compressibility (1/GPa) = 0.04379879
#
# Stress axis : x y z
#
# Youngs Moduli (GPa) = 108.76281 27.70068 199.60626
#
# Poissons Ratio (x) = 0.00244 0.20859
# Poissons Ratio (y) = 0.00958 0.42310
# Poissons Ratio (z) = 0.11366 0.05872
#
# Static dielectric constant tensor:
#      x y z
#    x 1.817640 0.000000 -0.126050 
#    y 0.000000 1.914380 0.000000 
#    z -0.126050 0.000000 1.886690 
# 
# From -- ./inp_files/59723.got.cif
#   From: 2010.05.17/outbox.cif.g08.bks.cpg/sg5_30_cif.got.tgz:59723.got - 2010.06.03 18:56:24.
