data_PCOD9123846
_publ_section_title
;
Structure prediction by ZEFSAII (Michael W. Deem and Ramdas Pophale) SiO2 
 PCOD9123846
Probable space group: C 2
;
_chemical_formula_sum "Si O2"
_cell_formula_units_Z 28
_cell_length_a 11.167621
_cell_length_b 15.101946
_cell_length_c 8.009476
_cell_angle_alpha 90.000000
_cell_angle_beta 67.259463
_cell_angle_gamma 90.000000
_cell_volume 1245.814355
_symmetry_space_group_name_H-M "C 2"
_symmetry_group_IT_number 5
_symmetry_cell_setting 'monoclinic'
loop_
_space_group_symop_operation_xyz
x,y,z
-x,y,-z
1/2+x,1/2+y,z
1/2-x,1/2+y,-z
loop_
_atom_site_type_symbol
_atom_site_label
_atom_site_fract_x
_atom_site_fract_y
_atom_site_fract_z
Si Si1 0.985257 0.316780 0.307327
Si Si2 0.043681 0.510800 0.783285
Si Si3 0.907725 0.800478 0.178104
Si Si4 0.902003 0.671303 0.729365
Si Si5 0.185503 0.823705 0.427334
Si Si6 0.308397 0.680582 0.894292
Si Si7 0.145137 0.007526 0.341786
O O1 0.015880 0.415152 0.227196
O O2 0.836172 0.307768 0.342938
O O3 0.000000 0.309111 0.500000
O O4 0.067366 0.242760 0.170697
O O5 0.201597 0.513642 0.671158
O O6 0.973847 0.578819 0.697914
O O7 0.000000 0.531950 0.000000
O O8 0.853129 0.853729 0.365468
O O9 0.791328 0.740991 0.164583
O O10 0.010755 0.731272 0.195775
O O11 0.000000 0.853430 0.000000
O O12 0.874814 0.728583 0.580516
O O13 0.763459 0.663868 0.894376
O O14 0.143329 0.900234 0.320822
O O15 0.343041 0.585369 0.799174
O O16 0.000000 0.024558 0.500000
#
# Coordination Sequence:
#
# PCOD9123846 Si02
#       7
#     4   4   4   4   4   4   4
#     4  11  25  43  67 101 140 187 235 291 356 421
#     4  11  23  46  71 105 141 188 237 291 358 427
#     4  10  20  40  65  96 133 181 231 287 352 419
#     4  11  22  40  69 103 135 180 239 288 349 422
#     4  11  25  43  70 104 138 186 237 297 356 423
#     4  11  22  40  69  96 139 187 230 285 355 419
#     4  11  23  42  68 100 140 189 234 282 354 422
#
# _framework density 22.475256999999999
#
# number of rings (size 3 to 8) (size 9 to 14) (size 15 to 20)
#    0.000    1.143    4.286    2.143    4.000    1.143 
#    0.000    0.000    0.000    0.000    0.000    0.000 
#    0.000    0.000    0.000    0.000    0.000    0.000 
#
# Total GULP energy -78017.237728 kJ/mol
# GULP energy per Si atom -5572.659838 kJ/mol
# Density = 2.242410 g / cm^3
# Si number density = 22.475257 Si / 1000 Ang^3
#
#
#
# Elastic Constant Matrix: (Units=GPa)
#
#
# Indices 1 2 3 4 5 6 
#
# 1 65.3725 31.5572 47.7782 0.0000 -29.4391 0.0000
# 2 31.5572 114.0634 37.4912 0.0000 -8.6452 0.0000
# 3 47.7782 37.4912 109.2567 0.0000 -28.7266 0.0000
# 4 0.0000 0.0000 0.0000 12.9173 0.0000 -7.5279
# 5 -29.4391 -8.6452 -28.7266 0.0000 35.9014 0.0000
# 6 0.0000 0.0000 0.0000 -7.5279 0.0000 27.5813
#
#
#
# Elastic Compliance Matrix: (Units=1/GPa)
#
#
# Indices 1 2 3 4 5 6 
#
# 1 0.031312 -0.004917 -0.007049 0.000000 0.018851 0.000000
# 2 -0.004917 0.010659 -0.002397 0.000000 -0.003383 0.000000
# 3 -0.007049 -0.002397 0.014420 0.000000 0.005181 0.000000
# 4 0.000000 0.000000 0.000000 0.092059 0.000000 0.025126
# 5 0.018851 -0.003383 0.005181 0.000000 0.046643 0.000000
# 6 0.000000 0.000000 0.000000 0.025126 0.000000 0.043114
#
#
# Mechanical properties :
#
#
# Convention : Reuss Voigt Hill
#
# Bulk Modulus (GPa) = 36.14703 58.03843 47.09273
# Shear Modulus (GPa) = 18.10590 26.73773 22.42181
#
# Velocity S-wave (km/s) = 2.84138 3.45287 3.16194
# Velocity P-wave (km/s) = 5.18483 6.46342 5.85911
#
# Compressibility (1/GPa) = 0.02766479
#
# Stress axis : x y z
#
# Youngs Moduli (GPa) = 31.93706 93.81891 69.34867
#
# Poissons Ratio (x) = 0.46132 0.48882
# Poissons Ratio (y) = 0.15704 0.16622
# Poissons Ratio (z) = 0.22512 0.22487
#
# Static dielectric constant tensor:
#      x y z
#    x 1.859620 0.000000 -0.003840 
#    y 0.000000 1.799940 0.000000 
#    z -0.003840 0.000000 1.923140 
# 
# From -- ./inp_files/20543.got.cif
#   From: 2010.05.17/outbox.cif.g08.bks.cpg/sg5_11_cif.got.tgz:20543.got - 2010.06.03 18:56:24.
