data_PCOD9123229
_publ_section_title
;
Structure prediction by ZEFSAII (Michael W. Deem and Ramdas Pophale) SiO2 
 PCOD9123229
Probable space group: C 2
;
_chemical_formula_sum "Si O2"
_cell_formula_units_Z 24
_cell_length_a 13.791347
_cell_length_b 13.369481
_cell_length_c 8.364898
_cell_angle_alpha 90.000000
_cell_angle_beta 43.783058
_cell_angle_gamma 90.000000
_cell_volume 1067.195219
_symmetry_space_group_name_H-M "C 2"
_symmetry_group_IT_number 5
_symmetry_cell_setting 'monoclinic'
loop_
_space_group_symop_operation_xyz
x,y,z
-x,y,-z
1/2+x,1/2+y,z
1/2-x,1/2+y,-z
loop_
_atom_site_type_symbol
_atom_site_label
_atom_site_fract_x
_atom_site_fract_y
_atom_site_fract_z
Si Si1 0.440396 0.081400 0.893533
Si Si2 0.164649 0.381977 0.856670
Si Si3 0.500000 0.978981 0.500000
Si Si4 0.591424 0.454986 0.643865
Si Si5 0.305166 0.473963 0.119936
Si Si6 0.777574 0.193934 0.996032
Si Si7 0.500000 0.619010 0.500000
O O1 0.523922 0.041403 0.637825
O O2 0.500000 0.097306 0.000000
O O3 0.369918 0.181994 0.916370
O O4 0.333621 0.988719 0.054052
O O5 0.286152 0.387567 0.578603
O O6 0.199746 0.287864 0.921732
O O7 0.000000 0.373816 0.000000
O O8 0.649847 0.926207 0.299051
O O9 0.644828 0.479264 0.757046
O O10 0.574094 0.548393 0.543809
O O11 0.428899 0.423402 0.867903
O O12 0.289952 0.589246 0.079895
O O13 0.892427 0.186340 0.722820
#
# Coordination Sequence:
#
# PCOD9123229 Si02
#       7
#     4   4   2   4   4   4   2
#     4  10  21  42  70 101 142 194 242 300 372 430
#     4  11  23  39  70 112 143 189 250 304 361 440
#     4  10  20  37  69 104 134 186 252 289 351 444
#     4  10  20  40  66 101 140 193 236 298 369 435
#     4   9  20  38  71 100 137 194 239 294 374 438
#     4  10  22  39  67 107 144 190 241 302 362 438
#     4  10  20  37  69  96 142 194 232 291 365 442
#
# _framework density 22.488855999999998
#
# number of rings (size 3 to 8) (size 9 to 14) (size 15 to 20)
#    0.000    2.000    1.667    2.000    4.667    0.667 
#    0.000    3.333    0.000    5.000   13.000    0.000 
#    0.000    0.000    0.000    0.000    0.000    0.000 
#
# Total GULP energy -66902.972235 kJ/mol
# GULP energy per Si atom -5575.247686 kJ/mol
# Density = 2.243767 g / cm^3
# Si number density = 22.488856 Si / 1000 Ang^3
#
#
#
# Elastic Constant Matrix: (Units=GPa)
#
#
# Indices 1 2 3 4 5 6 
#
# 1 127.5026 47.6913 70.3196 0.0000 -0.4821 0.0000
# 2 47.6913 95.4448 40.6027 0.0000 0.0579 0.0000
# 3 70.3196 40.6027 204.1020 0.0000 -4.0889 0.0000
# 4 0.0000 0.0000 0.0000 4.1097 0.0000 4.5407
# 5 -0.4821 0.0579 -4.0889 0.0000 50.0573 0.0000
# 6 0.0000 0.0000 0.0000 4.5407 0.0000 25.7592
#
#
#
# Elastic Compliance Matrix: (Units=1/GPa)
#
#
# Indices 1 2 3 4 5 6 
#
# 1 0.011078 -0.004272 -0.002970 0.000000 -0.000131 0.000000
# 2 -0.004272 0.013095 -0.001136 0.000000 -0.000149 0.000000
# 3 -0.002970 -0.001136 0.006158 0.000000 0.000476 0.000000
# 4 0.000000 0.000000 0.000000 0.302181 0.000000 -0.053267
# 5 -0.000131 -0.000149 0.000476 0.000000 0.020015 0.000000
# 6 0.000000 0.000000 0.000000 -0.053267 0.000000 0.048211
#
#
# Mechanical properties :
#
#
# Convention : Reuss Voigt Hill
#
# Bulk Modulus (GPa) = 73.65963 82.69742 78.17853
# Shear Modulus (GPa) = 11.84779 33.88095 22.86437
#
# Velocity S-wave (km/s) = 2.29777 3.88566 3.19203
# Velocity P-wave (km/s) = 6.31384 7.54875 6.95874
#
# Compressibility (1/GPa) = 0.01357596
#
# Stress axis : x y z
#
# Youngs Moduli (GPa) = 90.26745 76.36275 162.38592
#
# Poissons Ratio (x) = 0.32623 0.48221
# Poissons Ratio (y) = 0.38564 0.18450
# Poissons Ratio (z) = 0.26805 0.08676
#
# Static dielectric constant tensor:
#      x y z
#    x 1.911400 0.000000 -0.047690 
#    y 0.000000 1.777380 0.000000 
#    z -0.047690 0.000000 1.891580 
# 
# From -- ./inp_files/24522.got.cif
#   From: 2010.05.17/outbox.cif.g08.bks.cpg/sg5_13_cif.got.tgz:24522.got - 2010.06.03 18:56:24.
