data_PCOD9123765
_publ_section_title
;
Structure prediction by ZEFSAII (Michael W. Deem and Ramdas Pophale) SiO2 
 PCOD9123765
Probable space group: C 2
;
_chemical_formula_sum "Si O2"
_cell_formula_units_Z 32
_cell_length_a 20.265648
_cell_length_b 19.136686
_cell_length_c 11.906856
_cell_angle_alpha 90.000000
_cell_angle_beta 158.982324
_cell_angle_gamma 90.000000
_cell_volume 1656.160272
_symmetry_space_group_name_H-M "C 2"
_symmetry_group_IT_number 5
_symmetry_cell_setting 'monoclinic'
loop_
_space_group_symop_operation_xyz
x,y,z
-x,y,-z
1/2+x,1/2+y,z
1/2-x,1/2+y,-z
loop_
_atom_site_type_symbol
_atom_site_label
_atom_site_fract_x
_atom_site_fract_y
_atom_site_fract_z
Si Si1 0.329863 0.371400 0.303197
Si Si2 0.006431 0.330341 0.374557
Si Si3 0.490706 0.183195 0.856875
Si Si4 0.581885 0.675065 0.505107
Si Si5 0.781005 0.897052 0.647679
Si Si6 0.882445 0.024011 0.426079
Si Si7 0.206389 0.291494 0.323941
Si Si8 0.536401 0.024127 0.187327
O O1 0.500000 0.343837 0.500000
O O2 0.402872 0.441580 0.483618
O O3 0.247651 0.325829 0.270956
O O4 0.160299 0.374616 0.945307
O O5 0.999562 0.247757 0.327157
O O6 0.193460 0.361560 0.619322
O O7 0.000000 0.333110 0.500000
O O8 0.356404 0.232577 0.578240
O O9 0.408697 0.105066 0.728955
O O10 0.500000 0.208278 0.000000
O O11 0.698077 0.184860 0.140899
O O12 0.500000 0.671198 0.500000
O O13 0.561713 0.596148 0.420532
O O14 0.727105 0.848017 0.456696
O O15 0.680260 0.971213 0.468857
O O16 0.000000 0.903586 0.000000
O O17 0.000000 0.028686 0.500000
O O18 0.661051 0.026164 0.064506
O O19 0.000000 0.263597 0.000000
O O20 0.500000 0.001983 0.000000
#
# Coordination Sequence:
#
# PCOD9123765 Si02
#       8
#     4   4   4   4   4   4   4   4
#     4  11  24  38  63  93 124 159 203 261 314 365
#     4  11  23  40  60  93 126 159 208 256 311 366
#     4  10  22  38  63  89 121 161 206 250 311 372
#     4   9  19  34  61  85 113 156 202 245 292 370
#     4  12  24  39  63  89 124 160 207 255 315 366
#     4   9  17  36  59  86 112 153 202 245 293 365
#     4  12  23  40  62  89 124 160 207 260 307 366
#     4  10  20  40  62  89 120 159 205 254 307 374
#
# _framework density 19.321801000000001
#
# number of rings (size 3 to 8) (size 9 to 14) (size 15 to 20)
#    0.000    1.500    2.500    3.000    5.250    0.500 
#    0.000    0.000    2.750    2.250    0.000    0.000 
#    0.000    0.000    0.000    0.000    0.000    0.000 
#
# Total GULP energy -89106.664299 kJ/mol
# GULP energy per Si atom -5569.166519 kJ/mol
# Density = 1.927782 g / cm^3
# Si number density = 19.321801 Si / 1000 Ang^3
#
#
#
# Elastic Constant Matrix: (Units=GPa)
#
#
# Indices 1 2 3 4 5 6 
#
# 1 111.5777 24.4016 49.4558 0.0000 20.9917 0.0000
# 2 24.4016 55.0618 0.8150 0.0000 -7.1673 0.0000
# 3 49.4558 0.8150 57.1265 0.0000 19.5496 0.0000
# 4 0.0000 0.0000 0.0000 25.0068 0.0000 12.5520
# 5 20.9917 -7.1673 19.5496 0.0000 35.6079 0.0000
# 6 0.0000 0.0000 0.0000 12.5520 0.0000 38.8922
#
#
#
# Elastic Compliance Matrix: (Units=1/GPa)
#
#
# Indices 1 2 3 4 5 6 
#
# 1 0.017647 -0.008218 -0.013586 0.000000 -0.004598 0.000000
# 2 -0.008218 0.022648 0.004400 0.000000 0.006988 0.000000
# 3 -0.013586 0.004400 0.032213 0.000000 -0.008790 0.000000
# 4 0.000000 0.000000 0.000000 0.047720 0.000000 -0.015401
# 5 -0.004598 0.006988 -0.008790 0.000000 0.037027 0.000000
# 6 0.000000 0.000000 0.000000 -0.015401 0.000000 0.030683
#
#
# Mechanical properties :
#
#
# Convention : Reuss Voigt Hill
#
# Bulk Modulus (GPa) = 26.52627 41.45676 33.99151
# Shear Modulus (GPa) = 21.24850 29.84094 25.54472
#
# Velocity S-wave (km/s) = 3.31980 3.93417 3.63997
# Velocity P-wave (km/s) = 5.33415 6.49149 5.94107
#
# Compressibility (1/GPa) = 0.03769848
#
# Stress axis : x y z
#
# Youngs Moduli (GPa) = 56.66786 44.15451 31.04379
#
# Poissons Ratio (x) = 0.36286 0.42177
# Poissons Ratio (y) = 0.46569 -0.13659
# Poissons Ratio (z) = 0.76991 -0.19428
#
# Static dielectric constant tensor:
#      x y z
#    x 1.670120 0.000000 -0.003490 
#    y 0.000000 1.774460 0.000000 
#    z -0.003490 0.000000 1.659360 
# 
# From -- ./inp_files/46668.got.cif
#   From: 2010.05.17/outbox.cif.g08.bks.cpg/sg5_24_cif.got.tgz:46668.got - 2010.06.03 18:56:24.
