data_PCOD9123571
_publ_section_title
;
Structure prediction by ZEFSAII (Michael W. Deem and Ramdas Pophale) SiO2 
 PCOD9123571
Probable space group: C 2
;
_chemical_formula_sum "Si O2"
_cell_formula_units_Z 30
_cell_length_a 24.763945
_cell_length_b 13.678906
_cell_length_c 5.963739
_cell_angle_alpha 90.000000
_cell_angle_beta 131.652009
_cell_angle_gamma 90.000000
_cell_volume 1509.467789
_symmetry_space_group_name_H-M "C 2"
_symmetry_group_IT_number 5
_symmetry_cell_setting 'monoclinic'
loop_
_space_group_symop_operation_xyz
x,y,z
-x,y,-z
1/2+x,1/2+y,z
1/2-x,1/2+y,-z
loop_
_atom_site_type_symbol
_atom_site_label
_atom_site_fract_x
_atom_site_fract_y
_atom_site_fract_z
Si Si1 0.595040 0.217660 0.069983
Si Si2 0.535500 0.000183 0.853183
Si Si3 0.000000 0.852415 0.500000
Si Si4 0.259468 0.407124 0.901980
Si Si5 0.602109 0.387548 0.415196
Si Si6 0.765832 0.237734 0.521926
Si Si7 0.686758 0.526635 0.341468
Si Si8 0.820601 0.413030 0.921220
O O1 0.580845 0.283817 0.249376
O O2 0.681893 0.207220 0.309824
O O3 0.559309 0.112448 0.958217
O O4 0.562214 0.283471 0.778503
O O5 0.500000 0.997261 0.500000
O O6 0.500000 0.971814 0.000000
O O7 0.606125 0.934775 0.003056
O O8 0.960988 0.913784 0.586448
O O9 0.237538 0.318154 0.682978
O O10 0.298060 0.494196 0.871338
O O11 0.322812 0.375051 0.245188
O O12 0.187242 0.435903 0.837186
O O13 0.621841 0.465441 0.275396
O O14 0.813558 0.141688 0.621833
O O15 0.796230 0.301472 0.811874
O O16 0.759467 0.484215 0.654014
#
# Coordination Sequence:
#
# PCOD9123571 Si02
#       8
#     4   4   2   4   4   4   4   4
#     4  12  22  39  61  98 134 171 212 269 344 408
#     4  12  28  45  67 103 143 183 225 269 348 426
#     4  12  22  36  58  86 136 172 202 260 338 418
#     4  10  20  39  61  92 124 169 218 280 338 383
#     4  11  21  39  57  91 129 174 215 260 345 400
#     4  11  21  39  65  96 128 164 226 279 331 394
#     4  10  21  38  61  91 128 163 221 283 333 392
#     4  10  23  40  65  94 124 179 217 283 332 385
#
# _framework density 19.874552999999999
#
# number of rings (size 3 to 8) (size 9 to 14) (size 15 to 20)
#    0.000    1.067    7.333    1.200    3.733    2.133 
#    0.000    0.000    0.000    4.800    1.733    0.000 
#    0.000    0.000    0.000    0.000    0.000    0.000 
#
# Total GULP energy -83557.953920 kJ/mol
# GULP energy per Si atom -5570.530261 kJ/mol
# Density = 1.982932 g / cm^3
# Si number density = 19.874553 Si / 1000 Ang^3
#
#
#
# Elastic Constant Matrix: (Units=GPa)
#
#
# Indices 1 2 3 4 5 6 
#
# 1 162.2758 15.7145 19.8768 0.0000 -2.7976 0.0000
# 2 15.7145 64.3310 6.0591 0.0000 6.6610 0.0000
# 3 19.8768 6.0591 53.5555 0.0000 -4.4076 0.0000
# 4 0.0000 0.0000 0.0000 12.2397 0.0000 5.3192
# 5 -2.7976 6.6610 -4.4076 0.0000 23.3618 0.0000
# 6 0.0000 0.0000 0.0000 5.3192 0.0000 14.7316
#
#
#
# Elastic Compliance Matrix: (Units=1/GPa)
#
#
# Indices 1 2 3 4 5 6 
#
# 1 0.006591 -0.001484 -0.002213 0.000000 0.000795 0.000000
# 2 -0.001484 0.016616 -0.001761 0.000000 -0.005248 0.000000
# 3 -0.002213 -0.001761 0.020023 0.000000 0.004015 0.000000
# 4 0.000000 0.000000 0.000000 0.096908 0.000000 -0.034991
# 5 0.000795 -0.005248 0.004015 0.000000 0.045154 0.000000
# 6 0.000000 0.000000 0.000000 -0.034991 0.000000 0.080516
#
#
# Mechanical properties :
#
#
# Convention : Reuss Voigt Hill
#
# Bulk Modulus (GPa) = 30.94563 40.38478 35.66521
# Shear Modulus (GPa) = 17.39163 25.96741 21.67952
#
# Velocity S-wave (km/s) = 2.96137 3.61857 3.30634
# Velocity P-wave (km/s) = 5.22467 6.15001 5.70613
#
# Compressibility (1/GPa) = 0.03231474
#
# Stress axis : x y z
#
# Youngs Moduli (GPa) = 151.72686 60.18187 49.94216
#
# Poissons Ratio (x) = 0.08930 0.11051
# Poissons Ratio (y) = 0.22514 0.08795
# Poissons Ratio (z) = 0.33575 0.10598
#
# Static dielectric constant tensor:
#      x y z
#    x 1.804190 0.000000 -0.061510 
#    y 0.000000 1.671420 0.000000 
#    z -0.061510 0.000000 1.800680 
# 
# From -- ./inp_files/10458.got.cif
#   From: 2010.05.17/outbox.cif.g08.bks.cpg/sg5_6_cif.got.tgz:10458.got - 2010.06.03 18:56:24.
