data_PCOD9123045
_publ_section_title
;
Structure prediction by ZEFSAII (Michael W. Deem and Ramdas Pophale) SiO2 
 PCOD9123045
Probable space group: C 2
;
_chemical_formula_sum "Si O2"
_cell_formula_units_Z 20
_cell_length_a 21.371062
_cell_length_b 9.159677
_cell_length_c 6.869472
_cell_angle_alpha 90.000000
_cell_angle_beta 139.171238
_cell_angle_gamma 90.000000
_cell_volume 879.174104
_symmetry_space_group_name_H-M "C 2"
_symmetry_group_IT_number 5
_symmetry_cell_setting 'monoclinic'
loop_
_space_group_symop_operation_xyz
x,y,z
-x,y,-z
1/2+x,1/2+y,z
1/2-x,1/2+y,-z
loop_
_atom_site_type_symbol
_atom_site_label
_atom_site_fract_x
_atom_site_fract_y
_atom_site_fract_z
Si Si1 0.079457 0.354940 0.355676
Si Si2 0.634491 0.009454 0.841501
Si Si3 0.707144 0.049315 0.418140
Si Si4 0.594293 0.525985 0.347031
Si Si5 0.200668 0.774220 0.745247
O O1 0.061572 0.459340 0.498521
O O2 0.176643 0.414345 0.484365
O O3 0.083837 0.184823 0.419352
O O4 0.000000 0.365621 0.000000
O O5 0.685972 0.150653 0.869939
O O6 0.631929 0.050594 0.062806
O O7 0.703285 0.866975 0.005001
O O8 0.812371 0.035085 0.573724
O O9 0.701051 0.190537 0.539957
O O10 0.616728 0.394387 0.545623
O O11 0.500000 0.497630 0.000000
#
# Coordination Sequence:
#
# PCOD9123045 Si02
#       5
#     4   4   4   4   4
#     4  10  22  40  62  88 119 157 200 242 290 353
#     4  10  20  37  61  87 120 155 196 243 296 349
#     4  10  21  39  62  86 116 157 198 242 297 350
#     4  10  20  37  60  86 118 155 196 242 290 345
#     4  10  21  35  60  89 117 157 198 242 294 351
#
# _framework density 22.748622999999998
#
# number of rings (size 3 to 8) (size 9 to 14) (size 15 to 20)
#    0.000    2.000    0.000    4.800    0.000    7.200 
#    0.000    2.000    0.000   43.200    0.000    0.000 
#    0.000    0.000    0.000    0.000    0.000    0.000 
#
# Total GULP energy -55819.173348 kJ/mol
# GULP energy per Si atom -5581.917335 kJ/mol
# Density = 2.269685 g / cm^3
# Si number density = 22.748623 Si / 1000 Ang^3
#
#
#
# Elastic Constant Matrix: (Units=GPa)
#
#
# Indices 1 2 3 4 5 6 
#
# 1 77.8064 18.0619 5.3887 0.0000 -24.7767 0.0000
# 2 18.0619 122.7036 27.1331 0.0000 -24.0675 0.0000
# 3 5.3887 27.1331 123.8090 0.0000 -16.6624 0.0000
# 4 0.0000 0.0000 0.0000 47.0902 0.0000 -21.3693
# 5 -24.7767 -24.0675 -16.6624 0.0000 38.5187 0.0000
# 6 0.0000 0.0000 0.0000 -21.3693 0.0000 13.6018
#
#
#
# Elastic Compliance Matrix: (Units=1/GPa)
#
#
# Indices 1 2 3 4 5 6 
#
# 1 0.016255 -0.000517 0.000817 0.000000 0.010487 0.000000
# 2 -0.000517 0.009516 -0.001388 0.000000 0.005013 0.000000
# 3 0.000817 -0.001388 0.008813 0.000000 0.003470 0.000000
# 4 0.000000 0.000000 0.000000 0.073978 0.000000 0.116225
# 5 0.010487 0.005013 0.003470 0.000000 0.037340 0.000000
# 6 0.000000 0.000000 0.000000 0.116225 0.000000 0.256117
#
#
# Mechanical properties :
#
#
# Convention : Reuss Voigt Hill
#
# Bulk Modulus (GPa) = 30.85649 47.27626 39.06638
# Shear Modulus (GPa) = 12.04828 38.09115 25.06971
#
# Velocity S-wave (km/s) = 2.30386 4.09643 3.32329
# Velocity P-wave (km/s) = 4.54649 6.57278 5.65120
#
# Compressibility (1/GPa) = 0.03240809
#
# Stress axis : x y z
#
# Youngs Moduli (GPa) = 61.51923 105.08595 113.47281
#
# Poissons Ratio (x) = 0.05428 -0.09271
# Poissons Ratio (y) = 0.03178 0.15754
# Poissons Ratio (z) = -0.05026 0.14589
#
# Static dielectric constant tensor:
#      x y z
#    x 1.907010 0.000000 0.068800 
#    y 0.000000 1.826740 0.000000 
#    z 0.068800 0.000000 1.991850 
# 
# From -- ./inp_files/26253.got.cif
#   From: 2010.05.17/outbox.cif.g08.bks.cpg/sg5_14_cif.got.tgz:26253.got - 2010.06.03 18:56:24.
