data_PCOD9123092
_publ_section_title
;
Structure prediction by ZEFSAII (Michael W. Deem and Ramdas Pophale) SiO2 
 PCOD9123092
Probable space group: C 2
;
_chemical_formula_sum "Si O2"
_cell_formula_units_Z 26
_cell_length_a 24.718053
_cell_length_b 8.711283
_cell_length_c 5.275670
_cell_angle_alpha 90.000000
_cell_angle_beta 109.161113
_cell_angle_gamma 90.000000
_cell_volume 1073.054177
_symmetry_space_group_name_H-M "C 2"
_symmetry_group_IT_number 5
_symmetry_cell_setting 'monoclinic'
loop_
_space_group_symop_operation_xyz
x,y,z
-x,y,-z
1/2+x,1/2+y,z
1/2-x,1/2+y,-z
loop_
_atom_site_type_symbol
_atom_site_label
_atom_site_fract_x
_atom_site_fract_y
_atom_site_fract_z
Si Si1 0.500000 0.007671 0.500000
Si Si2 0.860604 0.093785 0.362483
Si Si3 0.308763 0.097935 0.326981
Si Si4 0.119081 0.409092 0.879592
Si Si5 0.074926 0.628739 0.220205
Si Si6 0.616090 0.434975 0.097998
Si Si7 0.768153 0.901620 0.458076
O O1 0.516742 0.106194 0.282915
O O2 0.558645 0.918527 0.633732
O O3 0.857985 0.251383 0.203057
O O4 0.890332 0.064207 0.685641
O O5 0.797028 0.028940 0.320963
O O6 0.890703 0.989741 0.197541
O O7 0.371724 0.156230 0.505381
O O8 0.266260 0.240621 0.305877
O O9 0.327209 0.023280 0.091103
O O10 0.286372 0.963937 0.478545
O O11 0.094435 0.472553 0.107104
O O12 0.077678 0.786124 0.072700
O O13 0.682434 0.385042 0.248425
#
# Coordination Sequence:
#
# PCOD9123092 Si02
#       7
#     2   4   4   4   4   4   4
#     4  10  24  42  66  90 124 156 226 264 332 386
#     4  10  22  40  66  92 136 166 212 263 325 383
#     4  10  20  37  61  95 128 169 217 258 321 377
#     4  11  23  39  68  91 125 172 214 272 328 389
#     4  10  22  41  67  91 122 171 218 271 321 392
#     4   9  22  41  65  92 133 168 211 262 319 383
#     4   9  20  36  61  95 132 171 213 262 311 390
#
# _framework density 24.229904999999999
#
# number of rings (size 3 to 8) (size 9 to 14) (size 15 to 20)
#    0.923    1.231    0.000    2.308    6.462    1.231 
#    0.000    0.769    0.000    0.000    0.000    0.000 
#    0.000    0.000    0.000    0.000    0.000    0.000 
#
# Total GULP energy -72368.989317 kJ/mol
# GULP energy per Si atom -5566.845332 kJ/mol
# Density = 2.417476 g / cm^3
# Si number density = 24.229905 Si / 1000 Ang^3
#
#
#
# Elastic Constant Matrix: (Units=GPa)
#
#
# Indices 1 2 3 4 5 6 
#
# 1 83.1723 54.8733 24.5251 0.0000 -34.7635 0.0000
# 2 54.8733 74.5103 6.9259 0.0000 -21.4119 0.0000
# 3 24.5251 6.9259 84.9491 0.0000 -34.9701 0.0000
# 4 0.0000 0.0000 0.0000 13.8093 0.0000 3.9466
# 5 -34.7635 -21.4119 -34.9701 0.0000 52.8951 0.0000
# 6 0.0000 0.0000 0.0000 3.9466 0.0000 16.0715
#
#
#
# Elastic Compliance Matrix: (Units=1/GPa)
#
#
# Indices 1 2 3 4 5 6 
#
# 1 0.029030 -0.018303 -0.002864 0.000000 0.009776 0.000000
# 2 -0.018303 0.026926 0.003605 0.000000 0.001254 0.000000
# 3 -0.002864 0.003605 0.016666 0.000000 0.010595 0.000000
# 4 0.000000 0.000000 0.000000 0.077881 0.000000 -0.019125
# 5 0.009776 0.001254 0.010595 0.000000 0.032842 0.000000
# 6 0.000000 0.000000 0.000000 -0.019125 0.000000 0.066918
#
#
# Mechanical properties :
#
#
# Convention : Reuss Voigt Hill
#
# Bulk Modulus (GPa) = 26.66929 46.14227 36.40578
# Shear Modulus (GPa) = 16.78487 26.97569 21.88028
#
# Velocity S-wave (km/s) = 2.63484 3.34027 3.00830
# Velocity P-wave (km/s) = 4.50413 5.82764 5.20810
#
# Compressibility (1/GPa) = 0.03749632
#
# Stress axis : x y z
#
# Youngs Moduli (GPa) = 34.44754 37.13919 60.00073
#
# Poissons Ratio (x) = 0.67978 0.17186
# Poissons Ratio (y) = 0.63051 -0.21631
# Poissons Ratio (z) = 0.09867 -0.13389
#
# Static dielectric constant tensor:
#      x y z
#    x 1.899880 0.000000 0.061760 
#    y 0.000000 2.071330 0.000000 
#    z 0.061760 0.000000 2.121780 
# 
# From -- ./inp_files/10787.got.cif
#   From: 2010.05.17/outbox.cif.g08.bks.cpg/sg5_6_cif.got.tgz:10787.got - 2010.06.03 18:56:24.
