data_PCOD9123235
_publ_section_title
;
Structure prediction by ZEFSAII (Michael W. Deem and Ramdas Pophale) SiO2 
 PCOD9123235
Probable space group: C 2
;
_chemical_formula_sum "Si O2"
_cell_formula_units_Z 26
_cell_length_a 12.930720
_cell_length_b 6.835150
_cell_length_c 12.044613
_cell_angle_alpha 90.000000
_cell_angle_beta 90.371271
_cell_angle_gamma 90.000000
_cell_volume 1064.521629
_symmetry_space_group_name_H-M "C 2"
_symmetry_group_IT_number 5
_symmetry_cell_setting 'monoclinic'
loop_
_space_group_symop_operation_xyz
x,y,z
-x,y,-z
1/2+x,1/2+y,z
1/2-x,1/2+y,-z
loop_
_atom_site_type_symbol
_atom_site_label
_atom_site_fract_x
_atom_site_fract_y
_atom_site_fract_z
Si Si1 0.500000 0.058080 0.500000
Si Si2 0.864853 0.203022 0.555895
Si Si3 0.097189 0.661644 0.285014
Si Si4 0.081261 0.223366 0.205883
Si Si5 0.310086 0.412629 0.895857
Si Si6 0.631387 0.586247 0.875973
Si Si7 0.199596 0.967595 0.640123
O O1 0.515403 0.172082 0.384776
O O2 0.406011 0.901058 0.498024
O O3 0.930715 0.156126 0.665838
O O4 0.863351 0.035364 0.466732
O O5 0.755318 0.266005 0.607985
O O6 0.085107 0.455557 0.221353
O O7 0.209260 0.634348 0.344984
O O8 0.106144 0.817603 0.188006
O O9 0.185262 0.132773 0.153640
O O10 0.984168 0.168690 0.130322
O O11 0.210778 0.272058 0.885887
O O12 0.345521 0.442591 0.021876
O O13 0.647870 0.477115 0.758993
#
# Coordination Sequence:
#
# PCOD9123235 Si02
#       7
#     2   4   4   4   4   4   4
#     4   8  16  38  64  94 138 184 216 292 358 414
#     4  10  20  37  70  97 143 174 229 285 365 425
#     4   9  21  43  68 103 150 178 240 294 353 436
#     4  10  23  48  68 105 142 183 236 304 346 440
#     4  11  26  46  72 103 139 193 247 287 359 429
#     4  11  25  47  71  99 146 186 244 295 356 419
#     4   9  20  37  63 101 131 183 222 285 355 426
#
# _framework density 24.424113999999999
#
# number of rings (size 3 to 8) (size 9 to 14) (size 15 to 20)
#    0.000    2.462    0.000    2.308   10.769    0.000 
#   11.077    3.077    0.000    0.000    0.000    0.000 
#    0.000    0.000    0.000    0.000    0.000    0.000 
#
# Total GULP energy -72601.839114 kJ/mol
# GULP energy per Si atom -5584.756855 kJ/mol
# Density = 2.436852 g / cm^3
# Si number density = 24.424114 Si / 1000 Ang^3
#
#
#
# Elastic Constant Matrix: (Units=GPa)
#
#
# Indices 1 2 3 4 5 6 
#
# 1 58.4537 34.8260 33.1861 0.0000 1.0683 0.0000
# 2 34.8260 82.7016 60.7516 0.0000 -2.8721 0.0000
# 3 33.1861 60.7516 151.6124 0.0000 -7.8162 0.0000
# 4 0.0000 0.0000 0.0000 63.9607 0.0000 -3.6358
# 5 1.0683 -2.8721 -7.8162 0.0000 39.9552 0.0000
# 6 0.0000 0.0000 0.0000 -3.6358 0.0000 29.3701
#
#
#
# Elastic Compliance Matrix: (Units=1/GPa)
#
#
# Indices 1 2 3 4 5 6 
#
# 1 0.023220 -0.008559 -0.001734 0.000000 -0.001575 0.000000
# 2 -0.008559 0.020291 -0.006233 0.000000 0.000468 0.000000
# 3 -0.001734 -0.006233 0.009549 0.000000 0.001466 0.000000
# 4 0.000000 0.000000 0.000000 0.015745 0.000000 0.001949
# 5 -0.001575 0.000468 0.001466 0.000000 0.025391 0.000000
# 6 0.000000 0.000000 0.000000 0.001949 0.000000 0.034290
#
#
# Mechanical properties :
#
#
# Convention : Reuss Voigt Hill
#
# Bulk Modulus (GPa) = 49.98187 61.14388 55.56287
# Shear Modulus (GPa) = 29.72536 37.59081 33.65808
#
# Velocity S-wave (km/s) = 3.49241 3.92737 3.71626
# Velocity P-wave (km/s) = 6.06392 6.75679 6.41971
#
# Compressibility (1/GPa) = 0.02000726
#
# Stress axis : x y z
#
# Youngs Moduli (GPa) = 43.06593 49.28342 104.72782
#
# Poissons Ratio (x) = 0.42181 0.18163
# Poissons Ratio (y) = 0.36860 0.65277
# Poissons Ratio (z) = 0.07469 0.30718
#
# Static dielectric constant tensor:
#      x y z
#    x 2.008880 0.000000 -0.036030 
#    y 0.000000 2.011560 0.000000 
#    z -0.036030 0.000000 1.924960 
# 
# From -- ./inp_files/41562.got.cif
#   From: 2010.05.17/outbox.cif.g08.bks.cpg/sg5_21_cif.got.tgz:41562.got - 2010.06.03 18:56:24.
