data_PCOD9123623
_publ_section_title
;
Structure prediction by ZEFSAII (Michael W. Deem and Ramdas Pophale) SiO2 
 PCOD9123623
Probable space group: C 2
;
_chemical_formula_sum "Si O2"
_cell_formula_units_Z 30
_cell_length_a 11.882696
_cell_length_b 15.077084
_cell_length_c 14.496968
_cell_angle_alpha 90.000000
_cell_angle_beta 149.614976
_cell_angle_gamma 90.000000
_cell_volume 1313.697807
_symmetry_space_group_name_H-M "C 2"
_symmetry_group_IT_number 5
_symmetry_cell_setting 'monoclinic'
loop_
_space_group_symop_operation_xyz
x,y,z
-x,y,-z
1/2+x,1/2+y,z
1/2-x,1/2+y,-z
loop_
_atom_site_type_symbol
_atom_site_label
_atom_site_fract_x
_atom_site_fract_y
_atom_site_fract_z
Si Si1 0.000000 0.054050 0.000000
Si Si2 0.756452 0.705225 0.286975
Si Si3 0.455531 0.237689 0.250800
Si Si4 0.929148 0.023942 0.555910
Si Si5 0.953477 0.239537 0.573745
Si Si6 0.428536 0.035136 0.205087
Si Si7 0.624129 0.802126 0.874461
Si Si8 0.674567 0.969128 0.042008
O O1 0.109932 0.120035 0.153687
O O2 0.204982 0.002397 0.098640
O O3 0.803810 0.766776 0.230079
O O4 0.603864 0.757904 0.250132
O O5 0.000000 0.684685 0.500000
O O6 0.704023 0.271223 0.421071
O O7 0.462066 0.132636 0.272157
O O8 0.330035 0.253491 0.067488
O O9 0.957845 0.131375 0.587821
O O10 0.673869 0.994591 0.389401
O O11 0.000000 0.003836 0.500000
O O12 0.087825 0.977816 0.742505
O O13 0.000000 0.257930 0.500000
O O14 0.116161 0.288436 0.759903
O O15 0.382359 0.052053 0.063755
O O16 0.643418 0.896407 0.939515
O O17 0.500000 0.959178 0.000000
#
# Coordination Sequence:
#
# PCOD9123623 Si02
#       8
#     2   4   4   4   4   4   4   4
#     4  10  22  38  64  96 134 170 226 276 336 396
#     4  11  19  35  63  99 128 163 217 276 338 394
#     4  10  20  39  64  92 125 173 218 275 325 386
#     4  10  21  42  65  98 136 174 228 276 332 398
#     4  10  23  41  67  96 126 173 228 276 325 389
#     4  10  21  40  63  93 134 175 228 273 328 401
#     4  12  23  40  62  99 135 170 214 275 343 397
#     4  12  25  40  64  99 137 179 218 274 344 408
#
# _framework density 22.836300999999999
#
# number of rings (size 3 to 8) (size 9 to 14) (size 15 to 20)
#    0.000    1.333    5.333    1.600    0.000    1.600 
#    2.400    1.333    0.000    3.200    0.000    0.000 
#    0.000    0.000    0.000    0.000    0.000    0.000 
#
# Total GULP energy -83733.567609 kJ/mol
# GULP energy per Si atom -5582.237841 kJ/mol
# Density = 2.278432 g / cm^3
# Si number density = 22.836301 Si / 1000 Ang^3
#
#
#
# Elastic Constant Matrix: (Units=GPa)
#
#
# Indices 1 2 3 4 5 6 
#
# 1 134.5178 30.9774 67.1448 0.0052 -14.9471 0.0046
# 2 30.9774 39.0764 25.5499 -0.0030 -7.0059 0.0016
# 3 67.1448 25.5499 207.9637 -0.0021 -11.3892 0.0074
# 4 0.0052 -0.0030 -0.0021 18.1332 -0.0012 -6.6421
# 5 -14.9471 -7.0059 -11.3892 -0.0012 48.7569 0.0049
# 6 0.0046 0.0016 0.0074 -6.6421 0.0049 14.6650
#
#
#
# Elastic Compliance Matrix: (Units=1/GPa)
#
#
# Indices 1 2 3 4 5 6 
#
# 1 0.010288 -0.006244 -0.002462 -0.000006 0.001681 -0.000004
# 2 -0.006244 0.032131 -0.001807 0.000008 0.002281 0.000002
# 3 -0.002462 -0.001807 0.005845 0.000000 0.000351 -0.000002
# 4 -0.000006 0.000008 0.000000 0.066116 -0.000002 0.029946
# 5 0.001681 0.002281 0.000351 -0.000002 0.021435 -0.000009
# 6 -0.000004 0.000002 -0.000002 0.029946 -0.000009 0.081753
#
#
# Mechanical properties :
#
#
# Convention : Reuss Voigt Hill
#
# Bulk Modulus (GPa) = 36.71428 69.87802 53.29615
# Shear Modulus (GPa) = 20.18790 33.50341 26.84565
#
# Velocity S-wave (km/s) = 2.97648 3.83445 3.43238
# Velocity P-wave (km/s) = 5.28438 7.09013 6.25278
#
# Compressibility (1/GPa) = 0.02723736
#
# Stress axis : x y z
#
# Youngs Moduli (GPa) = 97.20241 31.12261 171.09437
#
# Poissons Ratio (x) = 0.19433 0.42130
# Poissons Ratio (y) = 0.60694 0.30910
# Poissons Ratio (z) = 0.23935 0.05623
#
# Static dielectric constant tensor:
#      x y z
#    x 1.903930 -0.000050 -0.019090 
#    y -0.000050 2.120480 0.000050 
#    z -0.019090 0.000050 1.848880 
# 
# From -- ./inp_files/53433.got.cif
#   From: 2010.05.17/outbox.cif.g08.bks.cpg/sg5_27_cif.got.tgz:53433.got - 2010.06.03 18:56:24.
