data_PCOD9123626
_publ_section_title
;
Structure prediction by ZEFSAII (Michael W. Deem and Ramdas Pophale) SiO2 
 PCOD9123626
Probable space group: C 2
;
_chemical_formula_sum "Si O2"
_cell_formula_units_Z 24
_cell_length_a 11.285493
_cell_length_b 8.884463
_cell_length_c 22.111720
_cell_angle_alpha 90.000000
_cell_angle_beta 150.060098
_cell_angle_gamma 90.000000
_cell_volume 1106.507299
_symmetry_space_group_name_H-M "C 2"
_symmetry_group_IT_number 5
_symmetry_cell_setting 'monoclinic'
loop_
_space_group_symop_operation_xyz
x,y,z
-x,y,-z
1/2+x,1/2+y,z
1/2-x,1/2+y,-z
loop_
_atom_site_type_symbol
_atom_site_label
_atom_site_fract_x
_atom_site_fract_y
_atom_site_fract_z
Si Si1 0.234513 0.315190 0.704281
Si Si2 0.000000 0.514168 0.500000
Si Si3 0.410904 0.890689 0.878766
Si Si4 0.434432 0.740762 0.686944
Si Si5 0.034931 0.507521 0.228209
Si Si6 0.500000 0.612317 0.000000
Si Si7 0.643097 0.522536 0.865781
O O1 0.062791 0.406942 0.583863
O O2 0.361463 0.174980 0.728339
O O3 0.436909 0.437356 0.810302
O O4 0.102445 0.249704 0.703741
O O5 0.220774 0.624434 0.584527
O O6 0.381057 0.923100 0.795818
O O7 0.189119 0.930100 0.823426
O O8 0.491471 0.726266 0.937959
O O9 0.617142 0.007149 0.990855
O O10 0.573732 0.682597 0.808544
O O11 0.364624 0.910769 0.671992
O O12 0.747318 0.522400 0.105883
#
# Coordination Sequence:
#
# PCOD9123626 Si02
#       7
#     4   2   4   4   4   2   4
#     4  11  23  47  69  94 127 176 219 281 339 393
#     4  10  28  50  66  90 132 168 224 296 354 364
#     4  10  20  39  64  93 148 175 205 254 315 397
#     4  11  26  43  67 102 124 171 227 285 325 394
#     4  12  25  37  70 103 133 175 225 254 323 401
#     4  10  24  38  56 104 142 180 202 256 314 394
#     4   9  20  41  64  95 140 179 204 256 333 379
#
# _framework density 21.689869999999999
#
# number of rings (size 3 to 8) (size 9 to 14) (size 15 to 20)
#    0.000    1.667    5.000    0.000    4.667    6.000 
#    0.000    0.000    0.000    0.000    0.000    0.000 
#    0.000    0.000    0.000    0.000    0.000    0.000 
#
# Total GULP energy -67018.487517 kJ/mol
# GULP energy per Si atom -5584.873960 kJ/mol
# Density = 2.164050 g / cm^3
# Si number density = 21.689870 Si / 1000 Ang^3
#
#
#
# Elastic Constant Matrix: (Units=GPa)
#
#
# Indices 1 2 3 4 5 6 
#
# 1 79.8112 39.6126 24.5259 0.0001 21.3102 0.0000
# 2 39.6126 105.7411 25.1755 -0.0001 4.8369 0.0000
# 3 24.5259 25.1755 47.9668 0.0004 10.6623 0.0000
# 4 0.0001 -0.0001 0.0004 32.0136 0.0001 5.1569
# 5 21.3102 4.8369 10.6623 0.0001 14.4151 0.0000
# 6 0.0000 0.0000 0.0000 5.1569 0.0000 32.0130
#
#
#
# Elastic Compliance Matrix: (Units=1/GPa)
#
#
# Indices 1 2 3 4 5 6 
#
# 1 0.026267 -0.007879 -0.001498 0.000000 -0.035079 0.000000
# 2 -0.007879 0.013176 -0.005378 0.000000 0.011204 0.000000
# 3 -0.001498 -0.005378 0.028175 0.000000 -0.016822 0.000000
# 4 0.000000 0.000000 0.000000 0.032069 0.000000 -0.005166
# 5 -0.035079 0.011204 -0.016822 0.000000 0.129913 0.000000
# 6 0.000000 0.000000 0.000000 -0.005166 0.000000 0.032070
#
#
# Mechanical properties :
#
#
# Convention : Reuss Voigt Hill
#
# Bulk Modulus (GPa) = 26.23962 45.79413 36.01688
# Shear Modulus (GPa) = 16.45378 25.30202 20.87790
#
# Velocity S-wave (km/s) = 2.75724 3.41916 3.10589
# Velocity P-wave (km/s) = 4.71810 6.06189 5.43171
#
# Compressibility (1/GPa) = 0.03811031
#
# Stress axis : x y z
#
# Youngs Moduli (GPa) = 38.07099 75.89297 35.49225
#
# Poissons Ratio (x) = 0.59795 0.05315
# Poissons Ratio (y) = 0.29995 0.19086
# Poissons Ratio (z) = 0.05701 0.40812
#
# Static dielectric constant tensor:
#      x y z
#    x 1.791000 0.000000 0.014270 
#    y 0.000000 1.809530 0.000000 
#    z 0.014270 0.000000 1.797510 
# 
# From -- ./inp_files/38453.got.cif
#   From: 2010.05.17/outbox.cif.g08.bks.cpg/sg5_20_cif.got.tgz:38453.got - 2010.06.03 18:56:24.
