data_PCOD9123527
_publ_section_title
;
Structure prediction by ZEFSAII (Michael W. Deem and Ramdas Pophale) SiO2 
 PCOD9123527
Probable space group: C 2
;
_chemical_formula_sum "Si O2"
_cell_formula_units_Z 28
_cell_length_a 16.385369
_cell_length_b 9.644834
_cell_length_c 9.364405
_cell_angle_alpha 90.000000
_cell_angle_beta 57.880973
_cell_angle_gamma 90.000000
_cell_volume 1253.391047
_symmetry_space_group_name_H-M "C 2"
_symmetry_group_IT_number 5
_symmetry_cell_setting 'monoclinic'
loop_
_space_group_symop_operation_xyz
x,y,z
-x,y,-z
1/2+x,1/2+y,z
1/2-x,1/2+y,-z
loop_
_atom_site_type_symbol
_atom_site_label
_atom_site_fract_x
_atom_site_fract_y
_atom_site_fract_z
Si Si1 0.000000 0.868940 0.000000
Si Si2 0.968487 0.338862 0.188232
Si Si3 0.625955 0.127919 0.784867
Si Si4 0.370839 0.436162 0.871911
Si Si5 0.000000 0.994700 0.500000
Si Si6 0.339080 0.698310 0.519972
Si Si7 0.298143 0.135687 0.970434
Si Si8 0.595028 0.923926 0.322736
O O1 0.936953 0.767348 0.159975
O O2 0.071081 0.951449 0.035293
O O3 0.931324 0.497467 0.220339
O O4 0.880626 0.248539 0.330391
O O5 0.052959 0.336104 0.227798
O O6 0.000000 0.301001 0.000000
O O7 0.730551 0.144125 0.617428
O O8 0.644298 0.104846 0.936943
O O9 0.445607 0.413302 0.674620
O O10 0.303863 0.300004 0.943890
O O11 0.306112 0.570296 0.908652
O O12 0.082928 0.088770 0.494573
O O13 0.344138 0.826988 0.627087
O O14 0.346528 0.051864 0.795893
O O15 0.500000 0.967225 0.500000
#
# Coordination Sequence:
#
# PCOD9123527 Si02
#       8
#     2   4   4   4   2   4   4   4
#     4  10  22  46  70 102 142 184 230 298 356 408
#     4  11  20  40  70 101 128 187 236 287 339 419
#     4  11  21  42  71 101 143 184 228 297 354 414
#     4  11  26  44  77  96 148 182 238 292 355 422
#     4  12  24  48  66 104 142 190 228 300 356 414
#     4  11  24  43  71  98 152 186 232 293 364 413
#     4  11  22  43  72 106 137 193 239 283 357 433
#     4  10  20  38  69 100 138 184 234 286 349 418
#
# _framework density 22.339396000000001
#
# number of rings (size 3 to 8) (size 9 to 14) (size 15 to 20)
#    0.000    1.143    5.714    2.571    1.000    1.143 
#    1.286    0.000    0.000    0.857    0.000    0.000 
#    0.000    0.000    0.000    0.000    0.000    0.000 
#
# Total GULP energy -78372.132474 kJ/mol
# GULP energy per Si atom -5598.009462 kJ/mol
# Density = 2.228855 g / cm^3
# Si number density = 22.339396 Si / 1000 Ang^3
#
#
#
# Elastic Constant Matrix: (Units=GPa)
#
#
# Indices 1 2 3 4 5 6 
#
# 1 76.7885 29.9067 27.6568 0.0000 -13.1324 0.0000
# 2 29.9067 51.7989 25.7646 0.0000 -1.9695 0.0000
# 3 27.6568 25.7646 148.8649 0.0000 -5.3822 0.0000
# 4 0.0000 0.0000 0.0000 36.4257 0.0000 -9.8727
# 5 -13.1324 -1.9695 -5.3822 0.0000 36.5513 0.0000
# 6 0.0000 0.0000 0.0000 -9.8727 0.0000 34.1907
#
#
#
# Elastic Compliance Matrix: (Units=1/GPa)
#
#
# Indices 1 2 3 4 5 6 
#
# 1 0.018305 -0.009585 -0.001531 0.000000 0.005835 0.000000
# 2 -0.009585 0.026157 -0.002835 0.000000 -0.002452 0.000000
# 3 -0.001531 -0.002835 0.007507 0.000000 0.000403 0.000000
# 4 0.000000 0.000000 0.000000 0.029784 0.000000 0.008600
# 5 0.005835 -0.002452 0.000403 0.000000 0.029382 0.000000
# 6 0.000000 0.000000 0.000000 0.008600 0.000000 0.031731
#
#
# Mechanical properties :
#
#
# Convention : Reuss Voigt Hill
#
# Bulk Modulus (GPa) = 41.55141 49.34538 45.44839
# Shear Modulus (GPa) = 27.96560 34.37516 31.17038
#
# Velocity S-wave (km/s) = 3.54199 3.92697 3.73944
# Velocity P-wave (km/s) = 5.94710 6.53440 6.24765
#
# Compressibility (1/GPa) = 0.02406657
#
# Stress axis : x y z
#
# Youngs Moduli (GPa) = 54.62905 38.23136 133.20718
#
# Poissons Ratio (x) = 0.36647 0.20392
# Poissons Ratio (y) = 0.52365 0.37762
# Poissons Ratio (z) = 0.08363 0.10838
#
# Static dielectric constant tensor:
#      x y z
#    x 1.803550 0.000000 -0.010690 
#    y 0.000000 1.814930 0.000000 
#    z -0.010690 0.000000 1.835130 
# 
# From -- ./inp_files/23553.got.cif
#   From: 2010.05.17/outbox.cif.g08.bks.cpg/sg5_12_cif.got.tgz:23553.got - 2010.06.03 18:56:24.
