data_PCOD9123860
_publ_section_title
;
Structure prediction by ZEFSAII (Michael W. Deem and Ramdas Pophale) SiO2 
 PCOD9123860
Probable space group: C 2
;
_chemical_formula_sum "Si O2"
_cell_formula_units_Z 30
_cell_length_a 8.709412
_cell_length_b 11.743389
_cell_length_c 28.183002
_cell_angle_alpha 90.000000
_cell_angle_beta 30.547928
_cell_angle_gamma 90.000000
_cell_volume 1465.057128
_symmetry_space_group_name_H-M "C 2"
_symmetry_group_IT_number 5
_symmetry_cell_setting 'monoclinic'
loop_
_space_group_symop_operation_xyz
x,y,z
-x,y,-z
1/2+x,1/2+y,z
1/2-x,1/2+y,-z
loop_
_atom_site_type_symbol
_atom_site_label
_atom_site_fract_x
_atom_site_fract_y
_atom_site_fract_z
Si Si1 0.500000 0.790140 0.500000
Si Si2 0.214471 0.034693 0.234313
Si Si3 0.750578 0.669384 0.025456
Si Si4 0.808344 0.006347 0.430529
Si Si5 0.737167 0.003011 0.168510
Si Si6 0.881304 0.762686 0.159543
Si Si7 0.829989 0.827204 0.819563
Si Si8 0.326820 0.153908 0.336630
O O1 0.742053 0.712484 0.408490
O O2 0.690392 0.883362 0.480483
O O3 0.534435 0.037767 0.177201
O O4 0.153823 0.165676 0.238121
O O5 0.985235 0.986336 0.334316
O O6 0.204548 0.953318 0.191751
O O7 0.573663 0.549645 0.072051
O O8 0.485646 0.761670 0.104327
O O9 0.000000 0.672685 0.000000
O O10 0.904275 0.699210 0.934841
O O11 0.500000 0.070939 0.500000
O O12 0.029717 0.082120 0.402238
O O13 0.595004 0.064035 0.253176
O O14 0.722212 0.868475 0.177075
O O15 0.071599 0.815592 0.152257
O O16 0.082587 0.757205 0.722641
#
# Coordination Sequence:
#
# PCOD9123860 Si02
#       8
#     2   4   4   4   4   4   4   4
#     4  10  20  40  66  92 132 174 210 270 330 380
#     4  11  22  45  68  92 134 179 212 277 341 387
#     4  11  25  43  65  99 133 177 224 282 329 394
#     4   9  19  40  63  95 128 166 217 266 327 394
#     4  10  25  46  65  95 139 170 228 273 331 411
#     4  12  25  43  68  98 130 174 226 272 337 391
#     4  11  22  43  71  91 137 172 222 276 333 402
#     4  10  20  45  64  96 133 171 216 271 329 396
#
# _framework density 20.477018999999999
#
# number of rings (size 3 to 8) (size 9 to 14) (size 15 to 20)
#    0.400    1.067    5.333    1.200    3.733    0.000 
#    9.600    0.000    0.000    0.000    0.000    0.000 
#    0.000    0.000    0.000    0.000    0.000    0.000 
#
# Total GULP energy -83630.252231 kJ/mol
# GULP energy per Si atom -5575.350149 kJ/mol
# Density = 2.043041 g / cm^3
# Si number density = 20.477019 Si / 1000 Ang^3
#
#
#
# Elastic Constant Matrix: (Units=GPa)
#
#
# Indices 1 2 3 4 5 6 
#
# 1 46.8710 -0.2970 9.5103 0.0199 7.3935 0.0053
# 2 -0.2970 101.3269 -4.3399 0.0006 7.7264 0.0056
# 3 9.5103 -4.3399 48.5638 0.0111 2.2611 0.0175
# 4 0.0199 0.0006 0.0111 11.6862 -0.0214 5.0120
# 5 7.3935 7.7264 2.2611 -0.0214 19.9155 -0.0017
# 6 0.0053 0.0056 0.0175 5.0120 -0.0017 26.3564
#
#
#
# Elastic Compliance Matrix: (Units=1/GPa)
#
#
# Indices 1 2 3 4 5 6 
#
# 1 0.023519 0.000536 -0.004164 -0.000055 -0.008467 0.000008
# 2 0.000536 0.010241 0.001010 -0.000010 -0.004287 -0.000001
# 3 -0.004164 0.001010 0.021557 -0.000011 -0.001294 -0.000012
# 4 -0.000055 -0.000010 -0.000011 0.093170 0.000124 -0.017717
# 5 -0.008467 -0.004287 -0.001294 0.000124 0.055166 -0.000017
# 6 0.000008 -0.000001 -0.000012 -0.017717 -0.000017 0.041311
#
#
# Mechanical properties :
#
#
# Convention : Reuss Voigt Hill
#
# Bulk Modulus (GPa) = 19.96739 22.94539 21.45639
# Shear Modulus (GPa) = 18.73415 24.38416 21.55915
#
# Velocity S-wave (km/s) = 3.02799 3.45455 3.24828
# Velocity P-wave (km/s) = 4.69012 5.20976 4.95676
#
# Compressibility (1/GPa) = 0.05008165
#
# Stress axis : x y z
#
# Youngs Moduli (GPa) = 42.51898 97.64919 46.38795
#
# Poissons Ratio (x) = -0.05236 0.19314
# Poissons Ratio (y) = -0.02280 -0.04684
# Poissons Ratio (z) = 0.17703 -0.09860
#
# Static dielectric constant tensor:
#      x y z
#    x 1.738580 -0.000020 0.019860 
#    y -0.000020 1.748950 -0.000050 
#    z 0.019860 -0.000050 1.751210 
# 
# From -- ./inp_files/71555.got.cif
#   From: 2010.05.17/outbox.cif.g08.bks.cpg/sg5_36_cif.got.tgz:71555.got - 2010.06.03 18:56:24.
