data_PCOD9123865
_publ_section_title
;
Structure prediction by ZEFSAII (Michael W. Deem and Ramdas Pophale) SiO2 
 PCOD9123865
Probable space group: C 2
;
_chemical_formula_sum "Si O2"
_cell_formula_units_Z 28
_cell_length_a 15.500746
_cell_length_b 17.178638
_cell_length_c 9.530698
_cell_angle_alpha 90.000000
_cell_angle_beta 35.224657
_cell_angle_gamma 90.000000
_cell_volume 1463.791358
_symmetry_space_group_name_H-M "C 2"
_symmetry_group_IT_number 5
_symmetry_cell_setting 'monoclinic'
loop_
_space_group_symop_operation_xyz
x,y,z
-x,y,-z
1/2+x,1/2+y,z
1/2-x,1/2+y,-z
loop_
_atom_site_type_symbol
_atom_site_label
_atom_site_fract_x
_atom_site_fract_y
_atom_site_fract_z
Si Si1 0.885979 0.614810 0.780479
Si Si2 0.500000 0.869162 0.000000
Si Si3 0.568762 0.673158 0.264639
Si Si4 0.171522 0.271781 0.551237
Si Si5 0.181779 0.453536 0.002826
Si Si6 0.295603 0.832460 0.785513
Si Si7 0.517302 0.274078 0.731245
Si Si8 0.000000 0.889754 0.500000
O O1 0.000000 0.598776 0.500000
O O2 0.953588 0.692360 0.760202
O O3 0.706624 0.632796 0.999523
O O4 0.875836 0.540019 0.893334
O O5 0.609877 0.813572 0.769124
O O6 0.590161 0.917762 0.995550
O O7 0.500000 0.635857 0.500000
O O8 0.428950 0.696981 0.353544
O O9 0.639826 0.754865 0.225366
O O10 0.154141 0.329473 0.441460
O O11 0.344091 0.256545 0.353047
O O12 0.358033 0.441220 0.734336
O O13 0.162877 0.404565 0.172392
O O14 0.117902 0.820112 0.017019
O O15 0.553965 0.330605 0.551010
#
# Coordination Sequence:
#
# PCOD9123865 Si02
#       8
#     4   2   4   4   4   4   4   2
#     4  11  25  40  64  90 135 177 215 258 339 394
#     4  12  24  36  64  96 126 164 218 282 314 378
#     4   9  20  40  64  91 123 168 215 265 313 392
#     4  11  21  36  68  97 122 153 224 278 314 375
#     4  11  24  42  63  93 130 171 214 272 330 389
#     4   9  20  39  66  88 123 163 213 262 327 383
#     4  10  20  40  66  95 122 167 220 270 320 387
#     4  10  20  42  68  90 124 172 226 260 320 392
#
# _framework density 19.128409999999999
#
# number of rings (size 3 to 8) (size 9 to 14) (size 15 to 20)
#    0.000    1.714    3.571    0.429    5.000    0.000 
#    7.714    0.000    0.000    0.000    0.000    0.000 
#    0.000    0.000    0.000    0.000    0.000    0.000 
#
# Total GULP energy -78022.837524 kJ/mol
# GULP energy per Si atom -5573.059823 kJ/mol
# Density = 1.908487 g / cm^3
# Si number density = 19.128410 Si / 1000 Ang^3
#
#
#
# Elastic Constant Matrix: (Units=GPa)
#
#
# Indices 1 2 3 4 5 6 
#
# 1 104.8693 9.4095 45.3738 -0.0001 -19.8608 0.0000
# 2 9.4095 54.1131 32.2008 -0.0001 7.4040 0.0000
# 3 45.3738 32.2008 118.0645 -0.0002 -9.1570 0.0001
# 4 -0.0001 -0.0001 -0.0002 22.6447 0.0002 0.2093
# 5 -19.8608 7.4040 -9.1570 0.0002 35.5953 0.0000
# 6 0.0000 0.0000 0.0001 0.2093 0.0000 16.7038
#
#
#
# Elastic Compliance Matrix: (Units=1/GPa)
#
#
# Indices 1 2 3 4 5 6 
#
# 1 0.012545 -0.000493 -0.004220 0.000000 0.006017 0.000000
# 2 -0.000493 0.023538 -0.006766 0.000000 -0.006912 0.000000
# 3 -0.004220 -0.006766 0.012105 0.000000 0.002167 0.000000
# 4 0.000000 0.000000 0.000000 0.044166 0.000000 -0.000553
# 5 0.006017 -0.006912 0.002167 0.000000 0.033446 0.000000
# 6 0.000000 0.000000 0.000000 -0.000553 0.000000 0.059874
#
#
# Mechanical properties :
#
#
# Convention : Reuss Voigt Hill
#
# Bulk Modulus (GPa) = 39.63709 50.11279 44.87494
# Shear Modulus (GPa) = 23.03701 27.65960 25.34831
#
# Velocity S-wave (km/s) = 3.47412 3.80675 3.64423
# Velocity P-wave (km/s) = 6.07118 6.75106 6.42012
#
# Compressibility (1/GPa) = 0.02522889
#
# Stress axis : x y z
#
# Youngs Moduli (GPa) = 79.71063 42.48527 82.60908
#
# Poissons Ratio (x) = 0.02097 0.34862
# Poissons Ratio (y) = 0.03934 0.55894
# Poissons Ratio (z) = 0.33639 0.28746
#
# Static dielectric constant tensor:
#      x y z
#    x 1.664300 0.000000 -0.022880 
#    y 0.000000 1.642500 0.000000 
#    z -0.022880 0.000000 1.750650 
# 
# From -- ./inp_files/20577.got.cif
#   From: 2010.05.17/outbox.cif.g08.bks.cpg/sg5_11_cif.got.tgz:20577.got - 2010.06.03 18:56:24.
