data_PCOD9123239
_publ_section_title
;
Structure prediction by ZEFSAII (Michael W. Deem and Ramdas Pophale) SiO2 
 PCOD9123239
Probable space group: C 2
;
_chemical_formula_sum "Si O2"
_cell_formula_units_Z 22
_cell_length_a 20.932122
_cell_length_b 5.573547
_cell_length_c 7.454328
_cell_angle_alpha 90.000000
_cell_angle_beta 105.795713
_cell_angle_gamma 90.000000
_cell_volume 836.827784
_symmetry_space_group_name_H-M "C 2"
_symmetry_group_IT_number 5
_symmetry_cell_setting 'monoclinic'
loop_
_space_group_symop_operation_xyz
x,y,z
-x,y,-z
1/2+x,1/2+y,z
1/2-x,1/2+y,-z
loop_
_atom_site_type_symbol
_atom_site_label
_atom_site_fract_x
_atom_site_fract_y
_atom_site_fract_z
Si Si1 0.628665 0.509780 0.737216
Si Si2 0.579540 0.532412 0.091482
Si Si3 0.757475 0.721633 0.267327
Si Si4 0.000000 0.765025 0.500000
Si Si5 0.556054 0.027076 0.195959
Si Si6 0.740080 0.216299 0.302221
O O1 0.608401 0.589986 0.918424
O O2 0.673423 0.266735 0.778990
O O3 0.562215 0.435525 0.586750
O O4 0.679668 0.685424 0.673583
O O5 0.500000 0.505132 0.000000
O O6 0.598627 0.268008 0.182215
O O7 0.589369 0.764197 0.225423
O O8 0.724086 0.470582 0.203747
O O9 0.771561 0.720668 0.493132
O O10 0.716993 0.965022 0.201366
O O11 0.018881 0.596780 0.348982
O O12 0.500000 0.004622 0.000000
#
# Coordination Sequence:
#
# PCOD9123239 Si02
#       6
#     4   4   4   2   4   4
#     4  10  21  33  62  89 123 165 201 250 319 362
#     4  10  20  38  54  78 124 157 206 238 288 377
#     4   8  16  31  51  81 116 148 204 255 286 351
#     4  12  22  42  60  96 128 172 196 260 314 380
#     4  10  22  40  54  80 124 164 206 238 289 376
#     4   8  16  31  51  81 116 148 204 255 286 351
#
# _framework density 26.289757999999999
#
# number of rings (size 3 to 8) (size 9 to 14) (size 15 to 20)
#    1.091    1.455    3.636    0.000    2.545    0.727 
#    3.273    0.000    0.000    0.000    0.000    5.091 
#    0.000    0.000    0.000    0.000    0.000    0.000 
#
# Total GULP energy -61499.233952 kJ/mol
# GULP energy per Si atom -5590.839450 kJ/mol
# Density = 2.622992 g / cm^3
# Si number density = 26.289758 Si / 1000 Ang^3
#
#
#
# Elastic Constant Matrix: (Units=GPa)
#
#
# Indices 1 2 3 4 5 6 
#
# 1 81.8594 25.2254 33.4610 0.0000 -7.7463 0.0000
# 2 25.2254 217.2991 8.0727 0.0000 8.5118 0.0000
# 3 33.4610 8.0727 133.3231 0.0000 -25.5932 0.0000
# 4 0.0000 0.0000 0.0000 4.1225 0.0000 5.6365
# 5 -7.7463 8.5118 -25.5932 0.0000 44.7909 0.0000
# 6 0.0000 0.0000 0.0000 5.6365 0.0000 5.4862
#
#
#
# Elastic Compliance Matrix: (Units=1/GPa)
#
#
# Indices 1 2 3 4 5 6 
#
# 1 0.014118 -0.001551 -0.003284 0.000000 0.000860 0.000000
# 2 -0.001551 0.004837 -0.000148 0.000000 -0.001272 0.000000
# 3 -0.003284 -0.000148 0.009244 0.000000 0.004742 0.000000
# 4 0.000000 0.000000 0.000000 -0.599331 0.000000 0.615756
# 5 0.000860 -0.001272 0.004742 0.000000 0.025426 0.000000
# 6 0.000000 0.000000 0.000000 0.615756 0.000000 -0.450354
#
#
# Mechanical properties :
#
#
# Convention : Reuss Voigt Hill
#
# Bulk Modulus (GPa) = 54.84382 62.88886 58.86634
# Shear Modulus (GPa) = -5.10195 35.26141 15.07973
#
# Velocity S-wave (km/s) = -1.39459 3.66630 2.39759
# Velocity P-wave (km/s) = 4.27942 6.47269 5.48676
#
# Compressibility (1/GPa) = 0.01823359
#
# Stress axis : x y z
#
# Youngs Moduli (GPa) = 70.83300 206.72847 108.17666
#
# Poissons Ratio (x) = 0.32054 0.35529
# Poissons Ratio (y) = 0.10983 0.01600
# Poissons Ratio (z) = 0.23264 0.03058
#
# Static dielectric constant tensor:
#      x y z
#    x 2.542530 0.000000 -0.032800 
#    y 0.000000 2.136760 0.000000 
#    z -0.032800 0.000000 1.955190 
# 
# From -- ./inp_files/31997.got.cif
#   From: 2010.05.17/outbox.cif.g08.bks.cpg/sg5_16_cif.got.tgz:31997.got - 2010.06.03 18:56:24.
