data_PCOD9123347
_publ_section_title
;
Structure prediction by ZEFSAII (Michael W. Deem and Ramdas Pophale) SiO2 
 PCOD9123347
Probable space group: C 2
;
_chemical_formula_sum "Si O2"
_cell_formula_units_Z 32
_cell_length_a 7.914327
_cell_length_b 14.014250
_cell_length_c 13.329609
_cell_angle_alpha 90.000000
_cell_angle_beta 84.074502
_cell_angle_gamma 90.000000
_cell_volume 1470.532384
_symmetry_space_group_name_H-M "C 2"
_symmetry_group_IT_number 5
_symmetry_cell_setting 'monoclinic'
loop_
_space_group_symop_operation_xyz
x,y,z
-x,y,-z
1/2+x,1/2+y,z
1/2-x,1/2+y,-z
loop_
_atom_site_type_symbol
_atom_site_label
_atom_site_fract_x
_atom_site_fract_y
_atom_site_fract_z
Si Si1 0.472222 0.701650 0.893407
Si Si2 0.561664 0.757104 0.323637
Si Si3 0.815442 0.085108 0.569819
Si Si4 0.585493 0.395747 0.386624
Si Si5 0.412874 0.203831 0.110446
Si Si6 0.211935 0.693300 0.395313
Si Si7 0.680240 0.388784 0.752848
Si Si8 0.209996 0.582688 0.189829
O O1 0.491128 0.763091 0.790297
O O2 0.277805 0.665981 0.899027
O O3 0.621967 0.624419 0.874574
O O4 0.500000 0.750150 0.000000
O O5 0.658564 0.657877 0.340106
O O6 0.392498 0.748324 0.397650
O O7 0.687551 0.843234 0.334539
O O8 0.689223 0.136264 0.499814
O O9 0.000000 0.079624 0.500000
O O10 0.772600 0.978176 0.607764
O O11 0.500000 0.391755 0.500000
O O12 0.605216 0.283361 0.364979
O O13 0.469524 0.434037 0.303435
O O14 0.386610 0.300070 0.177276
O O15 0.539964 0.128917 0.154877
O O16 0.500000 0.229609 0.000000
O O17 0.221079 0.618609 0.304492
O O18 0.773983 0.469186 0.810999
#
# Coordination Sequence:
#
# PCOD9123347 Si02
#       8
#     4   4   4   4   4   4   4   4
#     4  10  20  38  68  87 124 177 210 268 340 386
#     4   9  20  38  57  87 123 164 212 273 324 387
#     4   9  18  35  59  86 123 166 211 264 328 395
#     4  11  20  35  61  94 124 174 223 260 334 405
#     4  11  23  44  67  96 136 172 225 284 334 403
#     4  10  20  38  62  88 126 173 210 269 334 394
#     4  11  23  41  63  97 128 171 223 276 333 407
#     4  11  22  43  65  96 136 173 220 275 340 399
#
# _framework density 21.760826999999999
#
# number of rings (size 3 to 8) (size 9 to 14) (size 15 to 20)
#    0.000    1.750    2.500    3.750    0.000    0.500 
#    6.750    2.500    0.000    0.000    0.000    0.000 
#    0.000    0.000    0.000    0.000    0.000    0.000 
#
# Total GULP energy -89156.249277 kJ/mol
# GULP energy per Si atom -5572.265580 kJ/mol
# Density = 2.171130 g / cm^3
# Si number density = 21.760827 Si / 1000 Ang^3
#
#
#
# Elastic Constant Matrix: (Units=GPa)
#
#
# Indices 1 2 3 4 5 6 
#
# 1 96.7159 26.4542 8.2236 0.0000 18.1031 0.0000
# 2 26.4542 110.7121 19.1436 0.0000 13.5486 0.0000
# 3 8.2236 19.1436 81.8358 0.0000 26.1124 0.0000
# 4 0.0000 0.0000 0.0000 7.7942 0.0000 11.8780
# 5 18.1031 13.5486 26.1124 0.0000 23.4087 0.0000
# 6 0.0000 0.0000 0.0000 11.8780 0.0000 23.5605
#
#
#
# Elastic Compliance Matrix: (Units=1/GPa)
#
#
# Indices 1 2 3 4 5 6 
#
# 1 0.012951 -0.002133 0.003104 0.000000 -0.012244 0.000000
# 2 -0.002133 0.010101 -0.001257 0.000000 -0.002795 0.000000
# 3 0.003104 -0.001257 0.019774 0.000000 -0.023731 0.000000
# 4 0.000000 0.000000 0.000000 0.553746 0.000000 -0.279171
# 5 -0.012244 -0.002795 -0.023731 0.000000 0.080278 0.000000
# 6 0.000000 0.000000 0.000000 -0.279171 0.000000 0.183188
#
#
# Mechanical properties :
#
#
# Convention : Reuss Voigt Hill
#
# Bulk Modulus (GPa) = 23.66564 44.10073 33.88318
# Shear Modulus (GPa) = 5.71628 26.64884 16.18256
#
# Velocity S-wave (km/s) = 1.62252 3.50326 2.72996
# Velocity P-wave (km/s) = 3.79592 6.05590 5.05386
#
# Compressibility (1/GPa) = 0.04225536
#
# Stress axis : x y z
#
# Youngs Moduli (GPa) = 77.21520 98.99555 50.57185
#
# Poissons Ratio (x) = 0.21115 -0.15699
# Poissons Ratio (y) = 0.16470 0.06356
# Poissons Ratio (z) = -0.23971 0.12442
#
# Static dielectric constant tensor:
#      x y z
#    x 1.887170 0.000000 -0.016630 
#    y 0.000000 1.850590 0.000000 
#    z -0.016630 0.000000 1.823450 
# 
# From -- ./inp_files/50754.got.cif
#   From: 2010.05.17/outbox.cif.g08.bks.cpg/sg5_26_cif.got.tgz:50754.got - 2010.06.03 18:56:24.
