data_PCOD9123619
_publ_section_title
;
Structure prediction by ZEFSAII (Michael W. Deem and Ramdas Pophale) SiO2 
 PCOD9123619
Probable space group: C 2
;
_chemical_formula_sum "Si O2"
_cell_formula_units_Z 28
_cell_length_a 15.970470
_cell_length_b 7.271186
_cell_length_c 21.927958
_cell_angle_alpha 90.000000
_cell_angle_beta 23.993197
_cell_angle_gamma 90.000000
_cell_volume 1035.424900
_symmetry_space_group_name_H-M "C 2"
_symmetry_group_IT_number 5
_symmetry_cell_setting 'monoclinic'
loop_
_space_group_symop_operation_xyz
x,y,z
-x,y,-z
1/2+x,1/2+y,z
1/2-x,1/2+y,-z
loop_
_atom_site_type_symbol
_atom_site_label
_atom_site_fract_x
_atom_site_fract_y
_atom_site_fract_z
Si Si1 0.964483 0.889410 0.593047
Si Si2 0.768657 0.490267 0.491400
Si Si3 0.442110 0.060804 0.793572
Si Si4 0.440952 0.024017 0.148228
Si Si5 0.885779 0.121689 0.825893
Si Si6 0.582911 0.946151 0.378528
Si Si7 0.498506 0.593228 0.886056
O O1 0.783854 0.033338 0.733422
O O2 0.944173 0.668426 0.605464
O O3 0.000000 0.945116 0.500000
O O4 0.166048 0.911708 0.498957
O O5 0.574728 0.551116 0.660148
O O6 0.922946 0.630532 0.352545
O O7 0.930553 0.381985 0.426753
O O8 0.526978 0.107121 0.804783
O O9 0.410744 0.840519 0.812350
O O10 0.207780 0.121215 0.938357
O O11 0.426219 0.802999 0.169522
O O12 0.645672 0.073732 0.974347
O O13 0.926311 0.038617 0.866432
O O14 0.500000 0.885488 0.500000
O O15 0.831289 0.945123 0.206068
#
# Coordination Sequence:
#
# PCOD9123619 Si02
#       7
#     4   4   4   4   4   4   4
#     4  10  20  39  64  89 122 167 215 259 309 378
#     4  12  22  34  62  96 124 158 210 262 314 368
#     4  10  21  38  61  92 128 163 205 263 320 372
#     4   9  19  39  66  89 118 167 216 256 307 379
#     4  10  21  38  61  92 128 163 205 263 320 372
#     4  10  20  39  64  89 122 167 215 259 309 378
#     4   9  19  39  66  89 118 167 216 256 307 379
#
# _framework density 27.042037000000001
#
# number of rings (size 3 to 8) (size 9 to 14) (size 15 to 20)
#    0.000    2.000    2.857    0.857    0.000    3.429 
#    0.000    7.143    0.000    4.286    0.000    0.000 
#    0.000    0.000    0.000    0.000    0.000    0.000 
#
# Total GULP energy -78200.188050 kJ/mol
# GULP energy per Si atom -5585.727718 kJ/mol
# Density = 2.698049 g / cm^3
# Si number density = 27.042037 Si / 1000 Ang^3
#
#
#
# Elastic Constant Matrix: (Units=GPa)
#
#
# Indices 1 2 3 4 5 6 
#
# 1 134.2129 6.8667 64.7590 -0.0011 -21.5562 0.0001
# 2 6.8667 75.2041 -10.0303 -0.0038 -9.1962 0.0011
# 3 64.7590 -10.0303 175.6814 -0.0149 -8.5156 0.0023
# 4 -0.0011 -0.0038 -0.0149 36.5408 0.0012 -6.6468
# 5 -21.5562 -9.1962 -8.5156 0.0012 47.7567 0.0001
# 6 0.0001 0.0011 0.0023 -6.6468 0.0001 26.2535
#
#
#
# Elastic Compliance Matrix: (Units=1/GPa)
#
#
# Indices 1 2 3 4 5 6 
#
# 1 0.009752 -0.000912 -0.003472 -0.000001 0.003607 0.000000
# 2 -0.000912 0.013850 0.001247 0.000002 0.002477 0.000000
# 3 -0.003472 0.001247 0.007040 0.000003 -0.000072 0.000000
# 4 -0.000001 0.000002 0.000003 0.028688 0.000000 0.007263
# 5 0.003607 0.002477 -0.000072 0.000000 0.023032 0.000000
# 6 0.000000 0.000000 0.000000 0.007263 0.000000 0.039929
#
#
# Mechanical properties :
#
#
# Convention : Reuss Voigt Hill
#
# Bulk Modulus (GPa) = 41.03921 56.47659 48.75790
# Shear Modulus (GPa) = 36.57984 43.67708 40.12846
#
# Velocity S-wave (km/s) = 3.68190 4.02326 3.85636
# Velocity P-wave (km/s) = 5.76925 6.52014 6.15615
#
# Compressibility (1/GPa) = 0.02436694
#
# Stress axis : x y z
#
# Youngs Moduli (GPa) = 102.54129 72.20346 142.05140
#
# Poissons Ratio (x) = 0.06588 0.49321
# Poissons Ratio (y) = 0.09356 -0.17716
# Poissons Ratio (z) = 0.35603 -0.09005
#
# Static dielectric constant tensor:
#      x y z
#    x 2.115540 0.000000 -0.081820 
#    y 0.000000 2.213690 0.000000 
#    z -0.081820 0.000000 2.231900 
# 
# From -- ./inp_files/69214.got.cif
#   From: 2010.05.17/outbox.cif.g08.bks.cpg/sg5_35_cif.got.tgz:69214.got - 2010.06.03 18:56:24.
