data_PCOD9123134
_publ_section_title
;
Structure prediction by ZEFSAII (Michael W. Deem and Ramdas Pophale) SiO2 
 PCOD9123134
Probable space group: C 2
;
_chemical_formula_sum "Si O2"
_cell_formula_units_Z 30
_cell_length_a 9.038185
_cell_length_b 17.621223
_cell_length_c 10.882993
_cell_angle_alpha 90.000000
_cell_angle_beta 94.115818
_cell_angle_gamma 90.000000
_cell_volume 1728.797533
_symmetry_space_group_name_H-M "C 2"
_symmetry_group_IT_number 5
_symmetry_cell_setting 'monoclinic'
loop_
_space_group_symop_operation_xyz
x,y,z
-x,y,-z
1/2+x,1/2+y,z
1/2-x,1/2+y,-z
loop_
_atom_site_type_symbol
_atom_site_label
_atom_site_fract_x
_atom_site_fract_y
_atom_site_fract_z
Si Si1 0.081413 0.335730 0.706629
Si Si2 0.345109 0.661755 0.260899
Si Si3 0.676451 0.162979 0.511176
Si Si4 0.385290 0.068799 0.905595
Si Si5 0.000000 0.937263 0.500000
Si Si6 0.725582 0.832888 0.444394
Si Si7 0.152126 0.483969 0.856839
Si Si8 0.128101 0.055818 0.314861
O O1 0.116682 0.250437 0.754201
O O2 0.165975 0.345100 0.580587
O O3 0.131548 0.398960 0.807045
O O4 0.909073 0.345319 0.658091
O O5 0.253213 0.655652 0.382603
O O6 0.241774 0.620625 0.154986
O O7 0.496907 0.614813 0.279992
O O8 0.500000 0.157543 0.500000
O O9 0.723829 0.245809 0.562046
O O10 0.747097 0.099339 0.600558
O O11 0.497381 0.028767 0.816346
O O12 0.500000 0.115097 0.000000
O O13 0.332814 0.002181 0.996626
O O14 0.867290 0.886246 0.438921
O O15 0.937518 0.990027 0.603834
O O16 0.291453 0.521136 0.798060
#
# Coordination Sequence:
#
# PCOD9123134 Si02
#       8
#     4   4   4   4   2   4   4   4
#     4  10  20  37  63  83 121 156 195 237 304 352
#     4  11  21  38  62  85 122 157 192 253 288 348
#     4  11  21  35  57  88 128 159 190 230 299 366
#     4   8  22  43  62  79 115 154 208 245 287 343
#     4  12  22  32  52  90 132 150 190 228 294 358
#     4  10  21  35  53  91 123 160 184 236 296 367
#     4   9  21  41  60  83 114 154 201 246 284 352
#     4  12  22  36  58  97 118 153 197 241 297 356
#
# _framework density 17.353102
#
# number of rings (size 3 to 8) (size 9 to 14) (size 15 to 20)
#    0.800    0.800    4.667    0.800    1.867    1.600 
#    0.000    2.667    2.933    0.000    0.000    0.000 
#    0.000    0.000    0.000    0.000    0.000    0.000 
#
# Total GULP energy -83570.206580 kJ/mol
# GULP energy per Si atom -5571.347105 kJ/mol
# Density = 1.731361 g / cm^3
# Si number density = 17.353102 Si / 1000 Ang^3
#
#
#
# Elastic Constant Matrix: (Units=GPa)
#
#
# Indices 1 2 3 4 5 6 
#
# 1 113.4974 42.4652 17.9802 0.0000 -9.7199 0.0000
# 2 42.4652 91.5386 21.6644 0.0000 -3.0592 0.0000
# 3 17.9802 21.6644 31.6831 0.0000 -5.5058 0.0000
# 4 0.0000 0.0000 0.0000 73.6702 0.0000 -26.6285
# 5 -9.7199 -3.0592 -5.5058 0.0000 27.4871 0.0000
# 6 0.0000 0.0000 0.0000 -26.6285 0.0000 53.1058
#
#
#
# Elastic Compliance Matrix: (Units=1/GPa)
#
#
# Indices 1 2 3 4 5 6 
#
# 1 0.011155 -0.004413 -0.002810 0.000000 0.002890 0.000000
# 2 -0.004413 0.014783 -0.007863 0.000000 -0.001490 0.000000
# 3 -0.002810 -0.007863 0.039587 0.000000 0.006061 0.000000
# 4 0.000000 0.000000 0.000000 0.016579 0.000000 0.008313
# 5 0.002890 -0.001490 0.006061 0.000000 0.038451 0.000000
# 6 0.000000 0.000000 0.000000 0.008313 0.000000 0.022999
#
#
# Mechanical properties :
#
#
# Convention : Reuss Voigt Hill
#
# Bulk Modulus (GPa) = 28.28688 44.54874 36.41781
# Shear Modulus (GPa) = 26.95286 41.15991 34.05639
#
# Velocity S-wave (km/s) = 3.94534 4.87550 4.43488
# Velocity P-wave (km/s) = 6.09019 7.57771 6.87431
#
# Compressibility (1/GPa) = 0.03535208
#
# Stress axis : x y z
#
# Youngs Moduli (GPa) = 89.64871 67.64711 25.26071
#
# Poissons Ratio (x) = 0.29852 0.07100
# Poissons Ratio (y) = 0.39561 0.19862
# Poissons Ratio (z) = 0.25196 0.53189
#
# Static dielectric constant tensor:
#      x y z
#    x 1.591450 0.000000 0.000370 
#    y 0.000000 1.578260 0.000000 
#    z 0.000370 0.000000 1.596770 
# 
# From -- ./inp_files/36872.got.cif
#   From: 2010.05.17/outbox.cif.g08.bks.cpg/sg5_19_cif.got.tgz:36872.got - 2010.06.03 18:56:24.
