data_PCOD9123346
_publ_section_title
;
Structure prediction by ZEFSAII (Michael W. Deem and Ramdas Pophale) SiO2 
 PCOD9123346
Probable space group: C 2
;
_chemical_formula_sum "Si O2"
_cell_formula_units_Z 30
_cell_length_a 23.860354
_cell_length_b 13.874207
_cell_length_c 14.726001
_cell_angle_alpha 90.000000
_cell_angle_beta 18.911322
_cell_angle_gamma 90.000000
_cell_volume 1579.991524
_symmetry_space_group_name_H-M "C 2"
_symmetry_group_IT_number 5
_symmetry_cell_setting 'monoclinic'
loop_
_space_group_symop_operation_xyz
x,y,z
-x,y,-z
1/2+x,1/2+y,z
1/2-x,1/2+y,-z
loop_
_atom_site_type_symbol
_atom_site_label
_atom_site_fract_x
_atom_site_fract_y
_atom_site_fract_z
Si Si1 0.728616 0.209520 0.503661
Si Si2 0.000000 0.662053 0.000000
Si Si3 0.982428 0.312244 0.247594
Si Si4 0.428672 0.029705 0.343070
Si Si5 0.048430 0.196339 0.324951
Si Si6 0.234616 0.044259 0.300476
Si Si7 0.313949 0.326057 0.612069
Si Si8 0.049428 0.657995 0.319028
O O1 0.550971 0.222817 0.833620
O O2 0.874870 0.237747 0.350959
O O3 0.708325 0.101200 0.495462
O O4 0.744418 0.279476 0.393574
O O5 0.162850 0.594552 0.773899
O O6 0.890149 0.416525 0.394684
O O7 0.012754 0.274687 0.302085
O O8 0.164682 0.319070 0.916513
O O9 0.462110 0.074932 0.390974
O O10 0.612319 0.038457 0.008775
O O11 0.000000 0.230783 0.500000
O O12 0.918385 0.109391 0.501944
O O13 0.245894 0.161722 0.012371
O O14 0.161217 0.939760 0.437568
O O15 0.471993 0.260448 0.403583
O O16 0.000000 0.645749 0.500000
#
# Coordination Sequence:
#
# PCOD9123346 Si02
#       8
#     4   2   4   4   4   4   4   4
#     4  10  21  37  64  89 128 155 201 260 318 371
#     4  10  20  38  62  88 126 158 200 264 316 366
#     4  11  22  39  65  93 121 164 212 255 314 379
#     4   9  22  40  63  91 124 164 208 259 311 371
#     4  12  24  40  65  91 124 168 215 259 306 368
#     4  10  21  39  64  92 119 163 215 251 306 377
#     4  10  23  38  65  93 120 163 211 255 312 379
#     4  11  22  42  62  88 131 166 204 266 313 359
#
# _framework density 18.987442999999999
#
# number of rings (size 3 to 8) (size 9 to 14) (size 15 to 20)
#    0.000    1.600    4.000    0.400    5.600    2.133 
#    0.000    1.333    5.867    0.000    0.000    0.000 
#    0.000    0.000    0.000    0.000    0.000    0.000 
#
# Total GULP energy -83653.255309 kJ/mol
# GULP energy per Si atom -5576.883687 kJ/mol
# Density = 1.894423 g / cm^3
# Si number density = 18.987443 Si / 1000 Ang^3
#
#
#
# Elastic Constant Matrix: (Units=GPa)
#
#
# Indices 1 2 3 4 5 6 
#
# 1 139.5920 37.6936 34.7202 -0.0003 12.2655 0.0002
# 2 37.6936 91.5861 29.8345 0.0000 -4.4286 0.0004
# 3 34.7202 29.8345 53.4305 -0.0003 -2.6310 0.0006
# 4 -0.0003 0.0000 -0.0003 22.8698 0.0005 4.7843
# 5 12.2655 -4.4286 -2.6310 0.0005 40.7955 -0.0002
# 6 0.0002 0.0004 0.0006 4.7843 -0.0002 11.1430
#
#
#
# Elastic Compliance Matrix: (Units=1/GPa)
#
#
# Indices 1 2 3 4 5 6 
#
# 1 0.009326 -0.002412 -0.004880 0.000000 -0.003380 0.000000
# 2 -0.002412 0.014009 -0.006164 0.000000 0.001848 0.000000
# 3 -0.004880 -0.006164 0.025449 0.000001 0.002439 -0.000001
# 4 0.000000 0.000000 0.000001 0.048041 -0.000001 -0.020626
# 5 -0.003380 0.001848 0.002439 -0.000001 0.025887 0.000001
# 6 0.000000 0.000000 -0.000001 -0.020626 0.000001 0.098599
#
#
# Mechanical properties :
#
#
# Convention : Reuss Voigt Hill
#
# Bulk Modulus (GPa) = 45.72029 54.34500 50.03264
# Shear Modulus (GPa) = 19.56864 27.11901 23.34382
#
# Velocity S-wave (km/s) = 3.21379 3.78333 3.51013
# Velocity P-wave (km/s) = 6.15652 6.91148 6.54489
#
# Compressibility (1/GPa) = 0.02187213
#
# Stress axis : x y z
#
# Youngs Moduli (GPa) = 107.22950 71.38459 39.29486
#
# Poissons Ratio (x) = 0.17218 0.19175
# Poissons Ratio (y) = 0.25864 0.24220
# Poissons Ratio (z) = 0.52325 0.43999
#
# Static dielectric constant tensor:
#      x y z
#    x 1.683510 0.000000 0.012680 
#    y 0.000000 1.658200 0.000000 
#    z 0.012680 0.000000 1.671710 
# 
# From -- ./inp_files/57808.got.cif
#   From: 2010.05.17/outbox.cif.g08.bks.cpg/sg5_29_cif.got.tgz:57808.got - 2010.06.03 18:56:24.
