data_PCOD9123121
_publ_section_title
;
Structure prediction by ZEFSAII (Michael W. Deem and Ramdas Pophale) SiO2 
 PCOD9123121
Probable space group: C 2
;
_chemical_formula_sum "Si O2"
_cell_formula_units_Z 24
_cell_length_a 8.344515
_cell_length_b 27.799472
_cell_length_c 8.306079
_cell_angle_alpha 90.000000
_cell_angle_beta 33.794743
_cell_angle_gamma 90.000000
_cell_volume 1071.716241
_symmetry_space_group_name_H-M "C 2"
_symmetry_group_IT_number 5
_symmetry_cell_setting 'monoclinic'
loop_
_space_group_symop_operation_xyz
x,y,z
-x,y,-z
1/2+x,1/2+y,z
1/2-x,1/2+y,-z
loop_
_atom_site_type_symbol
_atom_site_label
_atom_site_fract_x
_atom_site_fract_y
_atom_site_fract_z
Si Si1 0.807418 0.502660 0.314417
Si Si2 0.952083 0.603335 0.847742
Si Si3 0.363520 0.401393 0.438163
Si Si4 0.812893 0.248507 0.806027
Si Si5 0.413203 0.656783 0.255794
Si Si6 0.724628 0.848545 0.110979
O O1 0.500000 0.518708 0.500000
O O2 0.952541 0.549272 0.269650
O O3 0.748514 0.455859 0.469507
O O4 0.000000 0.487827 0.000000
O O5 0.113701 0.640197 0.589954
O O6 0.000000 0.612151 0.000000
O O7 0.614391 0.610527 0.111822
O O8 0.500000 0.390916 0.500000
O O9 0.104535 0.366755 0.593667
O O10 0.642451 0.392241 0.099259
O O11 0.971781 0.201992 0.739165
O O12 0.797676 0.294005 0.939075
O O13 0.000000 0.268218 0.500000
O O14 0.500000 0.234786 0.000000
O O15 0.500000 0.670381 0.000000
O O16 0.000000 0.840680 0.000000
#
# Coordination Sequence:
#
# PCOD9123121 Si02
#       6
#     4   4   4   4   4   4
#     4  10  20  37  62  92 120 158 213 258 295 366
#     4  11  22  41  66  89 121 170 216 251 303 381
#     4  11  22  39  63  91 123 160 206 258 312 367
#     4  11  23  42  65  86 117 166 216 251 300 385
#     4  12  25  40  61  95 131 157 201 269 328 370
#     4  11  23  41  61  89 124 161 206 257 311 373
#
# _framework density 22.393986999999999
#
# number of rings (size 3 to 8) (size 9 to 14) (size 15 to 20)
#    0.000    1.000    0.000   10.500    0.000    1.333 
#    0.000    5.000    0.000    0.000    0.000    0.000 
#    0.000    0.000    0.000    0.000    0.000    0.000 
#
# Total GULP energy -66834.115843 kJ/mol
# GULP energy per Si atom -5569.509654 kJ/mol
# Density = 2.234302 g / cm^3
# Si number density = 22.393987 Si / 1000 Ang^3
#
#
#
# Elastic Constant Matrix: (Units=GPa)
#
#
# Indices 1 2 3 4 5 6 
#
# 1 41.9113 8.0503 1.3354 0.0000 -7.1499 0.0000
# 2 8.0503 136.5125 12.9407 0.0000 -2.0625 0.0000
# 3 1.3354 12.9407 121.4838 0.0000 -8.4671 0.0000
# 4 0.0000 0.0000 0.0000 33.1762 0.0000 -2.9459
# 5 -7.1499 -2.0625 -8.4671 0.0000 35.7065 0.0000
# 6 0.0000 0.0000 0.0000 -2.9459 0.0000 25.8295
#
#
#
# Elastic Compliance Matrix: (Units=1/GPa)
#
#
# Indices 1 2 3 4 5 6 
#
# 1 0.024973 -0.001419 0.000223 0.000000 0.004972 0.000000
# 2 -0.001419 0.007483 -0.000784 0.000000 -0.000038 0.000000
# 3 0.000223 -0.000784 0.008452 0.000000 0.002004 0.000000
# 4 0.000000 0.000000 0.000000 0.030450 0.000000 0.003473
# 5 0.004972 -0.000038 0.002004 0.000000 0.029475 0.000000
# 6 0.000000 0.000000 0.000000 0.003473 0.000000 0.039112
#
#
# Mechanical properties :
#
#
# Convention : Reuss Voigt Hill
#
# Bulk Modulus (GPa) = 27.06429 38.28448 32.67439
# Shear Modulus (GPa) = 32.00595 37.44785 34.72690
#
# Velocity S-wave (km/s) = 3.78461 4.09372 3.94220
# Velocity P-wave (km/s) = 5.58654 6.28313 5.94505
#
# Compressibility (1/GPa) = 0.03694905
#
# Stress axis : x y z
#
# Youngs Moduli (GPa) = 40.04248 133.64051 118.31134
#
# Poissons Ratio (x) = 0.18960 -0.02640
# Poissons Ratio (y) = 0.05681 0.09277
# Poissons Ratio (z) = -0.00893 0.10479
#
# Static dielectric constant tensor:
#      x y z
#    x 1.884710 0.000000 0.050830 
#    y 0.000000 1.844180 0.000000 
#    z 0.050830 0.000000 1.926980 
# 
# From -- ./inp_files/17621.got.cif
#   From: 2010.05.17/outbox.cif.g08.bks.cpg/sg5_9_cif.got.tgz:17621.got - 2010.06.03 18:56:24.
