data_PCOD9123283
_publ_section_title
;
Structure prediction by ZEFSAII (Michael W. Deem and Ramdas Pophale) SiO2 
 PCOD9123283
Probable space group: C 2
;
_chemical_formula_sum "Si O2"
_cell_formula_units_Z 24
_cell_length_a 10.428366
_cell_length_b 9.371843
_cell_length_c 13.398556
_cell_angle_alpha 90.000000
_cell_angle_beta 68.722706
_cell_angle_gamma 90.000000
_cell_volume 1220.220550
_symmetry_space_group_name_H-M "C 2"
_symmetry_group_IT_number 5
_symmetry_cell_setting 'monoclinic'
loop_
_space_group_symop_operation_xyz
x,y,z
-x,y,-z
1/2+x,1/2+y,z
1/2-x,1/2+y,-z
loop_
_atom_site_type_symbol
_atom_site_label
_atom_site_fract_x
_atom_site_fract_y
_atom_site_fract_z
Si Si1 0.726604 0.850600 0.911761
Si Si2 0.525604 0.850846 0.158140
Si Si3 0.212450 0.566692 0.207978
Si Si4 0.499204 0.517345 0.203894
Si Si5 0.847981 0.656210 0.553578
Si Si6 0.105438 0.968065 0.548554
O O1 0.621450 0.888643 0.850515
O O2 0.774524 0.688316 0.878863
O O3 0.861111 0.948515 0.875744
O O4 0.636339 0.855317 0.036894
O O5 0.514877 0.689232 0.201274
O O6 0.587937 0.959884 0.220477
O O7 0.361338 0.490312 0.177355
O O8 0.189459 0.647093 0.319470
O O9 0.467687 0.457100 0.323099
O O10 0.853920 0.815049 0.507908
O O11 0.737652 0.564233 0.526385
O O12 0.000000 0.593999 0.500000
O O13 0.000000 0.035180 0.500000
#
# Coordination Sequence:
#
# PCOD9123283 Si02
#       6
#     4   4   4   4   4   4
#     4  10  20  38  60  84 118 153 190 235 284 340
#     4  10  22  37  58  87 116 153 193 234 285 340
#     4  10  22  39  58  85 118 151 191 239 287 338
#     4  10  22  39  59  86 117 151 192 238 286 339
#     4  10  22  38  58  85 114 150 193 238 288 340
#     4  10  22  39  59  85 115 150 193 240 288 339
#
# _framework density 19.668574
#
# number of rings (size 3 to 8) (size 9 to 14) (size 15 to 20)
#    0.000    2.000    0.000    3.000    0.000   12.000 
#    0.000    0.000    0.000    0.000    0.000    0.000 
#    0.000    0.000    0.000    0.000    0.000    0.000 
#
# Total GULP energy -67006.887728 kJ/mol
# GULP energy per Si atom -5583.907311 kJ/mol
# Density = 1.962381 g / cm^3
# Si number density = 19.668574 Si / 1000 Ang^3
#
#
#
# Elastic Constant Matrix: (Units=GPa)
#
#
# Indices 1 2 3 4 5 6 
#
# 1 89.5168 34.4983 27.3366 0.0000 -13.2795 0.0000
# 2 34.4983 58.8964 31.0158 0.0000 6.6261 0.0000
# 3 27.3366 31.0158 63.1009 0.0000 -2.6760 0.0000
# 4 0.0000 0.0000 0.0000 52.4591 0.0000 -30.2362
# 5 -13.2795 6.6261 -2.6760 0.0000 33.9025 0.0000
# 6 0.0000 0.0000 0.0000 -30.2362 0.0000 56.6797
#
#
#
# Elastic Compliance Matrix: (Units=1/GPa)
#
#
# Indices 1 2 3 4 5 6 
#
# 1 0.016766 -0.009594 -0.002197 0.000000 0.008269 0.000000
# 2 -0.009594 0.029422 -0.010745 0.000000 -0.010356 0.000000
# 3 -0.002197 -0.010745 0.022208 0.000000 0.002992 0.000000
# 4 0.000000 0.000000 0.000000 0.027526 0.000000 0.014684
# 5 0.008269 -0.010356 0.002992 0.000000 0.034996 0.000000
# 6 0.000000 0.000000 0.000000 0.014684 0.000000 0.025476
#
#
# Mechanical properties :
#
#
# Convention : Reuss Voigt Hill
#
# Bulk Modulus (GPa) = 42.87342 44.13504 43.50423
# Shear Modulus (GPa) = 23.89609 36.51914 30.20762
#
# Velocity S-wave (km/s) = 3.48938 4.31365 3.92322
# Velocity P-wave (km/s) = 6.17087 6.87737 6.53367
#
# Compressibility (1/GPa) = 0.02332447
#
# Stress axis : x y z
#
# Youngs Moduli (GPa) = 59.64447 33.98822 45.02964
#
# Poissons Ratio (x) = 0.32608 0.09893
# Poissons Ratio (y) = 0.57222 0.48383
# Poissons Ratio (z) = 0.13104 0.36519
#
# Static dielectric constant tensor:
#      x y z
#    x 1.674910 0.000000 -0.021810 
#    y 0.000000 1.658100 0.000000 
#    z -0.021810 0.000000 1.695190 
# 
# From -- ./inp_files/38269.got.cif
#   From: 2010.05.17/outbox.cif.g08.bks.cpg/sg5_20_cif.got.tgz:38269.got - 2010.06.03 18:56:24.
