data_PCOD9123070
_publ_section_title
;
Structure prediction by ZEFSAII (Michael W. Deem and Ramdas Pophale) SiO2 
 PCOD9123070
Probable space group: C 2
;
_chemical_formula_sum "Si O2"
_cell_formula_units_Z 30
_cell_length_a 21.339892
_cell_length_b 10.958572
_cell_length_c 18.990969
_cell_angle_alpha 90.000000
_cell_angle_beta 160.404605
_cell_angle_gamma 90.000000
_cell_volume 1489.447151
_symmetry_space_group_name_H-M "C 2"
_symmetry_group_IT_number 5
_symmetry_cell_setting 'monoclinic'
loop_
_space_group_symop_operation_xyz
x,y,z
-x,y,-z
1/2+x,1/2+y,z
1/2-x,1/2+y,-z
loop_
_atom_site_type_symbol
_atom_site_label
_atom_site_fract_x
_atom_site_fract_y
_atom_site_fract_z
Si Si1 0.489330 0.716320 0.769453
Si Si2 0.453700 0.251804 0.696978
Si Si3 0.783719 0.136405 0.125567
Si Si4 0.900609 0.484303 0.484573
Si Si5 0.688265 0.352666 0.819589
Si Si6 0.057433 0.970293 0.209779
Si Si7 0.743897 0.858361 0.803497
Si Si8 0.500000 0.211709 0.500000
O O1 0.266486 0.729132 0.533944
O O2 0.569106 0.690129 0.775791
O O3 0.525774 0.598499 0.856302
O O4 0.608605 0.821936 0.932799
O O5 0.542223 0.280608 0.715247
O O6 0.478937 0.377133 0.766304
O O7 0.583004 0.152342 0.873534
O O8 0.774844 0.223499 0.184823
O O9 0.833136 0.998242 0.197651
O O10 0.774623 0.482022 0.419727
O O11 0.824475 0.384918 0.347457
O O12 0.114445 0.443563 0.717443
O O13 0.894703 0.615702 0.440316
O O14 0.642740 0.295935 0.695041
O O15 0.949930 0.910819 0.030821
#
# Coordination Sequence:
#
# PCOD9123070 Si02
#       8
#     4   4   4   4   4   4   4   2
#     4  11  22  37  62  87 119 161 201 254 308 354
#     4  10  23  39  60  91 118 156 210 253 304 362
#     4  10  22  39  59  88 124 157 202 254 308 365
#     4  10  20  37  61  86 116 157 207 246 293 355
#     4  11  23  41  60  89 128 163 202 249 309 371
#     4  11  20  36  60  86 113 149 198 257 293 350
#     4   9  20  36  56  84 116 152 197 242 297 353
#     4  10  22  40  60  92 126 166 202 244 304 376
#
# _framework density 20.141701999999999
#
# number of rings (size 3 to 8) (size 9 to 14) (size 15 to 20)
#    0.000    1.867    1.333    3.600    1.867    2.133 
#    0.000    2.000    0.000    8.000    0.000    0.000 
#    0.000    0.000    0.000    0.000    0.000    0.000 
#
# Total GULP energy -83683.485078 kJ/mol
# GULP energy per Si atom -5578.899005 kJ/mol
# Density = 2.009586 g / cm^3
# Si number density = 20.141702 Si / 1000 Ang^3
#
#
#
# Elastic Constant Matrix: (Units=GPa)
#
#
# Indices 1 2 3 4 5 6 
#
# 1 47.3334 14.7551 10.9062 -0.0012 2.9023 -0.0013
# 2 14.7551 99.7637 21.8450 -0.0022 -22.2394 -0.0028
# 3 10.9062 21.8450 97.6444 -0.0006 10.0832 -0.0010
# 4 -0.0012 -0.0022 -0.0006 14.7147 -0.0008 0.8021
# 5 2.9023 -22.2394 10.0832 -0.0008 30.2414 -0.0010
# 6 -0.0013 -0.0028 -0.0010 0.8021 -0.0010 12.6663
#
#
#
# Elastic Compliance Matrix: (Units=1/GPa)
#
#
# Indices 1 2 3 4 5 6 
#
# 1 0.023019 -0.004275 -0.001100 0.000001 -0.004987 0.000001
# 2 -0.004275 0.014248 -0.003971 0.000002 0.012212 0.000003
# 3 -0.001100 -0.003971 0.011955 -0.000001 -0.006801 -0.000001
# 4 0.000001 0.000002 -0.000001 0.068195 0.000003 -0.004319
# 5 -0.004987 0.012212 -0.006801 0.000003 0.044794 0.000005
# 6 0.000001 0.000003 -0.000001 -0.004319 0.000005 0.079223
#
#
# Mechanical properties :
#
#
# Convention : Reuss Voigt Hill
#
# Bulk Modulus (GPa) = 32.75549 37.75044 35.25296
# Shear Modulus (GPa) = 18.49786 24.67351 21.58568
#
# Velocity S-wave (km/s) = 3.03378 3.50379 3.27722
# Velocity P-wave (km/s) = 5.34505 5.92890 5.64453
#
# Compressibility (1/GPa) = 0.03052924
#
# Stress axis : x y z
#
# Youngs Moduli (GPa) = 43.44320 70.18582 83.64872
#
# Poissons Ratio (x) = 0.30006 0.09198
# Poissons Ratio (y) = 0.18573 0.33218
# Poissons Ratio (z) = 0.04777 0.27871
#
# Static dielectric constant tensor:
#      x y z
#    x 1.722800 0.000000 -0.002110 
#    y 0.000000 1.695760 0.000000 
#    z -0.002110 0.000000 1.762070 
# 
# From -- ./inp_files/67410.got.cif
#   From: 2010.05.17/outbox.cif.g08.bks.cpg/sg5_34_cif.got.tgz:67410.got - 2010.06.03 18:56:24.
