data_PCOD9123752
_publ_section_title
;
Structure prediction by ZEFSAII (Michael W. Deem and Ramdas Pophale) SiO2 
 PCOD9123752
Probable space group: C 2
;
_chemical_formula_sum "Si O2"
_cell_formula_units_Z 28
_cell_length_a 9.216480
_cell_length_b 12.843984
_cell_length_c 14.068156
_cell_angle_alpha 90.000000
_cell_angle_beta 63.326977
_cell_angle_gamma 90.000000
_cell_volume 1488.116182
_symmetry_space_group_name_H-M "C 2"
_symmetry_group_IT_number 5
_symmetry_cell_setting 'monoclinic'
loop_
_space_group_symop_operation_xyz
x,y,z
-x,y,-z
1/2+x,1/2+y,z
1/2-x,1/2+y,-z
loop_
_atom_site_type_symbol
_atom_site_label
_atom_site_fract_x
_atom_site_fract_y
_atom_site_fract_z
Si Si1 0.072772 0.926890 0.871624
Si Si2 0.117717 0.043567 0.241952
Si Si3 0.333121 0.400296 0.588726
Si Si4 0.561574 0.183584 0.874765
Si Si5 0.877614 0.544777 0.462248
Si Si6 0.857014 0.589479 0.771495
Si Si7 0.817647 0.192457 0.346840
O O1 0.096425 0.804855 0.839852
O O2 0.243766 0.988648 0.818435
O O3 0.953852 0.982825 0.829494
O O4 0.000000 0.934536 0.000000
O O5 0.284459 0.106654 0.177835
O O6 0.985328 0.131686 0.307992
O O7 0.139610 0.961337 0.321089
O O8 0.500000 0.352453 0.500000
O O9 0.275194 0.479393 0.525256
O O10 0.191971 0.315190 0.639220
O O11 0.419363 0.140607 0.849129
O O12 0.500000 0.182847 0.000000
O O13 0.806865 0.642191 0.540704
O O14 0.000000 0.489557 0.500000
O O15 0.982888 0.568147 0.338450
O O16 0.750855 0.666503 0.737623
#
# Coordination Sequence:
#
# PCOD9123752 Si02
#       7
#     4   4   4   4   4   4   4
#     4  10  23  41  62  89 120 158 201 248 303 353
#     4  11  23  41  62  91 120 158 204 244 295 359
#     4  12  22  40  62  90 125 159 199 246 291 356
#     4  11  23  39  63  91 118 155 203 252 301 350
#     4  10  21  40  56  90 121 158 200 239 296 357
#     4  10  20  40  61  82 123 159 194 247 297 353
#     4  10  23  40  60  88 125 160 198 241 299 357
#
# _framework density 18.815736000000001
#
# number of rings (size 3 to 8) (size 9 to 14) (size 15 to 20)
#    0.000    1.429    2.857    3.000    2.000    0.000 
#    2.571    0.000    0.000    6.000    0.000    0.000 
#    0.000    0.000    0.000    0.000    0.000    0.000 
#
# Total GULP energy -78105.121182 kJ/mol
# GULP energy per Si atom -5578.937227 kJ/mol
# Density = 1.877291 g / cm^3
# Si number density = 18.815736 Si / 1000 Ang^3
#
#
#
# Elastic Constant Matrix: (Units=GPa)
#
#
# Indices 1 2 3 4 5 6 
#
# 1 80.2934 52.2373 29.1856 0.0000 16.5479 0.0000
# 2 52.2373 117.6271 40.4307 0.0000 14.6495 0.0000
# 3 29.1856 40.4307 65.8338 0.0000 8.8401 0.0000
# 4 0.0000 0.0000 0.0000 21.5385 0.0000 -4.5840
# 5 16.5479 14.6495 8.8401 0.0000 31.8296 0.0000
# 6 0.0000 0.0000 0.0000 -4.5840 0.0000 24.7777
#
#
#
# Elastic Compliance Matrix: (Units=1/GPa)
#
#
# Indices 1 2 3 4 5 6 
#
# 1 0.019302 -0.006543 -0.003735 0.000000 -0.005986 0.000000
# 2 -0.006543 0.013326 -0.005107 0.000000 -0.001313 0.000000
# 3 -0.003735 -0.005107 0.020157 0.000000 -0.001306 0.000000
# 4 0.000000 0.000000 0.000000 0.048332 0.000000 0.008942
# 5 -0.005986 -0.001313 -0.001306 0.000000 0.035497 0.000000
# 6 0.000000 0.000000 0.000000 0.008942 0.000000 0.042013
#
#
# Mechanical properties :
#
#
# Convention : Reuss Voigt Hill
#
# Bulk Modulus (GPa) = 45.42177 56.38459 50.90318
# Shear Modulus (GPa) = 23.06961 25.08922 24.07942
#
# Velocity S-wave (km/s) = 3.50534 3.65556 3.58124
# Velocity P-wave (km/s) = 6.36993 6.91732 6.64926
#
# Compressibility (1/GPa) = 0.02201588
#
# Stress axis : x y z
#
# Youngs Moduli (GPa) = 51.80748 75.04192 49.60944
#
# Poissons Ratio (x) = 0.49096 0.18531
# Poissons Ratio (y) = 0.33895 0.25336
# Poissons Ratio (z) = 0.19352 0.38324
#
# Static dielectric constant tensor:
#      x y z
#    x 1.652620 0.000000 -0.003550 
#    y 0.000000 1.649000 0.000000 
#    z -0.003550 0.000000 1.642240 
# 
# From -- ./inp_files/50249.got.cif
#   From: 2010.05.17/outbox.cif.g08.bks.cpg/sg5_26_cif.got.tgz:50249.got - 2010.06.03 18:56:24.
