data_PCOD9123463
_publ_section_title
;
Structure prediction by ZEFSAII (Michael W. Deem and Ramdas Pophale) SiO2 
 PCOD9123463
Probable space group: C 2
;
_chemical_formula_sum "Si O2"
_cell_formula_units_Z 30
_cell_length_a 12.771852
_cell_length_b 10.717778
_cell_length_c 16.529427
_cell_angle_alpha 90.000000
_cell_angle_beta 34.593164
_cell_angle_gamma 90.000000
_cell_volume 1284.606628
_symmetry_space_group_name_H-M "C 2"
_symmetry_group_IT_number 5
_symmetry_cell_setting 'monoclinic'
loop_
_space_group_symop_operation_xyz
x,y,z
-x,y,-z
1/2+x,1/2+y,z
1/2-x,1/2+y,-z
loop_
_atom_site_type_symbol
_atom_site_label
_atom_site_fract_x
_atom_site_fract_y
_atom_site_fract_z
Si Si1 0.516590 0.094910 0.132572
Si Si2 0.622308 0.862067 0.712609
Si Si3 0.500000 0.936299 0.000000
Si Si4 0.432831 0.607330 0.815941
Si Si5 0.632522 0.488033 0.846433
Si Si6 0.118354 0.904244 0.592834
Si Si7 0.275698 0.255836 0.786511
Si Si8 0.795344 0.292247 0.631671
O O1 0.378317 0.198787 0.251978
O O2 0.525507 0.972664 0.183226
O O3 0.719169 0.131053 0.973491
O O4 0.422012 0.030237 0.115196
O O5 0.530076 0.738391 0.736249
O O6 0.778528 0.920958 0.556821
O O7 0.709003 0.810137 0.742031
O O8 0.658483 0.838678 0.925506
O O9 0.517255 0.540407 0.842471
O O10 0.488340 0.515418 0.707440
O O11 0.727398 0.611793 0.822144
O O12 0.770686 0.386333 0.722778
O O13 0.500000 0.434740 0.000000
O O14 0.263279 0.873135 0.571034
O O15 0.987035 0.785010 0.664044
O O16 0.000000 0.235828 0.500000
#
# Coordination Sequence:
#
# PCOD9123463 Si02
#       8
#     4   4   2   4   4   4   4   4
#     4  11  25  43  70  98 140 189 235 293 348 422
#     4  10  25  42  70 105 140 185 232 293 358 419
#     4  10  20  38  66 106 134 176 232 300 334 416
#     4  10  24  43  70 109 138 175 248 287 352 426
#     4  10  23  42  73 101 141 179 235 298 350 418
#     4  11  24  44  72 103 142 188 230 299 352 431
#     4  10  20  41  72 104 137 180 238 288 355 415
#     4  11  29  47  64 102 149 190 234 287 365 428
#
# _framework density 23.353453999999999
#
# number of rings (size 3 to 8) (size 9 to 14) (size 15 to 20)
#    0.000    1.600    2.000    0.400    8.400    7.467 
#    0.000    0.000    0.000    0.000    0.000    0.000 
#    0.000    0.000    0.000    0.000    0.000    0.000 
#
# Total GULP energy -83786.716537 kJ/mol
# GULP energy per Si atom -5585.781102 kJ/mol
# Density = 2.330030 g / cm^3
# Si number density = 23.353454 Si / 1000 Ang^3
#
#
#
# Elastic Constant Matrix: (Units=GPa)
#
#
# Indices 1 2 3 4 5 6 
#
# 1 33.3028 16.8355 25.8482 0.0000 -4.4576 0.0000
# 2 16.8355 82.1894 34.9908 0.0000 -0.0681 0.0000
# 3 25.8482 34.9908 128.7280 0.0000 -4.1146 0.0000
# 4 0.0000 0.0000 0.0000 31.4719 0.0000 0.7508
# 5 -4.4576 -0.0681 -4.1146 0.0000 35.5076 0.0000
# 6 0.0000 0.0000 0.0000 0.7508 0.0000 22.2676
#
#
#
# Elastic Compliance Matrix: (Units=1/GPa)
#
#
# Indices 1 2 3 4 5 6 
#
# 1 0.037899 -0.005174 -0.006074 0.000000 0.004044 0.000000
# 2 -0.005174 0.014471 -0.002925 0.000000 -0.000961 0.000000
# 3 -0.006074 -0.002925 0.009795 0.000000 0.000367 0.000000
# 4 0.000000 0.000000 0.000000 0.031800 0.000000 -0.001072
# 5 0.004044 -0.000961 0.000367 0.000000 0.028711 0.000000
# 6 0.000000 0.000000 0.000000 -0.001072 0.000000 0.044944
#
#
# Mechanical properties :
#
#
# Convention : Reuss Voigt Hill
#
# Bulk Modulus (GPa) = 29.56988 44.39657 36.98322
# Shear Modulus (GPa) = 24.12650 28.95248 26.53949
#
# Velocity S-wave (km/s) = 3.21768 3.52483 3.37475
# Velocity P-wave (km/s) = 5.14723 5.96807 5.57278
#
# Compressibility (1/GPa) = 0.03381820
#
# Stress axis : x y z
#
# Youngs Moduli (GPa) = 26.38596 69.10155 102.09325
#
# Poissons Ratio (x) = 0.35751 0.62016
# Poissons Ratio (y) = 0.13651 0.29867
# Poissons Ratio (z) = 0.16028 0.20215
#
# Static dielectric constant tensor:
#      x y z
#    x 1.947410 0.000000 0.052080 
#    y 0.000000 1.849570 0.000000 
#    z 0.052080 0.000000 1.894090 
# 
# From -- ./inp_files/61619.got.cif
#   From: 2010.05.17/outbox.cif.g08.bks.cpg/sg5_31_cif.got.tgz:61619.got - 2010.06.03 18:56:24.
