data_PCOD9123681
_publ_section_title
;
Structure prediction by ZEFSAII (Michael W. Deem and Ramdas Pophale) SiO2 
 PCOD9123681
Probable space group: C 2
;
_chemical_formula_sum "Si O2"
_cell_formula_units_Z 28
_cell_length_a 28.895537
_cell_length_b 5.308533
_cell_length_c 9.874692
_cell_angle_alpha 90.000000
_cell_angle_beta 115.909440
_cell_angle_gamma 90.000000
_cell_volume 1362.458119
_symmetry_space_group_name_H-M "C 2"
_symmetry_group_IT_number 5
_symmetry_cell_setting 'monoclinic'
loop_
_space_group_symop_operation_xyz
x,y,z
-x,y,-z
1/2+x,1/2+y,z
1/2-x,1/2+y,-z
loop_
_atom_site_type_symbol
_atom_site_label
_atom_site_fract_x
_atom_site_fract_y
_atom_site_fract_z
Si Si1 0.743082 0.314670 0.906357
Si Si2 0.557915 0.972170 0.058044
Si Si3 0.927712 0.632092 0.621379
Si Si4 0.134415 0.580633 0.718314
Si Si5 0.924108 0.853753 0.145151
Si Si6 0.486772 0.640430 0.637581
Si Si7 0.351179 0.731621 0.997264
O O1 0.687099 0.240536 0.781221
O O2 0.793328 0.282611 0.876561
O O3 0.745233 0.597339 0.966319
O O4 0.578139 0.077180 0.227072
O O5 0.605791 0.824916 0.052772
O O6 0.500000 0.856189 0.000000
O O7 0.550795 0.194915 0.940668
O O8 0.882575 0.549438 0.459219
O O9 0.970647 0.426592 0.636486
O O10 0.945880 0.922202 0.626372
O O11 0.085461 0.717856 0.724971
O O12 0.142955 0.361341 0.844325
O O13 0.960936 0.087465 0.215984
O O14 0.866479 0.939849 0.032713
O O15 0.500000 0.599371 0.500000
#
# Coordination Sequence:
#
# PCOD9123681 Si02
#       7
#     4   4   4   4   4   4   4
#     4  10  20  39  68 100 124 161 215 279 323 371
#     4  11  24  40  60  93 132 178 212 259 312 398
#     4  12  26  41  61  94 131 172 204 265 320 383
#     4  10  22  40  65  97 126 163 217 272 327 370
#     4  11  21  38  63  91 123 172 213 263 312 387
#     4  12  24  39  64  90 129 163 217 263 319 374
#     4  10  22  39  67  91 127 167 219 266 318 380
#
# _framework density 20.551091
#
# number of rings (size 3 to 8) (size 9 to 14) (size 15 to 20)
#    0.000    1.143    4.286    2.143    4.000    0.571 
#    0.000    0.000    3.143    0.000    0.000    0.000 
#    0.000    0.000    0.000    0.000    0.000    0.000 
#
# Total GULP energy -78014.408526 kJ/mol
# GULP energy per Si atom -5572.457752 kJ/mol
# Density = 2.050432 g / cm^3
# Si number density = 20.551091 Si / 1000 Ang^3
#
#
#
# Elastic Constant Matrix: (Units=GPa)
#
#
# Indices 1 2 3 4 5 6 
#
# 1 120.3949 14.1981 45.2192 0.0000 2.1553 0.0000
# 2 14.1981 40.1144 -2.0439 0.0000 1.8458 0.0000
# 3 45.2192 -2.0439 110.5331 0.0000 -6.3293 0.0000
# 4 0.0000 0.0000 0.0000 16.3278 0.0000 6.9603
# 5 2.1553 1.8458 -6.3293 0.0000 30.0341 0.0000
# 6 0.0000 0.0000 0.0000 6.9603 0.0000 35.0146
#
#
#
# Elastic Compliance Matrix: (Units=1/GPa)
#
#
# Indices 1 2 3 4 5 6 
#
# 1 0.010451 -0.003858 -0.004429 0.000000 -0.001446 0.000000
# 2 -0.003858 0.026439 0.002014 0.000000 -0.000924 0.000000
# 3 -0.004429 0.002014 0.011041 0.000000 0.002521 0.000000
# 4 0.000000 0.000000 0.000000 0.066915 0.000000 -0.013302
# 5 -0.001446 -0.000924 0.002521 0.000000 0.033987 0.000000
# 6 0.000000 0.000000 0.000000 -0.013302 0.000000 0.031204
#
#
# Mechanical properties :
#
#
# Convention : Reuss Voigt Hill
#
# Bulk Modulus (GPa) = 28.26111 42.86547 35.56329
# Shear Modulus (GPa) = 24.46447 30.51992 27.49219
#
# Velocity S-wave (km/s) = 3.45399 3.85785 3.66149
# Velocity P-wave (km/s) = 5.44869 6.38336 5.93445
#
# Compressibility (1/GPa) = 0.03538432
#
# Stress axis : x y z
#
# Youngs Moduli (GPa) = 95.68894 37.82242 90.57354
#
# Poissons Ratio (x) = 0.14592 0.40119
# Poissons Ratio (y) = 0.36917 -0.18244
# Poissons Ratio (z) = 0.42385 -0.07619
#
# Static dielectric constant tensor:
#      x y z
#    x 1.769430 0.000000 0.015730 
#    y 0.000000 1.826320 0.000000 
#    z 0.015730 0.000000 1.755050 
# 
# From -- ./inp_files/32126.got.cif
#   From: 2010.05.17/outbox.cif.g08.bks.cpg/sg5_17_cif.got.tgz:32126.got - 2010.06.03 18:56:24.
