data_PCOD9123012
_publ_section_title
;
Structure prediction by ZEFSAII (Michael W. Deem and Ramdas Pophale) SiO2 
 PCOD9123012
Probable space group: C 2
;
_chemical_formula_sum "Si O2"
_cell_formula_units_Z 30
_cell_length_a 14.956952
_cell_length_b 17.001632
_cell_length_c 12.214990
_cell_angle_alpha 90.000000
_cell_angle_beta 151.815815
_cell_angle_gamma 90.000000
_cell_volume 1467.072771
_symmetry_space_group_name_H-M "C 2"
_symmetry_group_IT_number 5
_symmetry_cell_setting 'monoclinic'
loop_
_space_group_symop_operation_xyz
x,y,z
-x,y,-z
1/2+x,1/2+y,z
1/2-x,1/2+y,-z
loop_
_atom_site_type_symbol
_atom_site_label
_atom_site_fract_x
_atom_site_fract_y
_atom_site_fract_z
Si Si1 0.019058 0.803510 0.146780
Si Si2 0.802075 0.056228 0.962519
Si Si3 0.111579 0.375610 0.413815
Si Si4 0.717559 0.396039 0.924277
Si Si5 0.910912 0.632056 0.091798
Si Si6 0.280249 0.994958 0.794396
Si Si7 0.000000 0.478731 0.500000
Si Si8 0.708745 0.534040 0.481422
O O1 0.242147 0.806051 0.410969
O O2 0.922482 0.852253 0.142504
O O3 0.935239 0.716842 0.065456
O O4 0.000000 0.834419 0.000000
O O5 0.710253 0.129269 0.927376
O O6 0.680407 0.033713 0.724449
O O7 0.029096 0.057657 0.213792
O O8 0.754355 0.980321 0.986452
O O9 0.216562 0.447256 0.466784
O O10 0.058607 0.418603 0.469002
O O11 0.918558 0.352281 0.147129
O O12 0.692486 0.424187 0.771867
O O13 0.116321 0.593877 0.339284
O O14 0.810701 0.573643 0.898428
O O15 0.165266 0.022362 0.563351
O O16 0.500000 0.972936 0.000000
#
# Coordination Sequence:
#
# PCOD9123012 Si02
#       8
#     4   4   4   4   4   4   2   4
#     4  12  24  38  60  92 132 164 201 257 329 372
#     4  10  20  37  61  90 116 158 214 254 305 371
#     4  11  21  36  59  91 123 158 210 257 302 369
#     4  10  20  37  58  91 122 164 204 254 307 367
#     4  10  22  40  58  92 129 158 197 263 317 373
#     4   9  17  37  64  89 123 157 207 259 308 359
#     4  10  20  40  62  90 126 158 212 274 296 366
#     4  11  19  36  65  93 115 162 213 258 303 373
#
# _framework density 20.448882000000001
#
# number of rings (size 3 to 8) (size 9 to 14) (size 15 to 20)
#    0.000    1.600    6.667    2.800    0.000    3.200 
#    0.000    1.333    2.933    0.000    0.000    0.000 
#    0.000    0.000    0.000    0.000    0.000    0.000 
#
# Total GULP energy -83531.876074 kJ/mol
# GULP energy per Si atom -5568.791738 kJ/mol
# Density = 2.040234 g / cm^3
# Si number density = 20.448882 Si / 1000 Ang^3
#
#
#
# Elastic Constant Matrix: (Units=GPa)
#
#
# Indices 1 2 3 4 5 6 
#
# 1 56.3874 34.7173 14.3992 0.0000 5.4966 0.0000
# 2 34.7173 41.7920 2.1414 0.0000 -3.0675 0.0000
# 3 14.3992 2.1414 94.8728 0.0000 12.7322 0.0000
# 4 0.0000 0.0000 0.0000 18.4600 0.0000 3.6703
# 5 5.4966 -3.0675 12.7322 0.0000 24.0431 0.0000
# 6 0.0000 0.0000 0.0000 3.6703 0.0000 22.0087
#
#
#
# Elastic Compliance Matrix: (Units=1/GPa)
#
#
# Indices 1 2 3 4 5 6 
#
# 1 0.041577 -0.035214 -0.003915 0.000000 -0.011924 0.000000
# 2 -0.035214 0.054072 0.002280 0.000000 0.013742 0.000000
# 3 -0.003915 0.002280 0.011760 0.000000 -0.005042 0.000000
# 4 0.000000 0.000000 0.000000 0.056029 0.000000 -0.009344
# 5 -0.011924 0.013742 -0.005042 0.000000 0.048741 0.000000
# 6 0.000000 0.000000 0.000000 -0.009344 0.000000 0.046995
#
#
# Mechanical properties :
#
#
# Convention : Reuss Voigt Hill
#
# Bulk Modulus (GPa) = 29.66346 32.84087 31.25217
# Shear Modulus (GPa) = 14.53027 22.35532 18.44280
#
# Velocity S-wave (km/s) = 2.66854 3.30999 3.00642
# Velocity P-wave (km/s) = 4.90229 5.54102 5.23141
#
# Compressibility (1/GPa) = 0.03371150
#
# Stress axis : x y z
#
# Youngs Moduli (GPa) = 24.05156 18.49376 85.03551
#
# Poissons Ratio (x) = 0.65123 0.33293
# Poissons Ratio (y) = 0.84694 -0.19387
# Poissons Ratio (z) = 0.09417 -0.04216
#
# Static dielectric constant tensor:
#      x y z
#    x 2.177610 0.000000 0.004550 
#    y 0.000000 1.687190 0.000000 
#    z 0.004550 0.000000 1.826070 
# 
# From -- ./inp_files/43333.got.cif
#   From: 2010.05.17/outbox.cif.g08.bks.cpg/sg5_22_cif.got.tgz:43333.got - 2010.06.03 18:56:24.
