data_PCOD9123024
_publ_section_title
;
Structure prediction by ZEFSAII (Michael W. Deem and Ramdas Pophale) SiO2 
 PCOD9123024
Probable space group: C 2
;
_chemical_formula_sum "Si O2"
_cell_formula_units_Z 28
_cell_length_a 9.653886
_cell_length_b 12.774122
_cell_length_c 10.697491
_cell_angle_alpha 90.000000
_cell_angle_beta 72.678716
_cell_angle_gamma 90.000000
_cell_volume 1259.387717
_symmetry_space_group_name_H-M "C 2"
_symmetry_group_IT_number 5
_symmetry_cell_setting 'monoclinic'
loop_
_space_group_symop_operation_xyz
x,y,z
-x,y,-z
1/2+x,1/2+y,z
1/2-x,1/2+y,-z
loop_
_atom_site_type_symbol
_atom_site_label
_atom_site_fract_x
_atom_site_fract_y
_atom_site_fract_z
Si Si1 0.689731 0.695670 0.707326
Si Si2 0.617679 0.990786 0.364856
Si Si3 0.343356 0.238293 0.917421
Si Si4 0.175054 0.269174 0.441818
Si Si5 0.346738 0.662010 0.799065
Si Si6 0.617220 0.466784 0.059947
Si Si7 0.431519 0.004754 0.887796
O O1 0.764698 0.581251 0.687462
O O2 0.747653 0.747252 0.818150
O O3 0.735320 0.746637 0.562866
O O4 0.515646 0.693702 0.758385
O O5 0.500000 0.021978 0.500000
O O6 0.527574 0.967370 0.261190
O O7 0.698329 0.886517 0.388243
O O8 0.426300 0.347962 0.901614
O O9 0.437012 0.131862 0.883330
O O10 0.242450 0.217530 0.065663
O O11 0.217462 0.191029 0.318569
O O12 0.000000 0.259145 0.500000
O O13 0.349604 0.538728 0.830052
O O14 0.500000 0.518880 0.000000
O O15 0.765800 0.468263 0.943751
O O16 0.500000 0.969035 0.000000
#
# Coordination Sequence:
#
# PCOD9123024 Si02
#       7
#     4   4   4   4   4   4   4
#     4  10  21  39  59  85 120 159 202 246 295 357
#     4  10  21  38  58  83 118 158 200 250 298 347
#     4  10  21  36  59  87 116 151 194 249 304 355
#     4   9  20  36  56  82 115 153 195 241 293 350
#     4  10  20  37  59  86 119 158 199 244 296 358
#     4  11  22  37  61  92 122 154 195 251 304 350
#     4  10  22  39  59  87 118 155 202 247 296 359
#
# _framework density 22.233025000000001
#
# number of rings (size 3 to 8) (size 9 to 14) (size 15 to 20)
#    0.000    2.000    0.000    4.286    0.000    8.000 
#    0.000    6.429    0.000    0.857    0.000    0.000 
#    0.000    0.000    0.000    0.000    0.000    0.000 
#
# Total GULP energy -78191.163989 kJ/mol
# GULP energy per Si atom -5585.083142 kJ/mol
# Density = 2.218242 g / cm^3
# Si number density = 22.233025 Si / 1000 Ang^3
#
#
#
# Elastic Constant Matrix: (Units=GPa)
#
#
# Indices 1 2 3 4 5 6 
#
# 1 45.2713 -18.9090 29.0881 0.0000 10.2576 0.0000
# 2 -18.9090 85.6373 11.3856 0.0000 5.1139 0.0000
# 3 29.0881 11.3856 147.8791 0.0000 27.0541 0.0000
# 4 0.0000 0.0000 0.0000 8.0254 0.0000 9.1993
# 5 10.2576 5.1139 27.0541 0.0000 26.5510 0.0000
# 6 0.0000 0.0000 0.0000 9.1993 0.0000 11.3464
#
#
#
# Elastic Compliance Matrix: (Units=1/GPa)
#
#
# Indices 1 2 3 4 5 6 
#
# 1 0.030520 0.007904 -0.005133 0.000000 -0.008083 0.000000
# 2 0.007904 0.013904 -0.001938 0.000000 -0.003757 0.000000
# 3 -0.005133 -0.001938 0.009206 0.000000 -0.007024 0.000000
# 4 0.000000 0.000000 0.000000 1.763936 0.000000 -1.430140
# 5 -0.008083 -0.003757 -0.007024 0.000000 0.048667 0.000000
# 6 0.000000 0.000000 0.000000 -1.430140 0.000000 1.247643
#
#
# Mechanical properties :
#
#
# Convention : Reuss Voigt Hill
#
# Bulk Modulus (GPa) = 18.08423 35.76857 26.92640
# Shear Modulus (GPa) = 1.59712 26.33275 13.96493
#
# Velocity S-wave (km/s) = 0.84848 3.44524 2.50894
# Velocity P-wave (km/s) = 3.01852 5.65236 4.53104
#
# Compressibility (1/GPa) = 0.05529679
#
# Stress axis : x y z
#
# Youngs Moduli (GPa) = 32.76527 71.91965 108.62153
#
# Poissons Ratio (x) = -0.56846 0.55757
# Poissons Ratio (y) = -0.25898 0.21050
# Poissons Ratio (z) = 0.16819 0.13938
#
# Static dielectric constant tensor:
#      x y z
#    x 1.822550 0.000000 0.005960 
#    y 0.000000 1.852980 0.000000 
#    z 0.005960 0.000000 1.852100 
# 
# From -- ./inp_files/20336.got.cif
#   From: 2010.05.17/outbox.cif.g08.bks.cpg/sg5_11_cif.got.tgz:20336.got - 2010.06.03 18:56:24.
