data_PCOD9123197
_publ_section_title
;
Structure prediction by ZEFSAII (Michael W. Deem and Ramdas Pophale) SiO2 
 PCOD9123197
Probable space group: C 2
;
_chemical_formula_sum "Si O2"
_cell_formula_units_Z 24
_cell_length_a 10.509895
_cell_length_b 15.834310
_cell_length_c 11.983144
_cell_angle_alpha 90.000000
_cell_angle_beta 154.172071
_cell_angle_gamma 90.000000
_cell_volume 868.812109
_symmetry_space_group_name_H-M "C 2"
_symmetry_group_IT_number 5
_symmetry_cell_setting 'monoclinic'
loop_
_space_group_symop_operation_xyz
x,y,z
-x,y,-z
1/2+x,1/2+y,z
1/2-x,1/2+y,-z
loop_
_atom_site_type_symbol
_atom_site_label
_atom_site_fract_x
_atom_site_fract_y
_atom_site_fract_z
Si Si1 0.187031 0.501600 0.855231
Si Si2 0.458762 0.172007 0.343663
Si Si3 0.615472 0.844918 0.480384
Si Si4 0.425190 0.601271 0.238512
Si Si5 0.266954 0.269752 0.000390
Si Si6 0.284299 0.966469 0.745938
O O1 0.185773 0.580797 0.773646
O O2 0.103738 0.425979 0.703837
O O3 0.927912 0.490945 0.742813
O O4 0.427859 0.532233 0.138479
O O5 0.500000 0.200698 0.500000
O O6 0.260338 0.235427 0.118711
O O7 0.762880 0.148141 0.519321
O O8 0.500000 0.797089 0.500000
O O9 0.963771 0.837344 0.779528
O O10 0.516761 0.807148 0.283174
O O11 0.324358 0.547572 0.265988
O O12 0.198436 0.678732 0.036561
O O13 0.000000 0.913063 0.500000
O O14 0.500000 0.921567 0.000000
#
# Coordination Sequence:
#
# PCOD9123197 Si02
#       6
#     4   4   4   4   4   4
#     4  10  24  41  71 105 143 184 239 296 365 426
#     4  11  23  46  75 105 144 192 246 304 359 434
#     4  12  27  48  69 104 148 195 242 297 367 435
#     4  10  22  45  73 106 139 183 252 297 360 418
#     4  11  26  47  71 102 144 191 246 297 364 431
#     4  10  20  37  66 101 134 169 225 297 342 408
#
# _framework density 27.623923000000001
#
# number of rings (size 3 to 8) (size 9 to 14) (size 15 to 20)
#    0.000    1.333    3.333    1.000    2.333   10.000 
#    3.000    5.833    0.000    0.000    0.000    0.000 
#    0.000    0.000    0.000    0.000    0.000    0.000 
#
# Total GULP energy -66825.355268 kJ/mol
# GULP energy per Si atom -5568.779606 kJ/mol
# Density = 2.756105 g / cm^3
# Si number density = 27.623923 Si / 1000 Ang^3
#
#
#
# Elastic Constant Matrix: (Units=GPa)
#
#
# Indices 1 2 3 4 5 6 
#
# 1 105.9677 -1.4421 32.0322 0.0046 -16.7632 0.0032
# 2 -1.4421 118.0232 12.0724 0.0005 -5.2287 0.0011
# 3 32.0322 12.0724 188.7154 0.0071 -8.5853 0.0068
# 4 0.0046 0.0005 0.0071 14.7293 0.0043 -3.0616
# 5 -16.7632 -5.2287 -8.5853 0.0043 55.4991 0.0037
# 6 0.0032 0.0011 0.0068 -3.0616 0.0037 14.2356
#
#
#
# Elastic Compliance Matrix: (Units=1/GPa)
#
#
# Indices 1 2 3 4 5 6 
#
# 1 0.010408 0.000427 -0.001661 -0.000004 0.002927 -0.000003
# 2 0.000427 0.008575 -0.000582 -0.000001 0.000847 -0.000001
# 3 -0.001661 -0.000582 0.005632 -0.000003 0.000315 -0.000003
# 4 -0.000004 -0.000001 -0.000003 0.071069 -0.000008 0.015285
# 5 0.002927 0.000847 0.000315 -0.000008 0.019031 -0.000008
# 6 -0.000003 -0.000001 -0.000003 0.015285 -0.000008 0.073533
#
#
# Mechanical properties :
#
#
# Convention : Reuss Voigt Hill
#
# Bulk Modulus (GPa) = 47.65910 55.33680 51.49795
# Shear Modulus (GPa) = 25.14134 41.56239 33.35187
#
# Velocity S-wave (km/s) = 3.02011 3.88310 3.47847
# Velocity P-wave (km/s) = 5.42694 6.33879 5.90051
#
# Compressibility (1/GPa) = 0.02098235
#
# Stress axis : x y z
#
# Youngs Moduli (GPa) = 96.08313 116.61513 177.54242
#
# Poissons Ratio (x) = -0.04976 0.29485
# Poissons Ratio (y) = -0.04100 0.10341
# Poissons Ratio (z) = 0.15957 0.06793
#
# Static dielectric constant tensor:
#      x y z
#    x 2.120280 0.000000 0.111600 
#    y 0.000000 2.280900 0.000000 
#    z 0.111600 0.000000 2.296890 
# 
# From -- ./inp_files/40497.got.cif
#   From: 2010.05.17/outbox.cif.g08.bks.cpg/sg5_21_cif.got.tgz:40497.got - 2010.06.03 18:56:24.
