data_PCOD9123240
_publ_section_title
;
Structure prediction by ZEFSAII (Michael W. Deem and Ramdas Pophale) SiO2 
 PCOD9123240
Probable space group: C 2
;
_chemical_formula_sum "Si O2"
_cell_formula_units_Z 24
_cell_length_a 21.168788
_cell_length_b 9.948052
_cell_length_c 12.158157
_cell_angle_alpha 90.000000
_cell_angle_beta 24.851869
_cell_angle_gamma 90.000000
_cell_volume 1076.053858
_symmetry_space_group_name_H-M "C 2"
_symmetry_group_IT_number 5
_symmetry_cell_setting 'monoclinic'
loop_
_space_group_symop_operation_xyz
x,y,z
-x,y,-z
1/2+x,1/2+y,z
1/2-x,1/2+y,-z
loop_
_atom_site_type_symbol
_atom_site_label
_atom_site_fract_x
_atom_site_fract_y
_atom_site_fract_z
Si Si1 0.505788 0.658600 0.245602
Si Si2 0.444787 0.928363 0.268497
Si Si3 0.000000 0.615840 0.000000
Si Si4 0.219702 0.316219 0.075832
Si Si5 0.000000 0.773420 0.500000
Si Si6 0.217738 0.611474 0.827882
Si Si7 0.691712 0.038897 0.294442
O O1 0.438910 0.769082 0.267782
O O2 0.595655 0.749978 0.193345
O O3 0.373875 0.585870 0.520167
O O4 0.631471 0.569920 0.989819
O O5 0.356749 0.971332 0.516099
O O6 0.398842 0.015300 0.234885
O O7 0.618181 0.979900 0.008447
O O8 0.108000 0.689532 0.914434
O O9 0.259222 0.200323 0.101610
O O10 0.165115 0.443030 0.231353
O O11 0.372525 0.351180 0.768750
O O12 0.904141 0.674293 0.572360
#
# Coordination Sequence:
#
# PCOD9123240 Si02
#       7
#     4   4   2   4   2   4   4
#     4  11  24  38  67  99 126 168 209 265 322 382
#     4  10  21  45  63  87 128 169 211 264 315 362
#     4   8  22  44  68  86 126 176 214 266 306 376
#     4  11  22  37  65  96 136 161 205 267 318 384
#     4  10  20  38  54  90 132 174 192 250 314 384
#     4  10  21  43  65  92 125 172 213 259 322 370
#     4  11  22  38  60  94 126 168 210 248 322 376
#
# _framework density 22.303716999999999
#
# number of rings (size 3 to 8) (size 9 to 14) (size 15 to 20)
#    1.000    0.667    3.333    1.500    2.333    2.667 
#    3.000    1.667    0.000    0.000    0.000    0.000 
#    0.000    0.000    0.000    0.000    0.000    0.000 
#
# Total GULP energy -67011.716761 kJ/mol
# GULP energy per Si atom -5584.309730 kJ/mol
# Density = 2.225295 g / cm^3
# Si number density = 22.303717 Si / 1000 Ang^3
#
#
#
# Elastic Constant Matrix: (Units=GPa)
#
#
# Indices 1 2 3 4 5 6 
#
# 1 45.5495 -3.5726 -0.0011 0.0000 5.4083 0.0000
# 2 -3.5726 40.7332 28.7376 0.0000 9.8608 0.0000
# 3 -0.0011 28.7376 178.8074 0.0000 28.7207 0.0000
# 4 0.0000 0.0000 0.0000 22.9812 0.0000 0.1830
# 5 5.4083 9.8608 28.7207 0.0000 20.5729 0.0000
# 6 0.0000 0.0000 0.0000 0.1830 0.0000 19.6425
#
#
#
# Elastic Compliance Matrix: (Units=1/GPa)
#
#
# Indices 1 2 3 4 5 6 
#
# 1 0.023318 0.003627 0.000878 0.000000 -0.009094 0.000000
# 2 0.003627 0.029642 -0.003002 0.000000 -0.010971 0.000000
# 3 0.000878 -0.003002 0.007581 0.000000 -0.009375 0.000000
# 4 0.000000 0.000000 0.000000 0.043517 0.000000 -0.000405
# 5 -0.009094 -0.010971 -0.009375 0.000000 0.069345 0.000000
# 6 0.000000 0.000000 0.000000 -0.000405 0.000000 0.050914
#
#
# Mechanical properties :
#
#
# Convention : Reuss Voigt Hill
#
# Bulk Modulus (GPa) = 15.73611 35.04645 25.39128
# Shear Modulus (GPa) = 20.61915 28.63437 24.62676
#
# Velocity S-wave (km/s) = 3.04381 3.58696 3.32649
# Velocity P-wave (km/s) = 4.40724 5.73606 5.11498
#
# Compressibility (1/GPa) = 0.06354811
#
# Stress axis : x y z
#
# Youngs Moduli (GPa) = 42.88446 33.73619 131.90935
#
# Poissons Ratio (x) = -0.12237 -0.11580
# Poissons Ratio (y) = -0.15556 0.39597
# Poissons Ratio (z) = -0.03765 0.10127
#
# Static dielectric constant tensor:
#      x y z
#    x 1.861290 0.000000 -0.016800 
#    y 0.000000 1.813910 0.000000 
#    z -0.016800 0.000000 1.822960 
# 
# From -- ./inp_files/58134.got.cif
#   From: 2010.05.17/outbox.cif.g08.bks.cpg/sg5_30_cif.got.tgz:58134.got - 2010.06.03 18:56:24.
