data_PCOD9123366
_publ_section_title
;
Structure prediction by ZEFSAII (Michael W. Deem and Ramdas Pophale) SiO2 
 PCOD9123366
Probable space group: C 2
;
_chemical_formula_sum "Si O2"
_cell_formula_units_Z 30
_cell_length_a 16.952416
_cell_length_b 15.920754
_cell_length_c 8.537275
_cell_angle_alpha 90.000000
_cell_angle_beta 145.412522
_cell_angle_gamma 90.000000
_cell_volume 1307.993937
_symmetry_space_group_name_H-M "C 2"
_symmetry_group_IT_number 5
_symmetry_cell_setting 'monoclinic'
loop_
_space_group_symop_operation_xyz
x,y,z
-x,y,-z
1/2+x,1/2+y,z
1/2-x,1/2+y,-z
loop_
_atom_site_type_symbol
_atom_site_label
_atom_site_fract_x
_atom_site_fract_y
_atom_site_fract_z
Si Si1 0.431466 0.880260 0.719973
Si Si2 0.500000 0.604216 0.500000
Si Si3 0.837983 0.174204 0.782313
Si Si4 0.191838 0.826624 0.102681
Si Si5 0.578832 0.510685 0.927317
Si Si6 0.260638 0.160005 0.727643
Si Si7 0.764664 0.985873 0.405479
Si Si8 0.780858 0.339311 0.892717
O O1 0.324112 0.828325 0.438320
O O2 0.341590 0.958162 0.634241
O O3 0.500000 0.851330 0.000000
O O4 0.568832 0.883859 0.842088
O O5 0.576826 0.541347 0.744072
O O6 0.613829 0.658332 0.588035
O O7 0.757853 0.176292 0.487831
O O8 0.797306 0.249006 0.834696
O O9 0.000000 0.181728 0.000000
O O10 0.826934 0.083557 0.845122
O O11 0.137657 0.732239 0.043622
O O12 0.117113 0.914235 0.017147
O O13 0.220167 0.830585 0.964700
O O14 0.584139 0.516639 0.292243
O O15 0.301697 0.062014 0.800927
O O16 0.794379 0.903541 0.348520
#
# Coordination Sequence:
#
# PCOD9123366 Si02
#       8
#     4   2   4   4   4   4   4   4
#     4  10  22  39  62  87 125 167 215 264 318 374
#     4  10  20  38  62  98 128 166 220 274 318 372
#     4  12  21  38  64  94 124 164 219 274 312 369
#     4  12  24  37  63 100 133 167 211 272 331 388
#     4  11  24  40  68 100 130 168 215 271 331 385
#     4  11  22  35  62  93 130 166 214 269 318 380
#     4  10  21  43  67  93 129 168 218 269 324 387
#     4  11  24  40  66  97 130 169 217 271 326 384
#
# _framework density 22.935886
#
# number of rings (size 3 to 8) (size 9 to 14) (size 15 to 20)
#    0.000    1.067    2.667    7.200    1.867    0.000 
#    0.000    0.000   23.467    0.000    0.000    0.000 
#    0.000    0.000    0.000    0.000    0.000    0.000 
#
# Total GULP energy -83621.872019 kJ/mol
# GULP energy per Si atom -5574.791468 kJ/mol
# Density = 2.288368 g / cm^3
# Si number density = 22.935886 Si / 1000 Ang^3
#
#
#
# Elastic Constant Matrix: (Units=GPa)
#
#
# Indices 1 2 3 4 5 6 
#
# 1 56.9434 43.8929 2.2765 0.0000 -17.7773 0.0000
# 2 43.8929 204.7750 31.2586 0.0000 -12.5292 0.0000
# 3 2.2765 31.2586 62.9871 0.0000 -16.0808 0.0000
# 4 0.0000 0.0000 0.0000 34.7482 0.0000 -14.6315
# 5 -17.7773 -12.5292 -16.0808 0.0000 24.0904 0.0000
# 6 0.0000 0.0000 0.0000 -14.6315 0.0000 31.8455
#
#
#
# Elastic Compliance Matrix: (Units=1/GPa)
#
#
# Indices 1 2 3 4 5 6 
#
# 1 0.029372 -0.006062 0.008047 0.000000 0.023893 0.000000
# 2 -0.006062 0.006564 -0.003989 0.000000 -0.003722 0.000000
# 3 0.008047 -0.003989 0.022362 0.000000 0.018791 0.000000
# 4 0.000000 0.000000 0.000000 0.035681 0.000000 0.016394
# 5 0.023893 -0.003722 0.018791 0.000000 0.069750 0.000000
# 6 0.000000 0.000000 0.000000 0.016394 0.000000 0.038934
#
#
# Mechanical properties :
#
#
# Convention : Reuss Voigt Hill
#
# Bulk Modulus (GPa) = 18.41961 53.28464 35.85212
# Shear Modulus (GPa) = 22.24522 34.62197 28.43359
#
# Velocity S-wave (km/s) = 3.11768 3.88946 3.52476
# Velocity P-wave (km/s) = 4.58348 6.59188 5.67720
#
# Compressibility (1/GPa) = 0.05428998
#
# Stress axis : x y z
#
# Youngs Moduli (GPa) = 34.04641 152.34756 44.71819
#
# Poissons Ratio (x) = 0.92356 -0.35984
# Poissons Ratio (y) = 0.20640 0.17837
# Poissons Ratio (z) = -0.27397 0.60766
#
# Static dielectric constant tensor:
#      x y z
#    x 1.903100 0.000000 -0.029920 
#    y 0.000000 1.940620 0.000000 
#    z -0.029920 0.000000 1.931890 
# 
# From -- ./inp_files/29801.got.cif
#   From: 2010.05.17/outbox.cif.g08.bks.cpg/sg5_15_cif.got.tgz:29801.got - 2010.06.03 18:56:24.
