data_PCOD9123069
_publ_section_title
;
Structure prediction by ZEFSAII (Michael W. Deem and Ramdas Pophale) SiO2 
 PCOD9123069
Probable space group: C 2
;
_chemical_formula_sum "Si O2"
_cell_formula_units_Z 32
_cell_length_a 33.143796
_cell_length_b 7.757627
_cell_length_c 12.645981
_cell_angle_alpha 90.000000
_cell_angle_beta 23.969747
_cell_angle_gamma 90.000000
_cell_volume 1320.935320
_symmetry_space_group_name_H-M "C 2"
_symmetry_group_IT_number 5
_symmetry_cell_setting 'monoclinic'
loop_
_space_group_symop_operation_xyz
x,y,z
-x,y,-z
1/2+x,1/2+y,z
1/2-x,1/2+y,-z
loop_
_atom_site_type_symbol
_atom_site_label
_atom_site_fract_x
_atom_site_fract_y
_atom_site_fract_z
Si Si1 0.221145 0.416610 0.730118
Si Si2 0.472002 0.055287 0.753261
Si Si3 0.297602 0.514606 0.036519
Si Si4 0.289773 0.772891 0.459681
Si Si5 0.393660 0.485877 0.458668
Si Si6 0.105811 0.370858 0.595277
Si Si7 0.159679 0.730427 0.228122
Si Si8 0.397763 0.434848 0.994506
O O1 0.247856 0.593664 0.604654
O O2 0.194218 0.282796 0.703264
O O3 0.323061 0.384634 0.547169
O O4 0.128912 0.450794 0.030299
O O5 0.570056 0.088464 0.445899
O O6 0.432121 0.245360 0.873199
O O7 0.513209 0.961987 0.761150
O O8 0.197888 0.490393 0.343016
O O9 0.260439 0.647179 0.035334
O O10 0.324867 0.331877 0.917246
O O11 0.379838 0.545753 0.930368
O O12 0.383940 0.830849 0.304867
O O13 0.200564 0.902105 0.703871
O O14 0.368914 0.687068 0.519432
O O15 0.375226 0.384301 0.610593
O O16 0.510291 0.491507 0.154445
#
# Coordination Sequence:
#
# PCOD9123069 Si02
#       8
#     4   4   4   4   4   4   4   4
#     4  10  21  37  56  83 116 159 205 250 303 365
#     4   9  20  36  56  81 116 156 197 240 301 359
#     4  10  20  37  61  86 116 151 196 243 306 369
#     4   9  20  36  56  79 113 155 200 250 304 355
#     4  10  21  36  56  83 119 154 198 251 303 357
#     4   9  19  37  56  83 117 152 195 251 300 361
#     4  10  21  38  61  88 116 156 196 249 309 370
#     4   9  20  38  56  82 115 152 195 250 302 361
#
# _framework density 24.225258
#
# number of rings (size 3 to 8) (size 9 to 14) (size 15 to 20)
#    0.000    2.500    0.000    1.500    0.000    9.000 
#    0.000    7.500    0.000    3.000    0.000    0.000 
#    0.000    0.000    0.000    0.000    0.000    0.000 
#
# Total GULP energy -89234.664431 kJ/mol
# GULP energy per Si atom -5577.166527 kJ/mol
# Density = 2.417012 g / cm^3
# Si number density = 24.225258 Si / 1000 Ang^3
#
#
#
# Elastic Constant Matrix: (Units=GPa)
#
#
# Indices 1 2 3 4 5 6 
#
# 1 100.1473 22.7469 45.5970 0.0000 -17.5396 0.0000
# 2 22.7469 92.9982 12.5385 0.0000 1.2360 0.0000
# 3 45.5970 12.5385 81.3305 0.0000 -16.8910 0.0000
# 4 0.0000 0.0000 0.0000 32.3529 0.0000 4.2878
# 5 -17.5396 1.2360 -16.8910 0.0000 32.2985 0.0000
# 6 0.0000 0.0000 0.0000 4.2878 0.0000 36.6164
#
#
#
# Elastic Compliance Matrix: (Units=1/GPa)
#
#
# Indices 1 2 3 4 5 6 
#
# 1 0.014449 -0.002680 -0.006772 0.000000 0.004407 0.000000
# 2 -0.002680 0.011540 -0.000752 0.000000 -0.002290 0.000000
# 3 -0.006772 -0.000752 0.017333 0.000000 0.005416 0.000000
# 4 0.000000 0.000000 0.000000 0.031396 0.000000 -0.003676
# 5 0.004407 -0.002290 0.005416 0.000000 0.036274 0.000000
# 6 0.000000 0.000000 0.000000 -0.003676 0.000000 0.027741
#
#
# Mechanical properties :
#
#
# Convention : Reuss Voigt Hill
#
# Bulk Modulus (GPa) = 43.64219 48.47122 46.05671
# Shear Modulus (GPa) = 29.97942 33.15981 31.56961
#
# Velocity S-wave (km/s) = 3.52167 3.70376 3.61386
# Velocity P-wave (km/s) = 5.88137 6.19213 6.03874
#
# Compressibility (1/GPa) = 0.02291360
#
# Stress axis : x y z
#
# Youngs Moduli (GPa) = 69.20737 86.65339 57.69311
#
# Poissons Ratio (x) = 0.23221 0.39072
# Poissons Ratio (y) = 0.18546 0.04341
# Poissons Ratio (z) = 0.46870 0.06520
#
# Static dielectric constant tensor:
#      x y z
#    x 2.003800 0.000000 -0.042250 
#    y 0.000000 1.971160 0.000000 
#    z -0.042250 0.000000 1.952260 
# 
# From -- ./inp_files/48391.got.cif
#   From: 2010.05.17/outbox.cif.g08.bks.cpg/sg5_25_cif.got.tgz:48391.got - 2010.06.03 18:56:24.
