data_PCOD9123624
_publ_section_title
;
Structure prediction by ZEFSAII (Michael W. Deem and Ramdas Pophale) SiO2 
 PCOD9123624
Probable space group: C 2
;
_chemical_formula_sum "Si O2"
_cell_formula_units_Z 28
_cell_length_a 11.462076
_cell_length_b 9.465464
_cell_length_c 13.496977
_cell_angle_alpha 90.000000
_cell_angle_beta 125.840533
_cell_angle_gamma 90.000000
_cell_volume 1187.066306
_symmetry_space_group_name_H-M "C 2"
_symmetry_group_IT_number 5
_symmetry_cell_setting 'monoclinic'
loop_
_space_group_symop_operation_xyz
x,y,z
-x,y,-z
1/2+x,1/2+y,z
1/2-x,1/2+y,-z
loop_
_atom_site_type_symbol
_atom_site_label
_atom_site_fract_x
_atom_site_fract_y
_atom_site_fract_z
Si Si1 0.069180 0.281610 0.218202
Si Si2 0.632012 0.131184 0.895883
Si Si3 0.703104 0.813914 0.683945
Si Si4 0.331643 0.520658 0.607667
Si Si5 0.732748 0.361470 0.075041
Si Si6 0.553614 0.013043 0.361840
Si Si7 0.500000 0.932832 0.000000
Si Si8 0.500000 0.575036 0.500000
O O1 0.111535 0.130407 0.281555
O O2 0.127757 0.396794 0.325850
O O3 0.896579 0.302438 0.143087
O O4 0.097278 0.332545 0.119763
O O5 0.652164 0.286514 0.946357
O O6 0.766166 0.031360 0.928375
O O7 0.523582 0.119661 0.750917
O O8 0.579076 0.037325 0.963289
O O9 0.799420 0.806823 0.830737
O O10 0.573132 0.925773 0.645024
O O11 0.624408 0.674096 0.609056
O O12 0.795665 0.875477 0.642214
O O13 0.176008 0.574502 0.491510
O O14 0.433705 0.502956 0.563760
#
# Coordination Sequence:
#
# PCOD9123624 Si02
#       8
#     4   4   4   4   4   4   2   2
#     4   9  19  37  58  91 125 173 217 269 338 390
#     4   9  19  37  62  93 125 175 220 274 334 390
#     4  10  20  39  64  92 132 176 216 275 342 388
#     4  12  20  36  69  93 125 179 222 267 340 409
#     4   9  19  39  62  90 133 173 220 276 331 401
#     4   9  19  39  63  91 129 175 221 273 339 397
#     4   8  18  34  58  84 126 166 214 260 336 388
#     4  12  22  40  64  94 132 174 218 276 344 390
#
# _framework density 23.587561999999998
#
# number of rings (size 3 to 8) (size 9 to 14) (size 15 to 20)
#    0.000    2.857    4.286    0.000    0.000    6.857 
#    0.000    4.286   12.571    0.000    0.000    0.000 
#    0.000    0.000    0.000    0.000    0.000    0.000 
#
# Total GULP energy -78132.063562 kJ/mol
# GULP energy per Si atom -5580.861683 kJ/mol
# Density = 2.353388 g / cm^3
# Si number density = 23.587562 Si / 1000 Ang^3
#
#
#
# Elastic Constant Matrix: (Units=GPa)
#
#
# Indices 1 2 3 4 5 6 
#
# 1 76.3945 23.5962 21.7736 0.0000 -21.2887 0.0000
# 2 23.5962 35.9934 15.4475 0.0000 4.4218 0.0000
# 3 21.7736 15.4475 53.1178 0.0000 -16.3981 0.0000
# 4 0.0000 0.0000 0.0000 41.2427 0.0000 -1.0117
# 5 -21.2887 4.4218 -16.3981 0.0000 31.3410 0.0000
# 6 0.0000 0.0000 0.0000 -1.0117 0.0000 23.9513
#
#
#
# Elastic Compliance Matrix: (Units=1/GPa)
#
#
# Indices 1 2 3 4 5 6 
#
# 1 0.023968 -0.018945 0.001832 0.000000 0.019912 0.000000
# 2 -0.018945 0.050327 -0.015546 0.000000 -0.028103 0.000000
# 3 0.001832 -0.015546 0.028215 0.000000 0.018200 0.000000
# 4 0.000000 0.000000 0.000000 0.024272 0.000000 0.001025
# 5 0.019912 -0.028103 0.018200 0.000000 0.058920 0.000000
# 6 0.000000 0.000000 0.000000 0.001025 0.000000 0.041795
#
#
# Mechanical properties :
#
#
# Convention : Reuss Voigt Hill
#
# Bulk Modulus (GPa) = 26.88777 31.90448 29.39613
# Shear Modulus (GPa) = 16.38198 26.28622 21.33410
#
# Velocity S-wave (km/s) = 2.63823 3.34190 3.01069
# Velocity P-wave (km/s) = 4.55019 5.33352 4.95735
#
# Compressibility (1/GPa) = 0.03719163
#
# Stress axis : x y z
#
# Youngs Moduli (GPa) = 41.72144 19.86993 35.44244
#
# Poissons Ratio (x) = 0.37644 -0.06492
# Poissons Ratio (y) = 0.79043 0.55098
# Poissons Ratio (z) = -0.07642 0.30889
#
# Static dielectric constant tensor:
#      x y z
#    x 1.995690 0.000000 -0.027860 
#    y 0.000000 1.910620 0.000000 
#    z -0.027860 0.000000 1.962860 
# 
# From -- ./inp_files/52775.got.cif
#   From: 2010.05.17/outbox.cif.g08.bks.cpg/sg5_27_cif.got.tgz:52775.got - 2010.06.03 18:56:24.
