data_PCOD9123757
_publ_section_title
;
Structure prediction by ZEFSAII (Michael W. Deem and Ramdas Pophale) SiO2 
 PCOD9123757
Probable space group: C 2
;
_chemical_formula_sum "Si O2"
_cell_formula_units_Z 26
_cell_length_a 5.656794
_cell_length_b 12.853232
_cell_length_c 18.697459
_cell_angle_alpha 90.000000
_cell_angle_beta 55.408652
_cell_angle_gamma 90.000000
_cell_volume 1119.134603
_symmetry_space_group_name_H-M "C 2"
_symmetry_group_IT_number 5
_symmetry_cell_setting 'monoclinic'
loop_
_space_group_symop_operation_xyz
x,y,z
-x,y,-z
1/2+x,1/2+y,z
1/2-x,1/2+y,-z
loop_
_atom_site_type_symbol
_atom_site_label
_atom_site_fract_x
_atom_site_fract_y
_atom_site_fract_z
Si Si1 0.831868 0.064460 0.241713
Si Si2 0.272825 0.087136 0.415321
Si Si3 0.546638 0.426072 0.337661
Si Si4 0.115483 0.368663 0.193849
Si Si5 0.000000 0.433044 0.500000
Si Si6 0.658653 0.969501 0.049472
Si Si7 0.388272 0.182532 0.098959
O O1 0.565101 0.124561 0.325386
O O2 0.065901 0.135862 0.162303
O O3 0.719515 0.979295 0.204994
O O4 0.977960 0.990436 0.277328
O O5 0.000000 0.144630 0.500000
O O6 0.131392 0.015839 0.378693
O O7 0.392067 0.008457 0.455330
O O8 0.264241 0.372981 0.418891
O O9 0.817774 0.350555 0.285008
O O10 0.037708 0.383966 0.124151
O O11 0.363406 0.282947 0.153483
O O12 0.584815 0.086330 0.087481
O O13 0.500000 0.959916 0.000000
O O14 0.000000 0.957770 0.000000
O O15 0.500000 0.209194 0.000000
#
# Coordination Sequence:
#
# PCOD9123757 Si02
#       7
#     4   4   4   4   2   4   4
#     4  10  20  40  61  90 132 167 212 274 325 389
#     4   8  15  29  60  95 121 163 209 253 324 394
#     4   9  17  33  59  90 125 163 209 261 325 389
#     4  11  22  41  63  91 125 172 219 272 331 390
#     4   8  14  28  56  96 120 160 206 250 326 394
#     4  11  24  46  68  92 133 175 224 286 338 393
#     4  11  24  43  62  94 125 175 223 273 327 393
#
# _framework density 23.232237999999999
#
# number of rings (size 3 to 8) (size 9 to 14) (size 15 to 20)
#    0.000    2.154    1.538    2.308    0.000    0.000 
#    8.308    3.077    1.692    0.000  100.000    0.000 
#    0.000    0.000    0.000    0.000    0.000    0.000 
#
# Total GULP energy -72428.555803 kJ/mol
# GULP energy per Si atom -5571.427369 kJ/mol
# Density = 2.317936 g / cm^3
# Si number density = 23.232238 Si / 1000 Ang^3
#
#
#
# Elastic Constant Matrix: (Units=GPa)
#
#
# Indices 1 2 3 4 5 6 
#
# 1 91.1802 5.3979 50.8167 0.0003 0.2143 -0.0001
# 2 5.3979 53.2013 31.9049 0.0002 -7.4507 -0.0001
# 3 50.8167 31.9049 156.8561 0.0003 -43.8295 -0.0002
# 4 0.0003 0.0002 0.0003 19.9133 -0.0002 -13.4250
# 5 0.2143 -7.4507 -43.8295 -0.0002 66.8996 0.0001
# 6 -0.0001 -0.0001 -0.0002 -13.4250 0.0001 17.8729
#
#
#
# Elastic Compliance Matrix: (Units=1/GPa)
#
#
# Indices 1 2 3 4 5 6 
#
# 1 0.014223 0.001623 -0.005998 0.000000 -0.003795 0.000000
# 2 0.001623 0.021611 -0.005203 0.000000 -0.001007 0.000000
# 3 -0.005998 -0.005203 0.011286 0.000000 0.006834 0.000000
# 4 0.000000 0.000000 0.000000 0.101737 0.000000 0.076418
# 5 -0.003795 -0.001007 0.006834 0.000000 0.019325 0.000000
# 6 0.000000 0.000000 0.000000 0.076418 0.000000 0.113351
#
#
# Mechanical properties :
#
#
# Convention : Reuss Voigt Hill
#
# Bulk Modulus (GPa) = 35.76062 53.05296 44.40679
# Shear Modulus (GPa) = 16.12842 35.14503 25.63672
#
# Velocity S-wave (km/s) = 2.63768 3.89365 3.32550
# Velocity P-wave (km/s) = 4.97016 6.56502 5.82246
#
# Compressibility (1/GPa) = 0.02796372
#
# Stress axis : x y z
#
# Youngs Moduli (GPa) = 70.30825 46.27273 88.60235
#
# Poissons Ratio (x) = -0.07508 0.53146
# Poissons Ratio (y) = -0.11408 0.46098
# Poissons Ratio (z) = 0.42172 0.24075
#
# Static dielectric constant tensor:
#      x y z
#    x 1.940180 0.000000 -0.026500 
#    y 0.000000 1.852250 0.000000 
#    z -0.026500 0.000000 2.037930 
# 
# From -- ./inp_files/58736.got.cif
#   From: 2010.05.17/outbox.cif.g08.bks.cpg/sg5_30_cif.got.tgz:58736.got - 2010.06.03 18:56:24.
