data_PCOD9123255
_publ_section_title
;
Structure prediction by ZEFSAII (Michael W. Deem and Ramdas Pophale) SiO2 
 PCOD9123255
Probable space group: C 2
;
_chemical_formula_sum "Si O2"
_cell_formula_units_Z 32
_cell_length_a 10.370074
_cell_length_b 12.196229
_cell_length_c 24.058456
_cell_angle_alpha 90.000000
_cell_angle_beta 154.955010
_cell_angle_gamma 90.000000
_cell_volume 1288.113122
_symmetry_space_group_name_H-M "C 2"
_symmetry_group_IT_number 5
_symmetry_cell_setting 'monoclinic'
loop_
_space_group_symop_operation_xyz
x,y,z
-x,y,-z
1/2+x,1/2+y,z
1/2-x,1/2+y,-z
loop_
_atom_site_type_symbol
_atom_site_label
_atom_site_fract_x
_atom_site_fract_y
_atom_site_fract_z
Si Si1 0.469216 0.030810 0.744777
Si Si2 0.955881 0.104532 0.691286
Si Si3 0.626302 0.437703 0.429481
Si Si4 0.840054 0.095970 0.112817
Si Si5 0.886976 0.630401 0.086962
Si Si6 0.642782 0.850607 0.375957
Si Si7 0.635038 0.255734 0.354039
Si Si8 0.149884 0.840433 0.868736
O O1 0.662029 0.069630 0.873484
O O2 0.442381 0.129613 0.690075
O O3 0.549160 0.919259 0.743991
O O4 0.135809 0.006528 0.641406
O O5 0.925721 0.120691 0.745808
O O6 0.314659 0.073948 0.823399
O O7 0.895702 0.221307 0.640118
O O8 0.789849 0.012781 0.590155
O O9 0.885888 0.406431 0.574954
O O10 0.513022 0.320876 0.360288
O O11 0.846449 0.964774 0.111610
O O12 0.500000 0.134575 0.000000
O O13 0.867957 0.135324 0.060181
O O14 0.981130 0.754047 0.139026
O O15 0.000000 0.866984 0.500000
O O16 0.511155 0.321972 0.252628
O O17 0.000000 0.262649 0.500000
O O18 0.500000 0.804764 0.000000
#
# Coordination Sequence:
#
# PCOD9123255 Si02
#       8
#     4   4   4   4   4   4   4   4
#     4   9  21  40  60  91 125 170 213 257 332 398
#     4  10  20  38  58  88 121 157 209 259 322 386
#     4  10  21  36  62  87 121 168 210 258 319 387
#     4   9  18  37  59  82 113 155 202 255 314 381
#     4   9  20  37  64  82 114 167 208 250 327 382
#     4  10  22  37  56  87 125 163 204 259 331 388
#     4  11  22  38  68  95 125 170 219 269 324 400
#     4  10  21  39  61  90 120 159 216 266 311 387
#
# _framework density 24.842538000000001
#
# number of rings (size 3 to 8) (size 9 to 14) (size 15 to 20)
#    0.000    2.250    1.250    1.125    8.750    1.500 
#    2.250    2.500    2.750    0.750    0.000    0.000 
#    0.000    0.000    0.000    0.000    0.000    0.000 
#
# Total GULP energy -89377.663248 kJ/mol
# GULP energy per Si atom -5586.103953 kJ/mol
# Density = 2.478599 g / cm^3
# Si number density = 24.842538 Si / 1000 Ang^3
#
#
#
# Elastic Constant Matrix: (Units=GPa)
#
#
# Indices 1 2 3 4 5 6 
#
# 1 51.1751 33.0714 48.5677 0.0020 -7.4355 0.0009
# 2 33.0714 104.3847 22.0016 0.0003 -28.1970 0.0000
# 3 48.5677 22.0016 115.0884 0.0036 -42.9681 0.0011
# 4 0.0020 0.0003 0.0036 31.7997 0.0018 -9.9844
# 5 -7.4355 -28.1970 -42.9681 0.0018 58.8848 0.0007
# 6 0.0009 0.0000 0.0011 -9.9844 0.0007 33.0157
#
#
#
# Elastic Compliance Matrix: (Units=1/GPa)
#
#
# Indices 1 2 3 4 5 6 
#
# 1 0.052925 -0.016762 -0.026983 0.000001 -0.021033 0.000000
# 2 -0.016762 0.016315 0.008358 -0.000001 0.011795 0.000000
# 3 -0.026983 0.008358 0.025702 -0.000003 0.019350 -0.000001
# 4 0.000001 -0.000001 -0.000003 0.034746 -0.000004 0.010508
# 5 -0.021033 0.011795 0.019350 -0.000004 0.034094 -0.000002
# 6 0.000000 0.000000 -0.000001 0.010508 -0.000002 0.033466
#
#
# Mechanical properties :
#
#
# Convention : Reuss Voigt Hill
#
# Bulk Modulus (GPa) = 41.37484 53.10328 47.23906
# Shear Modulus (GPa) = 18.11084 35.87388 26.99236
#
# Velocity S-wave (km/s) = 2.70298 3.80419 3.29984
# Velocity P-wave (km/s) = 5.14125 6.38108 5.79442
#
# Compressibility (1/GPa) = 0.02416928
#
# Stress axis : x y z
#
# Youngs Moduli (GPa) = 18.89465 61.29353 38.90722
#
# Poissons Ratio (x) = 1.02741 1.04982
# Poissons Ratio (y) = 0.31671 -0.32520
# Poissons Ratio (z) = 0.50983 -0.51231
#
# Static dielectric constant tensor:
#      x y z
#    x 2.072480 0.000000 0.019000 
#    y 0.000000 1.916640 0.000000 
#    z 0.019000 0.000000 1.989060 
# 
# From -- ./inp_files/68395.got.cif
#   From: 2010.05.17/outbox.cif.g08.bks.cpg/sg5_35_cif.got.tgz:68395.got - 2010.06.03 18:56:24.
