data_PCOD9123327
_publ_section_title
;
Structure prediction by ZEFSAII (Michael W. Deem and Ramdas Pophale) SiO2 
 PCOD9123327
Probable space group: C 2
;
_chemical_formula_sum "Si O2"
_cell_formula_units_Z 28
_cell_length_a 13.165113
_cell_length_b 10.257694
_cell_length_c 10.667515
_cell_angle_alpha 90.000000
_cell_angle_beta 129.973046
_cell_angle_gamma 90.000000
_cell_volume 1103.984337
_symmetry_space_group_name_H-M "C 2"
_symmetry_group_IT_number 5
_symmetry_cell_setting 'monoclinic'
loop_
_space_group_symop_operation_xyz
x,y,z
-x,y,-z
1/2+x,1/2+y,z
1/2-x,1/2+y,-z
loop_
_atom_site_type_symbol
_atom_site_label
_atom_site_fract_x
_atom_site_fract_y
_atom_site_fract_z
Si Si1 0.703776 0.920920 0.203644
Si Si2 0.000000 0.291560 0.500000
Si Si3 0.656342 0.425102 0.200536
Si Si4 0.872633 0.457338 0.591937
Si Si5 0.005261 0.729248 0.256823
Si Si6 0.308005 0.668332 0.951600
Si Si7 0.277122 0.677079 0.195555
Si Si8 0.000000 0.877113 0.500000
O O1 0.662293 0.881963 0.309672
O O2 0.656824 0.809788 0.073607
O O3 0.864638 0.936986 0.337600
O O4 0.668763 0.064691 0.127643
O O5 0.009461 0.385713 0.388246
O O6 0.126132 0.199224 0.609331
O O7 0.757732 0.458589 0.395301
O O8 0.542842 0.338708 0.182174
O O9 0.647878 0.557290 0.111371
O O10 0.713444 0.320141 0.146752
O O11 0.908811 0.598158 0.674688
O O12 0.046628 0.791971 0.421136
O O13 0.852254 0.682470 0.152632
O O14 0.357528 0.647732 0.132237
#
# Coordination Sequence:
#
# PCOD9123327 Si02
#       8
#     4   2   4   4   4   4   4   2
#     4  11  22  40  68  96 142 178 227 298 351 416
#     4  10  24  42  74 100 137 185 234 306 367 433
#     4  11  23  40  73 102 140 185 242 290 355 431
#     4  11  21  41  68 106 134 179 239 290 350 423
#     4  11  21  41  70 101 142 183 239 290 361 424
#     4  11  26  44  68  99 143 192 234 296 364 432
#     4  11  23  46  66  99 137 183 235 293 365 437
#     4  10  20  38  62 102 133 177 222 292 349 407
#
# _framework density 25.362677999999999
#
# number of rings (size 3 to 8) (size 9 to 14) (size 15 to 20)
#    0.000    1.143    2.857    5.143    0.000    0.571 
#    5.143    2.143    3.143    0.000    0.000    0.000 
#    0.000    0.000    0.000    0.000    0.000    0.000 
#
# Total GULP energy -78139.984909 kJ/mol
# GULP energy per Si atom -5581.427493 kJ/mol
# Density = 2.530495 g / cm^3
# Si number density = 25.362678 Si / 1000 Ang^3
#
#
#
# Elastic Constant Matrix: (Units=GPa)
#
#
# Indices 1 2 3 4 5 6 
#
# 1 110.0702 41.0002 34.6111 0.0000 -24.7626 0.0000
# 2 41.0002 154.1081 24.2936 0.0000 -20.7308 0.0000
# 3 34.6111 24.2936 80.9276 0.0000 -19.4301 0.0000
# 4 0.0000 0.0000 0.0000 31.0016 0.0000 -21.9901
# 5 -24.7626 -20.7308 -19.4301 0.0000 65.8115 0.0000
# 6 0.0000 0.0000 0.0000 -21.9901 0.0000 43.5041
#
#
#
# Elastic Compliance Matrix: (Units=1/GPa)
#
#
# Indices 1 2 3 4 5 6 
#
# 1 0.011642 -0.002163 -0.003704 0.000000 0.002605 0.000000
# 2 -0.002163 0.007386 -0.001000 0.000000 0.001218 0.000000
# 3 -0.003704 -0.001000 0.014886 0.000000 0.002686 0.000000
# 4 0.000000 0.000000 0.000000 0.050286 0.000000 0.025418
# 5 0.002605 0.001218 0.002686 0.000000 0.017352 0.000000
# 6 0.000000 0.000000 0.000000 0.025418 0.000000 0.035834
#
#
# Mechanical properties :
#
#
# Convention : Reuss Voigt Hill
#
# Bulk Modulus (GPa) = 49.55417 60.54619 55.05018
# Shear Modulus (GPa) = 31.67648 44.41018 38.04333
#
# Velocity S-wave (km/s) = 3.53787 4.18904 3.87715
# Velocity P-wave (km/s) = 6.02240 6.87906 6.46493
#
# Compressibility (1/GPa) = 0.02017994
#
# Stress axis : x y z
#
# Youngs Moduli (GPa) = 85.89857 135.39557 67.17739
#
# Poissons Ratio (x) = 0.29284 0.24883
# Poissons Ratio (y) = 0.18578 0.06716
# Poissons Ratio (z) = 0.31817 0.13537
#
# Static dielectric constant tensor:
#      x y z
#    x 2.039720 0.000000 0.056500 
#    y 0.000000 2.040040 0.000000 
#    z 0.056500 0.000000 2.016750 
# 
# From -- ./inp_files/42051.got.cif
#   From: 2010.05.17/outbox.cif.g08.bks.cpg/sg5_22_cif.got.tgz:42051.got - 2010.06.03 18:56:24.
