data_PCOD9123806
_publ_section_title
;
Structure prediction by ZEFSAII (Michael W. Deem and Ramdas Pophale) SiO2 
 PCOD9123806
Probable space group: C 2
;
_chemical_formula_sum "Si O2"
_cell_formula_units_Z 26
_cell_length_a 12.283227
_cell_length_b 14.084849
_cell_length_c 6.617755
_cell_angle_alpha 90.000000
_cell_angle_beta 89.927492
_cell_angle_gamma 90.000000
_cell_volume 1144.919653
_symmetry_space_group_name_H-M "C 2"
_symmetry_group_IT_number 5
_symmetry_cell_setting 'monoclinic'
loop_
_space_group_symop_operation_xyz
x,y,z
-x,y,-z
1/2+x,1/2+y,z
1/2-x,1/2+y,-z
loop_
_atom_site_type_symbol
_atom_site_label
_atom_site_fract_x
_atom_site_fract_y
_atom_site_fract_z
Si Si1 0.656277 0.452490 0.351100
Si Si2 0.085263 0.165177 0.301055
Si Si3 0.636925 0.284308 0.125554
Si Si4 0.302260 0.998696 0.973492
Si Si5 0.000000 0.627924 0.000000
Si Si6 0.344786 0.665021 0.171309
Si Si7 0.255737 0.833841 0.716521
O O1 0.612515 0.558477 0.377035
O O2 0.583729 0.375875 0.230250
O O3 0.747029 0.463322 0.177533
O O4 0.697683 0.395865 0.544792
O O5 0.046295 0.177619 0.694891
O O6 0.170559 0.247433 0.364498
O O7 0.113906 0.167440 0.060173
O O8 0.752975 0.244984 0.206620
O O9 0.552845 0.199212 0.159180
O O10 0.668736 0.300447 0.888837
O O11 0.400381 0.061808 0.051945
O O12 0.221176 0.064695 0.838028
O O13 0.332353 0.908266 0.838575
#
# Coordination Sequence:
#
# PCOD9123806 Si02
#       7
#     4   4   4   4   2   4   4
#     4  10  21  38  59  85 117 153 194 244 297 352
#     4   9  18  34  59  83 110 149 193 239 289 344
#     4   9  20  38  60  84 118 153 190 242 296 353
#     4   9  20  38  60  84 118 153 190 242 296 353
#     4  10  20  40  64  90 122 158 194 242 306 360
#     4   8  16  35  58  82 109 145 189 236 288 346
#     4  10  21  38  59  85 117 153 194 244 297 352
#
# _framework density 22.709015000000001
#
# number of rings (size 3 to 8) (size 9 to 14) (size 15 to 20)
#    0.000    2.769    0.000    0.923    0.000    9.846 
#    0.000   10.769    0.000    0.000    0.000    0.000 
#    0.000    0.000    0.000    0.000    0.000    0.000 
#
# Total GULP energy -72406.860735 kJ/mol
# GULP energy per Si atom -5569.758518 kJ/mol
# Density = 2.265733 g / cm^3
# Si number density = 22.709015 Si / 1000 Ang^3
#
#
#
# Elastic Constant Matrix: (Units=GPa)
#
#
# Indices 1 2 3 4 5 6 
#
# 1 94.3227 54.2613 34.6580 0.0000 30.3523 0.0000
# 2 54.2613 135.4659 33.3630 0.0000 2.6885 0.0000
# 3 34.6580 33.3630 88.2218 0.0000 12.5182 0.0000
# 4 0.0000 0.0000 0.0000 28.5750 0.0000 6.5921
# 5 30.3523 2.6885 12.5182 0.0000 21.9679 0.0000
# 6 0.0000 0.0000 0.0000 6.5921 0.0000 24.9032
#
#
#
# Elastic Compliance Matrix: (Units=1/GPa)
#
#
# Indices 1 2 3 4 5 6 
#
# 1 0.030234 -0.010781 -0.002242 0.000000 -0.039177 0.000000
# 2 -0.010781 0.011998 -0.002401 0.000000 0.014796 0.000000
# 3 -0.002242 -0.002401 0.013755 0.000000 -0.004447 0.000000
# 4 0.000000 0.000000 0.000000 0.037272 0.000000 -0.009866
# 5 -0.039177 0.014796 -0.004447 0.000000 0.100373 0.000000
# 6 0.000000 0.000000 0.000000 -0.009866 0.000000 0.042767
#
#
# Mechanical properties :
#
#
# Convention : Reuss Voigt Hill
#
# Bulk Modulus (GPa) = 39.77824 62.50832 51.14328
# Shear Modulus (GPa) = 18.14048 28.13777 23.13912
#
# Velocity S-wave (km/s) = 2.82941 3.52384 3.19555
# Velocity P-wave (km/s) = 5.31306 6.64396 6.01543
#
# Compressibility (1/GPa) = 0.02513937
#
# Stress axis : x y z
#
# Youngs Moduli (GPa) = 33.07511 83.34709 72.70165
#
# Poissons Ratio (x) = 0.89855 0.16297
# Poissons Ratio (y) = 0.35658 0.17459
# Poissons Ratio (z) = 0.07414 0.20015
#
# Static dielectric constant tensor:
#      x y z
#    x 1.857950 0.000000 0.042510 
#    y 0.000000 1.887990 0.000000 
#    z 0.042510 0.000000 1.943080 
# 
# From -- ./inp_files/8464.got.cif
#   From: 2010.05.17/outbox.cif.g08.bks.cpg/sg5_5_cif.got.tgz:8464.got - 2010.06.03 18:56:24.
