data_PCOD9123175
_publ_section_title
;
Structure prediction by ZEFSAII (Michael W. Deem and Ramdas Pophale) SiO2 
 PCOD9123175
Probable space group: C 2
;
_chemical_formula_sum "Si O2"
_cell_formula_units_Z 28
_cell_length_a 14.698725
_cell_length_b 15.475984
_cell_length_c 5.288362
_cell_angle_alpha 90.000000
_cell_angle_beta 111.209732
_cell_angle_gamma 90.000000
_cell_volume 1121.494801
_symmetry_space_group_name_H-M "C 2"
_symmetry_group_IT_number 5
_symmetry_cell_setting 'monoclinic'
loop_
_space_group_symop_operation_xyz
x,y,z
-x,y,-z
1/2+x,1/2+y,z
1/2-x,1/2+y,-z
loop_
_atom_site_type_symbol
_atom_site_label
_atom_site_fract_x
_atom_site_fract_y
_atom_site_fract_z
Si Si1 0.332626 0.133360 0.359861
Si Si2 0.414073 0.273524 0.712633
Si Si3 0.000000 0.246518 0.000000
Si Si4 0.265545 0.768585 0.093753
Si Si5 0.409270 0.459177 0.712641
Si Si6 0.500000 0.863351 0.500000
Si Si7 0.198866 0.450543 0.786300
Si Si8 0.644381 0.636406 0.470885
O O1 0.421390 0.180803 0.585966
O O2 0.254151 0.113473 0.499008
O O3 0.332617 0.048912 0.183800
O O4 0.288520 0.214139 0.168445
O O5 0.310980 0.276960 0.753983
O O6 0.416194 0.366877 0.579439
O O7 0.500000 0.277278 0.000000
O O8 0.986282 0.308398 0.229097
O O9 0.086942 0.183797 0.184783
O O10 0.287404 0.865930 0.022583
O O11 0.347768 0.705547 0.296934
O O12 0.305588 0.458481 0.762273
O O13 0.404166 0.543805 0.532305
O O14 0.500000 0.467328 0.000000
O O15 0.599557 0.917570 0.546532
#
# Coordination Sequence:
#
# PCOD9123175 Si02
#       8
#     4   4   2   4   4   2   4   4
#     4  10  22  39  61  89 128 178 229 282 351 413
#     4   9  20  37  59  86 121 169 220 280 335 408
#     4  12  24  44  74 102 144 186 236 300 364 424
#     4  10  20  39  58  86 125 166 220 283 346 409
#     4   9  18  38  65  95 132 174 231 287 348 417
#     4  12  26  46  68 108 142 194 232 294 364 424
#     4  10  22  41  61  97 136 177 239 290 351 433
#     4  10  20  37  64  96 126 173 221 291 352 418
#
# _framework density 24.966678999999999
#
# number of rings (size 3 to 8) (size 9 to 14) (size 15 to 20)
#    0.000    2.000    2.143    0.857    0.000    2.857 
#    9.000    0.000    0.000    3.429    0.000    0.000 
#    0.000    0.000    0.000    0.000    0.000    0.000 
#
# Total GULP energy -77968.456296 kJ/mol
# GULP energy per Si atom -5569.175450 kJ/mol
# Density = 2.490985 g / cm^3
# Si number density = 24.966679 Si / 1000 Ang^3
#
#
#
# Elastic Constant Matrix: (Units=GPa)
#
#
# Indices 1 2 3 4 5 6 
#
# 1 112.8130 6.7723 2.5799 0.0000 10.5148 0.0000
# 2 6.7723 224.3437 29.6853 0.0000 9.9512 0.0000
# 3 2.5799 29.6853 53.7247 0.0000 9.0736 0.0000
# 4 0.0000 0.0000 0.0000 25.1019 0.0000 9.6143
# 5 10.5148 9.9512 9.0736 0.0000 32.1644 0.0000
# 6 0.0000 0.0000 0.0000 9.6143 0.0000 22.8550
#
#
#
# Elastic Compliance Matrix: (Units=1/GPa)
#
#
# Indices 1 2 3 4 5 6 
#
# 1 0.009149 -0.000164 0.000155 0.000000 -0.002984 0.000000
# 2 -0.000164 0.004830 -0.002539 0.000000 -0.000725 0.000000
# 3 0.000155 -0.002539 0.020879 0.000000 -0.005155 0.000000
# 4 0.000000 0.000000 0.000000 0.047489 0.000000 -0.019977
# 5 -0.002984 -0.000725 -0.005155 0.000000 0.033744 0.000000
# 6 0.000000 0.000000 0.000000 -0.019977 0.000000 0.052158
#
#
# Mechanical properties :
#
#
# Convention : Reuss Voigt Hill
#
# Bulk Modulus (GPa) = 33.59866 52.10625 42.85245
# Shear Modulus (GPa) = 27.28272 39.48051 33.38162
#
# Velocity S-wave (km/s) = 3.30929 3.98091 3.66053
# Velocity P-wave (km/s) = 5.29985 6.48427 5.92175
#
# Compressibility (1/GPa) = 0.02976310
#
# Stress axis : x y z
#
# Youngs Moduli (GPa) = 109.30576 207.01871 47.89394
#
# Poissons Ratio (x) = 0.03403 -0.00744
# Poissons Ratio (y) = 0.01797 0.12159
# Poissons Ratio (z) = -0.01699 0.52558
#
# Static dielectric constant tensor:
#      x y z
#    x 2.049960 0.000000 0.025980 
#    y 0.000000 2.037830 0.000000 
#    z 0.025980 0.000000 1.985800 
# 
# From -- ./inp_files/8703.got.cif
#   From: 2010.05.17/outbox.cif.g08.bks.cpg/sg5_5_cif.got.tgz:8703.got - 2010.06.03 18:56:24.
