data_PCOD9123406
_publ_section_title
;
Structure prediction by ZEFSAII (Michael W. Deem and Ramdas Pophale) SiO2 
 PCOD9123406
Probable space group: C 2
;
_chemical_formula_sum "Si O2"
_cell_formula_units_Z 26
_cell_length_a 11.456680
_cell_length_b 8.757308
_cell_length_c 13.993836
_cell_angle_alpha 90.000000
_cell_angle_beta 124.237589
_cell_angle_gamma 90.000000
_cell_volume 1160.700683
_symmetry_space_group_name_H-M "C 2"
_symmetry_group_IT_number 5
_symmetry_cell_setting 'monoclinic'
loop_
_space_group_symop_operation_xyz
x,y,z
-x,y,-z
1/2+x,1/2+y,z
1/2-x,1/2+y,-z
loop_
_atom_site_type_symbol
_atom_site_label
_atom_site_fract_x
_atom_site_fract_y
_atom_site_fract_z
Si Si1 0.148242 0.193370 0.419916
Si Si2 0.976237 0.742065 0.852607
Si Si3 0.210954 0.218228 0.055105
Si Si4 0.797877 0.673682 0.312475
Si Si5 0.433427 0.341101 0.614719
Si Si6 0.500000 0.920165 0.500000
Si Si7 0.000000 0.986546 0.000000
Si Si8 0.000000 0.481266 0.000000
O O1 0.159408 0.213465 0.310644
O O2 0.310397 0.231348 0.520276
O O3 0.060113 0.311217 0.443520
O O4 0.105677 0.017996 0.416872
O O5 0.147186 0.736005 0.938394
O O6 0.943811 0.788477 0.730057
O O7 0.937305 0.583180 0.884534
O O8 0.916137 0.874119 0.891830
O O9 0.255790 0.165229 0.182530
O O10 0.097327 0.089647 0.977144
O O11 0.125023 0.374519 0.020053
O O12 0.917991 0.804532 0.366596
O O13 0.878273 0.525831 0.394837
#
# Coordination Sequence:
#
# PCOD9123406 Si02
#       8
#     4   4   4   4   4   2   2   2
#     4  12  24  42  64  92 133 168 217 261 313 384
#     4  10  22  41  61  93 125 159 208 259 314 370
#     4  10  22  39  67  91 123 162 211 250 318 369
#     4  11  23  44  62  94 130 169 209 266 311 381
#     4  11  23  42  66  90 130 172 213 263 318 374
#     4  12  26  40  64  92 132 176 208 260 318 368
#     4  10  20  38  64  88 126 162 198 266 308 366
#     4  10  22  42  64  94 122 164 204 262 314 372
#
# _framework density 22.400262999999999
#
# number of rings (size 3 to 8) (size 9 to 14) (size 15 to 20)
#    0.000    1.231    3.077    1.846    2.154    3.692 
#    2.769    1.538    0.000    0.000    0.000    0.000 
#    0.000    0.000    0.000    0.000    0.000    0.000 
#
# Total GULP energy -72574.031553 kJ/mol
# GULP energy per Si atom -5582.617812 kJ/mol
# Density = 2.234928 g / cm^3
# Si number density = 22.400263 Si / 1000 Ang^3
#
#
#
# Elastic Constant Matrix: (Units=GPa)
#
#
# Indices 1 2 3 4 5 6 
#
# 1 90.8302 33.1067 -4.5614 0.0000 -20.0450 0.0000
# 2 33.1067 142.8145 25.3235 0.0000 -12.7484 0.0000
# 3 -4.5614 25.3235 59.9835 0.0000 -16.5895 0.0000
# 4 0.0000 0.0000 0.0000 12.4495 0.0000 -4.4912
# 5 -20.0450 -12.7484 -16.5895 0.0000 31.0306 0.0000
# 6 0.0000 0.0000 0.0000 -4.4912 0.0000 35.3886
#
#
#
# Elastic Compliance Matrix: (Units=1/GPa)
#
#
# Indices 1 2 3 4 5 6 
#
# 1 0.015094 -0.003506 0.005781 0.000000 0.011400 0.000000
# 2 -0.003506 0.008455 -0.004110 0.000000 -0.000988 0.000000
# 3 0.005781 -0.004110 0.022780 0.000000 0.014225 0.000000
# 4 0.000000 0.000000 0.000000 0.084178 0.000000 0.010683
# 5 0.011400 -0.000988 0.014225 0.000000 0.046789 0.000000
# 6 0.000000 0.000000 0.000000 0.010683 0.000000 0.029613
#
#
# Mechanical properties :
#
#
# Convention : Reuss Voigt Hill
#
# Bulk Modulus (GPa) = 23.44158 44.59620 34.01889
# Shear Modulus (GPa) = 22.24197 31.75769 26.99983
#
# Velocity S-wave (km/s) = 3.15450 3.76937 3.47556
# Velocity P-wave (km/s) = 4.87396 6.23668 5.59695
#
# Compressibility (1/GPa) = 0.04265923
#
# Stress axis : x y z
#
# Youngs Moduli (GPa) = 66.25212 118.26720 43.89826
#
# Poissons Ratio (x) = 0.41470 -0.25378
# Poissons Ratio (y) = 0.23231 0.18041
# Poissons Ratio (z) = -0.38301 0.48604
#
# Static dielectric constant tensor:
#      x y z
#    x 1.884360 0.000000 -0.018480 
#    y 0.000000 1.832060 0.000000 
#    z -0.018480 0.000000 1.894080 
# 
# From -- ./inp_files/47286.got.cif
#   From: 2010.05.17/outbox.cif.g08.bks.cpg/sg5_24_cif.got.tgz:47286.got - 2010.06.03 18:56:24.
