data_PCOD9123876
_publ_section_title
;
Structure prediction by ZEFSAII (Michael W. Deem and Ramdas Pophale) SiO2 
 PCOD9123876
Probable space group: C 2
;
_chemical_formula_sum "Si O2"
_cell_formula_units_Z 32
_cell_length_a 8.511174
_cell_length_b 22.749278
_cell_length_c 14.980730
_cell_angle_alpha 90.000000
_cell_angle_beta 29.132733
_cell_angle_gamma 90.000000
_cell_volume 1412.119332
_symmetry_space_group_name_H-M "C 2"
_symmetry_group_IT_number 5
_symmetry_cell_setting 'monoclinic'
loop_
_space_group_symop_operation_xyz
x,y,z
-x,y,-z
1/2+x,1/2+y,z
1/2-x,1/2+y,-z
loop_
_atom_site_type_symbol
_atom_site_label
_atom_site_fract_x
_atom_site_fract_y
_atom_site_fract_z
Si Si1 0.916253 0.812110 0.142434
Si Si2 0.118253 0.649447 0.339376
Si Si3 0.830860 0.577419 0.180785
Si Si4 0.841228 0.775250 0.479902
Si Si5 0.858048 0.692707 0.971826
Si Si6 0.633148 0.033261 0.204406
Si Si7 0.890466 0.877335 0.321199
Si Si8 0.240926 0.997209 0.551050
O O1 0.542296 0.789717 0.327804
O O2 0.002027 0.864620 0.166128
O O3 0.117125 0.756572 0.081267
O O4 0.000000 0.827457 0.000000
O O5 0.113682 0.594334 0.272892
O O6 0.000000 0.637800 0.500000
O O7 0.920076 0.708370 0.410103
O O8 0.497085 0.668158 0.154479
O O9 0.471424 0.555554 0.348063
O O10 0.902300 0.642614 0.181898
O O11 0.971536 0.537858 0.188733
O O12 0.000000 0.573381 0.000000
O O13 0.976225 0.824592 0.345580
O O14 0.000000 0.780411 0.500000
O O15 0.000000 0.703145 0.000000
O O16 0.437910 0.988179 0.362561
O O17 0.000000 0.019788 0.000000
O O18 0.500000 0.876995 0.500000
O O19 0.973410 0.940720 0.319113
O O20 0.500000 0.003760 0.500000
#
# Coordination Sequence:
#
# PCOD9123876 Si02
#       8
#     4   4   4   4   4   4   4   4
#     4  10  20  40  67 100 138 177 226 281 348 413
#     4  11  23  39  65 102 142 190 223 283 355 420
#     4  11  25  44  64  98 141 180 233 285 342 418
#     4  10  21  38  64  95 134 179 231 273 349 411
#     4  10  21  37  63  99 148 179 222 279 345 415
#     4  12  25  42  67 102 135 182 236 288 347 420
#     4   9  22  44  67  96 132 181 229 290 337 413
#     4  11  25  47  71  94 138 185 240 290 354 401
#
# _framework density 22.660972999999998
#
# number of rings (size 3 to 8) (size 9 to 14) (size 15 to 20)
#    0.000    1.500    1.250    4.500    8.750    1.000 
#    0.000   13.750    0.000    0.000    0.000    0.000 
#    0.000    0.000    0.000    0.000    0.000    0.000 
#
# Total GULP energy -89348.567071 kJ/mol
# GULP energy per Si atom -5584.285442 kJ/mol
# Density = 2.260940 g / cm^3
# Si number density = 22.660973 Si / 1000 Ang^3
#
#
#
# Elastic Constant Matrix: (Units=GPa)
#
#
# Indices 1 2 3 4 5 6 
#
# 1 76.8284 16.9836 25.2512 -0.0001 11.4649 0.0002
# 2 16.9836 75.5253 46.4949 0.0002 8.4430 -0.0001
# 3 25.2512 46.4949 92.9822 0.0004 11.4574 0.0009
# 4 -0.0001 0.0002 0.0004 24.7724 0.0000 6.5870
# 5 11.4649 8.4430 11.4574 0.0000 32.9399 -0.0003
# 6 0.0002 -0.0001 0.0009 6.5870 -0.0003 13.5563
#
#
#
# Elastic Compliance Matrix: (Units=1/GPa)
#
#
# Indices 1 2 3 4 5 6 
#
# 1 0.014814 -0.001036 -0.003033 0.000000 -0.003836 0.000000
# 2 -0.001036 0.019288 -0.009193 0.000000 -0.001386 0.000001
# 3 -0.003033 -0.009193 0.016460 0.000000 -0.002314 -0.000001
# 4 0.000000 0.000000 0.000000 0.046357 0.000000 -0.022525
# 5 -0.003836 -0.001386 -0.002314 0.000000 0.032853 0.000001
# 6 0.000000 0.000001 -0.000001 -0.022525 0.000001 0.084711
#
#
# Mechanical properties :
#
#
# Convention : Reuss Voigt Hill
#
# Bulk Modulus (GPa) = 41.59692 46.97727 44.28710
# Shear Modulus (GPa) = 20.07887 24.69411 22.38649
#
# Velocity S-wave (km/s) = 2.97990 3.30467 3.14648
# Velocity P-wave (km/s) = 5.49871 5.94446 5.72592
#
# Compressibility (1/GPa) = 0.02404024
#
# Stress axis : x y z
#
# Youngs Moduli (GPa) = 67.50338 51.84704 60.75316
#
# Poissons Ratio (x) = 0.05369 0.18424
# Poissons Ratio (y) = 0.06990 0.55848
# Poissons Ratio (z) = 0.20471 0.47661
#
# Static dielectric constant tensor:
#      x y z
#    x 1.820040 0.000000 0.027030 
#    y 0.000000 1.958680 0.000000 
#    z 0.027030 0.000000 1.875490 
# 
# From -- ./inp_files/51687.got.cif
#   From: 2010.05.17/outbox.cif.g08.bks.cpg/sg5_26_cif.got.tgz:51687.got - 2010.06.03 18:56:24.
