data_PCOD9123649
_publ_section_title
;
Structure prediction by ZEFSAII (Michael W. Deem and Ramdas Pophale) SiO2 
 PCOD9123649
Probable space group: C 2
;
_chemical_formula_sum "Si O2"
_cell_formula_units_Z 30
_cell_length_a 19.978993
_cell_length_b 11.594611
_cell_length_c 11.378118
_cell_angle_alpha 90.000000
_cell_angle_beta 29.580518
_cell_angle_gamma 90.000000
_cell_volume 1301.115943
_symmetry_space_group_name_H-M "C 2"
_symmetry_group_IT_number 5
_symmetry_cell_setting 'monoclinic'
loop_
_space_group_symop_operation_xyz
x,y,z
-x,y,-z
1/2+x,1/2+y,z
1/2-x,1/2+y,-z
loop_
_atom_site_type_symbol
_atom_site_label
_atom_site_fract_x
_atom_site_fract_y
_atom_site_fract_z
Si Si1 0.089064 0.891570 0.640370
Si Si2 0.000000 0.693798 0.500000
Si Si3 0.332815 0.194845 0.337950
Si Si4 0.856929 0.061166 0.226403
Si Si5 0.376463 0.961206 0.126164
Si Si6 0.057098 0.488020 0.243733
Si Si7 0.323959 0.357772 0.910989
Si Si8 0.285532 0.853513 0.679923
O O1 0.057585 0.779790 0.771003
O O2 0.966891 0.910180 0.737398
O O3 0.112597 0.987199 0.702959
O O4 0.233737 0.895161 0.352833
O O5 0.998073 0.604906 0.612469
O O6 0.871441 0.774506 0.731865
O O7 0.257434 0.150157 0.568267
O O8 0.363582 0.080707 0.218172
O O9 0.242380 0.272671 0.389067
O O10 0.803159 0.970030 0.212126
O O11 0.000000 0.122949 0.000000
O O12 0.500000 0.895553 0.000000
O O13 0.423434 0.993099 0.924672
O O14 0.941341 0.393100 0.447425
O O15 0.205279 0.448387 0.062987
O O16 0.263017 0.299201 0.122831
#
# Coordination Sequence:
#
# PCOD9123649 Si02
#       8
#     4   2   4   4   4   4   4   4
#     4  10  23  42  67 104 141 185 243 297 371 438
#     4  12  28  46  76 106 136 212 244 300 376 436
#     4  10  23  37  67 105 139 181 245 297 371 448
#     4  10  20  39  66 103 140 184 231 307 368 427
#     4  11  24  44  72 106 139 187 239 310 374 437
#     4  12  26  51  71 105 153 191 254 311 366 445
#     4  12  25  47  75 102 146 201 249 298 374 458
#     4  11  23  45  69  99 147 192 238 315 370 431
#
# _framework density 23.057131999999999
#
# number of rings (size 3 to 8) (size 9 to 14) (size 15 to 20)
#    0.000    1.067    2.667    4.000    5.600    1.600 
#    7.200    0.000    0.000    0.000    0.000    0.000 
#    0.000    0.000    0.000    0.000    0.000    0.000 
#
# Total GULP energy -83690.589091 kJ/mol
# GULP energy per Si atom -5579.372606 kJ/mol
# Density = 2.300465 g / cm^3
# Si number density = 23.057132 Si / 1000 Ang^3
#
#
#
# Elastic Constant Matrix: (Units=GPa)
#
#
# Indices 1 2 3 4 5 6 
#
# 1 127.7602 27.5815 57.2582 0.0000 -12.1101 0.0000
# 2 27.5815 80.6993 35.8536 0.0000 1.3987 0.0000
# 3 57.2582 35.8536 149.0896 0.0000 -1.4464 0.0000
# 4 0.0000 0.0000 0.0000 27.5350 0.0000 11.0780
# 5 -12.1101 1.3987 -1.4464 0.0000 55.5200 0.0000
# 6 0.0000 0.0000 0.0000 11.0780 0.0000 21.3124
#
#
#
# Elastic Compliance Matrix: (Units=1/GPa)
#
#
# Indices 1 2 3 4 5 6 
#
# 1 0.009943 -0.001957 -0.003327 0.000000 0.002131 0.000000
# 2 -0.001957 0.014270 -0.002688 0.000000 -0.000856 0.000000
# 3 -0.003327 -0.002688 0.008628 0.000000 -0.000433 0.000000
# 4 0.000000 0.000000 0.000000 0.045920 0.000000 -0.023869
# 5 0.002131 -0.000856 -0.000433 0.000000 0.018487 0.000000
# 6 0.000000 0.000000 0.000000 -0.023869 0.000000 0.059328
#
#
# Mechanical properties :
#
#
# Convention : Reuss Voigt Hill
#
# Bulk Modulus (GPa) = 59.18933 66.54840 62.86886
# Shear Modulus (GPa) = 28.06588 36.66388 32.36488
#
# Velocity S-wave (km/s) = 3.49267 3.99197 3.75064
# Velocity P-wave (km/s) = 6.48008 7.08328 6.78838
#
# Compressibility (1/GPa) = 0.01689494
#
# Stress axis : x y z
#
# Youngs Moduli (GPa) = 100.57475 70.07812 115.90792
#
# Poissons Ratio (x) = 0.13714 0.38566
# Poissons Ratio (y) = 0.19682 0.31161
# Poissons Ratio (z) = 0.33464 0.18840
#
# Static dielectric constant tensor:
#      x y z
#    x 1.855860 0.000000 0.001710 
#    y 0.000000 1.846730 0.000000 
#    z 0.001710 0.000000 1.992890 
# 
# From -- ./inp_files/46473.got.cif
#   From: 2010.05.17/outbox.cif.g08.bks.cpg/sg5_24_cif.got.tgz:46473.got - 2010.06.03 18:56:24.
