data_PCOD9123805
_publ_section_title
;
Structure prediction by ZEFSAII (Michael W. Deem and Ramdas Pophale) SiO2 
 PCOD9123805
Probable space group: C 2
;
_chemical_formula_sum "Si O2"
_cell_formula_units_Z 30
_cell_length_a 27.337047
_cell_length_b 8.659156
_cell_length_c 6.189463
_cell_angle_alpha 90.000000
_cell_angle_beta 97.051887
_cell_angle_gamma 90.000000
_cell_volume 1454.060151
_symmetry_space_group_name_H-M "C 2"
_symmetry_group_IT_number 5
_symmetry_cell_setting 'monoclinic'
loop_
_space_group_symop_operation_xyz
x,y,z
-x,y,-z
1/2+x,1/2+y,z
1/2-x,1/2+y,-z
loop_
_atom_site_type_symbol
_atom_site_label
_atom_site_fract_x
_atom_site_fract_y
_atom_site_fract_z
Si Si1 0.081522 0.175110 0.845054
Si Si2 0.851796 0.592625 0.013012
Si Si3 0.286381 0.647841 0.601674
Si Si4 0.151906 0.384115 0.620768
Si Si5 0.072383 0.407004 0.201473
Si Si6 0.253019 0.937482 0.779845
Si Si7 0.500000 0.811580 0.500000
Si Si8 0.841275 0.952329 0.968809
O O1 0.126763 0.282241 0.793192
O O2 0.040218 0.203544 0.641245
O O3 0.064126 0.251781 0.058629
O O4 0.107870 0.012588 0.897692
O O5 0.846110 0.551323 0.265076
O O6 0.805569 0.496858 0.892211
O O7 0.904904 0.533920 0.949538
O O8 0.845292 0.769356 0.941793
O O9 0.304286 0.777083 0.440007
O O10 0.256635 0.753052 0.753793
O O11 0.256433 0.523513 0.451066
O O12 0.329450 0.555263 0.750113
O O13 0.116027 0.390618 0.397676
O O14 0.024512 0.418755 0.327806
O O15 0.206834 0.975888 0.906776
#
# Coordination Sequence:
#
# PCOD9123805 Si02
#       8
#     4   4   4   4   4   4   2   4
#     4  10  20  41  67  98 126 164 218 284 336 408
#     4  11  25  38  63  96 139 180 223 278 341 402
#     4  12  24  41  63  93 136 182 239 277 332 399
#     4  10  20  40  64  89 120 173 221 273 325 391
#     4  10  20  42  67  98 124 165 221 279 337 405
#     4  12  26  38  61  95 137 184 236 277 329 406
#     4  10  22  38  78 100 120 168 232 274 344 420
#     4  12  25  40  62  96 139 184 221 284 340 404
#
# _framework density 20.631885
#
# number of rings (size 3 to 8) (size 9 to 14) (size 15 to 20)
#    0.000    1.067    4.000    2.800    5.600    1.067 
#    0.000    0.000    0.000   19.200    0.000    0.000 
#    0.000    0.000    0.000    0.000    0.000    0.000 
#
# Total GULP energy -83633.040126 kJ/mol
# GULP energy per Si atom -5575.536008 kJ/mol
# Density = 2.058493 g / cm^3
# Si number density = 20.631885 Si / 1000 Ang^3
#
#
#
# Elastic Constant Matrix: (Units=GPa)
#
#
# Indices 1 2 3 4 5 6 
#
# 1 97.9580 33.5725 31.1093 0.0000 -7.4012 0.0000
# 2 33.5725 72.3620 28.8478 0.0000 -9.7356 0.0000
# 3 31.1093 28.8478 78.5154 0.0000 -2.2996 0.0000
# 4 0.0000 0.0000 0.0000 21.3642 0.0000 0.2296
# 5 -7.4012 -9.7356 -2.2996 0.0000 47.4421 0.0000
# 6 0.0000 0.0000 0.0000 0.2296 0.0000 20.9476
#
#
#
# Elastic Compliance Matrix: (Units=1/GPa)
#
#
# Indices 1 2 3 4 5 6 
#
# 1 0.012910 -0.004495 -0.003437 0.000000 0.000925 0.000000
# 2 -0.004495 0.018206 -0.004826 0.000000 0.002801 0.000000
# 3 -0.003437 -0.004826 0.015849 0.000000 -0.000758 0.000000
# 4 0.000000 0.000000 0.000000 0.046813 0.000000 -0.000513
# 5 0.000925 0.002801 -0.000758 0.000000 0.021761 0.000000
# 6 0.000000 0.000000 0.000000 -0.000513 0.000000 0.047744
#
#
# Mechanical properties :
#
#
# Convention : Reuss Voigt Hill
#
# Bulk Modulus (GPa) = 46.62140 48.43272 47.52706
# Shear Modulus (GPa) = 25.51703 28.30450 26.91077
#
# Velocity S-wave (km/s) = 3.52060 3.70791 3.61547
# Velocity P-wave (km/s) = 6.25875 6.46971 6.36510
#
# Compressibility (1/GPa) = 0.02144938
#
# Stress axis : x y z
#
# Youngs Moduli (GPa) = 77.45706 54.92778 63.09580
#
# Poissons Ratio (x) = 0.24692 0.21684
# Poissons Ratio (y) = 0.34819 0.30449
# Poissons Ratio (z) = 0.26619 0.26508
#
# Static dielectric constant tensor:
#      x y z
#    x 1.775220 0.000000 -0.033540 
#    y 0.000000 1.743050 0.000000 
#    z -0.033540 0.000000 1.808380 
# 
# From -- ./inp_files/11152.got.cif
#   From: 2010.05.17/outbox.cif.g08.bks.cpg/sg5_6_cif.got.tgz:11152.got - 2010.06.03 18:56:24.
