data_PCOD9123020
_publ_section_title
;
Structure prediction by ZEFSAII (Michael W. Deem and Ramdas Pophale) SiO2 
 PCOD9123020
Probable space group: C 2
;
_chemical_formula_sum "Si O2"
_cell_formula_units_Z 26
_cell_length_a 8.857781
_cell_length_b 10.510325
_cell_length_c 22.941605
_cell_angle_alpha 90.000000
_cell_angle_beta 32.493223
_cell_angle_gamma 90.000000
_cell_volume 1147.362794
_symmetry_space_group_name_H-M "C 2"
_symmetry_group_IT_number 5
_symmetry_cell_setting 'monoclinic'
loop_
_space_group_symop_operation_xyz
x,y,z
-x,y,-z
1/2+x,1/2+y,z
1/2-x,1/2+y,-z
loop_
_atom_site_type_symbol
_atom_site_label
_atom_site_fract_x
_atom_site_fract_y
_atom_site_fract_z
Si Si1 0.703273 0.884530 0.311837
Si Si2 0.473020 0.690780 0.877849
Si Si3 0.571596 0.136274 0.650609
Si Si4 0.000000 0.464339 0.500000
Si Si5 0.426806 0.648768 0.425449
Si Si6 0.221151 0.514301 0.876919
Si Si7 0.716708 0.457020 0.982166
O O1 0.556318 0.755074 0.340848
O O2 0.031224 0.912447 0.200468
O O3 0.552935 0.002004 0.330126
O O4 0.633022 0.888234 0.403494
O O5 0.343744 0.650860 0.856841
O O6 0.302066 0.807239 0.962018
O O7 0.803676 0.713371 0.761620
O O8 0.435499 0.558847 0.925554
O O9 0.708038 0.194305 0.547396
O O10 0.805547 0.106467 0.623075
O O11 0.250293 0.548597 0.445870
O O12 0.035407 0.514894 0.878951
O O13 0.000000 0.479126 0.000000
O O14 0.500000 0.456034 0.000000
#
# Coordination Sequence:
#
# PCOD9123020 Si02
#       7
#     4   4   4   2   4   4   4
#     4  10  20  38  60  84 115 152 193 243 293 347
#     4  10  22  42  61  86 122 162 201 250 305 358
#     4   9  20  39  61  83 117 158 194 240 303 359
#     4  10  22  34  56  90 112 142 194 240 288 346
#     4  10  20  37  59  85 116 150 191 239 294 355
#     4   9  20  40  60  81 121 161 194 243 300 354
#     4  11  22  37  61  89 119 158 206 250 297 357
#
# _framework density 22.66066
#
# number of rings (size 3 to 8) (size 9 to 14) (size 15 to 20)
#    0.000    2.154    0.000    3.231    0.000    5.538 
#    0.000   26.154    0.000    0.000    0.000    0.000 
#    0.000    0.000    0.000    0.000    0.000    0.000 
#
# Total GULP energy -72401.418115 kJ/mol
# GULP energy per Si atom -5569.339855 kJ/mol
# Density = 2.260908 g / cm^3
# Si number density = 22.660660 Si / 1000 Ang^3
#
#
#
# Elastic Constant Matrix: (Units=GPa)
#
#
# Indices 1 2 3 4 5 6 
#
# 1 82.4277 32.7191 28.7790 0.0001 -29.0348 -0.0002
# 2 32.7191 55.3099 33.8944 0.0033 -5.7025 0.0008
# 3 28.7790 33.8944 132.5326 0.0032 -35.6611 0.0010
# 4 0.0001 0.0033 0.0032 35.2479 0.0018 -3.4275
# 5 -29.0348 -5.7025 -35.6611 0.0018 32.1427 0.0006
# 6 -0.0002 0.0008 0.0010 -3.4275 0.0006 32.4987
#
#
#
# Elastic Compliance Matrix: (Units=1/GPa)
#
#
# Indices 1 2 3 4 5 6 
#
# 1 0.026071 -0.016158 0.005754 0.000000 0.027068 0.000000
# 2 -0.016158 0.031695 -0.009995 -0.000001 -0.020062 0.000000
# 3 0.005754 -0.009995 0.013933 -0.000001 0.018883 -0.000001
# 4 0.000000 -0.000001 -0.000001 0.028664 -0.000004 0.003023
# 5 0.027068 -0.020062 0.018883 -0.000004 0.072952 -0.000002
# 6 0.000000 0.000000 -0.000001 0.003023 -0.000002 0.031089
#
#
# Mechanical properties :
#
#
# Convention : Reuss Voigt Hill
#
# Bulk Modulus (GPa) = 32.36155 51.22834 41.79494
# Shear Modulus (GPa) = 19.56911 31.63638 25.60275
#
# Velocity S-wave (km/s) = 2.94185 3.74049 3.36494
# Velocity P-wave (km/s) = 5.08441 6.42735 5.79491
#
# Compressibility (1/GPa) = 0.03090087
#
# Stress axis : x y z
#
# Youngs Moduli (GPa) = 38.35636 31.55035 71.77271
#
# Poissons Ratio (x) = 0.50980 -0.41301
# Poissons Ratio (y) = 0.61977 0.71740
# Poissons Ratio (z) = -0.22072 0.31536
#
# Static dielectric constant tensor:
#      x y z
#    x 1.945520 0.000000 0.013660 
#    y 0.000000 1.869850 0.000000 
#    z 0.013660 0.000000 1.863650 
# 
# From -- ./inp_files/70214.got.cif
#   From: 2010.05.17/outbox.cif.g08.bks.cpg/sg5_36_cif.got.tgz:70214.got - 2010.06.03 18:56:24.
