data_PCOD9123228
_publ_section_title
;
Structure prediction by ZEFSAII (Michael W. Deem and Ramdas Pophale) SiO2 
 PCOD9123228
Probable space group: C 2
;
_chemical_formula_sum "Si O2"
_cell_formula_units_Z 26
_cell_length_a 24.999722
_cell_length_b 5.449436
_cell_length_c 8.315139
_cell_angle_alpha 90.000000
_cell_angle_beta 80.669087
_cell_angle_gamma 90.000000
_cell_volume 1117.818968
_symmetry_space_group_name_H-M "C 2"
_symmetry_group_IT_number 5
_symmetry_cell_setting 'monoclinic'
loop_
_space_group_symop_operation_xyz
x,y,z
-x,y,-z
1/2+x,1/2+y,z
1/2-x,1/2+y,-z
loop_
_atom_site_type_symbol
_atom_site_label
_atom_site_fract_x
_atom_site_fract_y
_atom_site_fract_z
Si Si1 0.704586 0.984120 0.377106
Si Si2 0.555394 0.750977 0.789466
Si Si3 0.092755 0.720219 0.321015
Si Si4 0.311174 0.244891 0.293111
Si Si5 0.915719 0.735805 0.051993
Si Si6 0.000000 0.364358 0.500000
Si Si7 0.629512 0.599620 0.507798
O O1 0.763736 0.940145 0.273430
O O2 0.677303 0.717626 0.387149
O O3 0.656646 0.142484 0.316112
O O4 0.713030 0.052619 0.563355
O O5 0.562883 0.498277 0.886501
O O6 0.609129 0.784748 0.652926
O O7 0.552914 0.000727 0.890562
O O8 0.512377 0.734188 0.665540
O O9 0.051861 0.537909 0.431888
O O10 0.087103 0.986219 0.406008
O O11 0.079342 0.733543 0.141293
O O12 0.351511 0.189341 0.126754
O O13 0.352731 0.377170 0.391750
#
# Coordination Sequence:
#
# PCOD9123228 Si02
#       7
#     4   4   4   4   4   2   4
#     4  11  19  39  66 100 135 187 239 279 336 431
#     4  11  24  46  75 101 138 183 237 289 354 418
#     4  11  27  45  68 105 144 185 238 297 356 420
#     4  10  20  37  69 100 137 186 238 280 349 410
#     4  11  26  48  69 107 149 177 226 304 359 414
#     4  12  24  50  76  98 132 190 246 288 354 426
#     4  10  20  41  67  97 135 183 234 285 330 430
#
# _framework density 23.25958
#
# number of rings (size 3 to 8) (size 9 to 14) (size 15 to 20)
#    0.000    1.231    4.615    1.846    2.154    3.077 
#    2.769    3.077    0.000    0.000    0.000    0.000 
#    0.000    0.000    0.000    0.000    0.000    0.000 
#
# Total GULP energy -72393.997165 kJ/mol
# GULP energy per Si atom -5568.769013 kJ/mol
# Density = 2.320664 g / cm^3
# Si number density = 23.259580 Si / 1000 Ang^3
#
#
#
# Elastic Constant Matrix: (Units=GPa)
#
#
# Indices 1 2 3 4 5 6 
#
# 1 98.8893 22.2616 45.1460 0.0000 2.1497 0.0000
# 2 22.2616 104.9447 58.9354 0.0000 16.7707 0.0000
# 3 45.1460 58.9354 135.6140 0.0000 19.2285 0.0000
# 4 0.0000 0.0000 0.0000 4.6434 0.0000 23.4865
# 5 2.1497 16.7707 19.2285 0.0000 40.6885 0.0000
# 6 0.0000 0.0000 0.0000 23.4865 0.0000 13.8346
#
#
#
# Elastic Compliance Matrix: (Units=1/GPa)
#
#
# Indices 1 2 3 4 5 6 
#
# 1 0.012017 -0.000556 -0.003967 0.000000 0.001469 0.000000
# 2 -0.000556 0.012934 -0.005021 0.000000 -0.002929 0.000000
# 3 -0.003967 -0.005021 0.011311 0.000000 -0.003066 0.000000
# 4 0.000000 0.000000 0.000000 -0.028386 0.000000 0.048190
# 5 0.001469 -0.002929 -0.003066 0.000000 0.027156 0.000000
# 6 0.000000 0.000000 0.000000 0.048190 0.000000 -0.009527
#
#
# Mechanical properties :
#
#
# Convention : Reuss Voigt Hill
#
# Bulk Modulus (GPa) = 58.22456 65.79269 62.00862
# Shear Modulus (GPa) = 99.36960 26.04029 62.70495
#
# Velocity S-wave (km/s) = 6.54330 3.34960 5.19782
# Velocity P-wave (km/s) = 9.06494 6.58084 7.92088
#
# Compressibility (1/GPa) = 0.01717488
#
# Stress axis : x y z
#
# Youngs Moduli (GPa) = 83.21817 77.31336 88.40840
#
# Poissons Ratio (x) = 0.04299 0.35072
# Poissons Ratio (y) = 0.04627 0.44387
# Poissons Ratio (z) = 0.33013 0.38816
#
# Static dielectric constant tensor:
#      x y z
#    x 2.005640 0.000000 -0.049980 
#    y 0.000000 1.972960 0.000000 
#    z -0.049980 0.000000 1.859310 
# 
# From -- ./inp_files/31352.got.cif
#   From: 2010.05.17/outbox.cif.g08.bks.cpg/sg5_16_cif.got.tgz:31352.got - 2010.06.03 18:56:24.
