data_PCOD9123195
_publ_section_title
;
Structure prediction by ZEFSAII (Michael W. Deem and Ramdas Pophale) SiO2 
 PCOD9123195
Probable space group: C 2
;
_chemical_formula_sum "Si O2"
_cell_formula_units_Z 28
_cell_length_a 5.329385
_cell_length_b 17.432131
_cell_length_c 15.803077
_cell_angle_alpha 90.000000
_cell_angle_beta 115.504032
_cell_angle_gamma 90.000000
_cell_volume 1325.082451
_symmetry_space_group_name_H-M "C 2"
_symmetry_group_IT_number 5
_symmetry_cell_setting 'monoclinic'
loop_
_space_group_symop_operation_xyz
x,y,z
-x,y,-z
1/2+x,1/2+y,z
1/2-x,1/2+y,-z
loop_
_atom_site_type_symbol
_atom_site_label
_atom_site_fract_x
_atom_site_fract_y
_atom_site_fract_z
Si Si1 0.328560 0.405020 0.058883
Si Si2 0.579783 0.608470 0.745511
Si Si3 0.500804 0.080403 0.401458
Si Si4 0.326851 0.974396 0.702321
Si Si5 0.370070 0.377438 0.731203
Si Si6 0.192227 0.224316 0.611083
Si Si7 0.672050 0.589248 0.941751
O O1 0.447396 0.362562 0.158302
O O2 0.372429 0.497210 0.078268
O O3 0.500000 0.383733 0.000000
O O4 0.000000 0.392679 0.000000
O O5 0.294713 0.564565 0.683819
O O6 0.832758 0.547230 0.768391
O O7 0.583694 0.674174 0.675237
O O8 0.579090 0.631731 0.842697
O O9 0.500000 0.069389 0.500000
O O10 0.569310 0.168059 0.389340
O O11 0.717671 0.022026 0.390489
O O12 0.597990 0.922548 0.726797
O O13 0.076014 0.923121 0.698529
O O14 0.277636 0.303854 0.664653
O O15 0.000000 0.234353 0.500000
O O16 0.500000 0.611330 0.000000
O O17 0.000000 0.601547 0.000000
#
# Coordination Sequence:
#
# PCOD9123195 Si02
#       7
#     4   4   4   4   4   4   4
#     4  10  20  37  66 100 136 178 225 279 349 409
#     4  11  23  46  72 101 141 183 233 288 347 417
#     4  11  23  45  74  99 136 185 238 283 354 422
#     4  11  24  42  71 103 139 175 233 294 347 396
#     4  12  25  45  69 105 145 181 232 291 348 409
#     4  11  27  46  70 100 142 197 231 280 357 429
#     4  10  22  36  67 104 134 170 227 287 343 402
#
# _framework density 21.130762000000001
#
# number of rings (size 3 to 8) (size 9 to 14) (size 15 to 20)
#    0.000    1.143    4.286    0.857   10.000    0.571 
#    2.571    0.714    0.000    0.000    0.000    0.000 
#    0.000    0.000    0.000    0.000    0.000    0.000 
#
# Total GULP energy -78131.226777 kJ/mol
# GULP energy per Si atom -5580.801913 kJ/mol
# Density = 2.108267 g / cm^3
# Si number density = 21.130762 Si / 1000 Ang^3
#
#
#
# Elastic Constant Matrix: (Units=GPa)
#
#
# Indices 1 2 3 4 5 6 
#
# 1 152.7666 49.6686 76.0956 0.0000 -21.1792 0.0000
# 2 49.6686 70.2166 68.9105 0.0000 -4.8481 0.0000
# 3 76.0956 68.9105 170.0120 0.0000 -25.0844 0.0000
# 4 0.0000 0.0000 0.0000 21.8302 0.0000 -1.5736
# 5 -21.1792 -4.8481 -25.0844 0.0000 42.6777 0.0000
# 6 0.0000 0.0000 0.0000 -1.5736 0.0000 25.2932
#
#
#
# Elastic Compliance Matrix: (Units=1/GPa)
#
#
# Indices 1 2 3 4 5 6 
#
# 1 0.009402 -0.004566 -0.001911 0.000000 0.003024 0.000000
# 2 -0.004566 0.026279 -0.009309 0.000000 -0.004752 0.000000
# 3 -0.001911 -0.009309 0.011185 0.000000 0.004568 0.000000
# 4 0.000000 0.000000 0.000000 0.046014 0.000000 0.002863
# 5 0.003024 -0.004752 0.004568 0.000000 0.027077 0.000000
# 6 0.000000 0.000000 0.000000 0.002863 0.000000 0.039714
#
#
# Mechanical properties :
#
#
# Convention : Reuss Voigt Hill
#
# Bulk Modulus (GPa) = 65.39008 86.92715 76.15861
# Shear Modulus (GPa) = 25.46578 31.18160 28.32369
#
# Velocity S-wave (km/s) = 3.47530 3.84559 3.66512
# Velocity P-wave (km/s) = 6.86412 7.80673 7.35055
#
# Compressibility (1/GPa) = 0.01529284
#
# Stress axis : x y z
#
# Youngs Moduli (GPa) = 106.36427 38.05267 89.40796
#
# Poissons Ratio (x) = 0.17374 0.17088
# Poissons Ratio (y) = 0.48565 0.83232
# Poissons Ratio (z) = 0.20329 0.35424
#
# Static dielectric constant tensor:
#      x y z
#    x 1.818730 0.000000 0.001810 
#    y 0.000000 1.776260 0.000000 
#    z 0.001810 0.000000 1.763220 
# 
# From -- ./inp_files/49230.got.cif
#   From: 2010.05.17/outbox.cif.g08.bks.cpg/sg5_25_cif.got.tgz:49230.got - 2010.06.03 18:56:24.
