data_PCOD9123468
_publ_section_title
;
Structure prediction by ZEFSAII (Michael W. Deem and Ramdas Pophale) SiO2 
 PCOD9123468
Probable space group: C 2
;
_chemical_formula_sum "Si O2"
_cell_formula_units_Z 28
_cell_length_a 8.449733
_cell_length_b 13.666609
_cell_length_c 11.719214
_cell_angle_alpha 90.000000
_cell_angle_beta 63.029408
_cell_angle_gamma 90.000000
_cell_volume 1206.136972
_symmetry_space_group_name_H-M "C 2"
_symmetry_group_IT_number 5
_symmetry_cell_setting 'monoclinic'
loop_
_space_group_symop_operation_xyz
x,y,z
-x,y,-z
1/2+x,1/2+y,z
1/2-x,1/2+y,-z
loop_
_atom_site_type_symbol
_atom_site_label
_atom_site_fract_x
_atom_site_fract_y
_atom_site_fract_z
Si Si1 0.693335 0.273230 0.497340
Si Si2 0.175092 0.924741 0.791959
Si Si3 0.333427 0.647450 0.254130
Si Si4 0.500000 0.080590 0.000000
Si Si5 0.954103 0.648631 0.261988
Si Si6 0.446728 0.952883 0.397445
Si Si7 0.286202 0.412250 0.948606
Si Si8 0.500000 0.748773 0.000000
O O1 0.500000 0.278801 0.500000
O O2 0.815167 0.203495 0.378430
O O3 0.670034 0.223558 0.628791
O O4 0.785915 0.378682 0.467576
O O5 0.374390 0.892943 0.693566
O O6 0.977896 0.885976 0.832074
O O7 0.156644 0.031765 0.741663
O O8 0.187946 0.927988 0.924862
O O9 0.483530 0.685296 0.119456
O O10 0.150224 0.665701 0.246741
O O11 0.532893 0.146254 0.877858
O O12 0.672297 0.008495 0.950590
O O13 0.909452 0.537217 0.318060
O O14 0.500000 0.003278 0.500000
O O15 0.164171 0.320853 0.960515
#
# Coordination Sequence:
#
# PCOD9123468 Si02
#       8
#     4   4   4   2   4   4   4   2
#     4  10  23  44  68 100 135 184 234 277 348 415
#     4  10  20  41  65  91 126 185 226 266 352 409
#     4  10  20  38  66  91 131 179 230 271 341 421
#     4  11  20  40  70 102 139 164 238 293 334 406
#     4  10  22  43  71 100 132 185 224 287 347 409
#     4  11  22  43  70  95 137 177 230 287 334 415
#     4  10  21  36  63  98 131 170 221 282 344 405
#     4  11  22  34  62 102 133 170 222 295 342 408
#
# _framework density 23.21461
#
# number of rings (size 3 to 8) (size 9 to 14) (size 15 to 20)
#    0.000    1.714    2.857    3.857    2.000    2.286 
#    2.571    3.571    0.000    0.000    0.000    0.000 
#    0.000    0.000    0.000    0.000    0.000    0.000 
#
# Total GULP energy -78227.131014 kJ/mol
# GULP energy per Si atom -5587.652215 kJ/mol
# Density = 2.316177 g / cm^3
# Si number density = 23.214610 Si / 1000 Ang^3
#
#
#
# Elastic Constant Matrix: (Units=GPa)
#
#
# Indices 1 2 3 4 5 6 
#
# 1 72.6356 28.1422 31.5428 0.0000 -19.5012 0.0000
# 2 28.1422 87.0144 44.1771 0.0000 -6.9598 0.0000
# 3 31.5428 44.1771 152.2096 0.0000 2.5597 0.0000
# 4 0.0000 0.0000 0.0000 58.0288 0.0000 -34.8140
# 5 -19.5012 -6.9598 2.5597 0.0000 44.5129 0.0000
# 6 0.0000 0.0000 0.0000 -34.8140 0.0000 48.2660
#
#
#
# Elastic Compliance Matrix: (Units=1/GPa)
#
#
# Indices 1 2 3 4 5 6 
#
# 1 0.018598 -0.003961 -0.002834 0.000000 0.007691 0.000000
# 2 -0.003961 0.014569 -0.003420 0.000000 0.000739 0.000000
# 3 -0.002834 -0.003420 0.008188 0.000000 -0.002247 0.000000
# 4 0.000000 0.000000 0.000000 0.030379 0.000000 0.021912
# 5 0.007691 0.000739 -0.002247 0.000000 0.026080 0.000000
# 6 0.000000 0.000000 0.000000 0.021912 0.000000 0.036524
#
#
# Mechanical properties :
#
#
# Convention : Reuss Voigt Hill
#
# Bulk Modulus (GPa) = 47.79088 57.73153 52.76120
# Shear Modulus (GPa) = 30.91371 44.02804 37.47088
#
# Velocity S-wave (km/s) = 3.65314 4.35968 4.02195
# Velocity P-wave (km/s) = 6.19880 7.08978 6.65921
#
# Compressibility (1/GPa) = 0.02092449
#
# Stress axis : x y z
#
# Youngs Moduli (GPa) = 53.77067 68.63947 122.13676
#
# Poissons Ratio (x) = 0.27188 0.34610
# Poissons Ratio (y) = 0.21298 0.41771
# Poissons Ratio (z) = 0.15237 0.23475
#
# Static dielectric constant tensor:
#      x y z
#    x 1.817590 0.000000 -0.061470 
#    y 0.000000 1.882820 0.000000 
#    z -0.061470 0.000000 1.923050 
# 
# From -- ./inp_files/36330.got.cif
#   From: 2010.05.17/outbox.cif.g08.bks.cpg/sg5_19_cif.got.tgz:36330.got - 2010.06.03 18:56:24.
