data_PCOD9123434
_publ_section_title
;
Structure prediction by ZEFSAII (Michael W. Deem and Ramdas Pophale) SiO2 
 PCOD9123434
Probable space group: C 2
;
_chemical_formula_sum "Si O2"
_cell_formula_units_Z 22
_cell_length_a 17.615004
_cell_length_b 7.879627
_cell_length_c 9.226806
_cell_angle_alpha 90.000000
_cell_angle_beta 125.155951
_cell_angle_gamma 90.000000
_cell_volume 1047.066360
_symmetry_space_group_name_H-M "C 2"
_symmetry_group_IT_number 5
_symmetry_cell_setting 'monoclinic'
loop_
_space_group_symop_operation_xyz
x,y,z
-x,y,-z
1/2+x,1/2+y,z
1/2-x,1/2+y,-z
loop_
_atom_site_type_symbol
_atom_site_label
_atom_site_fract_x
_atom_site_fract_y
_atom_site_fract_z
Si Si1 0.815389 0.530070 0.256899
Si Si2 0.836380 0.178050 0.110435
Si Si3 0.795657 0.042333 0.370031
Si Si4 0.026770 0.014030 0.279048
Si Si5 0.689298 0.346210 0.347977
Si Si6 0.000000 0.740338 0.500000
O O1 0.836646 0.364825 0.180174
O O2 0.760124 0.459691 0.334437
O O3 0.909521 0.624418 0.398241
O O4 0.745360 0.651521 0.093083
O O5 0.813511 0.051221 0.220281
O O6 0.935699 0.123708 0.154132
O O7 0.708323 0.158609 0.313606
O O8 0.890937 0.118186 0.547338
O O9 0.788687 0.871080 0.456401
O O10 0.085862 0.922023 0.218065
O O11 0.000455 0.863684 0.361563
#
# Coordination Sequence:
#
# PCOD9123434 Si02
#       6
#     4   4   4   4   4   2
#     4  11  26  38  65  91 126 158 208 252 301 366
#     4  11  22  41  61  94 124 161 202 255 302 353
#     4   9  19  36  61  89 117 164 192 252 294 367
#     4  10  20  38  65  85 125 158 200 247 305 360
#     4   9  20  36  60  90 119 159 200 243 305 358
#     4  12  22  38  64  96 116 166 206 244 312 366
#
# _framework density 21.011087
#
# number of rings (size 3 to 8) (size 9 to 14) (size 15 to 20)
#    1.091    0.727    1.818    2.182    5.091    0.727 
#    0.000    0.000    0.000    3.273    0.000    0.000 
#    0.000    0.000    0.000    0.000    0.000    0.000 
#
# Total GULP energy -61323.787123 kJ/mol
# GULP energy per Si atom -5574.889738 kJ/mol
# Density = 2.096326 g / cm^3
# Si number density = 21.011087 Si / 1000 Ang^3
#
#
#
# Elastic Constant Matrix: (Units=GPa)
#
#
# Indices 1 2 3 4 5 6 
#
# 1 125.6867 38.4381 15.9909 0.0000 28.0653 0.0000
# 2 38.4381 73.7217 7.4296 0.0000 15.5350 0.0000
# 3 15.9909 7.4296 58.8205 0.0000 22.3039 0.0000
# 4 0.0000 0.0000 0.0000 22.4603 0.0000 -2.4398
# 5 28.0653 15.5350 22.3039 0.0000 25.9823 0.0000
# 6 0.0000 0.0000 0.0000 -2.4398 0.0000 36.9265
#
#
#
# Elastic Compliance Matrix: (Units=1/GPa)
#
#
# Indices 1 2 3 4 5 6 
#
# 1 0.011476 -0.003693 0.001794 0.000000 -0.011728 0.000000
# 2 -0.003693 0.016923 0.001765 0.000000 -0.007644 0.000000
# 3 0.001794 0.001765 0.025834 0.000000 -0.025170 0.000000
# 4 0.000000 0.000000 0.000000 0.044845 0.000000 0.002963
# 5 -0.011728 -0.007644 -0.025170 0.000000 0.077333 0.000000
# 6 0.000000 0.000000 0.000000 0.002963 0.000000 0.027277
#
#
# Mechanical properties :
#
#
# Convention : Reuss Voigt Hill
#
# Bulk Modulus (GPa) = 18.53053 42.43846 30.48449
# Shear Modulus (GPa) = 22.52810 30.16519 26.34664
#
# Velocity S-wave (km/s) = 3.27800 3.79315 3.54494
# Velocity P-wave (km/s) = 4.81306 6.27901 5.59426
#
# Compressibility (1/GPa) = 0.05396501
#
# Stress axis : x y z
#
# Youngs Moduli (GPa) = 87.13575 59.09095 38.70822
#
# Poissons Ratio (x) = 0.21823 -0.06943
# Poissons Ratio (y) = 0.32180 -0.06833
# Poissons Ratio (z) = -0.15629 -0.10430
#
# Static dielectric constant tensor:
#      x y z
#    x 1.768960 0.000000 -0.012390 
#    y 0.000000 1.784680 0.000000 
#    z -0.012390 0.000000 1.770640 
# 
# From -- ./inp_files/26842.got.cif
#   From: 2010.05.17/outbox.cif.g08.bks.cpg/sg5_14_cif.got.tgz:26842.got - 2010.06.03 18:56:24.
