data_PCOD9123832
_publ_section_title
;
Structure prediction by ZEFSAII (Michael W. Deem and Ramdas Pophale) SiO2 
 PCOD9123832
Probable space group: C 2
;
_chemical_formula_sum "Si O2"
_cell_formula_units_Z 20
_cell_length_a 14.518282
_cell_length_b 9.909892
_cell_length_c 9.722979
_cell_angle_alpha 90.000000
_cell_angle_beta 131.352510
_cell_angle_gamma 90.000000
_cell_volume 1050.089125
_symmetry_space_group_name_H-M "C 2"
_symmetry_group_IT_number 5
_symmetry_cell_setting 'monoclinic'
loop_
_space_group_symop_operation_xyz
x,y,z
-x,y,-z
1/2+x,1/2+y,z
1/2-x,1/2+y,-z
loop_
_atom_site_type_symbol
_atom_site_label
_atom_site_fract_x
_atom_site_fract_y
_atom_site_fract_z
Si Si1 0.165091 0.047250 0.547086
Si Si2 0.370935 0.159872 0.393460
Si Si3 0.283454 0.305247 0.570219
Si Si4 0.864454 0.976586 0.896030
Si Si5 0.389500 0.433911 0.237443
O O1 0.362887 0.221193 0.538703
O O2 0.179973 0.199613 0.512868
O O3 0.250043 0.942230 0.545512
O O4 0.185100 0.028834 0.729641
O O5 0.500000 0.083623 0.500000
O O6 0.377510 0.287196 0.295606
O O7 0.248121 0.076316 0.246449
O O8 0.351427 0.354358 0.774552
O O9 0.471603 0.491868 0.618631
O O10 0.853433 0.934703 0.043650
O O11 0.000000 0.036732 0.000000
#
# Coordination Sequence:
#
# PCOD9123832 Si02
#       5
#     4   4   4   4   4
#     4  10  20  40  65  88 128 168 206 250 329 365
#     4  11  21  42  65  88 128 169 209 254 320 368
#     4  11  20  39  64  90 122 171 209 248 315 376
#     4  12  23  39  65  95 126 165 214 259 309 373
#     4  10  21  41  62  90 126 171 199 268 311 370
#
# _framework density 19.046002000000001
#
# number of rings (size 3 to 8) (size 9 to 14) (size 15 to 20)
#    0.000    1.200    8.000    0.000    2.800    0.000 
#    3.600    2.000    0.000    0.000    0.000    0.000 
#    0.000    0.000    0.000    0.000    0.000    0.000 
#
# Total GULP energy -55700.155582 kJ/mol
# GULP energy per Si atom -5570.015558 kJ/mol
# Density = 1.900265 g / cm^3
# Si number density = 19.046002 Si / 1000 Ang^3
#
#
#
# Elastic Constant Matrix: (Units=GPa)
#
#
# Indices 1 2 3 4 5 6 
#
# 1 108.5718 57.9920 74.7375 0.0000 -12.8876 0.0000
# 2 57.9920 81.4150 40.2858 0.0000 3.7597 0.0000
# 3 74.7375 40.2858 119.2773 0.0000 -31.4676 0.0000
# 4 0.0000 0.0000 0.0000 22.0955 0.0000 -4.0532
# 5 -12.8876 3.7597 -31.4676 0.0000 54.3433 0.0000
# 6 0.0000 0.0000 0.0000 -4.0532 0.0000 32.6755
#
#
#
# Elastic Compliance Matrix: (Units=1/GPa)
#
#
# Indices 1 2 3 4 5 6 
#
# 1 0.021775 -0.010529 -0.010071 0.000000 0.000060 0.000000
# 2 -0.010529 0.020886 -0.001767 0.000000 -0.004965 0.000000
# 3 -0.010071 -0.001767 0.017343 0.000000 0.007776 0.000000
# 4 0.000000 0.000000 0.000000 0.046312 0.000000 0.005745
# 5 0.000060 -0.004965 0.007776 0.000000 0.023262 0.000000
# 6 0.000000 0.000000 0.000000 0.005745 0.000000 0.031317
#
#
# Mechanical properties :
#
#
# Convention : Reuss Voigt Hill
#
# Bulk Modulus (GPa) = 65.49380 72.81051 69.15215
# Shear Modulus (GPa) = 23.72833 30.90611 27.31722
#
# Velocity S-wave (km/s) = 3.53348 4.03266 3.79129
# Velocity P-wave (km/s) = 7.14906 7.74563 7.45332
#
# Compressibility (1/GPa) = 0.01526862
#
# Stress axis : x y z
#
# Youngs Moduli (GPa) = 45.92496 47.87834 57.66140
#
# Poissons Ratio (x) = 0.50413 0.58074
# Poissons Ratio (y) = 0.48356 0.10187
# Poissons Ratio (z) = 0.46253 0.08458
#
# Static dielectric constant tensor:
#      x y z
#    x 1.735340 0.000000 -0.012380 
#    y 0.000000 1.676160 0.000000 
#    z -0.012380 0.000000 1.679280 
# 
# From -- ./inp_files/19135.got.cif
#   From: 2010.05.17/outbox.cif.g08.bks.cpg/sg5_10_cif.got.tgz:19135.got - 2010.06.03 18:56:24.
