data_PCOD9123423
_publ_section_title
;
Structure prediction by ZEFSAII (Michael W. Deem and Ramdas Pophale) SiO2 
 PCOD9123423
Probable space group: C 2
;
_chemical_formula_sum "Si O2"
_cell_formula_units_Z 20
_cell_length_a 7.813659
_cell_length_b 23.014453
_cell_length_c 7.432886
_cell_angle_alpha 90.000000
_cell_angle_beta 37.541298
_cell_angle_gamma 90.000000
_cell_volume 814.455499
_symmetry_space_group_name_H-M "C 2"
_symmetry_group_IT_number 5
_symmetry_cell_setting 'monoclinic'
loop_
_space_group_symop_operation_xyz
x,y,z
-x,y,-z
1/2+x,1/2+y,z
1/2-x,1/2+y,-z
loop_
_atom_site_type_symbol
_atom_site_label
_atom_site_fract_x
_atom_site_fract_y
_atom_site_fract_z
Si Si1 0.888096 0.497420 0.888373
Si Si2 0.209923 0.285115 0.680686
Si Si3 0.612914 0.564545 0.612955
Si Si4 0.701091 0.184069 0.659618
Si Si5 0.294992 0.874758 0.832476
O O1 0.749950 0.435083 0.973011
O O2 0.162897 0.513683 0.546990
O O3 0.663398 0.548792 0.046992
O O4 0.000000 0.498362 0.000000
O O5 0.500000 0.316732 0.500000
O O6 0.342712 0.238916 0.431632
O O7 0.983209 0.329414 0.786252
O O8 0.000000 0.254485 0.000000
O O9 0.500000 0.563022 0.500000
O O10 0.762892 0.626673 0.492648
O O11 0.000000 0.196023 0.500000
O O12 0.500000 0.175603 0.000000
O O13 0.500000 0.890410 0.500000
O O14 0.000000 0.851629 0.000000
#
# Coordination Sequence:
#
# PCOD9123423 Si02
#       5
#     4   4   4   4   4
#     4  10  20  38  64  94 128 170 219 270 328 401
#     4  12  27  46  68  99 137 183 232 287 347 407
#     4   9  18  35  64  96 128 169 216 265 328 404
#     4  11  22  42  70 101 135 178 228 279 333 407
#     4  12  26  45  67  96 133 180 232 287 344 405
#
# _framework density 24.556283000000001
#
# number of rings (size 3 to 8) (size 9 to 14) (size 15 to 20)
#    0.000    1.200    0.000    7.800    0.000    4.000 
#    0.000    6.000    0.000    0.000    0.000    0.000 
#    0.000    0.000    0.000    0.000    0.000    0.000 
#
# Total GULP energy -55875.832469 kJ/mol
# GULP energy per Si atom -5587.583247 kJ/mol
# Density = 2.450039 g / cm^3
# Si number density = 24.556283 Si / 1000 Ang^3
#
#
#
# Elastic Constant Matrix: (Units=GPa)
#
#
# Indices 1 2 3 4 5 6 
#
# 1 86.1436 29.4828 27.4313 0.0000 -33.5848 0.0000
# 2 29.4828 116.2280 27.7461 0.0000 -11.4209 0.0000
# 3 27.4313 27.7461 140.4892 0.0000 -30.5412 0.0000
# 4 0.0000 0.0000 0.0000 28.9157 0.0000 -5.0233
# 5 -33.5848 -11.4209 -30.5412 0.0000 39.8619 0.0000
# 6 0.0000 0.0000 0.0000 -5.0233 0.0000 26.2017
#
#
#
# Elastic Compliance Matrix: (Units=1/GPa)
#
#
# Indices 1 2 3 4 5 6 
#
# 1 0.018405 -0.003281 0.000265 0.000000 0.014770 0.000000
# 2 -0.003281 0.009686 -0.001524 0.000000 -0.001156 0.000000
# 3 0.000265 -0.001524 0.008784 0.000000 0.006517 0.000000
# 4 0.000000 0.000000 0.000000 0.035775 0.000000 0.006859
# 5 0.014770 -0.001156 0.006517 0.000000 0.042193 0.000000
# 6 0.000000 0.000000 0.000000 0.006859 0.000000 0.039480
#
#
# Mechanical properties :
#
#
# Convention : Reuss Voigt Hill
#
# Bulk Modulus (GPa) = 35.97566 56.90905 46.44235
# Shear Modulus (GPa) = 28.95742 36.20925 32.58333
#
# Velocity S-wave (km/s) = 3.43771 3.84414 3.64659
# Velocity P-wave (km/s) = 5.51718 6.55198 6.05672
#
# Compressibility (1/GPa) = 0.02779657
#
# Stress axis : x y z
#
# Youngs Moduli (GPa) = 54.33188 103.24073 113.84529
#
# Poissons Ratio (x) = 0.33870 -0.03018
# Poissons Ratio (y) = 0.17825 0.17348
# Poissons Ratio (z) = -0.01440 0.15732
#
# Static dielectric constant tensor:
#      x y z
#    x 2.037360 0.000000 0.038410 
#    y 0.000000 1.988420 0.000000 
#    z 0.038410 0.000000 1.921330 
# 
# From -- ./inp_files/17264.got.cif
#   From: 2010.05.17/outbox.cif.g08.bks.cpg/sg5_9_cif.got.tgz:17264.got - 2010.06.03 18:56:24.
