data_PCOD9123640
_publ_section_title
;
Structure prediction by ZEFSAII (Michael W. Deem and Ramdas Pophale) SiO2 
 PCOD9123640
Probable space group: C 2
;
_chemical_formula_sum "Si O2"
_cell_formula_units_Z 32
_cell_length_a 19.299367
_cell_length_b 14.347822
_cell_length_c 13.043542
_cell_angle_alpha 90.000000
_cell_angle_beta 27.080635
_cell_angle_gamma 90.000000
_cell_volume 1644.253673
_symmetry_space_group_name_H-M "C 2"
_symmetry_group_IT_number 5
_symmetry_cell_setting 'monoclinic'
loop_
_space_group_symop_operation_xyz
x,y,z
-x,y,-z
1/2+x,1/2+y,z
1/2-x,1/2+y,-z
loop_
_atom_site_type_symbol
_atom_site_label
_atom_site_fract_x
_atom_site_fract_y
_atom_site_fract_z
Si Si1 0.048349 0.509800 0.715632
Si Si2 0.674723 0.514687 0.506295
Si Si3 0.656734 0.586658 0.022677
Si Si4 0.621888 0.145026 0.431108
Si Si5 0.129763 0.647639 0.897920
Si Si6 0.983142 0.847797 0.401687
Si Si7 0.862322 0.211297 0.747154
Si Si8 0.816117 0.401551 0.892090
O O1 0.202419 0.482132 0.571451
O O2 0.096643 0.569317 0.552248
O O3 0.928488 0.433255 0.834630
O O4 0.956263 0.572932 0.917573
O O5 0.518934 0.557289 0.756610
O O6 0.755738 0.592035 0.327811
O O7 0.619357 0.427721 0.512141
O O8 0.668231 0.650919 0.110037
O O9 0.719958 0.636612 0.838215
O O10 0.761520 0.494790 0.904544
O O11 0.500000 0.133141 0.500000
O O12 0.589004 0.246614 0.520708
O O13 0.220460 0.711263 0.857008
O O14 0.000000 0.695287 0.000000
O O15 0.000000 0.863153 0.500000
O O16 0.155627 0.855714 0.135273
O O17 0.899933 0.317437 0.724997
O O18 0.000000 0.167489 0.500000
#
# Coordination Sequence:
#
# PCOD9123640 Si02
#       8
#     4   4   4   4   4   4   4   4
#     4  11  22  40  66  90 135 167 213 267 332 378
#     4  10  23  40  63  98 126 173 216 268 325 379
#     4  11  23  42  66  93 131 173 216 263 321 389
#     4  11  21  40  69  92 126 174 217 262 323 387
#     4  10  20  39  65  93 129 169 210 269 327 375
#     4  10  21  38  67  94 124 163 225 264 313 383
#     4  12  23  39  64 100 126 161 222 267 314 383
#     4  11  23  38  65  93 125 167 212 267 320 380
#
# _framework density 19.461717
#
# number of rings (size 3 to 8) (size 9 to 14) (size 15 to 20)
#    0.000    1.250    3.750    3.000    3.500    0.500 
#    2.250    2.500    5.500    0.000    0.000    0.000 
#    0.000    0.000    0.000    0.000    0.000    0.000 
#
# Total GULP energy -89313.583597 kJ/mol
# GULP energy per Si atom -5582.098975 kJ/mol
# Density = 1.941742 g / cm^3
# Si number density = 19.461717 Si / 1000 Ang^3
#
#
#
# Elastic Constant Matrix: (Units=GPa)
#
#
# Indices 1 2 3 4 5 6 
#
# 1 58.2920 17.9754 -6.7556 0.0000 -38.7473 0.0000
# 2 17.9754 54.9535 10.7708 -0.0001 17.3612 0.0000
# 3 -6.7556 10.7708 65.0578 -0.0001 2.9059 0.0000
# 4 0.0000 -0.0001 -0.0001 21.7073 0.0001 6.4460
# 5 -38.7473 17.3612 2.9059 0.0001 -1.3737 0.0000
# 6 0.0000 0.0000 0.0000 6.4460 0.0000 16.2137
#
#
#
# Elastic Compliance Matrix: (Units=1/GPa)
#
#
# Indices 1 2 3 4 5 6 
#
# 1 0.002946 0.005009 0.000330 0.000000 -0.019110 0.000000
# 2 0.005009 0.012635 -0.002187 0.000000 0.013778 0.000000
# 3 0.000330 -0.002187 0.015914 0.000000 -0.003292 0.000000
# 4 0.000000 0.000000 0.000000 0.052234 0.000000 -0.020766
# 5 -0.019110 0.013778 -0.003292 0.000000 -0.021783 0.000000
# 6 0.000000 0.000000 0.000000 -0.020766 0.000000 0.069932
#
#
# Mechanical properties :
#
#
# Convention : Reuss Voigt Hill
#
# Bulk Modulus (GPa) = 26.45548 24.69829 25.57688
# Shear Modulus (GPa) = 36.18604 17.73030 26.95817
#
# Velocity S-wave (km/s) = 4.31669 3.02161 3.72585
# Velocity P-wave (km/s) = 6.20227 4.98916 5.62850
#
# Compressibility (1/GPa) = 0.03779935
#
# Stress axis : x y z
#
# Youngs Moduli (GPa) = 339.38903 79.14676 62.83624
#
# Poissons Ratio (x) = -0.39642 -0.02075
# Poissons Ratio (y) = -1.69988 0.13743
# Poissons Ratio (z) = -0.11210 0.17310
#
# Static dielectric constant tensor:
#      x y z
#    x 1.664800 0.000000 0.000420 
#    y 0.000000 1.690230 0.000000 
#    z 0.000420 0.000000 1.762440 
# 
# From -- ./inp_files/31072.got.cif
#   From: 2010.05.17/outbox.cif.g08.bks.cpg/sg5_16_cif.got.tgz:31072.got - 2010.06.03 18:56:24.
