data_PCOD9123790
_publ_section_title
;
Structure prediction by ZEFSAII (Michael W. Deem and Ramdas Pophale) SiO2 
 PCOD9123790
Probable space group: C 2
;
_chemical_formula_sum "Si O2"
_cell_formula_units_Z 26
_cell_length_a 24.310989
_cell_length_b 7.023005
_cell_length_c 16.872323
_cell_angle_alpha 90.000000
_cell_angle_beta 18.002799
_cell_angle_gamma 90.000000
_cell_volume 890.324122
_symmetry_space_group_name_H-M "C 2"
_symmetry_group_IT_number 5
_symmetry_cell_setting 'monoclinic'
loop_
_space_group_symop_operation_xyz
x,y,z
-x,y,-z
1/2+x,1/2+y,z
1/2-x,1/2+y,-z
loop_
_atom_site_type_symbol
_atom_site_label
_atom_site_fract_x
_atom_site_fract_y
_atom_site_fract_z
Si Si1 0.640997 0.209320 0.735407
Si Si2 0.217522 0.153163 0.872055
Si Si3 0.511584 0.733416 0.303772
Si Si4 0.116183 0.128516 0.767294
Si Si5 0.000000 0.071675 0.500000
Si Si6 0.855857 0.715823 0.002265
Si Si7 0.557214 0.183701 0.582664
O O1 0.833530 0.151566 0.504466
O O2 0.680663 0.424985 0.648979
O O3 0.528705 0.146153 0.812958
O O4 0.500000 0.179946 0.000000
O O5 0.215791 0.918574 0.865334
O O6 0.031552 0.217048 0.086194
O O7 0.387223 0.216101 0.584919
O O8 0.181311 0.192656 0.014188
O O9 0.512393 0.654524 0.391716
O O10 0.479455 0.959009 0.357314
O O11 0.269280 0.238668 0.602767
O O12 0.000000 0.057717 0.000000
O O13 0.214963 0.046709 0.206263
O O14 0.901324 0.769701 0.849251
#
# Coordination Sequence:
#
# PCOD9123790 Si02
#       7
#     4   4   4   4   2   4   4
#     4   9  15  34  62  93 116 163 199 249 302 372
#     4  10  20  40  63  94 123 163 201 254 306 370
#     4  11  22  40  68  89 128 160 206 252 311 357
#     4   7  13  28  59  90 123 148 195 246 303 355
#     4  12  24  42  62  94 120 170 208 256 296 370
#     4  11  22  40  68  89 128 160 206 252 311 357
#     4  10  20  40  63  94 123 163 201 254 306 370
#
# _framework density 29.202847999999999
#
# number of rings (size 3 to 8) (size 9 to 14) (size 15 to 20)
#    0.000    2.154    3.077    2.769    0.000    1.231 
#    2.769    0.000    0.000    1.846    0.000    0.000 
#    0.000    0.000    0.000    0.000    0.000    0.000 
#
# Total GULP energy -72477.412628 kJ/mol
# GULP energy per Si atom -5575.185587 kJ/mol
# Density = 2.913638 g / cm^3
# Si number density = 29.202848 Si / 1000 Ang^3
#
#
#
# Elastic Constant Matrix: (Units=GPa)
#
#
# Indices 1 2 3 4 5 6 
#
# 1 197.2232 1.4292 49.2344 -0.0084 18.5735 0.0036
# 2 1.4292 85.1091 16.2412 -0.0054 4.9912 0.0019
# 3 49.2344 16.2412 204.1933 -0.0092 54.1218 0.0038
# 4 -0.0084 -0.0054 -0.0092 -232.0754 0.0048 137.9680
# 5 18.5735 4.9912 54.1218 0.0048 61.9656 -0.0019
# 6 0.0036 0.0019 0.0038 137.9680 -0.0019 -61.4443
#
#
#
# Elastic Compliance Matrix: (Units=1/GPa)
#
#
# Indices 1 2 3 4 5 6 
#
# 1 0.005416 0.000166 -0.001152 0.000000 -0.000631 0.000000
# 2 0.000166 0.011937 -0.000939 0.000000 -0.000191 0.000001
# 3 -0.001152 -0.000939 0.006686 0.000000 -0.005419 0.000001
# 4 0.000000 0.000000 0.000000 0.012867 0.000000 0.028891
# 5 -0.000631 -0.000191 -0.005419 0.000000 0.021075 -0.000001
# 6 0.000000 0.000001 0.000001 0.028891 -0.000001 0.048598
#
#
# Mechanical properties :
#
#
# Convention : Reuss Voigt Hill
#
# Bulk Modulus (GPa) = 49.53031 68.92611 59.22821
# Shear Modulus (GPa) = 42.67727 -18.33609 12.17059
#
# Velocity S-wave (km/s) = 3.82698 -2.50849 2.04369
# Velocity P-wave (km/s) = 6.04362 3.90689 5.08867
#
# Compressibility (1/GPa) = 0.02018966
#
# Stress axis : x y z
#
# Youngs Moduli (GPa) = 184.63266 83.77172 149.56634
#
# Poissons Ratio (x) = -0.01389 0.17229
# Poissons Ratio (y) = -0.03062 0.14041
# Poissons Ratio (z) = 0.21269 0.07864
#
# Static dielectric constant tensor:
#      x y z
#    x 4.331570 0.000000 -0.209730 
#    y 0.000000 2.336990 0.000000 
#    z -0.209730 0.000000 2.313710 
# 
# From -- ./inp_files/57764.got.cif
#   From: 2010.05.17/outbox.cif.g08.bks.cpg/sg5_29_cif.got.tgz:57764.got - 2010.06.03 18:56:24.
