data_PCOD9123702
_publ_section_title
;
Structure prediction by ZEFSAII (Michael W. Deem and Ramdas Pophale) SiO2 
 PCOD9123702
Probable space group: C 2
;
_chemical_formula_sum "Si O2"
_cell_formula_units_Z 20
_cell_length_a 5.167779
_cell_length_b 29.175001
_cell_length_c 5.580338
_cell_angle_alpha 90.000000
_cell_angle_beta 93.883691
_cell_angle_gamma 90.000000
_cell_volume 839.415252
_symmetry_space_group_name_H-M "C 2"
_symmetry_group_IT_number 5
_symmetry_cell_setting 'monoclinic'
loop_
_space_group_symop_operation_xyz
x,y,z
-x,y,-z
1/2+x,1/2+y,z
1/2-x,1/2+y,-z
loop_
_atom_site_type_symbol
_atom_site_label
_atom_site_fract_x
_atom_site_fract_y
_atom_site_fract_z
Si Si1 0.500000 0.575760 0.000000
Si Si2 0.759434 0.436578 0.632870
Si Si3 0.652607 0.141134 0.743746
Si Si4 0.238523 0.742365 0.828977
Si Si5 0.500000 0.010756 0.000000
Si Si6 0.732608 0.339242 0.839249
O O1 0.413368 0.611356 0.789187
O O2 0.249902 0.542893 0.987698
O O3 0.500000 0.457242 0.500000
O O4 0.662004 0.389643 0.743752
O O5 0.000000 0.417137 0.500000
O O6 0.905211 0.475774 0.789871
O O7 0.500000 0.123502 0.500000
O O8 0.721597 0.194094 0.694329
O O9 0.500000 0.138406 0.000000
O O10 0.246601 0.791473 0.690875
O O11 0.500000 0.741641 0.000000
O O12 0.000000 0.740137 0.000000
O O13 0.500000 0.328870 0.000000
O O14 0.000000 0.344248 0.000000
#
# Coordination Sequence:
#
# PCOD9123702 Si02
#       6
#     2   4   4   4   2   4
#     4  12  26  50  73 106 135 192 250 310 370 438
#     4  12  26  44  72 105 139 186 238 294 364 431
#     4  11  25  49  77 110 151 195 245 303 372 440
#     4   9  19  39  67 104 143 188 236 288 356 434
#     4  12  28  50  71 100 143 182 240 306 368 426
#     4  10  20  39  69  99 145 189 230 288 351 430
#
# _framework density 23.82611
#
# number of rings (size 3 to 8) (size 9 to 14) (size 15 to 20)
#    0.000    1.200    3.000    2.400    1.400    4.000 
#    3.600    4.000    0.000    0.000    0.000    0.000 
#    0.000    0.000    0.000    0.000    0.000    0.000 
#
# Total GULP energy -55705.300756 kJ/mol
# GULP energy per Si atom -5570.530076 kJ/mol
# Density = 2.377188 g / cm^3
# Si number density = 23.826110 Si / 1000 Ang^3
#
#
#
# Elastic Constant Matrix: (Units=GPa)
#
#
# Indices 1 2 3 4 5 6 
#
# 1 159.1535 15.0576 35.4366 0.0000 37.6190 0.0000
# 2 15.0576 156.3407 13.3769 0.0000 11.0934 0.0000
# 3 35.4366 13.3769 70.4721 0.0000 34.6550 0.0000
# 4 0.0000 0.0000 0.0000 -63.3724 0.0000 -3.0562
# 5 37.6190 11.0934 34.6550 0.0000 49.0940 0.0000
# 6 0.0000 0.0000 0.0000 -3.0562 0.0000 28.7681
#
#
#
# Elastic Compliance Matrix: (Units=1/GPa)
#
#
# Indices 1 2 3 4 5 6 
#
# 1 0.007787 -0.000279 -0.001470 0.000000 -0.004867 0.000000
# 2 -0.000279 0.006539 -0.000734 0.000000 -0.000745 0.000000
# 3 -0.001470 -0.000734 0.022107 0.000000 -0.014313 0.000000
# 4 0.000000 0.000000 0.000000 -0.015699 0.000000 -0.001668
# 5 -0.004867 -0.000745 -0.014313 0.000000 0.034370 0.000000
# 6 0.000000 0.000000 0.000000 -0.001668 0.000000 0.034584
#
#
# Mechanical properties :
#
#
# Convention : Reuss Voigt Hill
#
# Bulk Modulus (GPa) = 31.77923 57.07873 44.42898
# Shear Modulus (GPa) = 47.55462 24.37094 35.96278
#
# Velocity S-wave (km/s) = 4.47240 3.20170 3.88930
# Velocity P-wave (km/s) = 6.32746 6.13810 6.23350
#
# Compressibility (1/GPa) = 0.03146710
#
# Stress axis : x y z
#
# Youngs Moduli (GPa) = 128.41633 152.93140 45.23471
#
# Poissons Ratio (x) = 0.04266 0.06648
# Poissons Ratio (y) = 0.03582 0.03322
# Poissons Ratio (z) = 0.18872 0.11231
#
# Static dielectric constant tensor:
#      x y z
#    x 1.870620 0.000000 -0.116750 
#    y 0.000000 1.983690 0.000000 
#    z -0.116750 0.000000 2.223270 
# 
# From -- ./inp_files/1185.got.cif
#   From: 2010.05.17/outbox.cif.g08.bks.cpg/sg5_1_cif.got.tgz:1185.got - 2010.06.03 18:56:24.
