data_PCOD9123046
_publ_section_title
;
Structure prediction by ZEFSAII (Michael W. Deem and Ramdas Pophale) SiO2 
 PCOD9123046
Probable space group: C 2
;
_chemical_formula_sum "Si O2"
_cell_formula_units_Z 22
_cell_length_a 20.076823
_cell_length_b 11.221267
_cell_length_c 5.292015
_cell_angle_alpha 90.000000
_cell_angle_beta 113.363205
_cell_angle_gamma 90.000000
_cell_volume 1094.473171
_symmetry_space_group_name_H-M "C 2"
_symmetry_group_IT_number 5
_symmetry_cell_setting 'monoclinic'
loop_
_space_group_symop_operation_xyz
x,y,z
-x,y,-z
1/2+x,1/2+y,z
1/2-x,1/2+y,-z
loop_
_atom_site_type_symbol
_atom_site_label
_atom_site_fract_x
_atom_site_fract_y
_atom_site_fract_z
Si Si1 0.000000 0.081650 0.000000
Si Si2 0.825986 0.363276 0.838343
Si Si3 0.665062 0.272109 0.612069
Si Si4 0.302741 0.002739 0.300726
Si Si5 0.977372 0.307251 0.210505
Si Si6 0.363208 0.419845 0.927854
O O1 0.981575 0.180140 0.755004
O O2 0.932484 0.004345 0.990772
O O3 0.751463 0.293643 0.746609
O O4 0.831987 0.412914 0.562491
O O5 0.820281 0.466455 0.039903
O O6 0.892950 0.286316 0.039759
O O7 0.660550 0.130211 0.602572
O O8 0.637474 0.331964 0.313783
O O9 0.634332 0.342603 0.810046
O O10 0.214320 0.991117 0.192183
O O11 0.000000 0.366567 0.500000
O O12 0.000000 0.381910 0.000000
#
# Coordination Sequence:
#
# PCOD9123046 Si02
#       6
#     2   4   4   4   4   4
#     4  10  24  38  62  82 124 146 194 234 294 340
#     4  10  20  37  60  86 119 144 193 242 280 337
#     4  10  21  37  58  88 115 149 196 231 287 338
#     4  10  20  37  61  85 115 152 188 241 286 331
#     4  10  22  36  59  89 112 151 183 244 287 340
#     4  10  22  36  60  87 114 154 188 240 282 340
#
# _framework density 20.100995999999999
#
# number of rings (size 3 to 8) (size 9 to 14) (size 15 to 20)
#    0.545    1.455    0.000    3.273    2.545    0.000 
#    3.273    0.000   20.000    0.000    0.000    0.000 
#    0.000    0.000    0.000    0.000    0.000    0.000 
#
# Total GULP energy -61254.465259 kJ/mol
# GULP energy per Si atom -5568.587751 kJ/mol
# Density = 2.005525 g / cm^3
# Si number density = 20.100996 Si / 1000 Ang^3
#
#
#
# Elastic Constant Matrix: (Units=GPa)
#
#
# Indices 1 2 3 4 5 6 
#
# 1 61.7267 6.5644 15.4427 0.0000 -3.7578 0.0000
# 2 6.5644 50.2709 -6.9778 0.0000 -3.4222 0.0000
# 3 15.4427 -6.9778 90.8369 0.0000 -25.0041 0.0000
# 4 0.0000 0.0000 0.0000 16.5521 0.0000 4.7488
# 5 -3.7578 -3.4222 -25.0041 0.0000 28.4977 0.0000
# 6 0.0000 0.0000 0.0000 4.7488 0.0000 17.3401
#
#
#
# Elastic Compliance Matrix: (Units=1/GPa)
#
#
# Indices 1 2 3 4 5 6 
#
# 1 0.017298 -0.002813 -0.003457 0.000000 -0.001090 0.000000
# 2 -0.002813 0.021112 0.003554 0.000000 0.005283 0.000000
# 3 -0.003457 0.003554 0.015638 0.000000 0.013692 0.000000
# 4 0.000000 0.000000 0.000000 0.065567 0.000000 -0.017956
# 5 -0.001090 0.005283 0.013692 0.000000 0.047595 0.000000
# 6 0.000000 0.000000 0.000000 -0.017956 0.000000 0.062588
#
#
# Mechanical properties :
#
#
# Convention : Reuss Voigt Hill
#
# Bulk Modulus (GPa) = 20.56846 25.87699 23.22272
# Shear Modulus (GPa) = 19.88582 24.99832 22.44207
#
# Velocity S-wave (km/s) = 3.14872 3.53035 3.34498
# Velocity P-wave (km/s) = 4.84500 5.43316 5.14749
#
# Compressibility (1/GPa) = 0.04861814
#
# Stress axis : x y z
#
# Youngs Moduli (GPa) = 57.80994 47.36532 63.94498
#
# Poissons Ratio (x) = 0.13323 0.22105
# Poissons Ratio (y) = 0.16261 -0.22727
# Poissons Ratio (z) = 0.19984 -0.16835
#
# Static dielectric constant tensor:
#      x y z
#    x 1.790750 0.000000 -0.014200 
#    y 0.000000 1.706000 0.000000 
#    z -0.014200 0.000000 1.771990 
# 
# From -- ./inp_files/8219.got.cif
#   From: 2010.05.17/outbox.cif.g08.bks.cpg/sg5_5_cif.got.tgz:8219.got - 2010.06.03 18:56:24.
