data_PCOD9123919
_publ_section_title
;
Structure prediction by ZEFSAII (Michael W. Deem and Ramdas Pophale) SiO2 
 PCOD9123919
Probable space group: C 2
;
_chemical_formula_sum "Si O2"
_cell_formula_units_Z 16
_cell_length_a 11.707270
_cell_length_b 7.661444
_cell_length_c 9.756608
_cell_angle_alpha 90.000000
_cell_angle_beta 118.058338
_cell_angle_gamma 90.000000
_cell_volume 772.261957
_symmetry_space_group_name_H-M "C 2"
_symmetry_group_IT_number 5
_symmetry_cell_setting 'monoclinic'
loop_
_space_group_symop_operation_xyz
x,y,z
-x,y,-z
1/2+x,1/2+y,z
1/2-x,1/2+y,-z
loop_
_atom_site_type_symbol
_atom_site_label
_atom_site_fract_x
_atom_site_fract_y
_atom_site_fract_z
Si Si1 0.468296 0.591960 0.735238
Si Si2 0.500000 0.377031 0.500000
Si Si3 0.737361 0.199391 0.782979
Si Si4 0.000000 0.820013 0.000000
Si Si5 0.275858 0.807923 0.105333
O O1 0.430430 0.497194 0.573990
O O2 0.353419 0.701548 0.738887
O O3 0.501227 0.445481 0.868052
O O4 0.597485 0.702139 0.781495
O O5 0.606243 0.265025 0.640223
O O6 0.722570 0.000517 0.828899
O O7 0.773194 0.308249 0.938693
O O8 0.862082 0.724841 0.925665
#
# Coordination Sequence:
#
# PCOD9123919 Si02
#       5
#     4   2   4   2   4
#     4  11  23  44  67  97 135 168 221 272 320 389
#     4  12  26  44  62 102 140 170 210 278 334 380
#     4  11  24  43  68  98 134 172 219 270 329 388
#     4  10  20  40  68  98 130 162 224 266 314 394
#     4  11  20  44  69  95 130 172 223 264 317 395
#
# _framework density 20.718357000000001
#
# number of rings (size 3 to 8) (size 9 to 14) (size 15 to 20)
#    0.000    1.000    7.500    0.000    0.000    7.000 
#    9.000    0.000    0.000    0.000    0.000    0.000 
#    0.000    0.000    0.000    0.000    0.000    0.000 
#
# Total GULP energy -44701.689442 kJ/mol
# GULP energy per Si atom -5587.711180 kJ/mol
# Density = 2.067120 g / cm^3
# Si number density = 20.718357 Si / 1000 Ang^3
#
#
#
# Elastic Constant Matrix: (Units=GPa)
#
#
# Indices 1 2 3 4 5 6 
#
# 1 142.3507 47.6838 18.2278 0.0000 9.3777 0.0000
# 2 47.6838 56.9338 31.2818 0.0000 4.9523 0.0000
# 3 18.2278 31.2818 97.9052 0.0000 -0.6670 0.0000
# 4 0.0000 0.0000 0.0000 37.8856 0.0000 0.8485
# 5 9.3777 4.9523 -0.6670 0.0000 40.0923 0.0000
# 6 0.0000 0.0000 0.0000 0.8485 0.0000 27.9116
#
#
#
# Elastic Compliance Matrix: (Units=1/GPa)
#
#
# Indices 1 2 3 4 5 6 
#
# 1 0.009899 -0.008693 0.000926 0.000000 -0.001226 0.000000
# 2 -0.008693 0.029244 -0.007737 0.000000 -0.001708 0.000000
# 3 0.000926 -0.007737 0.012520 0.000000 0.000947 0.000000
# 4 0.000000 0.000000 0.000000 0.026413 0.000000 -0.000803
# 5 -0.001226 -0.001708 0.000947 0.000000 0.025456 0.000000
# 6 0.000000 0.000000 0.000000 -0.000803 0.000000 0.035852
#
#
# Mechanical properties :
#
#
# Convention : Reuss Voigt Hill
#
# Bulk Modulus (GPa) = 48.41265 54.61962 51.51613
# Shear Modulus (GPa) = 28.20435 34.51099 31.35767
#
# Velocity S-wave (km/s) = 3.69361 4.08575 3.89462
# Velocity P-wave (km/s) = 6.45044 6.97696 6.71886
#
# Compressibility (1/GPa) = 0.02065576
#
# Stress axis : x y z
#
# Youngs Moduli (GPa) = 101.02047 34.19451 79.87162
#
# Poissons Ratio (x) = 0.29725 -0.07397
# Poissons Ratio (y) = 0.87816 0.61798
# Poissons Ratio (z) = -0.09356 0.26457
#
# Static dielectric constant tensor:
#      x y z
#    x 1.772790 0.000000 0.004840 
#    y 0.000000 1.772310 0.000000 
#    z 0.004840 0.000000 1.703120 
# 
# From -- ./inp_files/17867.got.cif
#   From: 2010.05.17/outbox.cif.g08.bks.cpg/sg5_9_cif.got.tgz:17867.got - 2010.06.03 18:56:24.
