data_PCOD9123501
_publ_section_title
;
Structure prediction by ZEFSAII (Michael W. Deem and Ramdas Pophale) SiO2 
 PCOD9123501
Probable space group: C 2
;
_chemical_formula_sum "Si O2"
_cell_formula_units_Z 22
_cell_length_a 8.487919
_cell_length_b 17.509557
_cell_length_c 9.551053
_cell_angle_alpha 90.000000
_cell_angle_beta 51.073332
_cell_angle_gamma 90.000000
_cell_volume 1104.281412
_symmetry_space_group_name_H-M "C 2"
_symmetry_group_IT_number 5
_symmetry_cell_setting 'monoclinic'
loop_
_space_group_symop_operation_xyz
x,y,z
-x,y,-z
1/2+x,1/2+y,z
1/2-x,1/2+y,-z
loop_
_atom_site_type_symbol
_atom_site_label
_atom_site_fract_x
_atom_site_fract_y
_atom_site_fract_z
Si Si1 0.785886 0.006550 0.700995
Si Si2 0.429716 0.358887 0.751482
Si Si3 0.000000 0.780692 0.000000
Si Si4 0.377974 0.674212 0.714383
Si Si5 0.886491 0.406733 0.417511
Si Si6 0.604902 0.771082 0.790812
O O1 0.783681 0.089204 0.770801
O O2 0.000000 0.006414 0.500000
O O3 0.796527 0.934954 0.800030
O O4 0.624871 0.982649 0.671926
O O5 0.428861 0.331109 0.909786
O O6 0.657394 0.380649 0.582066
O O7 0.333729 0.293253 0.706299
O O8 0.186896 0.729834 0.840414
O O9 0.500000 0.684781 0.500000
O O10 0.539725 0.694615 0.745992
O O11 0.965964 0.338248 0.275375
O O12 0.000000 0.415732 0.500000
O O13 0.500000 0.773195 0.000000
#
# Coordination Sequence:
#
# PCOD9123501 Si02
#       6
#     4   4   2   4   4   4
#     4   8  19  41  62  85 124 167 209 260 316 373
#     4  10  21  39  62  90 123 161 220 261 304 389
#     4  12  22  38  60  96 122 162 216 260 314 380
#     4  11  23  42  63  88 132 169 204 268 323 374
#     4  10  20  38  67  94 122 169 213 264 319 374
#     4  11  20  36  60  93 123 162 208 263 315 370
#
# _framework density 19.922459
#
# number of rings (size 3 to 8) (size 9 to 14) (size 15 to 20)
#    0.000    1.818    1.818    4.364    0.000    0.000 
#    8.182    5.455    0.000    0.000    0.000    0.000 
#    0.000    0.000    0.000    0.000    0.000    0.000 
#
# Total GULP energy -61340.422119 kJ/mol
# GULP energy per Si atom -5576.402011 kJ/mol
# Density = 1.987711 g / cm^3
# Si number density = 19.922459 Si / 1000 Ang^3
#
#
#
# Elastic Constant Matrix: (Units=GPa)
#
#
# Indices 1 2 3 4 5 6 
#
# 1 158.0226 66.5532 43.9979 0.0000 33.0595 0.0000
# 2 66.5532 109.1327 48.7993 0.0000 31.9108 0.0000
# 3 43.9979 48.7993 94.7466 0.0000 16.8610 0.0000
# 4 0.0000 0.0000 0.0000 -70.2567 0.0000 12.7503
# 5 33.0595 31.9108 16.8610 0.0000 45.1745 0.0000
# 6 0.0000 0.0000 0.0000 12.7503 0.0000 27.0057
#
#
#
# Elastic Compliance Matrix: (Units=1/GPa)
#
#
# Indices 1 2 3 4 5 6 
#
# 1 0.009102 -0.003835 -0.001659 0.000000 -0.003334 0.000000
# 2 -0.003835 0.015659 -0.005158 0.000000 -0.006330 0.000000
# 3 -0.001659 -0.005158 0.014050 0.000000 -0.000387 0.000000
# 4 0.000000 0.000000 0.000000 -0.013110 0.000000 0.006190
# 5 -0.003334 -0.006330 -0.000387 0.000000 0.029192 0.000000
# 6 0.000000 0.000000 0.000000 0.006190 0.000000 0.034107
#
#
# Mechanical properties :
#
#
# Convention : Reuss Voigt Hill
#
# Bulk Modulus (GPa) = 57.11358 75.62253 66.36805
# Shear Modulus (GPa) = 43.05196 13.88812 28.47004
#
# Velocity S-wave (km/s) = 4.65367 2.64315 3.78437
# Velocity P-wave (km/s) = 7.58984 6.88155 7.24436
#
# Compressibility (1/GPa) = 0.01750897
#
# Stress axis : x y z
#
# Youngs Moduli (GPa) = 109.86101 63.86126 71.17345
#
# Poissons Ratio (x) = 0.24488 0.11806
# Poissons Ratio (y) = 0.42127 0.36711
# Poissons Ratio (z) = 0.18223 0.32940
#
# Static dielectric constant tensor:
#      x y z
#    x 1.762690 0.000000 -0.063100 
#    y 0.000000 1.740360 0.000000 
#    z -0.063100 0.000000 1.758620 
# 
# From -- ./inp_files/15625.got.cif
#   From: 2010.05.17/outbox.cif.g08.bks.cpg/sg5_8_cif.got.tgz:15625.got - 2010.06.03 18:56:24.
