data_PCOD9123661
_publ_section_title
;
Structure prediction by ZEFSAII (Michael W. Deem and Ramdas Pophale) SiO2 
 PCOD9123661
Probable space group: C 2
;
_chemical_formula_sum "Si O2"
_cell_formula_units_Z 26
_cell_length_a 16.944912
_cell_length_b 9.422834
_cell_length_c 8.210511
_cell_angle_alpha 90.000000
_cell_angle_beta 94.034464
_cell_angle_gamma 90.000000
_cell_volume 1307.716156
_symmetry_space_group_name_H-M "C 2"
_symmetry_group_IT_number 5
_symmetry_cell_setting 'monoclinic'
loop_
_space_group_symop_operation_xyz
x,y,z
-x,y,-z
1/2+x,1/2+y,z
1/2-x,1/2+y,-z
loop_
_atom_site_type_symbol
_atom_site_label
_atom_site_fract_x
_atom_site_fract_y
_atom_site_fract_z
Si Si1 0.906193 0.867420 0.870262
Si Si2 0.171755 0.285082 0.466624
Si Si3 0.736931 0.428481 0.797874
Si Si4 0.241947 0.012628 0.315533
Si Si5 0.000000 0.170912 0.500000
Si Si6 0.062478 0.950405 0.774821
Si Si7 0.287582 0.177739 0.999637
O O1 0.840809 0.941821 0.750122
O O2 0.987285 0.847105 0.784438
O O3 0.917717 0.971829 0.029401
O O4 0.872801 0.722480 0.942306
O O5 0.196783 0.379053 0.315110
O O6 0.203993 0.384101 0.615223
O O7 0.078721 0.256111 0.463165
O O8 0.218258 0.135180 0.443946
O O9 0.647677 0.400776 0.720073
O O10 0.748251 0.329987 0.958629
O O11 0.743445 0.589069 0.856341
O O12 0.281737 0.093016 0.168224
O O13 0.029317 0.074781 0.656922
#
# Coordination Sequence:
#
# PCOD9123661 Si02
#       7
#     4   4   4   4   2   4   4
#     4  10  21  38  66 100 124 164 226 276 312 382
#     4  11  26  41  64  95 134 174 224 265 338 386
#     4  10  22  39  66  95 126 174 218 271 327 391
#     4  11  22  42  66  99 130 179 218 273 323 402
#     4  12  24  42  64  96 136 168 218 280 330 398
#     4  10  21  40  65  94 127 168 225 264 323 396
#     4  10  20  39  66  94 126 169 222 269 325 384
#
# _framework density 19.881992
#
# number of rings (size 3 to 8) (size 9 to 14) (size 15 to 20)
#    0.000    1.538    4.615    0.923    4.308    0.000 
#    0.000    7.692    0.000    0.000    0.000    0.000 
#    0.000    0.000    0.000    0.000    0.000    0.000 
#
# Total GULP energy -72394.761572 kJ/mol
# GULP energy per Si atom -5568.827813 kJ/mol
# Density = 1.983674 g / cm^3
# Si number density = 19.881992 Si / 1000 Ang^3
#
#
#
# Elastic Constant Matrix: (Units=GPa)
#
#
# Indices 1 2 3 4 5 6 
#
# 1 160.2060 58.1293 38.7331 0.0000 -20.9335 0.0000
# 2 58.1293 82.4950 28.2801 0.0000 3.7447 0.0000
# 3 38.7331 28.2801 43.6472 0.0000 -2.6992 0.0000
# 4 0.0000 0.0000 0.0000 45.1210 0.0000 -0.0142
# 5 -20.9335 3.7447 -2.6992 0.0000 34.4887 0.0000
# 6 0.0000 0.0000 0.0000 -0.0142 0.0000 28.6071
#
#
#
# Elastic Compliance Matrix: (Units=1/GPa)
#
#
# Indices 1 2 3 4 5 6 
#
# 1 0.010488 -0.005966 -0.005033 0.000000 0.006620 0.000000
# 2 -0.005966 0.019193 -0.007531 0.000000 -0.006294 0.000000
# 3 -0.005033 -0.007531 0.032274 0.000000 0.000289 0.000000
# 4 0.000000 0.000000 0.000000 0.022163 0.000000 0.000011
# 5 0.006620 -0.006294 0.000289 0.000000 0.033719 0.000000
# 6 0.000000 0.000000 0.000000 0.000011 0.000000 0.034956
#
#
# Mechanical properties :
#
#
# Convention : Reuss Voigt Hill
#
# Bulk Modulus (GPa) = 40.16528 59.62591 49.89559
# Shear Modulus (GPa) = 25.23320 32.39040 28.81180
#
# Velocity S-wave (km/s) = 3.56638 4.04063 3.81089
# Velocity P-wave (km/s) = 6.09954 7.19888 6.67189
#
# Compressibility (1/GPa) = 0.02489713
#
# Stress axis : x y z
#
# Youngs Moduli (GPa) = 95.34381 52.10237 30.98429
#
# Poissons Ratio (x) = 0.31083 0.15594
# Poissons Ratio (y) = 0.56879 0.23334
# Poissons Ratio (z) = 0.47984 0.39237
#
# Static dielectric constant tensor:
#      x y z
#    x 1.717720 0.000000 -0.017410 
#    y 0.000000 1.706960 0.000000 
#    z -0.017410 0.000000 1.780400 
# 
# From -- ./inp_files/26754.got.cif
#   From: 2010.05.17/outbox.cif.g08.bks.cpg/sg5_14_cif.got.tgz:26754.got - 2010.06.03 18:56:24.
