data_PCOD9123478
_publ_section_title
;
Structure prediction by ZEFSAII (Michael W. Deem and Ramdas Pophale) SiO2 
 PCOD9123478
Probable space group: C 2
;
_chemical_formula_sum "Si O2"
_cell_formula_units_Z 28
_cell_length_a 16.932639
_cell_length_b 19.418829
_cell_length_c 11.229497
_cell_angle_alpha 90.000000
_cell_angle_beta 158.070642
_cell_angle_gamma 90.000000
_cell_volume 1378.972951
_symmetry_space_group_name_H-M "C 2"
_symmetry_group_IT_number 5
_symmetry_cell_setting 'monoclinic'
loop_
_space_group_symop_operation_xyz
x,y,z
-x,y,-z
1/2+x,1/2+y,z
1/2-x,1/2+y,-z
loop_
_atom_site_type_symbol
_atom_site_label
_atom_site_fract_x
_atom_site_fract_y
_atom_site_fract_z
Si Si1 0.396329 0.746650 0.229630
Si Si2 0.732171 0.172742 0.798985
Si Si3 0.892833 0.032116 0.971985
Si Si4 0.578615 0.307697 0.438828
Si Si5 0.471275 0.933116 0.585895
Si Si6 0.771084 0.822107 0.617794
Si Si7 0.045952 0.962062 0.692182
O O1 0.500000 0.734353 0.500000
O O2 0.582516 0.776458 0.407196
O O3 0.329350 0.679683 0.065363
O O4 0.171845 0.787793 0.922505
O O5 0.500000 0.145353 0.500000
O O6 0.869211 0.114230 0.930393
O O7 0.691555 0.247728 0.677509
O O8 0.661671 0.998540 0.640426
O O9 0.000000 0.008424 0.000000
O O10 0.990442 0.003103 0.233489
O O11 0.689294 0.308967 0.465250
O O12 0.574791 0.387538 0.475630
O O13 0.500000 0.891082 0.500000
O O14 0.325680 0.895249 0.478572
O O15 0.703426 0.946757 0.957157
O O16 0.000000 0.812702 0.000000
O O17 0.000000 0.996477 0.500000
#
# Coordination Sequence:
#
# PCOD9123478 Si02
#       7
#     4   4   4   4   4   4   4
#     4  11  22  39  60  92 127 176 213 272 326 403
#     4  10  24  44  65  90 131 176 220 270 338 403
#     4  11  24  43  68  96 130 178 233 273 330 418
#     4  11  23  40  63  96 137 168 219 275 339 395
#     4  10  20  38  66  94 129 176 219 269 335 406
#     4  12  21  34  64  97 131 168 216 273 330 392
#     4  11  22  41  67  98 132 173 222 284 339 392
#
# _framework density 20.304967999999999
#
# number of rings (size 3 to 8) (size 9 to 14) (size 15 to 20)
#    0.000    1.143    2.857    6.000    2.000    0.571 
#    0.000    2.143    0.000    0.000    0.000    0.000 
#    0.000    0.000    0.000    0.000    0.000    0.000 
#
# Total GULP energy -77960.659924 kJ/mol
# GULP energy per Si atom -5568.618566 kJ/mol
# Density = 2.025875 g / cm^3
# Si number density = 20.304968 Si / 1000 Ang^3
#
#
#
# Elastic Constant Matrix: (Units=GPa)
#
#
# Indices 1 2 3 4 5 6 
#
# 1 188.6080 35.2175 52.8335 0.0000 -2.1696 0.0000
# 2 35.2175 68.8623 18.0507 0.0000 -9.5260 0.0000
# 3 52.8335 18.0507 83.1924 0.0002 -13.6754 -0.0001
# 4 0.0000 0.0000 0.0002 -29.8092 0.0000 11.9737
# 5 -2.1696 -9.5260 -13.6754 0.0000 41.5783 0.0000
# 6 0.0000 0.0000 -0.0001 11.9737 0.0000 32.3233
#
#
#
# Elastic Compliance Matrix: (Units=1/GPa)
#
#
# Indices 1 2 3 4 5 6 
#
# 1 0.006929 -0.002696 -0.004078 0.000000 -0.001597 0.000000
# 2 -0.002696 0.016710 -0.001382 0.000000 0.003233 0.000000
# 3 -0.004078 -0.001382 0.015671 0.000000 0.004625 0.000000
# 4 0.000000 0.000000 0.000000 -0.029202 0.000000 0.010817
# 5 -0.001597 0.003233 0.004625 0.000000 0.026229 0.000000
# 6 0.000000 0.000000 0.000000 0.010817 0.000000 0.026930
#
#
# Mechanical properties :
#
#
# Convention : Reuss Voigt Hill
#
# Bulk Modulus (GPa) = 43.48344 61.42956 52.45650
# Shear Modulus (GPa) = 57.30892 24.45589 40.88241
#
# Velocity S-wave (km/s) = 5.31840 3.47425 4.49198
# Velocity P-wave (km/s) = 7.69256 6.81271 7.26597
#
# Compressibility (1/GPa) = 0.02299726
#
# Stress axis : x y z
#
# Youngs Moduli (GPa) = 144.31183 59.84461 63.81411
#
# Poissons Ratio (x) = 0.16133 0.26026
# Poissons Ratio (y) = 0.38903 0.08820
# Poissons Ratio (z) = 0.58856 0.08271
#
# Static dielectric constant tensor:
#      x y z
#    x 1.790490 0.000000 0.008620 
#    y 0.000000 1.813250 0.000000 
#    z 0.008620 0.000000 1.736550 
# 
# From -- ./inp_files/27978.got.cif
#   From: 2010.05.17/outbox.cif.g08.bks.cpg/sg5_14_cif.got.tgz:27978.got - 2010.06.03 18:56:24.
