data_PCOD9123246
_publ_section_title
;
Structure prediction by ZEFSAII (Michael W. Deem and Ramdas Pophale) SiO2 
 PCOD9123246
Probable space group: C 2
;
_chemical_formula_sum "Si O2"
_cell_formula_units_Z 28
_cell_length_a 11.545902
_cell_length_b 8.398873
_cell_length_c 17.424408
_cell_angle_alpha 90.000000
_cell_angle_beta 133.586639
_cell_angle_gamma 90.000000
_cell_volume 1223.897306
_symmetry_space_group_name_H-M "C 2"
_symmetry_group_IT_number 5
_symmetry_cell_setting 'monoclinic'
loop_
_space_group_symop_operation_xyz
x,y,z
-x,y,-z
1/2+x,1/2+y,z
1/2-x,1/2+y,-z
loop_
_atom_site_type_symbol
_atom_site_label
_atom_site_fract_x
_atom_site_fract_y
_atom_site_fract_z
Si Si1 0.000000 0.441770 0.500000
Si Si2 0.731914 0.175723 0.533904
Si Si3 0.000000 0.929469 0.500000
Si Si4 0.063413 0.085636 0.760097
Si Si5 0.758116 0.904359 0.838168
Si Si6 0.114211 0.916003 0.934838
Si Si7 0.227311 0.183874 0.627812
Si Si8 0.404361 0.223284 0.210972
O O1 0.900543 0.540830 0.515535
O O2 0.865756 0.342955 0.393561
O O3 0.629717 0.328038 0.513010
O O4 0.882465 0.134865 0.656236
O O5 0.785646 0.185527 0.471205
O O6 0.114628 0.041665 0.603049
O O7 0.169430 0.236384 0.782828
O O8 0.100316 0.061573 0.867986
O O9 0.089053 0.898920 0.745738
O O10 0.931722 0.892842 0.879295
O O11 0.673949 0.074777 0.781262
O O12 0.782796 0.922257 0.941641
O O13 0.172193 0.772426 0.905741
O O14 0.413498 0.176470 0.726807
#
# Coordination Sequence:
#
# PCOD9123246 Si02
#       8
#     2   4   2   4   4   4   4   4
#     4  10  20  38  58  78 124 156 196 258 282 344
#     4  11  22  39  56  85 121 157 201 247 296 358
#     4  10  24  32  58  82 106 166 200 228 310 346
#     4  10  23  41  62  96 124 161 213 255 308 374
#     4  11  21  44  67  88 130 163 200 268 319 370
#     4   9  23  43  63  97 123 159 212 258 318 376
#     4  11  22  39  56  85 121 157 201 247 296 358
#     4  10  23  41  62  96 124 161 213 255 308 374
#
# _framework density 22.877735999999999
#
# number of rings (size 3 to 8) (size 9 to 14) (size 15 to 20)
#    0.857    0.857    1.429    2.571    0.000    6.857 
#    2.571    1.429    0.000    0.000    0.000    0.000 
#    0.000    0.000    0.000    0.000    0.000    0.000 
#
# Total GULP energy -78080.476737 kJ/mol
# GULP energy per Si atom -5577.176910 kJ/mol
# Density = 2.282567 g / cm^3
# Si number density = 22.877736 Si / 1000 Ang^3
#
#
#
# Elastic Constant Matrix: (Units=GPa)
#
#
# Indices 1 2 3 4 5 6 
#
# 1 50.3091 43.2838 -0.0975 0.0000 7.4048 0.0000
# 2 43.2838 166.1513 23.7799 0.0000 16.1568 0.0000
# 3 -0.0975 23.7799 68.3463 0.0000 -1.1821 0.0000
# 4 0.0000 0.0000 0.0000 29.9050 0.0000 16.1012
# 5 7.4048 16.1568 -1.1821 0.0000 34.5165 0.0000
# 6 0.0000 0.0000 0.0000 16.1012 0.0000 51.9738
#
#
#
# Elastic Compliance Matrix: (Units=1/GPa)
#
#
# Indices 1 2 3 4 5 6 
#
# 1 0.026196 -0.006948 0.002415 0.000000 -0.002285 0.000000
# 2 -0.006948 0.008513 -0.003017 0.000000 -0.002598 0.000000
# 3 0.002415 -0.003017 0.015709 0.000000 0.001432 0.000000
# 4 0.000000 0.000000 0.000000 0.040133 0.000000 -0.012433
# 5 -0.002285 -0.002598 0.001432 0.000000 0.030727 0.000000
# 6 0.000000 0.000000 0.000000 -0.012433 0.000000 0.023092
#
#
# Mechanical properties :
#
#
# Convention : Reuss Voigt Hill
#
# Bulk Modulus (GPa) = 28.31319 46.52654 37.41987
# Shear Modulus (GPa) = 29.19853 37.80175 33.50014
#
# Velocity S-wave (km/s) = 3.57639 4.06931 3.83078
# Velocity P-wave (km/s) = 5.42741 6.51615 5.99654
#
# Compressibility (1/GPa) = 0.03531923
#
# Stress axis : x y z
#
# Youngs Moduli (GPa) = 38.17440 117.46894 63.65695
#
# Poissons Ratio (x) = 0.81613 -0.15374
# Poissons Ratio (y) = 0.26522 0.19204
# Poissons Ratio (z) = -0.09220 0.35437
#
# Static dielectric constant tensor:
#      x y z
#    x 1.811340 0.000000 -0.043350 
#    y 0.000000 1.940370 0.000000 
#    z -0.043350 0.000000 1.865610 
# 
# From -- ./inp_files/65070.got.cif
#   From: 2010.05.17/outbox.cif.g08.bks.cpg/sg5_33_cif.got.tgz:65070.got - 2010.06.03 18:56:24.
