data_PCOD9123857
_publ_section_title
;
Structure prediction by ZEFSAII (Michael W. Deem and Ramdas Pophale) SiO2 
 PCOD9123857
Probable space group: C 2
;
_chemical_formula_sum "Si O2"
_cell_formula_units_Z 26
_cell_length_a 6.607301
_cell_length_b 14.544635
_cell_length_c 13.579417
_cell_angle_alpha 90.000000
_cell_angle_beta 97.446402
_cell_angle_gamma 90.000000
_cell_volume 1293.986968
_symmetry_space_group_name_H-M "C 2"
_symmetry_group_IT_number 5
_symmetry_cell_setting 'monoclinic'
loop_
_space_group_symop_operation_xyz
x,y,z
-x,y,-z
1/2+x,1/2+y,z
1/2-x,1/2+y,-z
loop_
_atom_site_type_symbol
_atom_site_label
_atom_site_fract_x
_atom_site_fract_y
_atom_site_fract_z
Si Si1 0.694440 0.608680 0.818767
Si Si2 0.818318 0.757568 0.666608
Si Si3 0.276730 0.504196 0.524590
Si Si4 0.598649 0.004405 0.911277
Si Si5 0.500000 0.847836 0.500000
Si Si6 0.860519 0.950543 0.749947
Si Si7 0.000000 0.673439 0.500000
Si Si8 0.000000 0.118293 0.000000
O O1 0.738231 0.675632 0.730298
O O2 0.548702 0.519841 0.786439
O O3 0.917080 0.571820 0.865357
O O4 0.577901 0.661437 0.901701
O O5 0.628087 0.790534 0.586548
O O6 0.905320 0.843472 0.733907
O O7 0.993270 0.730405 0.599276
O O8 0.500000 0.499903 0.500000
O O9 0.156709 0.421746 0.463490
O O10 0.271155 0.486265 0.640761
O O11 0.186891 0.603851 0.501074
O O12 0.687368 0.952144 0.823034
O O13 0.500000 0.953579 0.000000
O O14 0.800713 0.058150 0.960429
#
# Coordination Sequence:
#
# PCOD9123857 Si02
#       8
#     4   4   4   4   2   4   2   2
#     4  10  20  40  66  91 126 168 205 260 326 381
#     4  11  24  41  59  94 133 169 218 268 311 383
#     4  10  21  41  62  82 121 174 220 264 312 372
#     4   9  18  39  67  90 121 161 203 256 321 383
#     4   9  24  40  57  88 128 170 223 260 316 367
#     4  10  22  37  58  92 121 164 217 258 315 380
#     4  11  24  38  57  88 122 172 217 262 316 373
#     4   8  18  38  70  92 118 156 204 250 316 396
#
# _framework density 20.092939000000001
#
# number of rings (size 3 to 8) (size 9 to 14) (size 15 to 20)
#    0.000    2.154    0.000    1.846    7.538    2.462 
#    1.385    0.000   27.077    0.000    0.000    0.000 
#    0.000    0.000    0.000    0.000    0.000    0.000 
#
# Total GULP energy -72404.623659 kJ/mol
# GULP energy per Si atom -5569.586435 kJ/mol
# Density = 2.004721 g / cm^3
# Si number density = 20.092939 Si / 1000 Ang^3
#
#
#
# Elastic Constant Matrix: (Units=GPa)
#
#
# Indices 1 2 3 4 5 6 
#
# 1 76.0139 44.4274 14.0845 0.0000 4.6013 0.0000
# 2 44.4274 88.3858 40.4008 0.0000 -17.9386 0.0000
# 3 14.0845 40.4008 84.4619 0.0000 -21.3336 0.0000
# 4 0.0000 0.0000 0.0000 -27.5105 0.0000 6.8197
# 5 4.6013 -17.9386 -21.3336 0.0000 49.9223 0.0000
# 6 0.0000 0.0000 0.0000 6.8197 0.0000 10.1980
#
#
#
# Elastic Compliance Matrix: (Units=1/GPa)
#
#
# Indices 1 2 3 4 5 6 
#
# 1 0.020167 -0.011647 0.000764 0.000000 -0.005717 0.000000
# 2 -0.011647 0.021493 -0.006857 0.000000 0.005866 0.000000
# 3 0.000764 -0.006857 0.016089 0.000000 0.004341 0.000000
# 4 0.000000 0.000000 0.000000 -0.031181 0.000000 0.020851
# 5 -0.005717 0.005866 0.004341 0.000000 0.024521 0.000000
# 6 0.000000 0.000000 0.000000 0.020851 0.000000 0.084114
#
#
# Mechanical properties :
#
#
# Convention : Reuss Voigt Hill
#
# Bulk Modulus (GPa) = 44.90457 49.63189 47.26823
# Shear Modulus (GPa) = 28.07323 16.51857 22.29590
#
# Velocity S-wave (km/s) = 3.74193 2.87035 3.33474
# Velocity P-wave (km/s) = 6.40830 5.97830 6.19703
#
# Compressibility (1/GPa) = 0.02226945
#
# Stress axis : x y z
#
# Youngs Moduli (GPa) = 49.58596 46.52652 62.15566
#
# Poissons Ratio (x) = 0.54187 -0.04748
# Poissons Ratio (y) = 0.57750 0.42620
# Poissons Ratio (z) = -0.03788 0.31903
#
# Static dielectric constant tensor:
#      x y z
#    x 1.717590 0.000000 0.023610 
#    y 0.000000 1.731760 0.000000 
#    z 0.023610 0.000000 1.828860 
# 
# From -- ./inp_files/48995.got.cif
#   From: 2010.05.17/outbox.cif.g08.bks.cpg/sg5_25_cif.got.tgz:48995.got - 2010.06.03 18:56:24.
