data_PCOD9123133
_publ_section_title
;
Structure prediction by ZEFSAII (Michael W. Deem and Ramdas Pophale) SiO2 
 PCOD9123133
Probable space group: C 2
;
_chemical_formula_sum "Si O2"
_cell_formula_units_Z 28
_cell_length_a 15.720461
_cell_length_b 14.136702
_cell_length_c 5.794144
_cell_angle_alpha 90.000000
_cell_angle_beta 120.164253
_cell_angle_gamma 90.000000
_cell_volume 1113.299731
_symmetry_space_group_name_H-M "C 2"
_symmetry_group_IT_number 5
_symmetry_cell_setting 'monoclinic'
loop_
_space_group_symop_operation_xyz
x,y,z
-x,y,-z
1/2+x,1/2+y,z
1/2-x,1/2+y,-z
loop_
_atom_site_type_symbol
_atom_site_label
_atom_site_fract_x
_atom_site_fract_y
_atom_site_fract_z
Si Si1 0.679336 0.271680 0.481968
Si Si2 0.520436 0.576230 0.265081
Si Si3 0.000000 0.411155 0.000000
Si Si4 0.834387 0.377857 0.449010
Si Si5 0.240555 0.100515 0.673358
Si Si6 0.000000 0.709522 0.500000
Si Si7 0.150502 0.225921 0.926239
Si Si8 0.618683 0.030815 0.830540
O O1 0.723388 0.351380 0.372801
O O2 0.688933 0.172694 0.359372
O O3 0.570547 0.273733 0.437238
O O4 0.764707 0.263075 0.789599
O O5 0.500000 0.539509 0.500000
O O6 0.637460 0.592044 0.408360
O O7 0.451788 0.671510 0.155484
O O8 0.500000 0.520194 0.000000
O O9 0.909023 0.356683 0.762814
O O10 0.029065 0.473578 0.819339
O O11 0.867058 0.307112 0.287893
O O12 0.839976 0.481586 0.342579
O O13 0.208952 0.143495 0.874598
O O14 0.304301 0.014968 0.852622
O O15 0.924430 0.635749 0.271830
#
# Coordination Sequence:
#
# PCOD9123133 Si02
#       8
#     4   4   2   4   4   2   4   4
#     4  11  23  42  70 104 142 194 246 302 379 455
#     4  10  20  37  63 102 143 182 237 306 376 447
#     4  12  24  44  70 100 148 196 238 304 396 444
#     4  11  26  42  66 105 147 193 240 311 380 454
#     4  10  22  37  67 101 144 186 237 302 376 450
#     4  12  24  46  72 108 148 194 250 310 378 452
#     4  10  21  42  63 103 141 184 241 305 372 451
#     4  12  24  44  66 109 153 189 243 312 381 443
#
# _framework density 25.150459999999999
#
# number of rings (size 3 to 8) (size 9 to 14) (size 15 to 20)
#    0.000    1.143    4.286    1.714    0.000   10.286 
#    1.286    0.000    0.000    0.000   33.429    0.000 
#    0.000    0.000    0.000    0.000    0.000    0.000 
#
# Total GULP energy -78106.012815 kJ/mol
# GULP energy per Si atom -5579.000915 kJ/mol
# Density = 2.509322 g / cm^3
# Si number density = 25.150460 Si / 1000 Ang^3
#
#
#
# Elastic Constant Matrix: (Units=GPa)
#
#
# Indices 1 2 3 4 5 6 
#
# 1 132.7442 22.8890 41.1351 0.0000 -2.6005 0.0000
# 2 22.8890 35.4934 19.4444 0.0000 2.1644 0.0000
# 3 41.1351 19.4444 132.4727 0.0000 5.5224 0.0000
# 4 0.0000 0.0000 0.0000 28.8796 0.0000 -1.5813
# 5 -2.6005 2.1644 5.5224 0.0000 39.9941 0.0000
# 6 0.0000 0.0000 0.0000 -1.5813 0.0000 18.7409
#
#
#
# Elastic Compliance Matrix: (Units=1/GPa)
#
#
# Indices 1 2 3 4 5 6 
#
# 1 0.009039 -0.004714 -0.002162 0.000000 0.001141 0.000000
# 2 -0.004714 0.033140 -0.003332 0.000000 -0.001640 0.000000
# 3 -0.002162 -0.003332 0.008758 0.000000 -0.001170 0.000000
# 4 0.000000 0.000000 0.000000 0.034787 0.000000 0.002935
# 5 0.001141 -0.001640 -0.001170 0.000000 0.025328 0.000000
# 6 0.000000 0.000000 0.000000 0.002935 0.000000 0.053607
#
#
# Mechanical properties :
#
#
# Convention : Reuss Voigt Hill
#
# Bulk Modulus (GPa) = 32.76588 51.96083 42.36335
# Shear Modulus (GPa) = 25.60847 32.00571 28.80709
#
# Velocity S-wave (km/s) = 3.19440 3.57118 3.38803
# Velocity P-wave (km/s) = 5.16351 6.14079 5.67323
#
# Compressibility (1/GPa) = 0.03051956
#
# Stress axis : x y z
#
# Youngs Moduli (GPa) = 110.63778 30.17545 114.18120
#
# Poissons Ratio (x) = 0.14224 0.24689
# Poissons Ratio (y) = 0.52152 0.38047
# Poissons Ratio (z) = 0.23923 0.10055
#
# Static dielectric constant tensor:
#      x y z
#    x 2.033610 0.000000 0.014450 
#    y 0.000000 2.055090 0.000000 
#    z 0.014450 0.000000 2.095940 
# 
# From -- ./inp_files/7367.got.cif
#   From: 2010.05.17/outbox.cif.g08.bks.cpg/sg5_4_cif.got.tgz:7367.got - 2010.06.03 18:56:24.
