data_PCOD9123006
_publ_section_title
;
Structure prediction by ZEFSAII (Michael W. Deem and Ramdas Pophale) SiO2 
 PCOD9123006
Probable space group: C 2
;
_chemical_formula_sum "Si O2"
_cell_formula_units_Z 20
_cell_length_a 22.457130
_cell_length_b 10.266666
_cell_length_c 7.959118
_cell_angle_alpha 90.000000
_cell_angle_beta 145.574394
_cell_angle_gamma 90.000000
_cell_volume 1037.421011
_symmetry_space_group_name_H-M "C 2"
_symmetry_group_IT_number 5
_symmetry_cell_setting 'monoclinic'
loop_
_space_group_symop_operation_xyz
x,y,z
-x,y,-z
1/2+x,1/2+y,z
1/2-x,1/2+y,-z
loop_
_atom_site_type_symbol
_atom_site_label
_atom_site_fract_x
_atom_site_fract_y
_atom_site_fract_z
Si Si1 0.761142 0.409810 0.237695
Si Si2 0.797078 0.667970 0.498637
Si Si3 0.055280 0.821208 0.957885
Si Si4 0.656596 0.396908 0.634531
Si Si5 0.616484 0.663710 0.346976
O O1 0.808669 0.548609 0.399750
O O2 0.842828 0.294942 0.468456
O O3 0.655762 0.388378 0.106894
O O4 0.723136 0.404116 0.958039
O O5 0.788882 0.803899 0.377549
O O6 0.695425 0.646005 0.374832
O O7 0.895115 0.688047 0.854313
O O8 0.956900 0.826145 0.604342
O O9 0.000000 0.879198 0.000000
O O10 0.633594 0.541569 0.511495
O O11 0.500000 0.674761 0.000000
#
# Coordination Sequence:
#
# PCOD9123006 Si02
#       5
#     4   4   4   4   4
#     4  11  22  36  58  88 115 140 185 244 279 312
#     4  10  20  37  58  82 112 150 188 226 276 341
#     4   9  19  35  59  81 108 148 187 217 271 343
#     4  11  21  38  59  85 112 146 188 234 279 328
#     4  11  22  38  59  82 112 152 190 225 276 340
#
# _framework density 19.278578
#
# number of rings (size 3 to 8) (size 9 to 14) (size 15 to 20)
#    0.000    1.600    0.000    8.400    0.000    2.400 
#    0.000    3.000    0.000    0.000    0.000    0.000 
#    0.000    0.000    0.000    0.000    0.000    0.000 
#
# Total GULP energy -55732.431714 kJ/mol
# GULP energy per Si atom -5573.243171 kJ/mol
# Density = 1.923470 g / cm^3
# Si number density = 19.278578 Si / 1000 Ang^3
#
#
#
# Elastic Constant Matrix: (Units=GPa)
#
#
# Indices 1 2 3 4 5 6 
#
# 1 65.0371 25.0430 43.3219 0.0000 -1.2484 0.0000
# 2 25.0430 105.8161 92.9051 0.0000 -22.3593 0.0000
# 3 43.3219 92.9051 158.5787 0.0000 -17.9466 0.0000
# 4 0.0000 0.0000 0.0000 15.5868 0.0000 -12.6654
# 5 -1.2484 -22.3593 -17.9466 0.0000 37.1868 0.0000
# 6 0.0000 0.0000 0.0000 -12.6654 0.0000 18.0951
#
#
#
# Elastic Compliance Matrix: (Units=1/GPa)
#
#
# Indices 1 2 3 4 5 6 
#
# 1 0.018937 -0.000357 -0.005201 0.000000 -0.002089 0.000000
# 2 -0.000357 0.021106 -0.011458 0.000000 0.007148 0.000000
# 3 -0.005201 -0.011458 0.014428 0.000000 -0.000101 0.000000
# 4 0.000000 0.000000 0.000000 0.148768 0.000000 0.104128
# 5 -0.002089 0.007148 -0.000101 0.000000 0.031070 0.000000
# 6 0.000000 0.000000 0.000000 0.104128 0.000000 0.128146
#
#
# Mechanical properties :
#
#
# Convention : Reuss Voigt Hill
#
# Bulk Modulus (GPa) = 48.92582 72.44135 60.68358
# Shear Modulus (GPa) = 12.39765 25.38453 18.89109
#
# Velocity S-wave (km/s) = 2.53865 3.63260 3.13373
# Velocity P-wave (km/s) = 5.83322 7.43317 6.68126
#
# Compressibility (1/GPa) = 0.02043911
#
# Stress axis : x y z
#
# Youngs Moduli (GPa) = 52.80529 47.38050 69.30748
#
# Poissons Ratio (x) = 0.01692 0.36045
# Poissons Ratio (y) = 0.01886 0.79416
# Poissons Ratio (z) = 0.27463 0.54291
#
# Static dielectric constant tensor:
#      x y z
#    x 1.690980 0.000000 -0.001580 
#    y 0.000000 1.691480 0.000000 
#    z -0.001580 0.000000 1.717470 
# 
# From -- ./inp_files/22640.got.cif
#   From: 2010.05.17/outbox.cif.g08.bks.cpg/sg5_12_cif.got.tgz:22640.got - 2010.06.03 18:56:24.
