data_PCOD9123715
_publ_section_title
;
Structure prediction by ZEFSAII (Michael W. Deem and Ramdas Pophale) SiO2 
 PCOD9123715
Probable space group: C 2
;
_chemical_formula_sum "Si O2"
_cell_formula_units_Z 20
_cell_length_a 7.382320
_cell_length_b 16.651459
_cell_length_c 9.967292
_cell_angle_alpha 90.000000
_cell_angle_beta 47.378081
_cell_angle_gamma 90.000000
_cell_volume 901.580696
_symmetry_space_group_name_H-M "C 2"
_symmetry_group_IT_number 5
_symmetry_cell_setting 'monoclinic'
loop_
_space_group_symop_operation_xyz
x,y,z
-x,y,-z
1/2+x,1/2+y,z
1/2-x,1/2+y,-z
loop_
_atom_site_type_symbol
_atom_site_label
_atom_site_fract_x
_atom_site_fract_y
_atom_site_fract_z
Si Si1 0.500000 0.082520 0.000000
Si Si2 0.744477 0.337412 0.180892
Si Si3 0.500000 0.938903 0.500000
Si Si4 0.401376 0.219206 0.233887
Si Si5 0.003647 0.001006 0.344249
Si Si6 0.926295 0.281181 0.360205
O O1 0.511673 0.135800 0.130566
O O2 0.236651 0.038307 0.149137
O O3 0.606691 0.287556 0.136990
O O4 0.572635 0.407345 0.318146
O O5 0.811087 0.282232 0.272702
O O6 0.000000 0.371757 0.000000
O O7 0.484600 0.872637 0.385245
O O8 0.739430 0.995599 0.401787
O O9 0.256800 0.234629 0.446372
O O10 0.185289 0.236716 0.236951
O O11 0.000000 0.033501 0.500000
#
# Coordination Sequence:
#
# PCOD9123715 Si02
#       6
#     2   4   2   4   4   4
#     4  12  28  46  70 108 154 196 228 292 370 436
#     4  12  21  39  72 109 134 181 249 303 339 423
#     4  10  20  42  74 106 136 188 238 302 354 418
#     4  10  22  43  66  99 143 183 234 289 355 420
#     4  12  24  45  71 106 151 188 237 296 366 420
#     4  10  20  39  76 103 132 179 247 301 350 402
#
# _framework density 22.183261999999999
#
# number of rings (size 3 to 8) (size 9 to 14) (size 15 to 20)
#    0.000    1.200    7.000    1.800    2.800    0.000 
#    0.000    9.000    0.000    0.000    0.000    0.000 
#    0.000    0.000    0.000    0.000    0.000    0.000 
#
# Total GULP energy -55761.200613 kJ/mol
# GULP energy per Si atom -5576.120061 kJ/mol
# Density = 2.213277 g / cm^3
# Si number density = 22.183262 Si / 1000 Ang^3
#
#
#
# Elastic Constant Matrix: (Units=GPa)
#
#
# Indices 1 2 3 4 5 6 
#
# 1 69.9824 20.2566 74.8754 0.0000 -39.0296 0.0000
# 2 20.2566 56.7411 39.1811 0.0000 -13.7992 0.0000
# 3 74.8754 39.1811 137.0026 0.0000 -17.6124 0.0000
# 4 0.0000 0.0000 0.0000 35.6178 0.0000 -2.5819
# 5 -39.0296 -13.7992 -17.6124 0.0000 44.9217 0.0000
# 6 0.0000 0.0000 0.0000 -2.5819 0.0000 10.0071
#
#
#
# Elastic Compliance Matrix: (Units=1/GPa)
#
#
# Indices 1 2 3 4 5 6 
#
# 1 0.131430 0.021627 -0.065797 0.000000 0.095038 0.000000
# 2 0.021627 0.026423 -0.016762 0.000000 0.020335 0.000000
# 3 -0.065797 -0.016762 0.042167 0.000000 -0.045784 0.000000
# 4 0.000000 0.000000 0.000000 0.028611 0.000000 0.007382
# 5 0.095038 0.020335 -0.045784 0.000000 0.093129 0.000000
# 6 0.000000 0.000000 0.000000 0.007382 0.000000 0.101833
#
#
# Mechanical properties :
#
#
# Convention : Reuss Voigt Hill
#
# Bulk Modulus (GPa) = 12.79507 59.15023 35.97265
# Shear Modulus (GPa) = 8.74875 26.73686 17.74280
#
# Velocity S-wave (km/s) = 1.98807 3.47547 2.83119
# Velocity P-wave (km/s) = 3.32420 6.54427 5.19027
#
# Compressibility (1/GPa) = 0.07815508
#
# Stress axis : x y z
#
# Youngs Moduli (GPa) = 7.60862 37.84551 23.71524
#
# Poissons Ratio (x) = -0.81848 1.56040
# Poissons Ratio (y) = -0.16455 0.39752
# Poissons Ratio (z) = 0.50063 0.63437
#
# Static dielectric constant tensor:
#      x y z
#    x 1.823610 0.000000 -0.009840 
#    y 0.000000 1.830280 0.000000 
#    z -0.009840 0.000000 1.914350 
# 
# From -- ./inp_files/36583.got.cif
#   From: 2010.05.17/outbox.cif.g08.bks.cpg/sg5_19_cif.got.tgz:36583.got - 2010.06.03 18:56:24.
