data_PCOD9123088
_publ_section_title
;
Structure prediction by ZEFSAII (Michael W. Deem and Ramdas Pophale) SiO2 
 PCOD9123088
Probable space group: C 2
;
_chemical_formula_sum "Si O2"
_cell_formula_units_Z 28
_cell_length_a 11.969002
_cell_length_b 14.225916
_cell_length_c 8.318451
_cell_angle_alpha 90.000000
_cell_angle_beta 117.178132
_cell_angle_gamma 90.000000
_cell_volume 1260.001058
_symmetry_space_group_name_H-M "C 2"
_symmetry_group_IT_number 5
_symmetry_cell_setting 'monoclinic'
loop_
_space_group_symop_operation_xyz
x,y,z
-x,y,-z
1/2+x,1/2+y,z
1/2-x,1/2+y,-z
loop_
_atom_site_type_symbol
_atom_site_label
_atom_site_fract_x
_atom_site_fract_y
_atom_site_fract_z
Si Si1 0.731045 0.645160 0.958943
Si Si2 0.643186 0.233709 0.267059
Si Si3 0.645678 0.048898 0.434650
Si Si4 0.525126 0.791619 0.827685
Si Si5 0.906004 0.742289 0.307155
Si Si6 0.753028 0.362576 0.565553
Si Si7 0.867130 0.487299 0.201312
O O1 0.815104 0.686736 0.869896
O O2 0.594091 0.691696 0.843422
O O3 0.786172 0.689466 0.159774
O O4 0.764330 0.536486 0.017931
O O5 0.688937 0.153685 0.424974
O O6 0.498324 0.254337 0.216320
O O7 0.706008 0.330933 0.359120
O O8 0.729896 0.972453 0.400658
O O9 0.505690 0.034877 0.266780
O O10 0.651445 0.012961 0.622619
O O11 0.388807 0.812468 0.664858
O O12 0.613570 0.877451 0.824717
O O13 0.500000 0.801736 0.000000
O O14 0.847504 0.826810 0.370213
O O15 0.000000 0.694209 0.500000
#
# Coordination Sequence:
#
# PCOD9123088 Si02
#       7
#     4   4   4   4   4   4   4
#     4  12  23  37  64 101 132 161 215 267 317 377
#     4  11  23  37  67  96 129 167 216 264 318 378
#     4  10  21  39  65  94 123 167 213 269 308 375
#     4  11  24  40  68  95 130 170 210 271 321 377
#     4  10  20  37  61  92 124 166 206 258 312 371
#     4  10  22  42  66  91 130 167 218 257 327 376
#     4  10  22  38  64  95 124 163 220 261 313 375
#
# _framework density 22.222204000000001
#
# number of rings (size 3 to 8) (size 9 to 14) (size 15 to 20)
#    0.000    1.429    2.857    3.000    6.000    1.714 
#    0.000    0.000   15.714    0.000    0.000    0.000 
#    0.000    0.000    0.000    0.000    0.000    0.000 
#
# Total GULP energy -77987.021967 kJ/mol
# GULP energy per Si atom -5570.501569 kJ/mol
# Density = 2.217163 g / cm^3
# Si number density = 22.222204 Si / 1000 Ang^3
#
#
#
# Elastic Constant Matrix: (Units=GPa)
#
#
# Indices 1 2 3 4 5 6 
#
# 1 83.4081 29.5916 15.0863 0.0000 -12.4660 0.0000
# 2 29.5916 83.7467 -1.8325 0.0000 7.6175 0.0000
# 3 15.0863 -1.8325 38.5214 0.0000 -5.1435 0.0000
# 4 0.0000 0.0000 0.0000 22.6187 0.0000 5.2079
# 5 -12.4660 7.6175 -5.1435 0.0000 37.1277 0.0000
# 6 0.0000 0.0000 0.0000 5.2079 0.0000 28.3896
#
#
#
# Elastic Compliance Matrix: (Units=1/GPa)
#
#
# Indices 1 2 3 4 5 6 
#
# 1 0.016205 -0.006395 -0.005857 0.000000 0.005942 0.000000
# 2 -0.006395 0.014694 0.002562 0.000000 -0.004807 0.000000
# 3 -0.005857 0.002562 0.028571 0.000000 0.001466 0.000000
# 4 0.000000 0.000000 0.000000 0.046161 0.000000 -0.008468
# 5 0.005942 -0.004807 0.001466 0.000000 0.030118 0.000000
# 6 0.000000 0.000000 0.000000 -0.008468 0.000000 0.036778
#
#
# Mechanical properties :
#
#
# Convention : Reuss Voigt Hill
#
# Bulk Modulus (GPa) = 24.94455 32.37410 28.65933
# Shear Modulus (GPa) = 24.35798 28.48258 26.42028
#
# Velocity S-wave (km/s) = 3.31435 3.58399 3.45180
# Velocity P-wave (km/s) = 5.08881 5.63264 5.36762
#
# Compressibility (1/GPa) = 0.04008891
#
# Stress axis : x y z
#
# Youngs Moduli (GPa) = 61.70750 68.05670 35.00031
#
# Poissons Ratio (x) = 0.43521 0.20501
# Poissons Ratio (y) = 0.39461 -0.08966
# Poissons Ratio (z) = 0.36145 -0.17433
#
# Static dielectric constant tensor:
#      x y z
#    x 1.861140 0.000000 -0.011230 
#    y 0.000000 1.875740 0.000000 
#    z -0.011230 0.000000 1.874220 
# 
# From -- ./inp_files/20311.got.cif
#   From: 2010.05.17/outbox.cif.g08.bks.cpg/sg5_11_cif.got.tgz:20311.got - 2010.06.03 18:56:24.
