data_PCOD9123103
_publ_section_title
;
Structure prediction by ZEFSAII (Michael W. Deem and Ramdas Pophale) SiO2 
 PCOD9123103
Probable space group: C 2
;
_chemical_formula_sum "Si O2"
_cell_formula_units_Z 26
_cell_length_a 10.811770
_cell_length_b 17.453159
_cell_length_c 9.268802
_cell_angle_alpha 90.000000
_cell_angle_beta 55.509650
_cell_angle_gamma 90.000000
_cell_volume 1441.578930
_symmetry_space_group_name_H-M "C 2"
_symmetry_group_IT_number 5
_symmetry_cell_setting 'monoclinic'
loop_
_space_group_symop_operation_xyz
x,y,z
-x,y,-z
1/2+x,1/2+y,z
1/2-x,1/2+y,-z
loop_
_atom_site_type_symbol
_atom_site_label
_atom_site_fract_x
_atom_site_fract_y
_atom_site_fract_z
Si Si1 0.360605 0.206700 0.695289
Si Si2 0.532181 0.567730 0.638161
Si Si3 0.665500 0.737485 0.555894
Si Si4 0.844093 0.080764 0.027985
Si Si5 0.000000 0.359802 0.500000
Si Si6 0.547379 0.287187 0.809531
Si Si7 0.691734 0.449002 0.737715
O O1 0.500000 0.182081 0.500000
O O2 0.240602 0.242919 0.663936
O O3 0.285494 0.136374 0.830422
O O4 0.424645 0.265130 0.771243
O O5 0.500000 0.538602 0.500000
O O6 0.601819 0.652415 0.582497
O O7 0.644880 0.511470 0.648671
O O8 0.382854 0.576209 0.834450
O O9 0.541148 0.801661 0.603530
O O10 0.797649 0.750485 0.351334
O O11 0.819056 0.996064 0.107130
O O12 0.000000 0.108608 0.000000
O O13 0.855931 0.412984 0.615966
O O14 0.579656 0.377630 0.797119
O O15 0.500000 0.260410 0.000000
#
# Coordination Sequence:
#
# PCOD9123103 Si02
#       7
#     4   4   4   4   2   4   4
#     4  10  21  37  63  90 124 155 205 249 297 363
#     4  11  22  37  62  84 121 155 209 251 295 362
#     4  10  20  38  58  93 117 162 203 248 302 352
#     4  10  20  37  62  87 117 160 201 242 305 359
#     4  10  22  36  64  86 128 156 202 250 306 360
#     4  10  22  37  60  91 126 157 199 253 301 361
#     4  10  22  40  60  87 120 164 199 244 314 360
#
# _framework density 18.035779000000002
#
# number of rings (size 3 to 8) (size 9 to 14) (size 15 to 20)
#    0.000    1.846    3.846    1.385    3.231    3.077 
#    0.000    0.000    0.000    3.692    0.000    0.000 
#    0.000    0.000    0.000    0.000    0.000    0.000 
#
# Total GULP energy -72493.520180 kJ/mol
# GULP energy per Si atom -5576.424629 kJ/mol
# Density = 1.799473 g / cm^3
# Si number density = 18.035779 Si / 1000 Ang^3
#
#
#
# Elastic Constant Matrix: (Units=GPa)
#
#
# Indices 1 2 3 4 5 6 
#
# 1 90.0176 46.4892 48.1550 0.0000 2.0779 0.0000
# 2 46.4892 123.0905 63.4010 0.0000 -11.8554 0.0000
# 3 48.1550 63.4010 123.9522 0.0000 18.1972 0.0000
# 4 0.0000 0.0000 0.0000 28.6221 0.0000 -9.7188
# 5 2.0779 -11.8554 18.1972 0.0000 21.4530 0.0000
# 6 0.0000 0.0000 0.0000 -9.7188 0.0000 28.9517
#
#
#
# Elastic Compliance Matrix: (Units=1/GPa)
#
#
# Indices 1 2 3 4 5 6 
#
# 1 0.015143 -0.003679 -0.003983 0.000000 -0.000121 0.000000
# 2 -0.003679 0.015861 -0.009164 0.000000 0.016894 0.000000
# 3 -0.003983 -0.009164 0.017121 0.000000 -0.019201 0.000000
# 4 0.000000 0.000000 0.000000 0.039433 0.000000 0.013237
# 5 -0.000121 0.016894 -0.019201 0.000000 0.072248 0.000000
# 6 0.000000 0.000000 0.000000 0.013237 0.000000 0.038984
#
#
# Mechanical properties :
#
#
# Convention : Reuss Voigt Hill
#
# Bulk Modulus (GPa) = 69.09609 72.57228 70.83419
# Shear Modulus (GPa) = 21.07344 27.73971 24.40658
#
# Velocity S-wave (km/s) = 3.42193 3.92604 3.68262
# Velocity P-wave (km/s) = 7.34891 7.80237 7.57904
#
# Compressibility (1/GPa) = 0.01447260
#
# Stress axis : x y z
#
# Youngs Moduli (GPa) = 66.03880 63.04872 58.40748
#
# Poissons Ratio (x) = 0.23196 0.23265
# Poissons Ratio (y) = 0.24296 0.53522
# Poissons Ratio (z) = 0.26305 0.57775
#
# Static dielectric constant tensor:
#      x y z
#    x 1.638900 0.000000 -0.007260 
#    y 0.000000 1.601620 0.000000 
#    z -0.007260 0.000000 1.648660 
# 
# From -- ./inp_files/20279.got.cif
#   From: 2010.05.17/outbox.cif.g08.bks.cpg/sg5_11_cif.got.tgz:20279.got - 2010.06.03 18:56:24.
