data_PCOD9123015
_publ_section_title
;
Structure prediction by ZEFSAII (Michael W. Deem and Ramdas Pophale) SiO2 
 PCOD9123015
Probable space group: C 2
;
_chemical_formula_sum "Si O2"
_cell_formula_units_Z 32
_cell_length_a 8.433986
_cell_length_b 11.607646
_cell_length_c 19.938321
_cell_angle_alpha 90.000000
_cell_angle_beta 47.699961
_cell_angle_gamma 90.000000
_cell_volume 1443.711801
_symmetry_space_group_name_H-M "C 2"
_symmetry_group_IT_number 5
_symmetry_cell_setting 'monoclinic'
loop_
_space_group_symop_operation_xyz
x,y,z
-x,y,-z
1/2+x,1/2+y,z
1/2-x,1/2+y,-z
loop_
_atom_site_type_symbol
_atom_site_label
_atom_site_fract_x
_atom_site_fract_y
_atom_site_fract_z
Si Si1 0.919239 0.302950 0.709560
Si Si2 0.289406 0.880865 0.607010
Si Si3 0.704885 0.132613 0.395710
Si Si4 0.436107 0.768657 0.853362
Si Si5 0.759422 0.295742 0.042259
Si Si6 0.944353 0.610795 0.187478
Si Si7 0.411035 0.193389 0.719505
Si Si8 0.283402 0.020690 0.105727
O O1 0.146026 0.241444 0.634444
O O2 0.910021 0.335981 0.790654
O O3 0.868962 0.383645 0.661597
O O4 0.750973 0.199213 0.750403
O O5 0.500000 0.859991 0.500000
O O6 0.105526 0.784249 0.654880
O O7 0.194681 0.007269 0.618186
O O8 0.500000 0.140971 0.500000
O O9 0.634772 0.137790 0.338748
O O10 0.354549 0.636586 0.863456
O O11 0.685695 0.755375 0.801861
O O12 0.289200 0.816828 0.954777
O O13 0.621304 0.183318 0.095687
O O14 0.671381 0.406617 0.107812
O O15 0.000000 0.275898 0.000000
O O16 0.031688 0.603032 0.238016
O O17 0.859648 0.512563 0.161577
O O18 0.500000 0.031672 0.000000
#
# Coordination Sequence:
#
# PCOD9123015 Si02
#       8
#     4   4   4   4   4   4   4   4
#     4   9  21  37  61  91 119 153 195 251 293 345
#     4  10  21  41  65  90 120 156 193 237 304 368
#     4  10  21  41  64  90 122 154 193 241 300 365
#     4  10  20  39  59  86 126 153 206 252 286 351
#     4  11  21  37  61  86 115 168 199 243 303 337
#     4  10  20  37  59  83 125 152 203 251 284 353
#     4  10  21  38  63  89 120 157 193 250 297 347
#     4  10  21  37  62  82 115 164 202 244 299 339
#
# _framework density 22.165088000000001
#
# number of rings (size 3 to 8) (size 9 to 14) (size 15 to 20)
#    0.000    2.000    2.500    0.750    0.000    6.000 
#    4.500    3.750   16.500   13.500    0.000    0.000 
#    0.000    0.000    0.000    0.000    0.000    0.000 
#
# Total GULP energy -89342.184082 kJ/mol
# GULP energy per Si atom -5583.886505 kJ/mol
# Density = 2.211464 g / cm^3
# Si number density = 22.165088 Si / 1000 Ang^3
#
#
#
# Elastic Constant Matrix: (Units=GPa)
#
#
# Indices 1 2 3 4 5 6 
#
# 1 52.7082 5.4125 1.6261 0.0000 -2.7818 0.0000
# 2 5.4125 75.8156 8.4730 0.0000 -8.3047 0.0000
# 3 1.6261 8.4730 81.8569 0.0002 6.6069 -0.0001
# 4 0.0000 0.0000 0.0002 -9.1428 0.0000 17.9760
# 5 -2.7818 -8.3047 6.6069 0.0000 22.3323 0.0000
# 6 0.0000 0.0000 -0.0001 17.9760 0.0000 -0.0285
#
#
#
# Elastic Compliance Matrix: (Units=1/GPa)
#
#
# Indices 1 2 3 4 5 6 
#
# 1 0.019210 -0.001090 -0.000440 0.000000 0.002117 0.000000
# 2 -0.001090 0.014100 -0.001895 0.000000 0.005668 0.000000
# 3 -0.000440 -0.001895 0.012788 0.000000 -0.004543 0.000000
# 4 0.000000 0.000000 0.000000 0.000088 0.000000 0.055675
# 5 0.002117 0.005668 -0.004543 0.000000 0.048494 0.000000
# 6 0.000000 0.000000 0.000000 0.055675 0.000000 0.028317
#
#
# Mechanical properties :
#
#
# Convention : Reuss Voigt Hill
#
# Bulk Modulus (GPa) = 25.47937 26.82266 26.15102
# Shear Modulus (GPa) = 34.98208 15.62347 25.30277
#
# Velocity S-wave (km/s) = 3.97703 2.65782 3.38236
# Velocity P-wave (km/s) = 5.71045 4.64179 5.20363
#
# Compressibility (1/GPa) = 0.03924743
#
# Stress axis : x y z
#
# Youngs Moduli (GPa) = 52.05716 70.91957 78.19814
#
# Poissons Ratio (x) = 0.07732 0.03438
# Poissons Ratio (y) = 0.05676 0.14822
# Poissons Ratio (z) = 0.02289 0.13442
#
# Static dielectric constant tensor:
#      x y z
#    x 1.902650 0.000000 -0.065760 
#    y 0.000000 1.873820 0.000000 
#    z -0.065760 0.000000 1.960870 
# 
# From -- ./inp_files/64554.got.cif
#   From: 2010.05.17/outbox.cif.g08.bks.cpg/sg5_33_cif.got.tgz:64554.got - 2010.06.03 18:56:24.
