data_PCOD9123388
_publ_section_title
;
Structure prediction by ZEFSAII (Michael W. Deem and Ramdas Pophale) SiO2 
 PCOD9123388
Probable space group: C 2
;
_chemical_formula_sum "Si O2"
_cell_formula_units_Z 30
_cell_length_a 21.360430
_cell_length_b 8.866507
_cell_length_c 8.076583
_cell_angle_alpha 90.000000
_cell_angle_beta 77.137010
_cell_angle_gamma 90.000000
_cell_volume 1491.257356
_symmetry_space_group_name_H-M "C 2"
_symmetry_group_IT_number 5
_symmetry_cell_setting 'monoclinic'
loop_
_space_group_symop_operation_xyz
x,y,z
-x,y,-z
1/2+x,1/2+y,z
1/2-x,1/2+y,-z
loop_
_atom_site_type_symbol
_atom_site_label
_atom_site_fract_x
_atom_site_fract_y
_atom_site_fract_z
Si Si1 0.618650 0.358130 0.405342
Si Si2 0.248928 0.726566 0.180172
Si Si3 0.314273 0.984405 0.965603
Si Si4 0.500000 0.131226 0.500000
Si Si5 0.281980 0.528315 0.465101
Si Si6 0.311358 0.808496 0.622654
Si Si7 0.960792 0.446309 0.851928
Si Si8 0.936968 0.169131 0.644990
O O1 0.678622 0.275168 0.285440
O O2 0.562240 0.240450 0.474491
O O3 0.653415 0.432944 0.544458
O O4 0.592872 0.502030 0.315106
O O5 0.231855 0.626984 0.029640
O O6 0.283258 0.623792 0.296367
O O7 0.290926 0.871299 0.118371
O O8 0.304503 0.889594 0.801335
O O9 0.389989 0.016009 0.927043
O O10 0.491111 0.031147 0.672710
O O11 0.276700 0.649352 0.614716
O O12 0.220531 0.421533 0.488025
O O13 0.385993 0.766682 0.567248
O O14 0.950161 0.272456 0.797546
O O15 0.000000 0.454977 0.000000
O O16 0.000000 0.148710 0.500000
#
# Coordination Sequence:
#
# PCOD9123388 Si02
#       8
#     4   4   4   2   4   4   4   4
#     4  11  23  43  71  95 137 181 226 282 350 410
#     4  11  23  42  66  96 136 175 219 286 349 407
#     4  10  24  42  62  94 136 174 219 279 352 400
#     4  12  24  50  74  94 148 186 228 292 336 422
#     4  10  20  38  63  98 125 166 226 272 334 406
#     4   9  20  36  61  88 131 161 215 273 332 396
#     4  11  25  47  69 103 133 184 240 281 347 411
#     4  10  21  40  67  94 127 178 223 279 346 397
#
# _framework density 20.117252000000001
#
# number of rings (size 3 to 8) (size 9 to 14) (size 15 to 20)
#    0.000    1.600    4.000    0.000    5.600    2.133 
#    7.200    0.667    0.000    0.000    0.000    0.000 
#    0.000    0.000    0.000    0.000    0.000    0.000 
#
# Total GULP energy -83652.580932 kJ/mol
# GULP energy per Si atom -5576.838729 kJ/mol
# Density = 2.007146 g / cm^3
# Si number density = 20.117252 Si / 1000 Ang^3
#
#
#
# Elastic Constant Matrix: (Units=GPa)
#
#
# Indices 1 2 3 4 5 6 
#
# 1 91.3469 50.4849 56.2020 0.0000 20.4634 0.0000
# 2 50.4849 91.7793 38.9399 0.0000 15.4972 0.0000
# 3 56.2020 38.9399 77.8728 0.0000 20.6961 0.0000
# 4 0.0000 0.0000 0.0000 44.6740 0.0000 26.5504
# 5 20.4634 15.4972 20.6961 0.0000 29.6107 0.0000
# 6 0.0000 0.0000 0.0000 26.5504 0.0000 97.4746
#
#
#
# Elastic Compliance Matrix: (Units=1/GPa)
#
#
# Indices 1 2 3 4 5 6 
#
# 1 0.023145 -0.006891 -0.012239 0.000000 -0.003834 0.000000
# 2 -0.006891 0.016095 -0.002581 0.000000 -0.001857 0.000000
# 3 -0.012239 -0.002581 0.025003 0.000000 -0.007666 0.000000
# 4 0.000000 0.000000 0.000000 0.026708 0.000000 -0.007275
# 5 -0.003834 -0.001857 -0.007666 0.000000 0.042751 0.000000
# 6 0.000000 0.000000 0.000000 -0.007275 0.000000 0.012241
#
#
# Mechanical properties :
#
#
# Convention : Reuss Voigt Hill
#
# Bulk Modulus (GPa) = 48.03159 61.36141 54.69650
# Shear Modulus (GPa) = 25.47045 42.04333 33.75689
#
# Velocity S-wave (km/s) = 3.56209 4.57652 4.10079
# Velocity P-wave (km/s) = 6.39106 7.64814 7.04769
#
# Compressibility (1/GPa) = 0.02081963
#
# Stress axis : x y z
#
# Youngs Moduli (GPa) = 43.20589 62.13098 39.99537
#
# Poissons Ratio (x) = 0.42815 0.48951
# Poissons Ratio (y) = 0.29774 0.10324
# Poissons Ratio (z) = 0.52881 0.16038
#
# Static dielectric constant tensor:
#      x y z
#    x 1.699010 0.000000 0.049130 
#    y 0.000000 1.764900 0.000000 
#    z 0.049130 0.000000 1.648720 
# 
# From -- ./inp_files/28927.got.cif
#   From: 2010.05.17/outbox.cif.g08.bks.cpg/sg5_15_cif.got.tgz:28927.got - 2010.06.03 18:56:24.
