data_PCOD9123057
_publ_section_title
;
Structure prediction by ZEFSAII (Michael W. Deem and Ramdas Pophale) SiO2 
 PCOD9123057
Probable space group: C 2
;
_chemical_formula_sum "Si O2"
_cell_formula_units_Z 24
_cell_length_a 21.146535
_cell_length_b 7.810473
_cell_length_c 8.693805
_cell_angle_alpha 90.000000
_cell_angle_beta 65.027243
_cell_angle_gamma 90.000000
_cell_volume 1301.662488
_symmetry_space_group_name_H-M "C 2"
_symmetry_group_IT_number 5
_symmetry_cell_setting 'monoclinic'
loop_
_space_group_symop_operation_xyz
x,y,z
-x,y,-z
1/2+x,1/2+y,z
1/2-x,1/2+y,-z
loop_
_atom_site_type_symbol
_atom_site_label
_atom_site_fract_x
_atom_site_fract_y
_atom_site_fract_z
Si Si1 0.164719 0.214770 0.528509
Si Si2 0.321347 0.826798 0.818669
Si Si3 0.420547 0.052770 0.894382
Si Si4 0.697695 0.208272 0.162869
Si Si5 0.416425 0.036799 0.264705
Si Si6 0.315737 0.330025 0.491130
O O1 0.157127 0.222500 0.352084
O O2 0.111833 0.350606 0.657027
O O3 0.242361 0.280185 0.489872
O O4 0.159502 0.017944 0.585062
O O5 0.385895 0.880338 0.860713
O O6 0.294327 0.012558 0.787469
O O7 0.260341 0.746907 0.982910
O O8 0.502332 0.058445 0.778056
O O9 0.374990 0.199741 0.856817
O O10 0.409009 0.057398 0.088599
O O11 0.696386 0.327499 0.312249
O O12 0.370778 0.182739 0.393075
#
# Coordination Sequence:
#
# PCOD9123057 Si02
#       6
#     4   4   4   4   4   4
#     4  12  23  38  64  93 122 165 207 259 311 370
#     4  10  20  37  60  91 126 159 206 252 310 363
#     4   9  23  39  67  85 130 175 190 271 311 355
#     4  10  20  37  60  91 126 159 206 252 310 363
#     4  11  21  45  63  91 130 161 216 247 317 371
#     4  12  23  38  64  93 122 165 207 259 311 370
#
# _framework density 18.43796
#
# number of rings (size 3 to 8) (size 9 to 14) (size 15 to 20)
#    1.000    0.333    3.333    3.000    0.000    2.667 
#    0.000   10.000    0.000    0.000    0.000    0.000 
#    0.000    0.000    0.000    0.000    0.000    0.000 
#
# Total GULP energy -66922.855745 kJ/mol
# GULP energy per Si atom -5576.904645 kJ/mol
# Density = 1.839599 g / cm^3
# Si number density = 18.437960 Si / 1000 Ang^3
#
#
#
# Elastic Constant Matrix: (Units=GPa)
#
#
# Indices 1 2 3 4 5 6 
#
# 1 90.6139 -24.2722 17.1528 0.0000 6.1822 0.0000
# 2 -24.2722 55.9310 -13.5559 0.0000 2.6505 0.0000
# 3 17.1528 -13.5559 58.3689 0.0000 -2.8195 0.0000
# 4 0.0000 0.0000 0.0000 33.1490 0.0000 -2.1036
# 5 6.1822 2.6505 -2.8195 0.0000 22.1716 0.0000
# 6 0.0000 0.0000 0.0000 -2.1036 0.0000 27.6713
#
#
#
# Elastic Compliance Matrix: (Units=1/GPa)
#
#
# Indices 1 2 3 4 5 6 
#
# 1 0.013330 0.005302 -0.002914 0.000000 -0.004721 0.000000
# 2 0.005302 0.021120 0.003173 0.000000 -0.003600 0.000000
# 3 -0.002914 0.003173 0.018862 0.000000 0.002832 0.000000
# 4 0.000000 0.000000 0.000000 0.030313 0.000000 0.002304
# 5 -0.004721 -0.003600 0.002832 0.000000 0.047210 0.000000
# 6 0.000000 0.000000 0.000000 0.002304 0.000000 0.036314
#
#
# Mechanical properties :
#
#
# Convention : Reuss Voigt Hill
#
# Bulk Modulus (GPa) = 15.51963 18.17368 16.84665
# Shear Modulus (GPa) = 28.16837 31.63764 29.90301
#
# Velocity S-wave (km/s) = 3.91287 4.14683 4.03155
# Velocity P-wave (km/s) = 5.37118 5.72768 5.55229
#
# Compressibility (1/GPa) = 0.06443454
#
# Stress axis : x y z
#
# Youngs Moduli (GPa) = 75.01994 47.34898 53.01551
#
# Poissons Ratio (x) = -0.25105 0.15448
# Poissons Ratio (y) = -0.39777 -0.16822
# Poissons Ratio (z) = 0.21860 -0.15024
#
# Static dielectric constant tensor:
#      x y z
#    x 1.621470 0.000000 0.022650 
#    y 0.000000 1.661030 0.000000 
#    z 0.022650 0.000000 1.626960 
# 
# From -- ./inp_files/28652.got.cif
#   From: 2010.05.17/outbox.cif.g08.bks.cpg/sg5_15_cif.got.tgz:28652.got - 2010.06.03 18:56:24.
