data_PCOD9123222
_publ_section_title
;
Structure prediction by ZEFSAII (Michael W. Deem and Ramdas Pophale) SiO2 
 PCOD9123222
Probable space group: C 2
;
_chemical_formula_sum "Si O2"
_cell_formula_units_Z 32
_cell_length_a 19.701823
_cell_length_b 14.758510
_cell_length_c 14.780821
_cell_angle_alpha 90.000000
_cell_angle_beta 161.003775
_cell_angle_gamma 90.000000
_cell_volume 1398.963206
_symmetry_space_group_name_H-M "C 2"
_symmetry_group_IT_number 5
_symmetry_cell_setting 'monoclinic'
loop_
_space_group_symop_operation_xyz
x,y,z
-x,y,-z
1/2+x,1/2+y,z
1/2-x,1/2+y,-z
loop_
_atom_site_type_symbol
_atom_site_label
_atom_site_fract_x
_atom_site_fract_y
_atom_site_fract_z
Si Si1 0.638300 0.555500 0.589301
Si Si2 0.658593 0.868506 0.614601
Si Si3 0.710397 0.061889 0.605047
Si Si4 0.436107 0.719349 0.235793
Si Si5 0.123957 0.108978 0.012404
Si Si6 0.956552 0.568620 0.783697
Si Si7 0.448704 0.452711 0.681004
Si Si8 0.438880 0.262858 0.100316
O O1 0.500000 0.576857 0.500000
O O2 0.593097 0.640618 0.467550
O O3 0.547012 0.469528 0.420677
O O4 0.864491 0.546970 0.918508
O O5 0.500000 0.884996 0.500000
O O6 0.544186 0.815447 0.389639
O O7 0.749309 0.960068 0.688336
O O8 0.829470 0.802674 0.873492
O O9 0.517127 0.058155 0.292230
O O10 0.904627 0.101205 0.791733
O O11 0.703688 0.114484 0.691523
O O12 0.374166 0.689722 0.057163
O O13 0.239947 0.725127 0.057267
O O14 0.121016 0.014590 0.950504
O O15 0.921490 0.676798 0.747199
O O16 0.769352 0.500591 0.568936
O O17 0.458730 0.349602 0.723467
#
# Coordination Sequence:
#
# PCOD9123222 Si02
#       8
#     4   4   4   4   4   4   4   4
#     4  11  20  41  71  98 137 183 233 294 356 419
#     4  10  20  37  68 106 133 169 244 306 347 409
#     4  10  21  40  61  98 141 187 225 290 359 425
#     4  10  20  39  70 104 130 179 242 306 345 412
#     4   9  20  41  62  90 141 186 228 282 357 417
#     4  11  23  42  66 101 146 186 231 288 364 428
#     4  10  23  41  67 101 143 178 232 298 356 423
#     4  11  21  43  71 104 137 179 244 297 355 427
#
# _framework density 22.874082999999999
#
# number of rings (size 3 to 8) (size 9 to 14) (size 15 to 20)
#    0.000    1.750    3.750    0.750    0.000    3.000 
#   13.500    2.500    5.500    0.000    0.000    0.000 
#    0.000    0.000    0.000    0.000    0.000    0.000 
#
# Total GULP energy -89319.458511 kJ/mol
# GULP energy per Si atom -5582.466157 kJ/mol
# Density = 2.282202 g / cm^3
# Si number density = 22.874083 Si / 1000 Ang^3
#
#
#
# Elastic Constant Matrix: (Units=GPa)
#
#
# Indices 1 2 3 4 5 6 
#
# 1 115.9530 37.2834 39.3483 0.0000 -23.6689 0.0000
# 2 37.2834 101.2286 28.0484 0.0000 2.8725 0.0000
# 3 39.3483 28.0484 66.5511 0.0000 -14.3365 0.0001
# 4 0.0000 0.0000 0.0000 35.0961 0.0001 -13.2853
# 5 -23.6689 2.8725 -14.3365 0.0001 34.8758 0.0000
# 6 0.0000 0.0000 0.0001 -13.2853 0.0000 36.8970
#
#
#
# Elastic Compliance Matrix: (Units=1/GPa)
#
#
# Indices 1 2 3 4 5 6 
#
# 1 0.012778 -0.003670 -0.004471 0.000000 0.007136 0.000000
# 2 -0.003670 0.012561 -0.004261 0.000000 -0.005277 0.000000
# 3 -0.004471 -0.004261 0.020722 0.000000 0.005835 0.000000
# 4 0.000000 0.000000 0.000000 0.032990 0.000000 0.011878
# 5 0.007136 -0.005277 0.005835 0.000000 0.036350 0.000000
# 6 0.000000 0.000000 0.000000 0.011878 0.000000 0.031380
#
#
# Mechanical properties :
#
#
# Convention : Reuss Voigt Hill
#
# Bulk Modulus (GPa) = 47.04162 54.78808 50.91485
# Shear Modulus (GPa) = 27.98475 33.31061 30.64768
#
# Velocity S-wave (km/s) = 3.50155 3.82024 3.66436
# Velocity P-wave (km/s) = 6.07930 6.59265 6.34117
#
# Compressibility (1/GPa) = 0.02125777
#
# Stress axis : x y z
#
# Youngs Moduli (GPa) = 78.25847 79.61419 48.25758
#
# Poissons Ratio (x) = 0.29218 0.21576
# Poissons Ratio (y) = 0.28721 0.20560
# Poissons Ratio (z) = 0.34989 0.33920
#
# Static dielectric constant tensor:
#      x y z
#    x 1.988910 0.000000 -0.075060 
#    y 0.000000 1.815800 0.000000 
#    z -0.075060 0.000000 2.196520 
# 
# From -- ./inp_files/57189.got.cif
#   From: 2010.05.17/outbox.cif.g08.bks.cpg/sg5_29_cif.got.tgz:57189.got - 2010.06.03 18:56:24.
