data_PCOD9123113
_publ_section_title
;
Structure prediction by ZEFSAII (Michael W. Deem and Ramdas Pophale) SiO2 
 PCOD9123113
Probable space group: C 2
;
_chemical_formula_sum "Si O2"
_cell_formula_units_Z 24
_cell_length_a 8.652680
_cell_length_b 17.187336
_cell_length_c 14.632940
_cell_angle_alpha 90.000000
_cell_angle_beta 151.756602
_cell_angle_gamma 90.000000
_cell_volume 1029.798384
_symmetry_space_group_name_H-M "C 2"
_symmetry_group_IT_number 5
_symmetry_cell_setting 'monoclinic'
loop_
_space_group_symop_operation_xyz
x,y,z
-x,y,-z
1/2+x,1/2+y,z
1/2-x,1/2+y,-z
loop_
_atom_site_type_symbol
_atom_site_label
_atom_site_fract_x
_atom_site_fract_y
_atom_site_fract_z
Si Si1 0.767367 0.215480 0.454476
Si Si2 0.590499 0.929022 0.152841
Si Si3 0.271735 0.980227 0.454782
Si Si4 0.394361 0.053942 0.696481
Si Si5 0.407069 0.759493 0.844603
Si Si6 0.887540 0.133477 0.196760
O O1 0.570754 0.145845 0.298697
O O2 0.486109 0.260908 0.359404
O O3 0.000000 0.253493 0.500000
O O4 0.995707 0.177946 0.650775
O O5 0.474736 0.844725 0.127232
O O6 0.472874 0.002420 0.151521
O O7 0.500000 0.935994 0.000000
O O8 0.984471 0.932116 0.352202
O O9 0.500000 0.939953 0.500000
O O10 0.486174 0.014579 0.648951
O O11 0.092180 0.053343 0.311033
O O12 0.000000 0.047835 0.500000
O O13 0.524962 0.688210 0.843584
O O14 0.500000 0.754018 0.000000
O O15 0.500000 0.120796 0.000000
#
# Coordination Sequence:
#
# PCOD9123113 Si02
#       6
#     4   4   4   4   4   4
#     4  10  20  37  62  90 120 159 208 257 310 371
#     4  10  22  40  60  85 124 165 201 250 311 368
#     4  10  20  37  62  91 119 155 207 258 310 373
#     4   8  17  35  57  82 112 151 197 242 296 363
#     4  11  24  40  59  91 130 166 208 257 309 369
#     4  11  22  39  64  91 123 166 211 260 312 368
#
# _framework density 23.305530999999998
#
# number of rings (size 3 to 8) (size 9 to 14) (size 15 to 20)
#    0.000    2.000    0.000    5.000    0.000    6.000 
#    0.000    4.167    0.000    0.000    0.000    0.000 
#    0.000    0.000    0.000    0.000    0.000    0.000 
#
# Total GULP energy -66989.247602 kJ/mol
# GULP energy per Si atom -5582.437300 kJ/mol
# Density = 2.325249 g / cm^3
# Si number density = 23.305531 Si / 1000 Ang^3
#
#
#
# Elastic Constant Matrix: (Units=GPa)
#
#
# Indices 1 2 3 4 5 6 
#
# 1 92.8046 32.8151 6.7483 0.0041 -8.9548 0.0006
# 2 32.8151 134.2565 20.2102 0.0055 -21.5908 0.0023
# 3 6.7483 20.2102 71.1740 0.0258 -9.8723 0.0355
# 4 0.0041 0.0055 0.0258 2.4223 0.0041 13.7544
# 5 -8.9548 -21.5908 -9.8723 0.0041 27.4883 0.0108
# 6 0.0006 0.0023 0.0355 13.7544 0.0108 -4.9462
#
#
#
# Elastic Compliance Matrix: (Units=1/GPa)
#
#
# Indices 1 2 3 4 5 6 
#
# 1 0.011875 -0.002595 -0.000142 -0.000002 0.001779 -0.000002
# 2 -0.002595 0.009262 -0.001570 -0.000002 0.005866 -0.000001
# 3 -0.000142 -0.001570 0.015083 -0.000049 0.004137 -0.000020
# 4 -0.000002 -0.000002 -0.000049 0.024588 -0.000051 0.068374
# 5 0.001779 0.005866 0.004137 -0.000051 0.043052 -0.000015
# 6 -0.000002 -0.000001 -0.000020 0.068374 -0.000015 -0.012041
#
#
# Mechanical properties :
#
#
# Convention : Reuss Voigt Hill
#
# Bulk Modulus (GPa) = 36.22482 46.42026 41.32254
# Shear Modulus (GPa) = 45.60531 20.89031 33.24781
#
# Velocity S-wave (km/s) = 4.42842 2.99719 3.78114
# Velocity P-wave (km/s) = 6.45950 5.65145 6.06894
#
# Compressibility (1/GPa) = 0.02760538
#
# Stress axis : x y z
#
# Youngs Moduli (GPa) = 84.21121 107.96306 66.29809
#
# Poissons Ratio (x) = 0.28016 0.00943
# Poissons Ratio (y) = 0.21852 0.10412
# Poissons Ratio (z) = 0.01198 0.16955
#
# Static dielectric constant tensor:
#      x y z
#    x 1.876530 0.000000 -0.018990 
#    y 0.000000 1.941620 -0.000010 
#    z -0.018990 -0.000010 1.923340 
# 
# From -- ./inp_files/51444.got.cif
#   From: 2010.05.17/outbox.cif.g08.bks.cpg/sg5_26_cif.got.tgz:51444.got - 2010.06.03 18:56:24.
