data_PCOD9123139
_publ_section_title
;
Structure prediction by ZEFSAII (Michael W. Deem and Ramdas Pophale) SiO2 
 PCOD9123139
Probable space group: C 2
;
_chemical_formula_sum "Si O2"
_cell_formula_units_Z 32
_cell_length_a 12.665598
_cell_length_b 29.213464
_cell_length_c 5.414183
_cell_angle_alpha 90.000000
_cell_angle_beta 48.629668
_cell_angle_gamma 90.000000
_cell_volume 1503.368396
_symmetry_space_group_name_H-M "C 2"
_symmetry_group_IT_number 5
_symmetry_cell_setting 'monoclinic'
loop_
_space_group_symop_operation_xyz
x,y,z
-x,y,-z
1/2+x,1/2+y,z
1/2-x,1/2+y,-z
loop_
_atom_site_type_symbol
_atom_site_label
_atom_site_fract_x
_atom_site_fract_y
_atom_site_fract_z
Si Si1 0.844309 0.750000 0.732746
Si Si2 0.168168 0.522260 0.176908
Si Si3 0.137646 0.303955 0.697930
Si Si4 0.338247 0.436984 0.724760
Si Si5 0.632460 0.713915 0.442979
Si Si6 0.343113 0.058196 0.305584
Si Si7 0.642529 0.162793 0.628106
Si Si8 0.340034 0.378644 0.216733
O O1 0.743730 0.783312 0.735768
O O2 0.858543 0.699708 0.587148
O O3 0.000000 0.769936 0.500000
O O4 0.764960 0.737645 0.103755
O O5 0.229263 0.529925 0.360730
O O6 0.000000 0.522903 0.500000
O O7 0.225252 0.476118 0.962566
O O8 0.212177 0.558797 0.892740
O O9 0.074082 0.258710 0.668547
O O10 0.230615 0.337551 0.393725
O O11 0.000000 0.330572 0.000000
O O12 0.500000 0.454979 0.500000
O O13 0.317985 0.412713 0.488369
O O14 0.327259 0.402003 0.970366
O O15 0.500000 0.695252 0.500000
O O16 0.708399 0.674480 0.476532
O O17 0.360663 0.108422 0.399686
O O18 0.500000 0.039826 0.000000
O O19 0.500000 0.172983 0.000000
O O20 0.500000 0.361505 0.000000
#
# Coordination Sequence:
#
# PCOD9123139 Si02
#       8
#     4   4   4   4   4   4   4   4
#     4  11  23  37  63  86 116 166 213 252 296 367
#     4  10  20  37  63  91 119 156 197 247 307 368
#     4  11  25  40  58  90 122 160 204 257 313 363
#     4  10  22  42  63  89 123 157 195 248 307 367
#     4  11  23  40  59  83 126 163 200 258 313 357
#     4   9  20  35  60  92 123 153 201 258 301 353
#     4  10  21  36  59  91 116 160 215 254 298 362
#     4  10  24  40  64  91 119 158 204 252 301 365
#
# _framework density 21.285533999999998
#
# number of rings (size 3 to 8) (size 9 to 14) (size 15 to 20)
#    0.000    1.750    2.500    0.750    5.250    2.000 
#    0.000    0.625    2.750    0.000    0.000    0.000 
#    0.000    0.000    0.000    0.000    0.000    0.000 
#
# Total GULP energy -89095.635499 kJ/mol
# GULP energy per Si atom -5568.477219 kJ/mol
# Density = 2.123709 g / cm^3
# Si number density = 21.285534 Si / 1000 Ang^3
#
#
#
# Elastic Constant Matrix: (Units=GPa)
#
#
# Indices 1 2 3 4 5 6 
#
# 1 74.5892 -1.8939 14.2790 0.0000 -8.1228 0.0000
# 2 -1.8939 38.0913 27.9322 0.0000 -11.2188 0.0000
# 3 14.2790 27.9322 107.7554 0.0000 4.3031 0.0000
# 4 0.0000 0.0000 0.0000 33.2826 0.0000 3.6979
# 5 -8.1228 -11.2188 4.3031 0.0000 31.3670 0.0000
# 6 0.0000 0.0000 0.0000 3.6979 0.0000 31.0271
#
#
#
# Elastic Compliance Matrix: (Units=1/GPa)
#
#
# Indices 1 2 3 4 5 6 
#
# 1 0.014896 0.005180 -0.003564 0.000000 0.006199 0.000000
# 2 0.005180 0.040301 -0.011827 0.000000 0.017378 0.000000
# 3 -0.003564 -0.011827 0.013096 0.000000 -0.006950 0.000000
# 4 0.000000 0.000000 0.000000 0.030449 0.000000 -0.003629
# 5 0.006199 0.017378 -0.006950 0.000000 0.040655 0.000000
# 6 0.000000 0.000000 0.000000 -0.003629 0.000000 0.032662
#
#
# Mechanical properties :
#
#
# Convention : Reuss Voigt Hill
#
# Bulk Modulus (GPa) = 20.88987 33.45228 27.17108
# Shear Modulus (GPa) = 23.98783 31.14323 27.56553
#
# Velocity S-wave (km/s) = 3.36066 3.82922 3.60256
# Velocity P-wave (km/s) = 4.98940 5.94144 5.48611
#
# Compressibility (1/GPa) = 0.04787009
#
# Stress axis : x y z
#
# Youngs Moduli (GPa) = 67.13361 24.81299 76.35938
#
# Poissons Ratio (x) = -0.12853 0.27216
# Poissons Ratio (y) = -0.34775 0.90312
# Poissons Ratio (z) = 0.23928 0.29347
#
# Static dielectric constant tensor:
#      x y z
#    x 1.845220 0.000000 0.080080 
#    y 0.000000 1.788680 0.000000 
#    z 0.080080 0.000000 1.772780 
# 
# From -- ./inp_files/3945.got.cif
#   From: 2010.05.17/outbox.cif.g08.bks.cpg/sg5_2_cif.got.tgz:3945.got - 2010.06.03 18:56:24.
