data_PCOD9123073
_publ_section_title
;
Structure prediction by ZEFSAII (Michael W. Deem and Ramdas Pophale) SiO2 
 PCOD9123073
Probable space group: C 2
;
_chemical_formula_sum "Si O2"
_cell_formula_units_Z 24
_cell_length_a 11.456378
_cell_length_b 14.406315
_cell_length_c 8.047953
_cell_angle_alpha 90.000000
_cell_angle_beta 51.732646
_cell_angle_gamma 90.000000
_cell_volume 1042.862143
_symmetry_space_group_name_H-M "C 2"
_symmetry_group_IT_number 5
_symmetry_cell_setting 'monoclinic'
loop_
_space_group_symop_operation_xyz
x,y,z
-x,y,-z
1/2+x,1/2+y,z
1/2-x,1/2+y,-z
loop_
_atom_site_type_symbol
_atom_site_label
_atom_site_fract_x
_atom_site_fract_y
_atom_site_fract_z
Si Si1 0.774925 0.625000 0.514706
Si Si2 0.341108 0.692304 0.048662
Si Si3 0.012810 0.022557 0.190709
Si Si4 0.983313 0.475129 0.211795
Si Si5 0.340782 0.813108 0.545367
Si Si6 0.775490 0.874898 0.025729
O O1 0.765865 0.649345 0.717645
O O2 0.644245 0.549889 0.597470
O O3 0.921928 0.574076 0.325007
O O4 0.723856 0.719369 0.472745
O O5 0.276377 0.784497 0.026875
O O6 0.500000 0.714386 0.000000
O O7 0.381882 0.613036 0.878503
O O8 0.084444 0.926025 0.176680
O O9 0.000000 0.018605 0.000000
O O10 0.879841 0.392158 0.376020
O O11 0.000000 0.471232 0.000000
O O12 0.144837 0.451242 0.139742
O O13 0.500000 0.797047 0.500000
O O14 0.219909 0.847889 0.785342
#
# Coordination Sequence:
#
# PCOD9123073 Si02
#       6
#     4   4   4   4   4   4
#     4  10  21  40  62  86 119 159 200 246 297 357
#     4   9  18  38  64  87 118 162 198 235 301 378
#     4   9  19  38  62  86 116 155 197 243 296 356
#     4  11  23  39  62  90 122 161 205 249 293 352
#     4  10  20  37  61  87 118 162 204 238 295 372
#     4  11  21  38  65  92 117 155 201 249 302 361
#
# _framework density 23.013587999999999
#
# number of rings (size 3 to 8) (size 9 to 14) (size 15 to 20)
#    0.000    2.333    0.000    7.500    0.000    3.333 
#    0.000    5.833    0.000   14.000    0.000    0.000 
#    0.000    0.000    0.000    0.000    0.000    0.000 
#
# Total GULP energy -67088.879134 kJ/mol
# GULP energy per Si atom -5590.739928 kJ/mol
# Density = 2.296121 g / cm^3
# Si number density = 23.013588 Si / 1000 Ang^3
#
#
#
# Elastic Constant Matrix: (Units=GPa)
#
#
# Indices 1 2 3 4 5 6 
#
# 1 24.7929 46.7507 18.9648 0.0000 1.7165 0.0000
# 2 46.7507 115.2655 38.1923 0.0000 -3.5245 0.0000
# 3 18.9648 38.1923 80.5278 0.0000 14.2028 0.0000
# 4 0.0000 0.0000 0.0000 -2.5225 0.0000 -7.7509
# 5 1.7165 -3.5245 14.2028 0.0000 16.2678 0.0000
# 6 0.0000 0.0000 0.0000 -7.7509 0.0000 28.8752
#
#
#
# Elastic Compliance Matrix: (Units=1/GPa)
#
#
# Indices 1 2 3 4 5 6 
#
# 1 0.191778 -0.078300 -0.001736 0.000001 -0.035685 0.000000
# 2 -0.078300 0.043141 -0.006060 0.000000 0.022899 0.000000
# 3 -0.001736 -0.006060 0.018794 0.000000 -0.017538 0.000000
# 4 0.000001 0.000000 0.000000 -0.217245 0.000000 -0.058315
# 5 -0.035685 0.022899 -0.017538 0.000000 0.085509 0.000000
# 6 0.000000 0.000000 0.000000 -0.058315 0.000000 0.018979
#
#
# Mechanical properties :
#
#
# Convention : Reuss Voigt Hill
#
# Bulk Modulus (GPa) = 12.26636 47.60020 29.93328
# Shear Modulus (GPa) = 14.69199 16.30264 15.49731
#
# Velocity S-wave (km/s) = 2.52941 2.66445 2.59781
# Velocity P-wave (km/s) = 3.72454 5.49492 4.69395
#
# Compressibility (1/GPa) = 0.08152376
#
# Stress axis : x y z
#
# Youngs Moduli (GPa) = 5.21435 23.17960 53.20884
#
# Poissons Ratio (x) = 1.81496 0.09235
# Poissons Ratio (y) = 0.40828 0.32242
# Poissons Ratio (z) = 0.00905 0.14046
#
# Static dielectric constant tensor:
#      x y z
#    x 1.920630 0.000000 0.027400 
#    y 0.000000 1.871490 0.000000 
#    z 0.027400 0.000000 1.910920 
# 
# From -- ./inp_files/24481.got.cif
#   From: 2010.05.17/outbox.cif.g08.bks.cpg/sg5_13_cif.got.tgz:24481.got - 2010.06.03 18:56:24.
