data_PCOD9123714
_publ_section_title
;
Structure prediction by ZEFSAII (Michael W. Deem and Ramdas Pophale) SiO2 
 PCOD9123714
Probable space group: C 2
;
_chemical_formula_sum "Si O2"
_cell_formula_units_Z 18
_cell_length_a 21.985933
_cell_length_b 7.046509
_cell_length_c 5.509046
_cell_angle_alpha 90.000000
_cell_angle_beta 55.102478
_cell_angle_gamma 90.000000
_cell_volume 700.007503
_symmetry_space_group_name_H-M "C 2"
_symmetry_group_IT_number 5
_symmetry_cell_setting 'monoclinic'
loop_
_space_group_symop_operation_xyz
x,y,z
-x,y,-z
1/2+x,1/2+y,z
1/2-x,1/2+y,-z
loop_
_atom_site_type_symbol
_atom_site_label
_atom_site_fract_x
_atom_site_fract_y
_atom_site_fract_z
Si Si1 0.027395 0.674120 0.187995
Si Si2 0.717759 0.071715 0.242367
Si Si3 0.858526 0.200583 0.634533
Si Si4 0.660666 0.399782 0.689790
Si Si5 0.000000 0.031177 0.500000
O O1 0.000000 0.577767 0.500000
O O2 0.988524 0.880929 0.307348
O O3 0.111043 0.754867 0.967513
O O4 0.000000 0.582639 0.000000
O O5 0.653017 0.924821 0.333529
O O6 0.766392 0.966531 0.336651
O O7 0.683211 0.264838 0.416907
O O8 0.778550 0.122145 0.902957
O O9 0.872464 0.095570 0.345917
O O10 0.924245 0.145922 0.668579
#
# Coordination Sequence:
#
# PCOD9123714 Si02
#       5
#     4   4   4   4   2
#     4  10  20  39  72 102 136 199 243 296 380 444
#     4  12  25  41  73 109 143 190 253 311 368 452
#     4  12  24  44  72 109 149 192 250 307 377 449
#     4  12  23  42  72 105 143 192 248 311 373 443
#     4  10  22  40  74 102 148 196 242 296 386 434
#
# _framework density 25.714010999999999
#
# number of rings (size 3 to 8) (size 9 to 14) (size 15 to 20)
#    0.667    0.000    8.889    0.000    0.000    0.000 
#    0.000    1.111   14.667    1.333    0.000    0.000 
#    0.000    0.000    0.000    0.000    0.000    0.000 
#
# Total GULP energy -50257.652158 kJ/mol
# GULP energy per Si atom -5584.183573 kJ/mol
# Density = 2.565549 g / cm^3
# Si number density = 25.714011 Si / 1000 Ang^3
#
#
#
# Elastic Constant Matrix: (Units=GPa)
#
#
# Indices 1 2 3 4 5 6 
#
# 1 76.5679 0.2382 17.6549 0.0000 -4.4106 0.0000
# 2 0.2382 82.5429 10.7979 0.0000 5.4972 0.0000
# 3 17.6549 10.7979 119.8480 0.0000 10.9707 0.0000
# 4 0.0000 0.0000 0.0000 22.9257 0.0000 -7.9311
# 5 -4.4106 5.4972 10.9707 0.0000 38.1514 0.0000
# 6 0.0000 0.0000 0.0000 -7.9311 0.0000 32.6310
#
#
#
# Elastic Compliance Matrix: (Units=1/GPa)
#
#
# Indices 1 2 3 4 5 6 
#
# 1 0.013702 0.000105 -0.002230 0.000000 0.002210 0.000000
# 2 0.000105 0.012343 -0.000992 0.000000 -0.001481 0.000000
# 3 -0.002230 -0.000992 0.009009 0.000000 -0.002706 0.000000
# 4 0.000000 0.000000 0.000000 0.047624 0.000000 0.011575
# 5 0.002210 -0.001481 -0.002706 0.000000 0.027458 0.000000
# 6 0.000000 0.000000 0.000000 0.011575 0.000000 0.033459
#
#
# Mechanical properties :
#
#
# Convention : Reuss Voigt Hill
#
# Bulk Modulus (GPa) = 34.69837 37.37118 36.03478
# Shear Modulus (GPa) = 31.36056 35.42613 33.39335
#
# Velocity S-wave (km/s) = 3.49605 3.71576 3.60758
# Velocity P-wave (km/s) = 5.46075 5.74231 5.60330
#
# Compressibility (1/GPa) = 0.02881980
#
# Stress axis : x y z
#
# Youngs Moduli (GPa) = 72.98459 81.01750 110.99430
#
# Poissons Ratio (x) = -0.00851 0.24753
# Poissons Ratio (y) = -0.00766 0.11010
# Poissons Ratio (z) = 0.16277 0.08037
#
# Static dielectric constant tensor:
#      x y z
#    x 2.058330 0.000000 -0.030700 
#    y 0.000000 1.938930 0.000000 
#    z -0.030700 0.000000 2.169380 
# 
# From -- ./inp_files/10070.got.cif
#   From: 2010.05.17/outbox.cif.g08.bks.cpg/sg5_6_cif.got.tgz:10070.got - 2010.06.03 18:56:24.
