data_PCOD9123982
_publ_section_title
;
Structure prediction by ZEFSAII (Michael W. Deem and Ramdas Pophale) SiO2 
 PCOD9123982
Probable space group: C 2
;
_chemical_formula_sum "Si O2"
_cell_formula_units_Z 28
_cell_length_a 18.210187
_cell_length_b 4.716034
_cell_length_c 18.453755
_cell_angle_alpha 90.000000
_cell_angle_beta 132.432502
_cell_angle_gamma 90.000000
_cell_volume 1169.702000
_symmetry_space_group_name_H-M "C 2"
_symmetry_group_IT_number 5
_symmetry_cell_setting 'monoclinic'
loop_
_space_group_symop_operation_xyz
x,y,z
-x,y,-z
1/2+x,1/2+y,z
1/2-x,1/2+y,-z
loop_
_atom_site_type_symbol
_atom_site_label
_atom_site_fract_x
_atom_site_fract_y
_atom_site_fract_z
Si Si1 0.861834 0.474930 0.390398
Si Si2 0.129586 0.720346 0.888402
Si Si3 0.429148 0.896852 0.734448
Si Si4 0.500000 0.516877 0.500000
Si Si5 0.157341 0.226723 0.004499
Si Si6 0.812248 0.387730 0.521014
Si Si7 0.858373 0.876261 0.780806
Si Si8 0.000000 0.939219 0.000000
O O1 0.839852 0.353030 0.456492
O O2 0.754749 0.473864 0.279296
O O3 0.943423 0.257268 0.411901
O O4 0.910340 0.781926 0.437881
O O5 0.226549 0.668400 0.904213
O O6 0.029412 0.580089 0.794361
O O7 0.147349 0.553310 0.976139
O O8 0.130939 0.045984 0.914050
O O9 0.353744 0.118788 0.721454
O O10 0.396618 0.801717 0.633631
O O11 0.417287 0.630900 0.780174
O O12 0.080700 0.133508 0.013278
O O13 0.784074 0.712571 0.517745
O O14 0.930421 0.782199 0.894762
#
# Coordination Sequence:
#
# PCOD9123982 Si02
#       8
#     4   4   4   2   4   4   4   2
#     4  11  22  45  66  98 131 181 220 289 336 417
#     4  10  20  41  61  88 124 176 205 277 331 384
#     4  12  21  41  65  99 128 171 212 284 344 403
#     4  10  24  44  70  86 142 182 222 268 360 408
#     4  10  22  38  65  85 129 166 224 265 328 383
#     4  12  22  38  70  99 127 163 221 282 345 399
#     4  12  25  39  71  95 138 169 226 280 341 396
#     4  12  24  44  66 104 128 188 226 278 322 420
#
# _framework density 23.937722999999998
#
# number of rings (size 3 to 8) (size 9 to 14) (size 15 to 20)
#    0.000    0.857    5.714    1.714    0.000    2.286 
#    5.143    0.000    6.286    0.000    0.000    0.000 
#    0.000    0.000    0.000    0.000    0.000    0.000 
#
# Total GULP energy -78048.375082 kJ/mol
# GULP energy per Si atom -5574.883934 kJ/mol
# Density = 2.388324 g / cm^3
# Si number density = 23.937723 Si / 1000 Ang^3
#
#
#
# Elastic Constant Matrix: (Units=GPa)
#
#
# Indices 1 2 3 4 5 6 
#
# 1 84.2231 3.9569 22.6893 0.0006 18.3659 0.0000
# 2 3.9569 101.3540 6.9177 0.0014 8.3307 0.0001
# 3 22.6893 6.9177 126.4154 0.0003 21.6913 0.0006
# 4 0.0006 0.0014 0.0003 20.3198 0.0006 15.4041
# 5 18.3659 8.3307 21.6913 0.0006 39.6873 0.0005
# 6 0.0000 0.0001 0.0006 15.4041 0.0005 23.6813
#
#
#
# Elastic Compliance Matrix: (Units=1/GPa)
#
#
# Indices 1 2 3 4 5 6 
#
# 1 0.013454 0.000022 -0.001486 -0.000001 -0.005418 0.000001
# 2 0.000022 0.010045 -0.000210 -0.000001 -0.002004 0.000001
# 3 -0.001486 -0.000210 0.008898 0.000000 -0.004131 0.000000
# 4 -0.000001 -0.000001 0.000000 0.097089 0.000000 -0.063154
# 5 -0.005418 -0.002004 -0.004131 0.000000 0.030383 -0.000001
# 6 0.000001 0.000001 0.000000 -0.063154 -0.000001 0.083307
#
#
# Mechanical properties :
#
#
# Convention : Reuss Voigt Hill
#
# Bulk Modulus (GPa) = 34.42646 42.12447 38.27546
# Shear Modulus (GPa) = 19.51550 35.29957 27.40754
#
# Velocity S-wave (km/s) = 2.85838 3.84427 3.38738
# Velocity P-wave (km/s) = 5.03057 6.11067 5.59674
#
# Compressibility (1/GPa) = 0.02904743
#
# Stress axis : x y z
#
# Youngs Moduli (GPa) = 74.32662 99.55614 112.39084
#
# Poissons Ratio (x) = -0.00214 0.16704
# Poissons Ratio (y) = -0.00160 0.02357
# Poissons Ratio (z) = 0.11047 0.02088
#
# Static dielectric constant tensor:
#      x y z
#    x 1.941310 0.000000 0.046130 
#    y 0.000000 1.885170 0.000000 
#    z 0.046130 0.000000 1.972130 
# 
# From -- ./inp_files/66892.got.cif
#   From: 2010.05.17/outbox.cif.g08.bks.cpg/sg5_34_cif.got.tgz:66892.got - 2010.06.03 18:56:24.
