data_PCOD9123264
_publ_section_title
;
Structure prediction by ZEFSAII (Michael W. Deem and Ramdas Pophale) SiO2 
 PCOD9123264
Probable space group: C 2
;
_chemical_formula_sum "Si O2"
_cell_formula_units_Z 24
_cell_length_a 10.757062
_cell_length_b 8.016281
_cell_length_c 24.255285
_cell_angle_alpha 90.000000
_cell_angle_beta 147.872044
_cell_angle_gamma 90.000000
_cell_volume 1112.323197
_symmetry_space_group_name_H-M "C 2"
_symmetry_group_IT_number 5
_symmetry_cell_setting 'monoclinic'
loop_
_space_group_symop_operation_xyz
x,y,z
-x,y,-z
1/2+x,1/2+y,z
1/2-x,1/2+y,-z
loop_
_atom_site_type_symbol
_atom_site_label
_atom_site_fract_x
_atom_site_fract_y
_atom_site_fract_z
Si Si1 0.080255 0.151540 0.477301
Si Si2 0.588273 0.860936 0.384899
Si Si3 0.325363 0.971695 0.744120
Si Si4 0.690227 0.641168 0.803258
Si Si5 0.160606 0.991329 0.110500
Si Si6 0.858439 0.081428 0.771612
O O1 0.206559 0.263288 0.479541
O O2 0.000000 0.256783 0.500000
O O3 0.877221 0.066313 0.365107
O O4 0.242216 0.011514 0.565232
O O5 0.516014 0.738670 0.308524
O O6 0.348578 0.948332 0.315567
O O7 0.315429 0.032704 0.803780
O O8 0.570831 0.017343 0.807382
O O9 0.292773 0.772577 0.733712
O O10 0.573846 0.547216 0.811117
O O11 0.853459 0.790693 0.886023
O O12 0.098600 0.068864 0.146482
O O13 0.000000 0.046521 0.000000
#
# Coordination Sequence:
#
# PCOD9123264 Si02
#       6
#     4   4   4   4   4   4
#     4  11  21  35  55  82 115 153 192 230 275 328
#     4  10  22  35  55  84 116 153 190 231 275 329
#     4  10  22  38  58  84 115 150 191 236 280 333
#     4   9  21  40  60  83 115 152 189 233 281 335
#     4  10  22  40  60  84 114 146 185 237 291 340
#     4  10  20  38  59  83 113 150 188 231 283 337
#
# _framework density 21.576461999999999
#
# number of rings (size 3 to 8) (size 9 to 14) (size 15 to 20)
#    0.000    2.000    0.000    4.000    0.000   10.667 
#    0.000    1.667    0.000    0.000    0.000    0.000 
#    0.000    0.000    0.000    0.000    0.000    0.000 
#
# Total GULP energy -66957.682003 kJ/mol
# GULP energy per Si atom -5579.806834 kJ/mol
# Density = 2.152735 g / cm^3
# Si number density = 21.576462 Si / 1000 Ang^3
#
#
#
# Elastic Constant Matrix: (Units=GPa)
#
#
# Indices 1 2 3 4 5 6 
#
# 1 156.4692 29.4072 17.9872 0.0000 -37.1039 0.0000
# 2 29.4072 31.4280 1.3782 0.0000 -5.9341 0.0000
# 3 17.9872 1.3782 48.1338 0.0000 -20.4168 0.0000
# 4 0.0000 0.0000 0.0000 15.4998 -0.0001 -10.3325
# 5 -37.1039 -5.9341 -20.4168 -0.0001 26.2229 0.0000
# 6 0.0000 0.0000 0.0000 -10.3325 0.0000 32.8096
#
#
#
# Elastic Compliance Matrix: (Units=1/GPa)
#
#
# Indices 1 2 3 4 5 6 
#
# 1 0.011500 -0.007696 0.003115 0.000000 0.016956 0.000000
# 2 -0.007696 0.038753 0.001295 0.000000 -0.001111 0.000000
# 3 0.003115 0.001295 0.032203 0.000000 0.029773 0.000000
# 4 0.000000 0.000000 0.000000 0.081660 0.000000 0.025716
# 5 0.016956 -0.001111 0.029773 0.000000 0.085055 0.000000
# 6 0.000000 0.000000 0.000000 0.025716 0.000000 0.038578
#
#
# Mechanical properties :
#
#
# Convention : Reuss Voigt Hill
#
# Bulk Modulus (GPa) = 13.17794 37.06401 25.12097
# Shear Modulus (GPa) = 15.64379 27.39036 21.51707
#
# Velocity S-wave (km/s) = 2.69558 3.56681 3.16135
# Velocity P-wave (km/s) = 3.97605 5.84620 4.99935
#
# Compressibility (1/GPa) = 0.07588442
#
# Stress axis : x y z
#
# Youngs Moduli (GPa) = 86.95644 25.80444 31.05280
#
# Poissons Ratio (x) = 0.19858 -0.09673
# Poissons Ratio (y) = 0.66919 -0.04021
# Poissons Ratio (z) = -0.27086 -0.03341
#
# Static dielectric constant tensor:
#      x y z
#    x 1.848590 0.000000 -0.003430 
#    y 0.000000 1.800050 0.000000 
#    z -0.003430 0.000000 1.776170 
# 
# From -- ./inp_files/38341.got.cif
#   From: 2010.05.17/outbox.cif.g08.bks.cpg/sg5_20_cif.got.tgz:38341.got - 2010.06.03 18:56:24.
