data_PCOD9123081
_publ_section_title
;
Structure prediction by ZEFSAII (Michael W. Deem and Ramdas Pophale) SiO2 
 PCOD9123081
Probable space group: C 2
;
_chemical_formula_sum "Si O2"
_cell_formula_units_Z 26
_cell_length_a 13.752721
_cell_length_b 13.519816
_cell_length_c 19.350211
_cell_angle_alpha 90.000000
_cell_angle_beta 158.839182
_cell_angle_gamma 90.000000
_cell_volume 1298.782937
_symmetry_space_group_name_H-M "C 2"
_symmetry_group_IT_number 5
_symmetry_cell_setting 'monoclinic'
loop_
_space_group_symop_operation_xyz
x,y,z
-x,y,-z
1/2+x,1/2+y,z
1/2-x,1/2+y,-z
loop_
_atom_site_type_symbol
_atom_site_label
_atom_site_fract_x
_atom_site_fract_y
_atom_site_fract_z
Si Si1 0.342098 0.057480 0.827244
Si Si2 0.943158 0.564753 0.178446
Si Si3 0.000000 0.730620 0.500000
Si Si4 0.833172 0.431565 0.478344
Si Si5 0.590607 0.700193 0.483093
Si Si6 0.127556 0.911238 0.491794
Si Si7 0.168597 0.047091 0.232830
O O1 0.532238 0.083534 0.888174
O O2 0.141771 0.148027 0.715335
O O3 0.500000 0.026735 0.000000
O O4 0.140680 0.971971 0.667624
O O5 0.116472 0.650703 0.331536
O O6 0.107756 0.465247 0.303894
O O7 0.634131 0.553880 0.993777
O O8 0.900355 0.802285 0.495509
O O9 0.770957 0.656074 0.321274
O O10 0.909765 0.317272 0.518851
O O11 0.653135 0.426539 0.426804
O O12 0.688119 0.478969 0.315366
O O13 0.105037 0.496980 0.665926
O O14 0.500000 0.669219 0.500000
#
# Coordination Sequence:
#
# PCOD9123081 Si02
#       7
#     4   4   2   4   4   4   4
#     4  10  20  37  61  90 119 154 206 253 303 360
#     4  10  21  38  64  86 122 157 200 257 303 361
#     4  10  22  42  60  90 126 162 206 248 310 364
#     4  10  21  39  63  84 125 164 203 248 310 367
#     4   9  18  38  59  87 119 160 200 250 302 364
#     4  11  21  40  63  87 122 163 206 252 306 363
#     4  10  23  42  62  91 128 164 200 258 310 364
#
# _framework density 20.018740000000001
#
# number of rings (size 3 to 8) (size 9 to 14) (size 15 to 20)
#    0.000    2.154    3.077    1.846    0.000    8.000 
#    5.538    0.000    0.000    0.000    0.000    0.000 
#    0.000    0.000    0.000    0.000    0.000    0.000 
#
# Total GULP energy -72486.081142 kJ/mol
# GULP energy per Si atom -5575.852396 kJ/mol
# Density = 1.997318 g / cm^3
# Si number density = 20.018740 Si / 1000 Ang^3
#
#
#
# Elastic Constant Matrix: (Units=GPa)
#
#
# Indices 1 2 3 4 5 6 
#
# 1 48.5385 2.7270 -18.2697 0.0052 4.6835 0.0373
# 2 2.7270 140.3181 28.5079 0.0540 5.6315 0.0345
# 3 -18.2697 28.5079 96.6049 0.0437 13.7534 0.0553
# 4 0.0052 0.0540 0.0437 4.5983 0.0013 2.4944
# 5 4.6835 5.6315 13.7534 0.0013 22.7036 0.0347
# 6 0.0373 0.0345 0.0553 2.4944 0.0347 9.9485
#
#
#
# Elastic Compliance Matrix: (Units=1/GPa)
#
#
# Indices 1 2 3 4 5 6 
#
# 1 0.023758 -0.001364 0.006069 -0.000020 -0.008239 -0.000084
# 2 -0.001364 0.007666 -0.002506 -0.000070 -0.000102 0.000010
# 3 0.006069 -0.002506 0.013492 -0.000083 -0.008803 -0.000038
# 4 -0.000020 -0.000070 -0.000083 0.251709 0.000154 -0.063112
# 5 -0.008239 -0.000102 -0.008803 0.000154 0.051104 -0.000136
# 6 -0.000084 0.000010 -0.000038 -0.063112 -0.000136 0.116343
#
#
# Mechanical properties :
#
#
# Convention : Reuss Voigt Hill
#
# Bulk Modulus (GPa) = 20.27813 34.59910 27.43861
# Shear Modulus (GPa) = 10.50172 25.61651 18.05911
#
# Velocity S-wave (km/s) = 2.29289 3.58107 3.00677
# Velocity P-wave (km/s) = 4.14262 5.86682 5.07843
#
# Compressibility (1/GPa) = 0.04931422
#
# Stress axis : x y z
#
# Youngs Moduli (GPa) = 42.09098 130.43978 74.11839
#
# Poissons Ratio (x) = 0.17791 -0.44979
# Poissons Ratio (y) = 0.05741 0.18572
# Poissons Ratio (z) = -0.25543 0.32684
#
# Static dielectric constant tensor:
#      x y z
#    x 1.813350 0.000010 -0.006010 
#    y 0.000010 1.682680 -0.000030 
#    z -0.006010 -0.000030 1.705780 
# 
# From -- ./inp_files/66115.got.cif
#   From: 2010.05.17/outbox.cif.g08.bks.cpg/sg5_34_cif.got.tgz:66115.got - 2010.06.03 18:56:24.
