data_PCOD9123992
_publ_section_title
;
Structure prediction by ZEFSAII (Michael W. Deem and Ramdas Pophale) SiO2 
 PCOD9123992
Probable space group: C 2
;
_chemical_formula_sum "Si O2"
_cell_formula_units_Z 26
_cell_length_a 18.848890
_cell_length_b 8.270457
_cell_length_c 8.902616
_cell_angle_alpha 90.000000
_cell_angle_beta 95.516898
_cell_angle_gamma 90.000000
_cell_volume 1381.390785
_symmetry_space_group_name_H-M "C 2"
_symmetry_group_IT_number 5
_symmetry_cell_setting 'monoclinic'
loop_
_space_group_symop_operation_xyz
x,y,z
-x,y,-z
1/2+x,1/2+y,z
1/2-x,1/2+y,-z
loop_
_atom_site_type_symbol
_atom_site_label
_atom_site_fract_x
_atom_site_fract_y
_atom_site_fract_z
Si Si1 0.351687 0.532850 0.435709
Si Si2 0.945954 0.272237 0.274279
Si Si3 0.404622 0.616842 0.753985
Si Si4 0.170701 0.287271 0.997773
Si Si5 0.777654 0.597878 0.808156
Si Si6 0.402653 0.271255 0.653662
Si Si7 0.500000 0.031543 0.500000
O O1 0.412694 0.611973 0.344492
O O2 0.356347 0.632308 0.593648
O O3 0.278788 0.545765 0.331343
O O4 0.369910 0.352997 0.495702
O O5 0.026519 0.231305 0.242022
O O6 0.947832 0.412497 0.398783
O O7 0.894940 0.320599 0.127873
O O8 0.358394 0.656352 0.889194
O O9 0.429935 0.430091 0.748300
O O10 0.194644 0.444107 0.094125
O O11 0.234871 0.215710 0.911920
O O12 0.842342 0.687828 0.740202
O O13 0.460609 0.144017 0.612191
#
# Coordination Sequence:
#
# PCOD9123992 Si02
#       7
#     4   4   4   4   4   4   2
#     4   9  22  38  65  86 120 160 206 248 298 356
#     4  11  21  40  64  92 119 162 200 255 305 359
#     4  10  20  41  62  88 121 155 209 244 303 359
#     4  11  25  40  62  88 127 163 198 250 308 365
#     4  11  24  41  60  91 125 160 203 247 305 366
#     4  10  23  36  63  92 117 157 202 255 296 351
#     4  12  20  38  64  92 122 150 212 254 298 360
#
# _framework density 18.82161
#
# number of rings (size 3 to 8) (size 9 to 14) (size 15 to 20)
#    0.923    0.615    1.538    3.231    2.154    2.462 
#    0.000    3.077    0.000    0.000    0.000    0.000 
#    0.000    0.000    0.000    0.000    0.000    0.000 
#
# Total GULP energy -72509.146268 kJ/mol
# GULP energy per Si atom -5577.626636 kJ/mol
# Density = 1.877877 g / cm^3
# Si number density = 18.821610 Si / 1000 Ang^3
#
#
#
# Elastic Constant Matrix: (Units=GPa)
#
#
# Indices 1 2 3 4 5 6 
#
# 1 64.7839 42.7751 52.4412 0.0000 -2.1251 0.0000
# 2 42.7751 97.9086 33.2978 0.0000 3.3790 0.0000
# 3 52.4412 33.2978 98.1329 0.0000 11.9252 0.0000
# 4 0.0000 0.0000 0.0000 37.9303 0.0000 -7.6106
# 5 -2.1251 3.3790 11.9252 0.0000 32.4926 0.0000
# 6 0.0000 0.0000 0.0000 -7.6106 0.0000 20.4303
#
#
#
# Elastic Compliance Matrix: (Units=1/GPa)
#
#
# Indices 1 2 3 4 5 6 
#
# 1 0.036587 -0.010477 -0.017186 0.000000 0.009790 0.000000
# 2 -0.010477 0.014548 0.000973 0.000000 -0.002555 0.000000
# 3 -0.017186 0.000973 0.020089 0.000000 -0.008598 0.000000
# 4 0.000000 0.000000 0.000000 0.028494 0.000000 0.010614
# 5 0.009790 -0.002555 -0.008598 0.000000 0.034838 0.000000
# 6 0.000000 0.000000 0.000000 0.010614 0.000000 0.052901
#
#
# Mechanical properties :
#
#
# Convention : Reuss Voigt Hill
#
# Bulk Modulus (GPa) = 56.04360 57.53926 56.79143
# Shear Modulus (GPa) = 20.26049 26.99138 23.62594
#
# Velocity S-wave (km/s) = 3.28449 3.79101 3.54680
# Velocity P-wave (km/s) = 6.65016 7.05688 6.85654
#
# Compressibility (1/GPa) = 0.01784325
#
# Stress axis : x y z
#
# Youngs Moduli (GPa) = 27.33223 68.73658 49.77833
#
# Poissons Ratio (x) = 0.72018 0.85550
# Poissons Ratio (y) = 0.28637 -0.04844
# Poissons Ratio (z) = 0.46974 -0.06689
#
# Static dielectric constant tensor:
#      x y z
#    x 1.628040 0.000000 0.002750 
#    y 0.000000 1.656390 0.000000 
#    z 0.002750 0.000000 1.647740 
# 
# From -- ./inp_files/26523.got.cif
#   From: 2010.05.17/outbox.cif.g08.bks.cpg/sg5_14_cif.got.tgz:26523.got - 2010.06.03 18:56:24.
