data_PCOD9123942
_publ_section_title
;
Structure prediction by ZEFSAII (Michael W. Deem and Ramdas Pophale) SiO2 
 PCOD9123942
Probable space group: C 2
;
_chemical_formula_sum "Si O2"
_cell_formula_units_Z 24
_cell_length_a 13.358087
_cell_length_b 12.326412
_cell_length_c 15.577080
_cell_angle_alpha 90.000000
_cell_angle_beta 154.158250
_cell_angle_gamma 90.000000
_cell_volume 1117.997771
_symmetry_space_group_name_H-M "C 2"
_symmetry_group_IT_number 5
_symmetry_cell_setting 'monoclinic'
loop_
_space_group_symop_operation_xyz
x,y,z
-x,y,-z
1/2+x,1/2+y,z
1/2-x,1/2+y,-z
loop_
_atom_site_type_symbol
_atom_site_label
_atom_site_fract_x
_atom_site_fract_y
_atom_site_fract_z
Si Si1 0.729576 0.918810 0.559165
Si Si2 0.181410 0.877813 0.018438
Si Si3 0.500000 0.553019 0.000000
Si Si4 0.190361 0.387662 0.338729
Si Si5 0.000000 0.050115 0.500000
Si Si6 0.704222 0.643866 0.331055
Si Si7 0.926497 0.206014 0.285660
O O1 0.789792 0.929530 0.505841
O O2 0.565223 0.813590 0.427521
O O3 0.649051 0.036381 0.532432
O O4 0.953288 0.891644 0.787421
O O5 0.414108 0.884713 0.140732
O O6 0.192317 0.761591 0.073291
O O7 0.174952 0.971829 0.085591
O O8 0.399609 0.622100 0.843466
O O9 0.279847 0.472801 0.340452
O O10 0.288612 0.267596 0.397247
O O11 0.945117 0.123835 0.376420
O O12 0.530812 0.652842 0.279149
#
# Coordination Sequence:
#
# PCOD9123942 Si02
#       7
#     4   4   2   4   2   4   4
#     4   9  18  43  69  91 129 165 218 280 320 375
#     4   9  21  42  67  98 126 168 218 277 327 381
#     4  10  20  40  70  98 128 158 234 270 328 390
#     4  10  23  46  61  95 139 174 217 265 328 392
#     4  12  24  46  64  96 138 180 220 258 330 408
#     4   9  19  42  63  92 131 164 212 280 307 385
#     4  10  23  41  66  94 138 167 222 267 330 386
#
# _framework density 21.466949
#
# number of rings (size 3 to 8) (size 9 to 14) (size 15 to 20)
#    0.000    2.667    1.667    0.000    4.667    0.000 
#   24.000    1.667    0.000    0.000    0.000    0.000 
#    0.000    0.000    0.000    0.000    0.000    0.000 
#
# Total GULP energy -66824.194619 kJ/mol
# GULP energy per Si atom -5568.682885 kJ/mol
# Density = 2.141809 g / cm^3
# Si number density = 21.466949 Si / 1000 Ang^3
#
#
#
# Elastic Constant Matrix: (Units=GPa)
#
#
# Indices 1 2 3 4 5 6 
#
# 1 90.5482 41.5374 9.8835 0.0017 -14.5808 0.0171
# 2 41.5374 130.6830 14.2060 0.0152 -12.9898 0.0637
# 3 9.8835 14.2060 70.3158 0.0028 -18.5264 0.0254
# 4 0.0017 0.0152 0.0028 12.9165 0.0035 -7.1755
# 5 -14.5808 -12.9898 -18.5264 0.0035 37.7492 0.0156
# 6 0.0171 0.0637 0.0254 -7.1755 0.0156 11.3299
#
#
#
# Elastic Compliance Matrix: (Units=1/GPa)
#
#
# Indices 1 2 3 4 5 6 
#
# 1 0.013451 -0.003886 -0.000102 0.000000 0.003808 -0.000004
# 2 -0.003886 0.009109 -0.000992 -0.000054 0.001147 -0.000079
# 3 -0.000102 -0.000992 0.016465 -0.000043 0.007700 -0.000069
# 4 0.000000 -0.000054 -0.000043 0.119445 -0.000082 0.075647
# 5 0.003808 0.001147 0.007700 -0.000082 0.032135 -0.000126
# 6 -0.000004 -0.000079 -0.000069 0.075647 -0.000126 0.136171
#
#
# Mechanical properties :
#
#
# Convention : Reuss Voigt Hill
#
# Bulk Modulus (GPa) = 34.40546 46.97786 40.69166
# Shear Modulus (GPa) = 14.43317 27.46046 20.94682
#
# Velocity S-wave (km/s) = 2.59577 3.58047 3.12712
# Velocity P-wave (km/s) = 5.00460 6.24694 5.65996
#
# Compressibility (1/GPa) = 0.02906515
#
# Stress axis : x y z
#
# Youngs Moduli (GPa) = 74.34560 109.78129 60.73457
#
# Poissons Ratio (x) = 0.42657 0.00621
# Poissons Ratio (y) = 0.28888 0.06025
# Poissons Ratio (z) = 0.00760 0.10890
#
# Static dielectric constant tensor:
#      x y z
#    x 1.829790 -0.000010 0.037560 
#    y -0.000010 1.798280 -0.000010 
#    z 0.037560 -0.000010 1.780330 
# 
# From -- ./inp_files/54512.got.cif
#   From: 2010.05.17/outbox.cif.g08.bks.cpg/sg5_28_cif.got.tgz:54512.got - 2010.06.03 18:56:24.
