data_PCOD9123911
_publ_section_title
;
Structure prediction by ZEFSAII (Michael W. Deem and Ramdas Pophale) SiO2 
 PCOD9123911
Probable space group: C 2
;
_chemical_formula_sum "Si O2"
_cell_formula_units_Z 18
_cell_length_a 16.878347
_cell_length_b 7.773637
_cell_length_c 12.905834
_cell_angle_alpha 90.000000
_cell_angle_beta 156.942114
_cell_angle_gamma 90.000000
_cell_volume 663.209103
_symmetry_space_group_name_H-M "C 2"
_symmetry_group_IT_number 5
_symmetry_cell_setting 'monoclinic'
loop_
_space_group_symop_operation_xyz
x,y,z
-x,y,-z
1/2+x,1/2+y,z
1/2-x,1/2+y,-z
loop_
_atom_site_type_symbol
_atom_site_label
_atom_site_fract_x
_atom_site_fract_y
_atom_site_fract_z
Si Si1 0.029859 0.907610 0.696709
Si Si2 0.065410 0.778841 0.960994
Si Si3 0.703160 0.644542 0.309406
Si Si4 0.000000 0.207949 0.500000
Si Si5 0.501008 0.907150 0.781852
O O1 0.864600 0.775619 0.451879
O O2 0.988147 0.084662 0.587043
O O3 0.994159 0.893718 0.777619
O O4 0.267098 0.860907 0.967882
O O5 0.302247 0.816229 0.248226
O O6 0.000000 0.786055 0.000000
O O7 0.028971 0.579589 0.885159
O O8 0.846976 0.483450 0.510839
O O9 0.609257 0.752036 0.293108
O O10 0.500000 0.614694 0.000000
#
# Coordination Sequence:
#
# PCOD9123911 Si02
#       5
#     4   4   4   2   4
#     4  10  22  41  69 104 143 189 242 300 369 441
#     4  10  21  39  68 101 137 190 242 295 366 440
#     4  11  23  44  74 105 145 193 246 308 373 442
#     4  10  20  40  68  94 134 188 236 290 360 434
#     4  10  23  42  71 108 148 193 246 308 375 449
#
# _framework density 27.140761000000001
#
# number of rings (size 3 to 8) (size 9 to 14) (size 15 to 20)
#    0.000    1.778    0.000    4.667    0.000    8.889 
#    0.000   12.222    0.000   37.333    0.000    0.000 
#    0.000    0.000    0.000    0.000    0.000    0.000 
#
# Total GULP energy -50383.741075 kJ/mol
# GULP energy per Si atom -5598.193453 kJ/mol
# Density = 2.707899 g / cm^3
# Si number density = 27.140761 Si / 1000 Ang^3
#
#
#
# Elastic Constant Matrix: (Units=GPa)
#
#
# Indices 1 2 3 4 5 6 
#
# 1 128.3063 24.5792 47.2930 0.0000 -11.7155 0.0000
# 2 24.5792 86.3719 31.1561 0.0000 4.0314 0.0000
# 3 47.2930 31.1561 241.6477 0.0000 13.1313 0.0000
# 4 0.0000 0.0000 0.0000 57.6762 0.0000 -7.5781
# 5 -11.7155 4.0314 13.1313 0.0000 61.8217 0.0000
# 6 0.0000 0.0000 0.0000 -7.5781 0.0000 16.7857
#
#
#
# Elastic Compliance Matrix: (Units=1/GPa)
#
#
# Indices 1 2 3 4 5 6 
#
# 1 0.008984 -0.002078 -0.001609 0.000000 0.002180 0.000000
# 2 -0.002078 0.012636 -0.001170 0.000000 -0.000969 0.000000
# 3 -0.001609 -0.001170 0.004670 0.000000 -0.001221 0.000000
# 4 0.000000 0.000000 0.000000 0.018431 0.000000 0.008321
# 5 0.002180 -0.000969 -0.001221 0.000000 0.016911 0.000000
# 6 0.000000 0.000000 0.000000 0.008321 0.000000 0.063331
#
#
# Mechanical properties :
#
#
# Convention : Reuss Voigt Hill
#
# Bulk Modulus (GPa) = 60.32345 73.59807 66.96076
# Shear Modulus (GPa) = 35.66246 50.80991 43.23618
#
# Velocity S-wave (km/s) = 3.62882 4.33146 3.99561
# Velocity P-wave (km/s) = 6.31127 7.22436 6.78320
#
# Compressibility (1/GPa) = 0.01657730
#
# Stress axis : x y z
#
# Youngs Moduli (GPa) = 111.30976 79.13631 214.12032
#
# Poissons Ratio (x) = 0.16445 0.34447
# Poissons Ratio (y) = 0.23130 0.25049
# Poissons Ratio (z) = 0.17907 0.09258
#
# Static dielectric constant tensor:
#      x y z
#    x 2.204560 0.000000 -0.021310 
#    y 0.000000 2.164510 0.000000 
#    z -0.021310 0.000000 2.122460 
# 
# From -- ./inp_files/56866.got.cif
#   From: 2010.05.17/outbox.cif.g08.bks.cpg/sg5_29_cif.got.tgz:56866.got - 2010.06.03 18:56:24.
