data_PCOD9123544
_publ_section_title
;
Structure prediction by ZEFSAII (Michael W. Deem and Ramdas Pophale) SiO2 
 PCOD9123544
Probable space group: C 2
;
_chemical_formula_sum "Si O2"
_cell_formula_units_Z 18
_cell_length_a 14.133573
_cell_length_b 7.012890
_cell_length_c 13.546499
_cell_angle_alpha 90.000000
_cell_angle_beta 138.538231
_cell_angle_gamma 90.000000
_cell_volume 889.022742
_symmetry_space_group_name_H-M "C 2"
_symmetry_group_IT_number 5
_symmetry_cell_setting 'monoclinic'
loop_
_space_group_symop_operation_xyz
x,y,z
-x,y,-z
1/2+x,1/2+y,z
1/2-x,1/2+y,-z
loop_
_atom_site_type_symbol
_atom_site_label
_atom_site_fract_x
_atom_site_fract_y
_atom_site_fract_z
Si Si1 0.748628 0.518060 0.374874
Si Si2 0.052289 0.681248 0.297239
Si Si3 0.500000 0.790034 0.500000
Si Si4 0.086296 0.934494 0.659441
Si Si5 0.103688 0.389588 0.171994
O O1 0.844197 0.580928 0.542559
O O2 0.640312 0.354218 0.320042
O O3 0.861446 0.420673 0.389200
O O4 0.660891 0.696221 0.265899
O O5 0.027881 0.527277 0.192374
O O6 0.927844 0.790608 0.260696
O O7 0.504916 0.640407 0.596550
O O8 0.247488 0.977450 0.753169
O O9 0.000000 0.839757 0.500000
O O10 0.000000 0.352475 0.000000
#
# Coordination Sequence:
#
# PCOD9123544 Si02
#       5
#     4   4   2   4   4
#     4  12  20  40  69 104 134 183 236 297 340 426
#     4  12  22  41  74  99 136 185 248 286 345 431
#     4  10  20  38  74 106 136 178 248 298 338 412
#     4  10  20  44  70 104 134 183 245 290 342 424
#     4  12  27  46  65 107 151 178 230 304 370 416
#
# _framework density 20.246949999999998
#
# number of rings (size 3 to 8) (size 9 to 14) (size 15 to 20)
#    0.667    0.000    6.667    2.667    0.000    0.889 
#    4.000    0.000    0.000    0.000    0.000    0.000 
#    0.000    0.000    0.000    0.000    0.000    0.000 
#
# Total GULP energy -50195.716125 kJ/mol
# GULP energy per Si atom -5577.301792 kJ/mol
# Density = 2.020087 g / cm^3
# Si number density = 20.246950 Si / 1000 Ang^3
#
#
#
# Elastic Constant Matrix: (Units=GPa)
#
#
# Indices 1 2 3 4 5 6 
#
# 1 72.9611 27.2453 0.2947 0.0000 -5.1597 0.0000
# 2 27.2453 115.0828 -3.3316 0.0000 -15.3472 0.0000
# 3 0.2947 -3.3316 50.1784 0.0000 -12.5209 0.0000
# 4 0.0000 0.0000 0.0000 10.2481 0.0000 6.6254
# 5 -5.1597 -15.3472 -12.5209 0.0000 24.4547 0.0000
# 6 0.0000 0.0000 0.0000 6.6254 0.0000 38.0208
#
#
#
# Elastic Compliance Matrix: (Units=1/GPa)
#
#
# Indices 1 2 3 4 5 6 
#
# 1 0.015059 -0.003436 -0.000071 0.000000 0.000985 0.000000
# 2 -0.003436 0.010531 0.002508 0.000000 0.007168 0.000000
# 3 -0.000071 0.002508 0.023485 0.000000 0.013584 0.000000
# 4 0.000000 0.000000 0.000000 0.109968 0.000000 -0.019163
# 5 0.000985 0.007168 0.013584 0.000000 0.052553 0.000000
# 6 0.000000 0.000000 0.000000 -0.019163 0.000000 0.029641
#
#
# Mechanical properties :
#
#
# Convention : Reuss Voigt Hill
#
# Bulk Modulus (GPa) = 21.24112 31.84879 26.54496
# Shear Modulus (GPa) = 19.31045 28.81232 24.06138
#
# Velocity S-wave (km/s) = 3.09163 3.77642 3.45105
# Velocity P-wave (km/s) = 4.82266 5.89741 5.38690
#
# Compressibility (1/GPa) = 0.04707849
#
# Stress axis : x y z
#
# Youngs Moduli (GPa) = 66.40603 94.95415 42.57985
#
# Poissons Ratio (x) = 0.32625 0.00302
# Poissons Ratio (y) = 0.22816 -0.10680
# Poissons Ratio (z) = 0.00470 -0.23816
#
# Static dielectric constant tensor:
#      x y z
#    x 1.842770 0.000000 -0.018650 
#    y 0.000000 1.751810 0.000000 
#    z -0.018650 0.000000 1.674260 
# 
# From -- ./inp_files/53929.got.cif
#   From: 2010.05.17/outbox.cif.g08.bks.cpg/sg5_27_cif.got.tgz:53929.got - 2010.06.03 18:56:24.
