data_PCOD9123867
_publ_section_title
;
Structure prediction by ZEFSAII (Michael W. Deem and Ramdas Pophale) SiO2 
 PCOD9123867
Probable space group: C 2
;
_chemical_formula_sum "Si O2"
_cell_formula_units_Z 28
_cell_length_a 9.987554
_cell_length_b 19.567995
_cell_length_c 9.156812
_cell_angle_alpha 90.000000
_cell_angle_beta 44.765908
_cell_angle_gamma 90.000000
_cell_volume 1260.239574
_symmetry_space_group_name_H-M "C 2"
_symmetry_group_IT_number 5
_symmetry_cell_setting 'monoclinic'
loop_
_space_group_symop_operation_xyz
x,y,z
-x,y,-z
1/2+x,1/2+y,z
1/2-x,1/2+y,-z
loop_
_atom_site_type_symbol
_atom_site_label
_atom_site_fract_x
_atom_site_fract_y
_atom_site_fract_z
Si Si1 0.079616 0.651000 0.597261
Si Si2 0.958130 0.079673 0.199251
Si Si3 0.366182 0.061205 0.971631
Si Si4 0.660754 0.799223 0.793467
Si Si5 0.451748 0.919357 0.788738
Si Si6 0.199121 0.926219 0.702351
Si Si7 0.036302 0.792038 0.692661
O O1 0.290640 0.622678 0.405195
O O2 0.029314 0.713070 0.747923
O O3 0.000000 0.671274 0.500000
O O4 0.955393 0.588206 0.751891
O O5 0.905476 0.999007 0.224433
O O6 0.000000 0.101441 0.000000
O O7 0.149943 0.084600 0.144837
O O8 0.379611 0.979736 0.947492
O O9 0.500000 0.083361 0.000000
O O10 0.522134 0.857771 0.835310
O O11 0.781075 0.780925 0.556224
O O12 0.839071 0.810294 0.764195
O O13 0.500000 0.753973 0.000000
O O14 0.637975 0.935017 0.546931
O O15 0.292652 0.911353 0.787125
O O16 0.084201 0.857680 0.751472
#
# Coordination Sequence:
#
# PCOD9123867 Si02
#       7
#     4   4   4   4   4   4   4
#     4  12  23  48  71  98 144 186 238 292 345 430
#     4  12  24  41  77 104 131 193 244 284 356 420
#     4  12  27  44  68 107 139 177 234 303 355 413
#     4  10  21  38  61 100 129 175 219 275 343 405
#     4  10  20  40  66  95 141 170 215 290 345 409
#     4  10  21  41  65 104 130 180 232 282 344 411
#     4  10  24  42  68  96 138 178 231 284 343 413
#
# _framework density 22.217998000000001
#
# number of rings (size 3 to 8) (size 9 to 14) (size 15 to 20)
#    0.000    1.143    5.714    0.429    4.000    2.286 
#    0.000    7.857    0.000    0.000    0.000    0.000 
#    0.000    0.000    0.000    0.000    0.000    0.000 
#
# Total GULP energy -78049.951673 kJ/mol
# GULP energy per Si atom -5574.996548 kJ/mol
# Density = 2.216743 g / cm^3
# Si number density = 22.217998 Si / 1000 Ang^3
#
#
#
# Elastic Constant Matrix: (Units=GPa)
#
#
# Indices 1 2 3 4 5 6 
#
# 1 111.3448 42.9876 19.2590 0.0000 -25.5045 0.0000
# 2 42.9876 118.8869 13.9327 0.0000 -19.8428 0.0000
# 3 19.2590 13.9327 100.9254 0.0000 -23.6808 0.0000
# 4 0.0000 0.0000 0.0000 10.0860 0.0000 1.7067
# 5 -25.5045 -19.8428 -23.6808 0.0000 33.9883 0.0000
# 6 0.0000 0.0000 0.0000 1.7067 0.0000 21.6987
#
#
#
# Elastic Compliance Matrix: (Units=1/GPa)
#
#
# Indices 1 2 3 4 5 6 
#
# 1 0.011789 -0.003087 -0.000204 0.000000 0.006902 0.000000
# 2 -0.003087 0.010128 0.000042 0.000000 0.003625 0.000000
# 3 -0.000204 0.000042 0.011848 0.000000 0.008126 0.000000
# 4 0.000000 0.000000 0.000000 0.100485 0.000000 -0.007904
# 5 0.006902 0.003625 0.008126 0.000000 0.042380 0.000000
# 6 0.000000 0.000000 0.000000 -0.007904 0.000000 0.046707
#
#
# Mechanical properties :
#
#
# Convention : Reuss Voigt Hill
#
# Bulk Modulus (GPa) = 36.67507 53.72394 45.19951
# Shear Modulus (GPa) = 20.92712 30.15311 25.54012
#
# Velocity S-wave (km/s) = 3.07237 3.68795 3.39414
# Velocity P-wave (km/s) = 5.39710 6.50903 5.97897
#
# Compressibility (1/GPa) = 0.02726648
#
# Stress axis : x y z
#
# Youngs Moduli (GPa) = 84.82360 98.73887 84.40090
#
# Poissons Ratio (x) = 0.30479 0.01722
# Poissons Ratio (y) = 0.26184 -0.00351
# Poissons Ratio (z) = 0.01730 -0.00410
#
# Static dielectric constant tensor:
#      x y z
#    x 1.818820 0.000000 0.015830 
#    y 0.000000 1.838320 0.000000 
#    z 0.015830 0.000000 1.865800 
# 
# From -- ./inp_files/40662.got.cif
#   From: 2010.05.17/outbox.cif.g08.bks.cpg/sg5_21_cif.got.tgz:40662.got - 2010.06.03 18:56:24.
