data_PCOD9123545
_publ_section_title
;
Structure prediction by ZEFSAII (Michael W. Deem and Ramdas Pophale) SiO2 
 PCOD9123545
Probable space group: C 2
;
_chemical_formula_sum "Si O2"
_cell_formula_units_Z 26
_cell_length_a 29.689277
_cell_length_b 8.903029
_cell_length_c 5.390803
_cell_angle_alpha 90.000000
_cell_angle_beta 57.760751
_cell_angle_gamma 90.000000
_cell_volume 1205.238219
_symmetry_space_group_name_H-M "C 2"
_symmetry_group_IT_number 5
_symmetry_cell_setting 'monoclinic'
loop_
_space_group_symop_operation_xyz
x,y,z
-x,y,-z
1/2+x,1/2+y,z
1/2-x,1/2+y,-z
loop_
_atom_site_type_symbol
_atom_site_label
_atom_site_fract_x
_atom_site_fract_y
_atom_site_fract_z
Si Si1 0.917983 0.629720 0.583230
Si Si2 0.172526 0.795881 0.902143
Si Si3 0.500000 0.037721 0.000000
Si Si4 0.276782 0.779709 0.864275
Si Si5 0.328451 0.645665 0.213708
Si Si6 0.092220 0.374936 0.024470
Si Si7 0.675110 0.065202 0.500271
O O1 0.919089 0.459843 0.686750
O O2 0.875377 0.633035 0.489874
O O3 0.975220 0.643304 0.287764
O O4 0.887899 0.738021 0.866190
O O5 0.213136 0.771171 0.013071
O O6 0.197400 0.692629 0.612560
O O7 0.174191 0.967715 0.818390
O O8 0.545213 0.930615 0.984215
O O9 0.303956 0.688177 0.555442
O O10 0.291072 0.955910 0.774969
O O11 0.299931 0.721275 0.055935
O O12 0.390175 0.703238 0.020481
O O13 0.147587 0.448416 0.771430
#
# Coordination Sequence:
#
# PCOD9123545 Si02
#       7
#     4   4   2   4   4   4   4
#     4  10  20  39  64  95 125 171 229 280 335 409
#     4  11  25  36  65  97 143 178 230 282 345 395
#     4  10  20  38  74  96 122 172 240 282 344 410
#     4  11  24  41  64  94 142 193 230 261 333 419
#     4  11  25  42  65 102 141 180 229 288 337 404
#     4   9  19  39  66  92 123 168 224 281 339 411
#     4   9  20  39  59  91 127 178 224 271 321 411
#
# _framework density 21.572500999999999
#
# number of rings (size 3 to 8) (size 9 to 14) (size 15 to 20)
#    0.000    1.846    1.538    1.385    6.462    0.000 
#    0.000    0.000    0.000   22.154    0.000    0.000 
#    0.000    0.000    0.000    0.000    0.000    0.000 
#
# Total GULP energy -72464.523881 kJ/mol
# GULP energy per Si atom -5574.194145 kJ/mol
# Density = 2.152340 g / cm^3
# Si number density = 21.572501 Si / 1000 Ang^3
#
#
#
# Elastic Constant Matrix: (Units=GPa)
#
#
# Indices 1 2 3 4 5 6 
#
# 1 100.1048 29.1663 28.4261 0.0000 5.6599 0.0000
# 2 29.1663 109.3027 27.4977 0.0000 -9.8203 0.0000
# 3 28.4261 27.4977 118.3330 0.0000 -8.8309 0.0000
# 4 0.0000 0.0000 0.0000 14.6411 0.0000 -1.1204
# 5 5.6599 -9.8203 -8.8309 0.0000 38.7312 0.0000
# 6 0.0000 0.0000 0.0000 -1.1204 0.0000 24.5396
#
#
#
# Elastic Compliance Matrix: (Units=1/GPa)
#
#
# Indices 1 2 3 4 5 6 
#
# 1 0.011637 -0.002773 -0.002371 0.000000 -0.002944 0.000000
# 2 -0.002773 0.010530 -0.001578 0.000000 0.002715 0.000000
# 3 -0.002371 -0.001578 0.009545 0.000000 0.002123 0.000000
# 4 0.000000 0.000000 0.000000 0.068540 0.000000 0.003129
# 5 -0.002944 0.002715 0.002123 0.000000 0.027422 0.000000
# 6 0.000000 0.000000 0.000000 0.003129 0.000000 0.040893
#
#
# Mechanical properties :
#
#
# Convention : Reuss Voigt Hill
#
# Bulk Modulus (GPa) = 54.74015 55.32452 55.03234
# Shear Modulus (GPa) = 26.58136 31.75908 29.17022
#
# Velocity S-wave (km/s) = 3.51406 3.84109 3.68121
# Velocity P-wave (km/s) = 6.47263 6.73599 6.60562
#
# Compressibility (1/GPa) = 0.01826813
#
# Stress axis : x y z
#
# Youngs Moduli (GPa) = 85.93081 94.96764 104.76313
#
# Poissons Ratio (x) = 0.26338 0.24837
# Poissons Ratio (y) = 0.23832 0.16532
# Poissons Ratio (z) = 0.20372 0.14986
#
# Static dielectric constant tensor:
#      x y z
#    x 1.819070 0.000000 -0.026710 
#    y 0.000000 1.847770 0.000000 
#    z -0.026710 0.000000 1.885870 
# 
# From -- ./inp_files/10764.got.cif
#   From: 2010.05.17/outbox.cif.g08.bks.cpg/sg5_6_cif.got.tgz:10764.got - 2010.06.03 18:56:24.
