data_PCOD9123728
_publ_section_title
;
Structure prediction by ZEFSAII (Michael W. Deem and Ramdas Pophale) SiO2 
 PCOD9123728
Probable space group: C 2
;
_chemical_formula_sum "Si O2"
_cell_formula_units_Z 28
_cell_length_a 23.969962
_cell_length_b 8.562612
_cell_length_c 6.800961
_cell_angle_alpha 90.000000
_cell_angle_beta 79.686394
_cell_angle_gamma 90.000000
_cell_volume 1373.312890
_symmetry_space_group_name_H-M "C 2"
_symmetry_group_IT_number 5
_symmetry_cell_setting 'monoclinic'
loop_
_space_group_symop_operation_xyz
x,y,z
-x,y,-z
1/2+x,1/2+y,z
1/2-x,1/2+y,-z
loop_
_atom_site_type_symbol
_atom_site_label
_atom_site_fract_x
_atom_site_fract_y
_atom_site_fract_z
Si Si1 0.322835 0.729400 0.512046
Si Si2 0.797560 0.029448 0.881201
Si Si3 0.407485 0.315915 0.737963
Si Si4 0.000000 0.319026 0.500000
Si Si5 0.929846 0.042326 0.364443
Si Si6 0.607381 0.962076 0.248081
Si Si7 0.189210 0.340687 0.896378
Si Si8 0.000000 0.868812 0.000000
O O1 0.286472 0.623959 0.683498
O O2 0.366063 0.602815 0.392443
O O3 0.356429 0.848446 0.633299
O O4 0.300880 0.828930 0.343100
O O5 0.853309 0.920363 0.835821
O O6 0.741777 0.931228 0.959730
O O7 0.809530 0.164341 0.028374
O O8 0.432356 0.415483 0.539464
O O9 0.385366 0.143125 0.704091
O O10 0.457241 0.290360 0.869044
O O11 0.963836 0.199241 0.393094
O O12 0.957576 0.417193 0.663203
O O13 0.956814 0.970334 0.155588
O O14 0.631757 0.921862 0.015128
#
# Coordination Sequence:
#
# PCOD9123728 Si02
#       8
#     4   4   4   2   4   4   4   2
#     4   9  22  41  63  91 123 164 208 254 315 375
#     4  10  23  40  66  91 128 164 207 265 312 360
#     4  11  23  42  59  92 128 165 206 263 313 366
#     4  10  20  40  60  84 126 170 194 266 320 344
#     4  10  21  38  61  85 120 163 207 258 308 366
#     4  10  24  40  62  91 133 161 208 263 312 367
#     4  11  22  43  66  96 123 168 212 251 313 383
#     4  12  22  34  66  86 120 164 216 248 310 374
#
# _framework density 20.388655
#
# number of rings (size 3 to 8) (size 9 to 14) (size 15 to 20)
#    0.000    1.714    1.429    2.571    4.000    4.571 
#    2.571    2.857    0.000    0.000    0.000    0.000 
#    0.000    0.000    0.000    0.000    0.000    0.000 
#
# Total GULP energy -78046.326401 kJ/mol
# GULP energy per Si atom -5574.737600 kJ/mol
# Density = 2.034225 g / cm^3
# Si number density = 20.388655 Si / 1000 Ang^3
#
#
#
# Elastic Constant Matrix: (Units=GPa)
#
#
# Indices 1 2 3 4 5 6 
#
# 1 46.9128 26.2406 18.5879 0.0000 -12.6524 0.0000
# 2 26.2406 119.5479 23.8575 0.0000 -12.7559 0.0000
# 3 18.5879 23.8575 70.6989 0.0000 -5.4815 0.0000
# 4 0.0000 0.0000 0.0000 19.1115 0.0000 -9.7694
# 5 -12.6524 -12.7559 -5.4815 0.0000 22.2862 0.0000
# 6 0.0000 0.0000 0.0000 -9.7694 0.0000 28.0431
#
#
#
# Elastic Compliance Matrix: (Units=1/GPa)
#
#
# Indices 1 2 3 4 5 6 
#
# 1 0.029131 -0.003948 -0.005321 0.000000 0.012969 0.000000
# 2 -0.003948 0.009964 -0.002096 0.000000 0.002946 0.000000
# 3 -0.005321 -0.002096 0.016233 0.000000 -0.000228 0.000000
# 4 0.000000 0.000000 0.000000 0.063661 0.000000 0.022178
# 5 0.012969 0.002946 -0.000228 0.000000 0.053864 0.000000
# 6 0.000000 0.000000 0.000000 0.022178 0.000000 0.043385
#
#
# Mechanical properties :
#
#
# Convention : Reuss Voigt Hill
#
# Bulk Modulus (GPa) = 30.67729 41.61461 36.14595
# Shear Modulus (GPa) = 20.01317 25.11973 22.56645
#
# Velocity S-wave (km/s) = 3.13642 3.51386 3.33049
# Velocity P-wave (km/s) = 5.30991 6.07601 5.70583
#
# Compressibility (1/GPa) = 0.03259741
#
# Stress axis : x y z
#
# Youngs Moduli (GPa) = 34.32786 100.35994 61.60263
#
# Poissons Ratio (x) = 0.39627 0.32779
# Poissons Ratio (y) = 0.13554 0.12911
# Poissons Ratio (z) = 0.18266 0.21034
#
# Static dielectric constant tensor:
#      x y z
#    x 1.738700 0.000000 0.004870 
#    y 0.000000 1.684110 0.000000 
#    z 0.004870 0.000000 1.765880 
# 
# From -- ./inp_files/10775.got.cif
#   From: 2010.05.17/outbox.cif.g08.bks.cpg/sg5_6_cif.got.tgz:10775.got - 2010.06.03 18:56:24.
