data_PCOD9123954
_publ_section_title
;
Structure prediction by ZEFSAII (Michael W. Deem and Ramdas Pophale) SiO2 
 PCOD9123954
Probable space group: C 2
;
_chemical_formula_sum "Si O2"
_cell_formula_units_Z 26
_cell_length_a 20.785162
_cell_length_b 7.860140
_cell_length_c 6.220207
_cell_angle_alpha 90.000000
_cell_angle_beta 94.834516
_cell_angle_gamma 90.000000
_cell_volume 1012.606417
_symmetry_space_group_name_H-M "C 2"
_symmetry_group_IT_number 5
_symmetry_cell_setting 'monoclinic'
loop_
_space_group_symop_operation_xyz
x,y,z
-x,y,-z
1/2+x,1/2+y,z
1/2-x,1/2+y,-z
loop_
_atom_site_type_symbol
_atom_site_label
_atom_site_fract_x
_atom_site_fract_y
_atom_site_fract_z
Si Si1 0.500000 0.615391 0.500000
Si Si2 0.871870 0.901988 0.533779
Si Si3 0.000000 0.594141 0.500000
Si Si4 0.500000 0.079640 0.000000
Si Si5 0.365699 0.013202 0.466986
Si Si6 0.752597 0.419691 0.741927
Si Si7 0.591901 0.794687 0.870136
Si Si8 0.803581 0.067689 0.869829
O O1 0.438825 0.500267 0.557412
O O2 0.534050 0.701167 0.722052
O O3 0.878684 0.713767 0.442529
O O4 0.815748 0.981355 0.372384
O O5 0.835566 0.912160 0.750013
O O6 0.001581 0.668415 0.756100
O O7 0.059747 0.467883 0.472876
O O8 0.560929 0.952565 0.991444
O O9 0.312694 0.991422 0.630180
O O10 0.355181 0.883284 0.271767
O O11 0.763299 0.215731 0.736642
O O12 0.745747 0.489450 0.976727
O O13 0.633640 0.667278 0.024316
#
# Coordination Sequence:
#
# PCOD9123954 Si02
#       8
#     2   4   2   2   4   4   4   4
#     4  12  24  48  80 110 164 206 274 334 422 478
#     4  12  27  49  74 115 159 210 261 345 405 491
#     4  10  22  46  66 114 140 210 252 336 392 486
#     4  10  20  40  72 104 148 188 266 316 402 464
#     4  11  25  46  77 106 159 200 273 327 414 479
#     4  12  27  47  76 113 155 211 263 341 400 499
#     4  11  23  45  79 115 150 215 265 340 396 507
#     4  12  27  47  77 114 156 209 278 324 416 480
#
# _framework density 25.676314999999999
#
# number of rings (size 3 to 8) (size 9 to 14) (size 15 to 20)
#    0.000    0.615    1.538    6.923    6.462    0.000 
#    5.538    0.000    0.000    0.000    0.000    0.000 
#    0.000    0.000    0.000    0.000    0.000    0.000 
#
# Total GULP energy -72434.925155 kJ/mol
# GULP energy per Si atom -5571.917320 kJ/mol
# Density = 2.561787 g / cm^3
# Si number density = 25.676315 Si / 1000 Ang^3
#
#
#
# Elastic Constant Matrix: (Units=GPa)
#
#
# Indices 1 2 3 4 5 6 
#
# 1 174.7634 15.0346 66.9565 0.0000 -6.1156 0.0000
# 2 15.0346 65.3014 35.1849 0.0000 -10.2663 0.0000
# 3 66.9565 35.1849 103.5356 0.0000 -10.8423 0.0000
# 4 0.0000 0.0000 0.0000 35.9644 0.0000 -22.0107
# 5 -6.1156 -10.2663 -10.8423 0.0000 64.2324 0.0000
# 6 0.0000 0.0000 0.0000 -22.0107 0.0000 3.2242
#
#
#
# Elastic Compliance Matrix: (Units=1/GPa)
#
#
# Indices 1 2 3 4 5 6 
#
# 1 0.007672 0.001111 -0.005338 0.000000 0.000007 0.000000
# 2 0.001111 0.019151 -0.007019 0.000000 0.001982 0.000000
# 3 -0.005338 -0.007019 0.015601 0.000000 0.001003 0.000000
# 4 0.000000 0.000000 0.000000 -0.008749 0.000000 -0.059728
# 5 0.000007 0.001982 0.001003 0.000000 0.016055 0.000000
# 6 0.000000 0.000000 0.000000 -0.059728 0.000000 -0.097592
#
#
# Mechanical properties :
#
#
# Convention : Reuss Voigt Hill
#
# Bulk Modulus (GPa) = 50.17159 64.21692 57.19426
# Shear Modulus (GPa) = -267.02725 35.77917 -115.62404
#
# Velocity S-wave (km/s) = -10.20898 3.73697 -6.71782
# Velocity P-wave (km/s) = 10.92620 6.60942 6.15213
#
# Compressibility (1/GPa) = 0.01993160
#
# Stress axis : x y z
#
# Youngs Moduli (GPa) = 130.34544 52.21539 64.09747
#
# Poissons Ratio (x) = -0.05801 0.34217
# Poissons Ratio (y) = -0.14482 0.44992
# Poissons Ratio (z) = 0.69582 0.36651
#
# Static dielectric constant tensor:
#      x y z
#    x 2.365240 0.000000 0.080100 
#    y 0.000000 2.085330 0.000000 
#    z 0.080100 0.000000 2.309170 
# 
# From -- ./inp_files/10184.got.cif
#   From: 2010.05.17/outbox.cif.g08.bks.cpg/sg5_6_cif.got.tgz:10184.got - 2010.06.03 18:56:24.
