data_PCOD9123076
_publ_section_title
;
Structure prediction by ZEFSAII (Michael W. Deem and Ramdas Pophale) SiO2 
 PCOD9123076
Probable space group: C 2
;
_chemical_formula_sum "Si O2"
_cell_formula_units_Z 16
_cell_length_a 8.765412
_cell_length_b 10.911327
_cell_length_c 9.297961
_cell_angle_alpha 90.000000
_cell_angle_beta 124.267195
_cell_angle_gamma 90.000000
_cell_volume 734.917975
_symmetry_space_group_name_H-M "C 2"
_symmetry_group_IT_number 5
_symmetry_cell_setting 'monoclinic'
loop_
_space_group_symop_operation_xyz
x,y,z
-x,y,-z
1/2+x,1/2+y,z
1/2-x,1/2+y,-z
loop_
_atom_site_type_symbol
_atom_site_label
_atom_site_fract_x
_atom_site_fract_y
_atom_site_fract_z
Si Si1 0.538724 0.936910 0.190000
Si Si2 0.319591 0.182139 0.804048
Si Si3 0.799374 0.440376 0.321817
Si Si4 0.456557 0.667516 0.806341
O O1 0.348572 0.946603 0.177620
O O2 0.623546 0.803779 0.268279
O O3 0.652572 0.060509 0.276283
O O4 0.500000 0.936486 0.000000
O O5 0.290235 0.307652 0.702197
O O6 0.143195 0.161419 0.812565
O O7 0.500000 0.197799 0.000000
O O8 0.674442 0.554170 0.297085
O O9 0.000000 0.444771 0.500000
O O10 0.500000 0.662535 0.000000
#
# Coordination Sequence:
#
# PCOD9123076 Si02
#       4
#     4   4   4   4
#     4   9  20  38  59  85 114 150 197 239 283 342
#     4  10  21  38  62  88 115 152 199 244 287 343
#     4  11  24  39  58  89 124 155 190 238 296 350
#     4  10  20  37  61  88 116 153 199 241 287 345
#
# _framework density 21.771137
#
# number of rings (size 3 to 8) (size 9 to 14) (size 15 to 20)
#    0.000    2.000    0.000    3.750    0.000   12.000 
#    0.000    1.250    0.000    0.000    0.000    0.000 
#    0.000    0.000    0.000    0.000    0.000    0.000 
#
# Total GULP energy -44679.486343 kJ/mol
# GULP energy per Si atom -5584.935793 kJ/mol
# Density = 2.172158 g / cm^3
# Si number density = 21.771137 Si / 1000 Ang^3
#
#
#
# Elastic Constant Matrix: (Units=GPa)
#
#
# Indices 1 2 3 4 5 6 
#
# 1 68.6846 76.7647 14.5078 0.0000 10.9700 0.0000
# 2 76.7647 281.9714 46.4718 0.0000 43.3380 0.0000
# 3 14.5078 46.4718 68.1162 0.0000 18.4678 0.0000
# 4 0.0000 0.0000 0.0000 -7.0258 0.0000 13.8995
# 5 10.9700 43.3380 18.4678 0.0000 33.3989 0.0000
# 6 0.0000 0.0000 0.0000 13.8995 0.0000 45.0015
#
#
#
# Elastic Compliance Matrix: (Units=1/GPa)
#
#
# Indices 1 2 3 4 5 6 
#
# 1 0.020976 -0.005728 -0.000832 0.000000 0.001002 0.000000
# 2 -0.005728 0.006172 -0.001564 0.000000 -0.005263 0.000000
# 3 -0.000832 -0.001564 0.017999 0.000000 -0.007650 0.000000
# 4 0.000000 0.000000 0.000000 -0.088348 0.000000 0.027288
# 5 0.001002 -0.005263 -0.007650 0.000000 0.040671 0.000000
# 6 0.000000 0.000000 0.000000 0.027288 0.000000 0.013793
#
#
# Mechanical properties :
#
#
# Convention : Reuss Voigt Hill
#
# Bulk Modulus (GPa) = 34.60135 77.14011 55.87073
# Shear Modulus (GPa) = 134.60628 33.01012 83.80820
#
# Velocity S-wave (km/s) = 7.87160 3.89811 6.21117
# Velocity P-wave (km/s) = 9.92692 7.46790 8.78389
#
# Compressibility (1/GPa) = 0.02890060
#
# Stress axis : x y z
#
# Youngs Moduli (GPa) = 47.67282 162.00903 55.55827
#
# Poissons Ratio (x) = 0.92792 0.04621
# Poissons Ratio (y) = 0.27305 0.08691
# Poissons Ratio (z) = 0.03965 0.25343
#
# Static dielectric constant tensor:
#      x y z
#    x 1.763670 0.000000 -0.043870 
#    y 0.000000 1.845280 0.000000 
#    z -0.043870 0.000000 1.820400 
# 
# From -- ./inp_files/13745.got.cif
#   From: 2010.05.17/outbox.cif.g08.bks.cpg/sg5_7_cif.got.tgz:13745.got - 2010.06.03 18:56:24.
