data_PCOD9123935
_publ_section_title
;
Structure prediction by ZEFSAII (Michael W. Deem and Ramdas Pophale) SiO2 
 PCOD9123935
Probable space group: C 2
;
_chemical_formula_sum "Si O2"
_cell_formula_units_Z 30
_cell_length_a 16.821110
_cell_length_b 5.408883
_cell_length_c 14.469613
_cell_angle_alpha 90.000000
_cell_angle_beta 90.526599
_cell_angle_gamma 90.000000
_cell_volume 1316.439214
_symmetry_space_group_name_H-M "C 2"
_symmetry_group_IT_number 5
_symmetry_cell_setting 'monoclinic'
loop_
_space_group_symop_operation_xyz
x,y,z
-x,y,-z
1/2+x,1/2+y,z
1/2-x,1/2+y,-z
loop_
_atom_site_type_symbol
_atom_site_label
_atom_site_fract_x
_atom_site_fract_y
_atom_site_fract_z
Si Si1 0.290590 0.000000 0.487085
Si Si2 0.579019 0.161662 0.364510
Si Si3 0.312287 0.959013 0.789346
Si Si4 0.301362 0.761116 0.988056
Si Si5 0.000000 0.302332 0.500000
Si Si6 0.804359 0.637218 0.302387
Si Si7 0.563458 0.525511 0.649368
Si Si8 0.145048 0.256821 0.820089
O O1 0.265830 0.739287 0.529615
O O2 0.354260 0.132239 0.555081
O O3 0.305451 0.927226 0.379799
O O4 0.524189 0.401693 0.352771
O O5 0.620346 0.096703 0.268044
O O6 0.519378 0.961148 0.409380
O O7 0.281276 0.736212 0.725164
O O8 0.230953 0.122066 0.801116
O O9 0.333763 0.848195 0.889175
O O10 0.365321 0.730248 0.070977
O O11 0.255299 0.496108 0.982720
O O12 0.068035 0.138130 0.545939
O O13 0.865787 0.829391 0.345078
O O14 0.841358 0.540199 0.207654
O O15 0.579137 0.666307 0.746447
#
# Coordination Sequence:
#
# PCOD9123935 Si02
#       8
#     4   4   4   4   2   4   4   4
#     4  12  26  39  62  96 134 173 224 291 346 403
#     4  12  25  43  65  96 141 189 243 292 357 435
#     4  10  22  39  67 104 131 177 233 304 352 423
#     4  10  20  40  70 109 139 175 228 298 376 427
#     4  12  26  44  62  88 134 194 240 286 348 440
#     4  11  21  40  62  93 131 175 233 288 350 420
#     4  11  25  41  65  93 132 193 235 282 358 436
#     4  10  21  40  70  99 137 172 235 296 366 427
#
# _framework density 22.788744999999999
#
# number of rings (size 3 to 8) (size 9 to 14) (size 15 to 20)
#    0.000    1.067    2.667    4.400    5.600    1.067 
#    0.000    0.000    0.000    4.800    0.000    0.000 
#    0.000    0.000    0.000    0.000    0.000    0.000 
#
# Total GULP energy -83590.073402 kJ/mol
# GULP energy per Si atom -5572.671560 kJ/mol
# Density = 2.273688 g / cm^3
# Si number density = 22.788745 Si / 1000 Ang^3
#
#
#
# Elastic Constant Matrix: (Units=GPa)
#
#
# Indices 1 2 3 4 5 6 
#
# 1 54.9088 5.4786 25.5945 0.0000 2.9473 0.0000
# 2 5.4786 57.1494 7.6409 0.0000 13.1117 0.0000
# 3 25.5945 7.6409 172.4212 0.0000 9.6657 0.0000
# 4 0.0000 0.0000 0.0000 38.4597 0.0000 13.2683
# 5 2.9473 13.1117 9.6657 0.0000 34.4615 0.0000
# 6 0.0000 0.0000 0.0000 13.2683 0.0000 27.8915
#
#
#
# Elastic Compliance Matrix: (Units=1/GPa)
#
#
# Indices 1 2 3 4 5 6 
#
# 1 0.019698 -0.001430 -0.002841 0.000000 -0.000344 0.000000
# 2 -0.001430 0.019309 -0.000242 0.000000 -0.007156 0.000000
# 3 -0.002841 -0.000242 0.006313 0.000000 -0.001435 0.000000
# 4 0.000000 0.000000 0.000000 0.031106 0.000000 -0.014798
# 5 -0.000344 -0.007156 -0.001435 0.000000 0.032173 0.000000
# 6 0.000000 0.000000 0.000000 -0.014798 0.000000 0.042893
#
#
# Mechanical properties :
#
#
# Convention : Reuss Voigt Hill
#
# Bulk Modulus (GPa) = 27.55331 40.21193 33.88262
# Shear Modulus (GPa) = 28.96617 36.54691 32.75654
#
# Velocity S-wave (km/s) = 3.56908 4.00900 3.79542
# Velocity P-wave (km/s) = 5.39458 6.25406 5.84015
#
# Compressibility (1/GPa) = 0.03629328
#
# Stress axis : x y z
#
# Youngs Moduli (GPa) = 50.76782 51.78843 158.41022
#
# Poissons Ratio (x) = 0.07403 0.45009
# Poissons Ratio (y) = 0.07257 0.03839
# Poissons Ratio (z) = 0.14425 0.01255
#
# Static dielectric constant tensor:
#      x y z
#    x 2.060620 0.000000 -0.086460 
#    y 0.000000 2.014910 0.000000 
#    z -0.086460 0.000000 1.876950 
# 
# From -- ./inp_files/55314.got.cif
#   From: 2010.05.17/outbox.cif.g08.bks.cpg/sg5_28_cif.got.tgz:55314.got - 2010.06.03 18:56:24.
