data_PCOD9123862
_publ_section_title
;
Structure prediction by ZEFSAII (Michael W. Deem and Ramdas Pophale) SiO2 
 PCOD9123862
Probable space group: C 2
;
_chemical_formula_sum "Si O2"
_cell_formula_units_Z 32
_cell_length_a 12.138345
_cell_length_b 15.586300
_cell_length_c 8.725768
_cell_angle_alpha 90.000000
_cell_angle_beta 92.073907
_cell_angle_gamma 90.000000
_cell_volume 1649.763171
_symmetry_space_group_name_H-M "C 2"
_symmetry_group_IT_number 5
_symmetry_cell_setting 'monoclinic'
loop_
_space_group_symop_operation_xyz
x,y,z
-x,y,-z
1/2+x,1/2+y,z
1/2-x,1/2+y,-z
loop_
_atom_site_type_symbol
_atom_site_label
_atom_site_fract_x
_atom_site_fract_y
_atom_site_fract_z
Si Si1 0.647015 0.565710 0.165248
Si Si2 0.999274 0.495025 0.677671
Si Si3 0.719647 0.225826 0.689747
Si Si4 0.237209 0.710684 0.324675
Si Si5 0.240893 0.419121 0.326779
Si Si6 0.608318 0.564836 0.799951
Si Si7 0.224262 0.405794 0.688309
Si Si8 0.999638 0.669610 0.178405
O O1 0.714074 0.648877 0.226260
O O2 0.523301 0.565356 0.227816
O O3 0.710373 0.478704 0.216133
O O4 0.634082 0.569927 0.981882
O O5 0.093784 0.423957 0.691149
O O6 0.000000 0.527237 0.500000
O O7 0.878113 0.461307 0.707707
O O8 0.031015 0.570692 0.793460
O O9 0.730945 0.212231 0.508380
O O10 0.760838 0.321284 0.729835
O O11 0.592596 0.221920 0.735195
O O12 0.332072 0.645374 0.277442
O O13 0.254167 0.807720 0.267087
O O14 0.120566 0.679966 0.253672
O O15 0.335138 0.478309 0.259936
O O16 0.256501 0.416717 0.511305
O O17 0.000000 0.691134 0.000000
#
# Coordination Sequence:
#
# PCOD9123862 Si02
#       8
#     4   4   4   4   4   4   4   4
#     4  11  25  43  62  91 130 168 207 256 316 378
#     4  10  20  40  66  93 122 157 206 267 312 366
#     4  11  24  42  66  95 124 164 214 262 310 372
#     4  11  24  42  66  95 124 164 214 262 310 372
#     4  10  23  41  66  94 123 162 212 261 310 369
#     4  11  25  43  62  91 130 168 207 256 316 378
#     4  10  23  41  66  94 123 162 212 261 310 369
#     4  12  24  40  64  93 126 167 206 257 320 374
#
# _framework density 19.396723000000001
#
# number of rings (size 3 to 8) (size 9 to 14) (size 15 to 20)
#    0.000    1.250    2.500    2.625    3.500    4.000 
#    0.000    0.000    0.000    0.000    0.000    0.000 
#    0.000    0.000    0.000    0.000    0.000    0.000 
#
# Total GULP energy -89429.706685 kJ/mol
# GULP energy per Si atom -5589.356668 kJ/mol
# Density = 1.935257 g / cm^3
# Si number density = 19.396723 Si / 1000 Ang^3
#
#
#
# Elastic Constant Matrix: (Units=GPa)
#
#
# Indices 1 2 3 4 5 6 
#
# 1 86.4181 15.6528 14.5340 0.0000 -14.5371 0.0000
# 2 15.6528 102.6423 20.2646 0.0000 -6.8528 0.0000
# 3 14.5340 20.2646 31.0144 0.0000 -9.9089 0.0000
# 4 0.0000 0.0000 0.0000 -130.8285 0.0000 -29.5873
# 5 -14.5371 -6.8528 -9.9089 0.0000 28.4299 0.0000
# 6 0.0000 0.0000 0.0000 -29.5873 0.0000 11.1372
#
#
#
# Elastic Compliance Matrix: (Units=1/GPa)
#
#
# Indices 1 2 3 4 5 6 
#
# 1 0.013275 -0.000892 -0.003981 0.000000 0.005185 0.000000
# 2 -0.000892 0.011246 -0.006988 0.000000 -0.000181 0.000000
# 3 -0.003981 -0.006988 0.042183 0.000000 0.010982 0.000000
# 4 0.000000 0.000000 0.000000 -0.004775 0.000000 -0.012685
# 5 0.005185 -0.000181 0.010982 0.000000 0.041610 0.000000
# 6 0.000000 0.000000 0.000000 -0.012685 0.000000 0.056090
#
#
# Mechanical properties :
#
#
# Convention : Reuss Voigt Hill
#
# Bulk Modulus (GPa) = 23.26570 35.66419 29.46494
# Shear Modulus (GPa) = 25.29347 -6.94404 9.17471
#
# Velocity S-wave (km/s) = 3.61502 -1.89414 2.17722
# Velocity P-wave (km/s) = 5.42634 3.69363 4.64156
#
# Compressibility (1/GPa) = 0.04298173
#
# Stress axis : x y z
#
# Youngs Moduli (GPa) = 75.32896 88.91934 23.70605
#
# Poissons Ratio (x) = 0.07933 0.09438
# Poissons Ratio (y) = 0.06721 0.16565
# Poissons Ratio (z) = 0.29991 0.62135
#
# Static dielectric constant tensor:
#      x y z
#    x 1.656980 0.000000 -0.026390 
#    y 0.000000 1.662960 0.000000 
#    z -0.026390 0.000000 1.695430 
# 
# From -- ./inp_files/20635.got.cif
#   From: 2010.05.17/outbox.cif.g08.bks.cpg/sg5_11_cif.got.tgz:20635.got - 2010.06.03 18:56:24.
