data_PCOD9123429
_publ_section_title
;
Structure prediction by ZEFSAII (Michael W. Deem and Ramdas Pophale) SiO2 
 PCOD9123429
Probable space group: C 2
;
_chemical_formula_sum "Si O2"
_cell_formula_units_Z 32
_cell_length_a 20.452498
_cell_length_b 11.327648
_cell_length_c 5.396806
_cell_angle_alpha 90.000000
_cell_angle_beta 70.915002
_cell_angle_gamma 90.000000
_cell_volume 1181.600320
_symmetry_space_group_name_H-M "C 2"
_symmetry_group_IT_number 5
_symmetry_cell_setting 'monoclinic'
loop_
_space_group_symop_operation_xyz
x,y,z
-x,y,-z
1/2+x,1/2+y,z
1/2-x,1/2+y,-z
loop_
_atom_site_type_symbol
_atom_site_label
_atom_site_fract_x
_atom_site_fract_y
_atom_site_fract_z
Si Si1 0.693671 0.050110 0.596430
Si Si2 0.684598 0.290462 0.836925
Si Si3 0.081277 0.871396 0.581322
Si Si4 0.032629 0.113995 0.744164
Si Si5 0.105832 0.181273 0.216971
Si Si6 0.598027 0.134513 0.324208
Si Si7 0.799995 0.982294 0.855273
Si Si8 0.569679 0.929399 0.055339
O O1 0.662190 0.062756 0.363589
O O2 0.755570 0.986519 0.661375
O O3 0.713412 0.188143 0.626775
O O4 0.626779 0.987369 0.807740
O O5 0.636724 0.211288 0.071910
O O6 0.731437 0.383782 0.922546
O O7 0.632387 0.368760 0.746354
O O8 0.065608 0.734217 0.545450
O O9 0.027185 0.971456 0.713961
O O10 0.125280 0.926257 0.303191
O O11 0.051099 0.137887 0.038929
O O12 0.000000 0.161225 0.500000
O O13 0.104833 0.157884 0.522687
O O14 0.176680 0.108968 0.064917
O O15 0.100575 0.319161 0.165864
O O16 0.550349 0.038420 0.255167
O O17 0.500000 0.888938 0.000000
#
# Coordination Sequence:
#
# PCOD9123429 Si02
#       8
#     4   4   4   4   4   4   4   4
#     4  10  23  41  66  96 130 180 229 278 342 405
#     4   9  19  39  64  90 131 166 218 278 330 408
#     4   9  19  39  67  96 132 171 214 280 346 401
#     4  10  20  38  64  95 132 171 217 275 339 406
#     4  10  23  40  64  98 137 175 222 285 333 403
#     4   9  21  44  62  95 132 172 225 278 331 402
#     4  10  21  39  64  99 130 172 225 283 341 402
#     4  11  25  45  68  96 137 189 232 277 341 411
#
# _framework density 27.081916
#
# number of rings (size 3 to 8) (size 9 to 14) (size 15 to 20)
#    0.000    2.250    0.000    1.125    1.750    6.500 
#    4.500   30.625    0.000    0.750    0.000    0.000 
#    0.000    0.000    0.000    0.000    0.000    0.000 
#
# Total GULP energy -89074.165397 kJ/mol
# GULP energy per Si atom -5567.135337 kJ/mol
# Density = 2.702028 g / cm^3
# Si number density = 27.081916 Si / 1000 Ang^3
#
#
#
# Elastic Constant Matrix: (Units=GPa)
#
#
# Indices 1 2 3 4 5 6 
#
# 1 88.2542 16.8014 16.1026 0.0000 17.3034 0.0000
# 2 16.8014 157.9935 19.5055 0.0000 -1.4069 0.0000
# 3 16.1026 19.5055 87.5987 0.0000 14.0264 0.0000
# 4 0.0000 0.0000 0.0000 39.7602 0.0000 20.4269
# 5 17.3034 -1.4069 14.0264 0.0000 23.7812 0.0000
# 6 0.0000 0.0000 0.0000 20.4269 0.0000 35.0349
#
#
#
# Elastic Compliance Matrix: (Units=1/GPa)
#
#
# Indices 1 2 3 4 5 6 
#
# 1 0.013609 -0.001454 -0.000639 0.000000 -0.009611 0.000000
# 2 -0.001454 0.006704 -0.001611 0.000000 0.002404 0.000000
# 3 -0.000639 -0.001611 0.013067 0.000000 -0.007337 0.000000
# 4 0.000000 0.000000 0.000000 0.035906 0.000000 -0.020935
# 5 -0.009611 0.002404 -0.007337 0.000000 0.053513 0.000000
# 6 0.000000 0.000000 0.000000 -0.020935 0.000000 0.040749
#
#
# Mechanical properties :
#
#
# Convention : Reuss Voigt Hill
#
# Bulk Modulus (GPa) = 38.50191 48.74060 43.62125
# Shear Modulus (GPa) = 27.83786 38.47772 33.15779
#
# Velocity S-wave (km/s) = 3.20959 3.77343 3.50287
# Velocity P-wave (km/s) = 5.28989 6.08453 5.70107
#
# Compressibility (1/GPa) = 0.02597273
#
# Stress axis : x y z
#
# Youngs Moduli (GPa) = 73.48281 149.15958 76.53099
#
# Poissons Ratio (x) = 0.21686 0.04890
# Poissons Ratio (y) = 0.10684 0.12326
# Poissons Ratio (z) = 0.04695 0.24023
#
# Static dielectric constant tensor:
#      x y z
#    x 1.826570 0.000000 0.133370 
#    y 0.000000 2.157290 0.000000 
#    z 0.133370 0.000000 2.274900 
# 
# From -- ./inp_files/10388.got.cif
#   From: 2010.05.17/outbox.cif.g08.bks.cpg/sg5_6_cif.got.tgz:10388.got - 2010.06.03 18:56:24.
