data_PCOD9123359
_publ_section_title
;
Structure prediction by ZEFSAII (Michael W. Deem and Ramdas Pophale) SiO2 
 PCOD9123359
Probable space group: C 2
;
_chemical_formula_sum "Si O2"
_cell_formula_units_Z 32
_cell_length_a 23.020144
_cell_length_b 7.653366
_cell_length_c 14.281704
_cell_angle_alpha 90.000000
_cell_angle_beta 148.965931
_cell_angle_gamma 90.000000
_cell_volume 1297.207271
_symmetry_space_group_name_H-M "C 2"
_symmetry_group_IT_number 5
_symmetry_cell_setting 'monoclinic'
loop_
_space_group_symop_operation_xyz
x,y,z
-x,y,-z
1/2+x,1/2+y,z
1/2-x,1/2+y,-z
loop_
_atom_site_type_symbol
_atom_site_label
_atom_site_fract_x
_atom_site_fract_y
_atom_site_fract_z
Si Si1 0.112412 0.099400 0.615082
Si Si2 0.759524 0.709479 0.419832
Si Si3 0.607870 0.081266 0.764323
Si Si4 0.871034 0.429310 0.466121
Si Si5 0.266149 0.865608 0.922214
Si Si6 0.516484 0.372946 0.312321
Si Si7 0.940908 0.198588 0.735618
Si Si8 0.093276 0.415857 0.071619
O O1 0.173125 0.261047 0.650314
O O2 0.000000 0.182944 0.500000
O O3 0.167084 0.006827 0.778471
O O4 0.076404 0.950309 0.489814
O O5 0.773375 0.559919 0.361132
O O6 0.887068 0.769183 0.611887
O O7 0.683818 0.646417 0.401302
O O8 0.690876 0.867771 0.278870
O O9 0.702339 0.178023 0.830158
O O10 0.583377 0.240909 0.803374
O O11 0.476141 0.030779 0.563010
O O12 0.662419 0.911077 0.887370
O O13 0.921422 0.350004 0.632527
O O14 0.338422 0.933086 0.931907
O O15 0.490360 0.545469 0.218592
O O16 0.010388 0.263180 0.919879
O O17 0.000000 0.532008 0.000000
#
# Coordination Sequence:
#
# PCOD9123359 Si02
#       8
#     4   4   4   4   4   4   4   4
#     4  11  23  41  62  88 129 162 209 265 320 377
#     4  10  20  38  62  93 121 170 212 259 324 370
#     4  11  26  40  65  93 129 169 216 264 324 382
#     4  10  23  41  61  96 124 167 217 263 322 375
#     4  12  25  44  63  97 129 171 214 265 325 390
#     4  10  21  40  60  91 124 161 212 263 318 376
#     4  10  20  38  64  88 129 164 212 264 312 387
#     4  10  22  39  62  89 126 167 207 260 316 372
#
# _framework density 24.668379000000002
#
# number of rings (size 3 to 8) (size 9 to 14) (size 15 to 20)
#    0.000    1.500    3.750    0.750    3.500    2.000 
#    0.000    1.250    0.000    0.000    0.000    0.000 
#    0.000    0.000    0.000    0.000    0.000    0.000 
#
# Total GULP energy -89169.181166 kJ/mol
# GULP energy per Si atom -5573.073823 kJ/mol
# Density = 2.461223 g / cm^3
# Si number density = 24.668379 Si / 1000 Ang^3
#
#
#
# Elastic Constant Matrix: (Units=GPa)
#
#
# Indices 1 2 3 4 5 6 
#
# 1 112.2737 23.5294 4.5527 0.0000 25.3874 0.0000
# 2 23.5294 60.3006 -6.8018 0.0000 7.0650 0.0000
# 3 4.5527 -6.8018 34.6724 0.0000 10.3613 0.0000
# 4 0.0000 0.0000 0.0000 11.2640 0.0000 -0.2184
# 5 25.3874 7.0650 10.3613 0.0000 38.7399 0.0000
# 6 0.0000 0.0000 0.0000 -0.2184 0.0000 37.7804
#
#
#
# Elastic Compliance Matrix: (Units=1/GPa)
#
#
# Indices 1 2 3 4 5 6 
#
# 1 0.011164 -0.003605 -0.000199 0.000000 -0.006605 0.000000
# 2 -0.003605 0.018818 0.004874 0.000000 -0.002373 0.000000
# 3 -0.000199 0.004874 0.032661 0.000000 -0.009494 0.000000
# 4 0.000000 0.000000 0.000000 0.088788 0.000000 0.000513
# 5 -0.006605 -0.002373 -0.009494 0.000000 0.033114 0.000000
# 6 0.000000 0.000000 0.000000 0.000513 0.000000 0.026472
#
#
# Mechanical properties :
#
#
# Convention : Reuss Voigt Hill
#
# Bulk Modulus (GPa) = 15.43611 27.75637 21.59624
# Shear Modulus (GPa) = 21.69476 29.95464 25.82470
#
# Velocity S-wave (km/s) = 2.96878 3.48845 3.23905
# Velocity P-wave (km/s) = 4.24530 5.24423 4.77098
#
# Compressibility (1/GPa) = 0.06478316
#
# Stress axis : x y z
#
# Youngs Moduli (GPa) = 89.57402 53.14063 30.61777
#
# Poissons Ratio (x) = 0.19156 0.00610
# Poissons Ratio (y) = 0.32289 -0.14923
# Poissons Ratio (z) = 0.01784 -0.25901
#
# Static dielectric constant tensor:
#      x y z
#    x 2.164860 0.000000 0.073110 
#    y 0.000000 1.937340 0.000000 
#    z 0.073110 0.000000 2.082820 
# 
# From -- ./inp_files/57702.got.cif
#   From: 2010.05.17/outbox.cif.g08.bks.cpg/sg5_29_cif.got.tgz:57702.got - 2010.06.03 18:56:24.
