data_PCOD9123412
_publ_section_title
;
Structure prediction by ZEFSAII (Michael W. Deem and Ramdas Pophale) SiO2 
 PCOD9123412
Probable space group: C 2
;
_chemical_formula_sum "Si O2"
_cell_formula_units_Z 18
_cell_length_a 10.539541
_cell_length_b 9.704611
_cell_length_c 7.614215
_cell_angle_alpha 90.000000
_cell_angle_beta 113.709814
_cell_angle_gamma 90.000000
_cell_volume 713.062793
_symmetry_space_group_name_H-M "C 2"
_symmetry_group_IT_number 5
_symmetry_cell_setting 'monoclinic'
loop_
_space_group_symop_operation_xyz
x,y,z
-x,y,-z
1/2+x,1/2+y,z
1/2-x,1/2+y,-z
loop_
_atom_site_type_symbol
_atom_site_label
_atom_site_fract_x
_atom_site_fract_y
_atom_site_fract_z
Si Si1 0.708281 0.474630 0.560506
Si Si2 0.198364 0.940580 0.948728
Si Si3 0.001631 0.166206 0.769202
Si Si4 0.269679 0.246931 0.718597
Si Si5 0.500000 0.910145 0.000000
O O1 0.655371 0.417481 0.720211
O O2 0.606085 0.567231 0.383586
O O3 0.733431 0.350844 0.443163
O O4 0.819408 0.594539 0.682899
O O5 0.364807 0.968829 0.026688
O O6 0.109891 0.075402 0.948225
O O7 0.167988 0.821432 0.073173
O O8 0.112741 0.222452 0.692140
O O9 0.937610 0.299343 0.826145
#
# Coordination Sequence:
#
# PCOD9123412 Si02
#       5
#     4   4   4   4   2
#     4  11  22  41  69  95 130 177 219 268 329 390
#     4  10  21  37  61  95 125 162 213 262 317 379
#     4  10  21  41  67  93 129 173 215 265 325 386
#     4  10  22  38  64  99 129 168 219 265 323 390
#     4  10  20  38  64  90 128 170 208 262 322 382
#
# _framework density 25.243217000000001
#
# number of rings (size 3 to 8) (size 9 to 14) (size 15 to 20)
#    0.000    1.778    0.000    5.333    0.000    5.333 
#    0.000   13.333    0.000   48.000    0.000    0.000 
#    0.000    0.000    0.000    0.000    0.000    0.000 
#
# Total GULP energy -50125.377397 kJ/mol
# GULP energy per Si atom -5569.486377 kJ/mol
# Density = 2.518576 g / cm^3
# Si number density = 25.243217 Si / 1000 Ang^3
#
#
#
# Elastic Constant Matrix: (Units=GPa)
#
#
# Indices 1 2 3 4 5 6 
#
# 1 75.2738 18.3935 -7.9812 0.0000 -8.1235 0.0000
# 2 18.3935 147.6635 46.0984 0.0000 -39.5778 0.0000
# 3 -7.9812 46.0984 124.2503 0.0000 -22.3659 0.0000
# 4 0.0000 0.0000 0.0000 51.8287 0.0000 -18.1730
# 5 -8.1235 -39.5778 -22.3659 0.0000 42.7888 0.0000
# 6 0.0000 0.0000 0.0000 -18.1730 0.0000 48.9454
#
#
#
# Elastic Compliance Matrix: (Units=1/GPa)
#
#
# Indices 1 2 3 4 5 6 
#
# 1 0.014157 -0.001833 0.001952 0.000000 0.002012 0.000000
# 2 -0.001833 0.009732 -0.002396 0.000000 0.007401 0.000000
# 3 0.001952 -0.002396 0.009637 0.000000 0.003191 0.000000
# 4 0.000000 0.000000 0.000000 0.022182 0.000000 0.008236
# 5 0.002012 0.007401 0.003191 0.000000 0.032267 0.000000
# 6 0.000000 0.000000 0.000000 0.008236 0.000000 0.023489
#
#
# Mechanical properties :
#
#
# Convention : Reuss Voigt Hill
#
# Bulk Modulus (GPa) = 34.51781 51.13432 42.82606
# Shear Modulus (GPa) = 39.78446 48.09105 43.93775
#
# Velocity S-wave (km/s) = 3.97425 4.36949 4.17655
# Velocity P-wave (km/s) = 5.89604 6.76441 6.34510
#
# Compressibility (1/GPa) = 0.02897056
#
# Stress axis : x y z
#
# Youngs Moduli (GPa) = 70.63671 102.74952 103.76465
#
# Poissons Ratio (x) = 0.18839 -0.20253
# Poissons Ratio (y) = 0.12951 0.24865
# Poissons Ratio (z) = -0.13787 0.24622
#
# Static dielectric constant tensor:
#      x y z
#    x 1.996050 0.000000 0.033550 
#    y 0.000000 2.065390 0.000000 
#    z 0.033550 0.000000 2.190440 
# 
# From -- ./inp_files/18411.got.cif
#   From: 2010.05.17/outbox.cif.g08.bks.cpg/sg5_10_cif.got.tgz:18411.got - 2010.06.03 18:56:24.
