data_PCOD9123656
_publ_section_title
;
Structure prediction by ZEFSAII (Michael W. Deem and Ramdas Pophale) SiO2 
 PCOD9123656
Probable space group: C 2
;
_chemical_formula_sum "Si O2"
_cell_formula_units_Z 32
_cell_length_a 11.283402
_cell_length_b 16.020802
_cell_length_c 14.247130
_cell_angle_alpha 90.000000
_cell_angle_beta 149.462210
_cell_angle_gamma 90.000000
_cell_volume 1308.598727
_symmetry_space_group_name_H-M "C 2"
_symmetry_group_IT_number 5
_symmetry_cell_setting 'monoclinic'
loop_
_space_group_symop_operation_xyz
x,y,z
-x,y,-z
1/2+x,1/2+y,z
1/2-x,1/2+y,-z
loop_
_atom_site_type_symbol
_atom_site_label
_atom_site_fract_x
_atom_site_fract_y
_atom_site_fract_z
Si Si1 0.390398 0.546100 0.519614
Si Si2 0.720944 0.116474 0.089131
Si Si3 0.056216 0.275959 0.284136
Si Si4 0.865450 0.022990 0.025922
Si Si5 0.584010 0.345504 0.949769
Si Si6 0.812469 0.179780 0.793631
Si Si7 0.228074 0.240191 0.596437
Si Si8 0.024637 0.534989 0.627799
O O1 0.500000 0.506105 0.500000
O O2 0.614096 0.557850 0.737433
O O3 0.298038 0.639936 0.429033
O O4 0.193361 0.511134 0.455457
O O5 0.875647 0.198772 0.179254
O O6 0.500000 0.137970 0.000000
O O7 0.671972 0.063386 0.962273
O O8 0.202570 0.250521 0.293634
O O9 0.204541 0.282128 0.478763
O O10 0.865123 0.346060 0.135595
O O11 0.746415 0.007819 0.843258
O O12 0.054212 0.097692 0.156967
O O13 0.978980 0.936487 0.132985
O O14 0.457923 0.273327 0.804452
O O15 0.500000 0.337592 0.000000
O O16 0.571309 0.136766 0.660365
O O17 0.000000 0.207209 0.000000
O O18 0.000000 0.267957 0.500000
O O19 0.000000 0.511643 0.500000
#
# Coordination Sequence:
#
# PCOD9123656 Si02
#       8
#     4   4   4   4   4   4   4   4
#     4  10  22  36  63 101 122 156 215 273 324 370
#     4  10  20  39  66  89 124 166 212 269 322 381
#     4  10  21  38  60  95 121 162 212 266 321 376
#     4  10  23  40  57  92 128 172 211 257 324 386
#     4  12  23  38  60  88 129 172 210 262 326 384
#     4   9  20  39  61  86 126 163 211 256 319 377
#     4  10  21  37  56  89 126 156 206 263 320 377
#     4  11  20  37  62  95 128 164 207 270 317 381
#
# _framework density 24.453638999999999
#
# number of rings (size 3 to 8) (size 9 to 14) (size 15 to 20)
#    0.000    1.750    1.250    4.500    8.750    0.000 
#    6.750    0.625    0.000    0.000    0.000    0.000 
#    0.000    0.000    0.000    0.000    0.000    0.000 
#
# Total GULP energy -89355.816829 kJ/mol
# GULP energy per Si atom -5584.738552 kJ/mol
# Density = 2.439798 g / cm^3
# Si number density = 24.453639 Si / 1000 Ang^3
#
#
#
# Elastic Constant Matrix: (Units=GPa)
#
#
# Indices 1 2 3 4 5 6 
#
# 1 115.8736 17.5022 19.6128 -0.0035 -3.0087 -0.0009
# 2 17.5022 38.7616 10.1855 -0.0058 -15.4004 -0.0015
# 3 19.6128 10.1855 97.3228 -0.0087 -13.6349 -0.0020
# 4 -0.0035 -0.0058 -0.0087 18.9740 -0.0012 3.5143
# 5 -3.0087 -15.4004 -13.6349 -0.0012 41.8312 0.0000
# 6 -0.0009 -0.0015 -0.0020 3.5143 0.0000 15.7427
#
#
#
# Elastic Compliance Matrix: (Units=1/GPa)
#
#
# Indices 1 2 3 4 5 6 
#
# 1 0.009548 -0.004470 -0.001667 0.000000 -0.001502 0.000000
# 2 -0.004470 0.032576 -0.000915 0.000009 0.011373 0.000001
# 3 -0.001667 -0.000915 0.011152 0.000005 0.003178 0.000000
# 4 0.000000 0.000009 0.000005 0.054977 0.000006 -0.012273
# 5 -0.001502 0.011373 0.003178 0.000006 0.029021 0.000000
# 6 0.000000 0.000001 0.000000 -0.012273 0.000000 0.066261
#
#
# Mechanical properties :
#
#
# Convention : Reuss Voigt Hill
#
# Bulk Modulus (GPa) = 25.52817 38.50658 32.01738
# Shear Modulus (GPa) = 21.67343 28.95344 25.31343
#
# Velocity S-wave (km/s) = 2.98032 3.44468 3.22088
# Velocity P-wave (km/s) = 4.72283 5.62157 5.19169
#
# Compressibility (1/GPa) = 0.03917241
#
# Stress axis : x y z
#
# Youngs Moduli (GPa) = 104.72915 30.69703 89.66980
#
# Poissons Ratio (x) = 0.13723 0.14947
# Poissons Ratio (y) = 0.46817 0.08205
# Poissons Ratio (z) = 0.17457 0.02809
#
# Static dielectric constant tensor:
#      x y z
#    x 2.083970 0.000000 0.019270 
#    y 0.000000 1.984020 0.000000 
#    z 0.019270 0.000000 2.037430 
# 
# From -- ./inp_files/53472.got.cif
#   From: 2010.05.17/outbox.cif.g08.bks.cpg/sg5_27_cif.got.tgz:53472.got - 2010.06.03 18:56:24.
