data_PCOD9123598
_publ_section_title
;
Structure prediction by ZEFSAII (Michael W. Deem and Ramdas Pophale) SiO2 
 PCOD9123598
Probable space group: C 2
;
_chemical_formula_sum "Si O2"
_cell_formula_units_Z 28
_cell_length_a 21.502049
_cell_length_b 8.177409
_cell_length_c 23.834711
_cell_angle_alpha 90.000000
_cell_angle_beta 18.545144
_cell_angle_gamma 90.000000
_cell_volume 1332.917442
_symmetry_space_group_name_H-M "C 2"
_symmetry_group_IT_number 5
_symmetry_cell_setting 'monoclinic'
loop_
_space_group_symop_operation_xyz
x,y,z
-x,y,-z
1/2+x,1/2+y,z
1/2-x,1/2+y,-z
loop_
_atom_site_type_symbol
_atom_site_label
_atom_site_fract_x
_atom_site_fract_y
_atom_site_fract_z
Si Si1 0.634708 0.447920 0.432115
Si Si2 0.309771 0.425650 0.416308
Si Si3 0.738364 0.451985 0.036528
Si Si4 0.342663 0.226932 0.183665
Si Si5 0.167728 0.801911 0.986339
Si Si6 0.866995 0.287909 0.323777
Si Si7 0.012844 0.263235 0.382725
O O1 0.500000 0.372674 0.500000
O O2 0.775913 0.566108 0.274851
O O3 0.726477 0.312973 0.392090
O O4 0.529361 0.575482 0.564586
O O5 0.536636 0.376527 0.233756
O O6 0.188953 0.408246 0.577010
O O7 0.340850 0.612475 0.372983
O O8 0.190894 0.337939 0.467089
O O9 0.809136 0.625218 0.001648
O O10 0.690997 0.447157 0.010616
O O11 0.922583 0.332416 0.880560
O O12 0.151006 0.309490 0.318778
O O13 0.500000 0.188276 0.000000
O O14 0.467999 0.323138 0.122637
O O15 0.342415 0.793066 0.792579
#
# Coordination Sequence:
#
# PCOD9123598 Si02
#       7
#     4   4   4   4   4   4   4
#     4  10  20  39  63  89 126 168 216 262 316 384
#     4  12  25  40  65  96 132 168 214 269 324 381
#     4  12  23  38  61  92 129 168 205 267 315 377
#     4   9  19  35  64  88 121 164 215 264 304 385
#     4  11  21  39  61  95 128 166 215 261 321 380
#     4  12  25  41  63  96 130 169 213 269 322 382
#     4  10  21  40  62  95 123 167 218 263 322 377
#
# _framework density 21.006551999999999
#
# number of rings (size 3 to 8) (size 9 to 14) (size 15 to 20)
#    0.000    1.143    4.286    2.571    2.000    0.000 
#    0.000    3.571    0.000    0.000    0.000    4.000 
#    0.000    0.000    0.000    0.000    0.000    0.000 
#
# Total GULP energy -78000.565101 kJ/mol
# GULP energy per Si atom -5571.468936 kJ/mol
# Density = 2.095874 g / cm^3
# Si number density = 21.006552 Si / 1000 Ang^3
#
#
#
# Elastic Constant Matrix: (Units=GPa)
#
#
# Indices 1 2 3 4 5 6 
#
# 1 112.7457 15.4612 29.9476 -0.0031 -24.7792 0.0004
# 2 15.4612 39.0591 9.3108 -0.0099 -10.4622 0.0019
# 3 29.9476 9.3108 82.5431 -0.0106 -13.8090 0.0020
# 4 -0.0031 -0.0099 -0.0106 14.2922 0.0040 -8.6718
# 5 -24.7792 -10.4622 -13.8090 0.0040 47.9417 0.0003
# 6 0.0004 0.0019 0.0020 -8.6718 0.0003 34.5115
#
#
#
# Elastic Compliance Matrix: (Units=1/GPa)
#
#
# Indices 1 2 3 4 5 6 
#
# 1 0.010935 -0.002480 -0.002976 -0.000003 0.004253 -0.000001
# 2 -0.002480 0.028132 -0.001535 0.000018 0.004415 0.000003
# 3 -0.002976 -0.001535 0.013715 0.000009 0.002077 0.000002
# 4 -0.000003 0.000018 0.000009 0.082555 -0.000002 0.020744
# 5 0.004253 0.004415 0.002077 -0.000002 0.024619 -0.000001
# 6 -0.000001 0.000003 0.000002 0.020744 -0.000001 0.034188
#
#
# Mechanical properties :
#
#
# Convention : Reuss Voigt Hill
#
# Bulk Modulus (GPa) = 25.77239 38.19857 31.98548
# Shear Modulus (GPa) = 22.61834 31.32430 26.97132
#
# Velocity S-wave (km/s) = 3.28491 3.86575 3.58711
# Velocity P-wave (km/s) = 5.16555 6.17649 5.69350
#
# Compressibility (1/GPa) = 0.03880121
#
# Stress axis : x y z
#
# Youngs Moduli (GPa) = 91.45034 35.54616 72.91133
#
# Poissons Ratio (x) = 0.08815 0.21699
# Poissons Ratio (y) = 0.22677 0.11191
# Poissons Ratio (z) = 0.27216 0.05456
#
# Static dielectric constant tensor:
#      x y z
#    x 1.783650 0.000000 -0.043360 
#    y 0.000000 1.729200 0.000000 
#    z -0.043360 0.000000 1.872360 
# 
# From -- ./inp_files/69421.got.cif
#   From: 2010.05.17/outbox.cif.g08.bks.cpg/sg5_35_cif.got.tgz:69421.got - 2010.06.03 18:56:24.
