data_PCOD9123184
_publ_section_title
;
Structure prediction by ZEFSAII (Michael W. Deem and Ramdas Pophale) SiO2 
 PCOD9123184
Probable space group: C 2
;
_chemical_formula_sum "Si O2"
_cell_formula_units_Z 28
_cell_length_a 8.036599
_cell_length_b 13.292946
_cell_length_c 11.876830
_cell_angle_alpha 90.000000
_cell_angle_beta 106.970240
_cell_angle_gamma 90.000000
_cell_volume 1213.554534
_symmetry_space_group_name_H-M "C 2"
_symmetry_group_IT_number 5
_symmetry_cell_setting 'monoclinic'
loop_
_space_group_symop_operation_xyz
x,y,z
-x,y,-z
1/2+x,1/2+y,z
1/2-x,1/2+y,-z
loop_
_atom_site_type_symbol
_atom_site_label
_atom_site_fract_x
_atom_site_fract_y
_atom_site_fract_z
Si Si1 0.000000 0.649040 0.000000
Si Si2 0.961235 0.180410 0.671472
Si Si3 0.288041 0.174218 0.575203
Si Si4 0.500000 0.000041 0.500000
Si Si5 0.014307 0.793703 0.785598
Si Si6 0.269287 0.479146 0.727977
Si Si7 0.805349 0.067561 0.953381
Si Si8 0.102015 0.289173 0.123207
O O1 0.996343 0.719664 0.889060
O O2 0.176695 0.583163 0.031606
O O3 0.815962 0.218503 0.553208
O O4 0.992251 0.258368 0.779833
O O5 0.138620 0.160246 0.639553
O O6 0.877199 0.076251 0.702799
O O7 0.375966 0.071701 0.550075
O O8 0.444101 0.237463 0.660611
O O9 0.625466 0.944616 0.610698
O O10 0.210636 0.833394 0.812435
O O11 0.893677 0.888287 0.777080
O O12 0.196410 0.514264 0.833603
O O13 0.845043 0.180078 0.917778
O O14 0.000000 0.021722 0.000000
O O15 0.000000 0.339979 0.000000
#
# Coordination Sequence:
#
# PCOD9123184 Si02
#       8
#     2   4   4   2   4   4   4   4
#     4  10  22  38  64  94 122 168 230 252 320 396
#     4   9  20  39  64  91 122 168 219 251 307 394
#     4  10  20  37  65  93 120 166 217 256 307 387
#     4  10  20  42  64  86 126 172 214 252 312 394
#     4  11  23  36  63  94 125 163 205 276 323 365
#     4  10  22  40  61  89 130 161 205 270 323 367
#     4   9  19  37  66  87 121 170 209 256 311 390
#     4   9  19  38  62  89 122 167 211 257 310 389
#
# _framework density 23.072716
#
# number of rings (size 3 to 8) (size 9 to 14) (size 15 to 20)
#    0.000    2.286    0.000    3.429    9.000    1.143 
#    0.000   10.000    3.143    0.000    0.000    0.000 
#    0.000    0.000    0.000    0.000    0.000    0.000 
#
# Total GULP energy -78164.315546 kJ/mol
# GULP energy per Si atom -5583.165396 kJ/mol
# Density = 2.302020 g / cm^3
# Si number density = 23.072716 Si / 1000 Ang^3
#
#
#
# Elastic Constant Matrix: (Units=GPa)
#
#
# Indices 1 2 3 4 5 6 
#
# 1 136.6151 12.9254 65.7410 0.0000 -1.5038 0.0000
# 2 12.9254 30.3890 28.1151 0.0000 6.6564 0.0000
# 3 65.7410 28.1151 115.0788 0.0000 9.7479 0.0000
# 4 0.0000 0.0000 0.0000 4.6338 0.0000 3.7994
# 5 -1.5038 6.6564 9.7479 0.0000 43.7786 0.0000
# 6 0.0000 0.0000 0.0000 3.7994 0.0000 15.1480
#
#
#
# Elastic Compliance Matrix: (Units=1/GPa)
#
#
# Indices 1 2 3 4 5 6 
#
# 1 0.010242 0.001079 -0.006248 0.000000 0.001579 0.000000
# 2 0.001079 0.043414 -0.010872 0.000000 -0.004143 0.000000
# 3 -0.006248 -0.010872 0.015078 0.000000 -0.001919 0.000000
# 4 0.000000 0.000000 0.000000 0.271680 0.000000 -0.068142
# 5 0.001579 -0.004143 -0.001919 0.000000 0.023954 0.000000
# 6 0.000000 0.000000 0.000000 -0.068142 0.000000 0.083107
#
#
# Mechanical properties :
#
#
# Convention : Reuss Voigt Hill
#
# Bulk Modulus (GPa) = 27.28459 55.07174 41.17817
# Shear Modulus (GPa) = 10.16730 24.39884 17.28307
#
# Velocity S-wave (km/s) = 2.10148 3.25541 2.73988
# Velocity P-wave (km/s) = 4.21182 6.16854 5.28159
#
# Compressibility (1/GPa) = 0.03665072
#
# Stress axis : x y z
#
# Youngs Moduli (GPa) = 97.63866 23.03425 66.32334
#
# Poissons Ratio (x) = -0.02484 0.41440
# Poissons Ratio (y) = -0.10531 0.72104
# Poissons Ratio (z) = 0.61006 0.25042
#
# Static dielectric constant tensor:
#      x y z
#    x 1.920900 0.000000 0.051430 
#    y 0.000000 1.852120 0.000000 
#    z 0.051430 0.000000 1.978440 
# 
# From -- ./inp_files/36221.got.cif
#   From: 2010.05.17/outbox.cif.g08.bks.cpg/sg5_19_cif.got.tgz:36221.got - 2010.06.03 18:56:24.
