data_PCOD9123187
_publ_section_title
;
Structure prediction by ZEFSAII (Michael W. Deem and Ramdas Pophale) SiO2 
 PCOD9123187
Probable space group: C 2
;
_chemical_formula_sum "Si O2"
_cell_formula_units_Z 32
_cell_length_a 8.256557
_cell_length_b 22.462484
_cell_length_c 14.101667
_cell_angle_alpha 90.000000
_cell_angle_beta 146.678958
_cell_angle_gamma 90.000000
_cell_volume 1436.680924
_symmetry_space_group_name_H-M "C 2"
_symmetry_group_IT_number 5
_symmetry_cell_setting 'monoclinic'
loop_
_space_group_symop_operation_xyz
x,y,z
-x,y,-z
1/2+x,1/2+y,z
1/2-x,1/2+y,-z
loop_
_atom_site_type_symbol
_atom_site_label
_atom_site_fract_x
_atom_site_fract_y
_atom_site_fract_z
Si Si1 0.810002 0.722500 0.001743
Si Si2 0.121704 0.917703 0.663587
Si Si3 0.704112 0.617089 0.458964
Si Si4 0.894449 0.731540 0.360301
Si Si5 0.950677 0.609388 0.780247
Si Si6 0.326997 0.500090 0.656306
Si Si7 0.852799 0.487286 0.032262
Si Si8 0.853099 0.815591 0.172841
O O1 0.910905 0.785950 0.098039
O O2 0.862745 0.667667 0.100526
O O3 0.458142 0.722286 0.809645
O O4 0.000000 0.711725 0.000000
O O5 0.055233 0.873631 0.720383
O O6 0.000000 0.903988 0.500000
O O7 0.973835 0.978433 0.629866
O O8 0.471458 0.933661 0.831655
O O9 0.894048 0.595449 0.642285
O O10 0.369759 0.623122 0.331101
O O11 0.687353 0.571430 0.363370
O O12 0.871327 0.677894 0.518854
O O13 0.955368 0.763589 0.292237
O O14 0.000000 0.771614 0.500000
O O15 0.091688 0.550210 0.892223
O O16 0.000000 0.475953 0.500000
O O17 0.512324 0.480653 0.838501
O O18 0.000000 0.490773 0.000000
O O19 0.500000 0.820715 0.000000
#
# Coordination Sequence:
#
# PCOD9123187 Si02
#       8
#     4   4   4   4   4   4   4   4
#     4  11  24  41  65  96 138 178 228 280 350 412
#     4  11  22  45  75  96 127 185 239 287 340 417
#     4  11  22  37  60  90 139 176 222 274 340 413
#     4  11  23  40  61  95 132 181 224 277 338 407
#     4  11  21  37  60  96 131 179 222 282 334 419
#     4  11  24  40  60 102 137 177 226 292 344 404
#     4  10  20  37  65  95 131 177 228 273 344 402
#     4  10  22  44  68  97 129 175 235 287 339 406
#
# _framework density 22.273558999999999
#
# number of rings (size 3 to 8) (size 9 to 14) (size 15 to 20)
#    0.000    1.250    3.750    3.750    3.500    0.000 
#    0.000    6.875    0.000    0.000    0.000    0.000 
#    0.000    0.000    0.000    0.000    0.000    0.000 
#
# Total GULP energy -89176.824338 kJ/mol
# GULP energy per Si atom -5573.551521 kJ/mol
# Density = 2.222286 g / cm^3
# Si number density = 22.273559 Si / 1000 Ang^3
#
#
#
# Elastic Constant Matrix: (Units=GPa)
#
#
# Indices 1 2 3 4 5 6 
#
# 1 20.9244 5.7687 23.4817 0.0000 -7.6288 0.0000
# 2 5.7687 96.1307 42.8715 0.0000 -10.7051 0.0000
# 3 23.4817 42.8715 169.9928 -0.0001 -14.9084 0.0000
# 4 0.0000 0.0000 -0.0001 21.3509 0.0000 -8.3519
# 5 -7.6288 -10.7051 -14.9084 0.0000 34.2527 0.0000
# 6 0.0000 0.0000 0.0000 -8.3519 0.0000 19.5938
#
#
#
# Elastic Compliance Matrix: (Units=1/GPa)
#
#
# Indices 1 2 3 4 5 6 
#
# 1 0.059815 0.000947 -0.007597 0.000000 0.010311 0.000000
# 2 0.000947 0.011940 -0.002907 0.000000 0.002677 0.000000
# 3 -0.007597 -0.002907 0.007732 0.000000 0.000765 0.000000
# 4 0.000000 0.000000 0.000000 0.056209 0.000000 0.023959
# 5 0.010311 0.002677 0.000765 0.000000 0.032661 0.000000
# 6 0.000000 0.000000 0.000000 0.023959 0.000000 0.061249
#
#
# Mechanical properties :
#
#
# Convention : Reuss Voigt Hill
#
# Bulk Modulus (GPa) = 16.56379 47.92130 32.24255
# Shear Modulus (GPa) = 18.59806 29.36787 23.98297
#
# Velocity S-wave (km/s) = 2.89274 3.63507 3.28494
# Velocity P-wave (km/s) = 4.31393 6.25938 5.37540
#
# Compressibility (1/GPa) = 0.06037266
#
# Stress axis : x y z
#
# Youngs Moduli (GPa) = 16.71829 83.74928 129.32811
#
# Poissons Ratio (x) = -0.07930 0.98249
# Poissons Ratio (y) = -0.01583 0.37600
# Poissons Ratio (z) = 0.12701 0.24349
#
# Static dielectric constant tensor:
#      x y z
#    x 1.878370 0.000000 -0.025540 
#    y 0.000000 1.894230 0.000000 
#    z -0.025540 0.000000 1.914650 
# 
# From -- ./inp_files/51712.got.cif
#   From: 2010.05.17/outbox.cif.g08.bks.cpg/sg5_26_cif.got.tgz:51712.got - 2010.06.03 18:56:24.
