data_PCOD9123445
_publ_section_title
;
Structure prediction by ZEFSAII (Michael W. Deem and Ramdas Pophale) SiO2 
 PCOD9123445
Probable space group: C 2
;
_chemical_formula_sum "Si O2"
_cell_formula_units_Z 28
_cell_length_a 13.747379
_cell_length_b 13.555592
_cell_length_c 7.519294
_cell_angle_alpha 90.000000
_cell_angle_beta 73.572363
_cell_angle_gamma 90.000000
_cell_volume 1344.047204
_symmetry_space_group_name_H-M "C 2"
_symmetry_group_IT_number 5
_symmetry_cell_setting 'monoclinic'
loop_
_space_group_symop_operation_xyz
x,y,z
-x,y,-z
1/2+x,1/2+y,z
1/2-x,1/2+y,-z
loop_
_atom_site_type_symbol
_atom_site_label
_atom_site_fract_x
_atom_site_fract_y
_atom_site_fract_z
Si Si1 0.077830 0.545500 0.796797
Si Si2 0.802956 0.296506 0.822199
Si Si3 0.988077 0.955583 0.790679
Si Si4 0.755107 0.923435 0.811043
Si Si5 0.006539 0.174564 0.210599
Si Si6 0.920725 0.759900 0.205576
Si Si7 0.624702 0.855862 0.582366
O O1 0.190403 0.523569 0.817665
O O2 0.071764 0.652397 0.710065
O O3 0.062781 0.451612 0.678138
O O4 0.000000 0.540259 0.000000
O O5 0.877966 0.204366 0.806502
O O6 0.690186 0.269102 0.821020
O O7 0.849673 0.358158 0.636057
O O8 0.795472 0.360717 0.003985
O O9 0.871598 0.939874 0.795964
O O10 0.050979 0.858890 0.702382
O O11 0.020912 0.064347 0.712407
O O12 0.000000 0.959745 0.000000
O O13 0.727952 0.863593 0.645478
O O14 0.934706 0.257005 0.334212
O O15 0.000000 0.180235 0.000000
O O16 0.000000 0.756373 0.000000
#
# Coordination Sequence:
#
# PCOD9123445 Si02
#       7
#     4   4   4   4   4   4   4
#     4   9  19  38  66  89 127 168 206 265 316 376
#     4  12  21  39  67  93 132 165 206 273 316 377
#     4  10  20  38  65  93 127 172 213 254 315 386
#     4  10  20  40  64  93 125 167 211 256 320 374
#     4  11  21  38  65  97 129 165 214 262 319 380
#     4  10  20  39  64  93 128 171 212 250 324 380
#     4  10  23  40  62 100 126 161 219 260 319 378
#
# _framework density 20.832602000000001
#
# number of rings (size 3 to 8) (size 9 to 14) (size 15 to 20)
#    0.857    0.857    4.286    2.571    0.000    0.000 
#    2.571    2.143    0.000    3.429    0.000    0.000 
#    0.000    0.000    0.000    0.000    0.000    0.000 
#
# Total GULP energy -78085.056463 kJ/mol
# GULP energy per Si atom -5577.504033 kJ/mol
# Density = 2.078519 g / cm^3
# Si number density = 20.832602 Si / 1000 Ang^3
#
#
#
# Elastic Constant Matrix: (Units=GPa)
#
#
# Indices 1 2 3 4 5 6 
#
# 1 144.8812 38.1470 6.0273 0.0000 -8.5041 0.0000
# 2 38.1470 186.6882 14.6095 0.0000 -7.2707 0.0000
# 3 6.0273 14.6095 44.8560 0.0000 11.6885 0.0000
# 4 0.0000 0.0000 0.0000 -8.3212 0.0000 -5.0546
# 5 -8.5041 -7.2707 11.6885 0.0000 25.9293 0.0000
# 6 0.0000 0.0000 0.0000 -5.0546 0.0000 23.6428
#
#
#
# Elastic Compliance Matrix: (Units=1/GPa)
#
#
# Indices 1 2 3 4 5 6 
#
# 1 0.007458 -0.001322 -0.001260 0.000000 0.002643 0.000000
# 2 -0.001322 0.005898 -0.002336 0.000000 0.002273 0.000000
# 3 -0.001260 -0.002336 0.026630 0.000000 -0.013073 0.000000
# 4 0.000000 0.000000 0.000000 -0.106362 0.000000 -0.022739
# 5 0.002643 0.002273 -0.013073 0.000000 0.045964 0.000000
# 6 0.000000 0.000000 0.000000 -0.022739 0.000000 0.037435
#
#
# Mechanical properties :
#
#
# Convention : Reuss Voigt Hill
#
# Bulk Modulus (GPa) = 33.16782 54.88813 44.02797
# Shear Modulus (GPa) = 135.47119 29.42629 82.44874
#
# Velocity S-wave (km/s) = 8.07277 3.76242 6.29783
# Velocity P-wave (km/s) = 10.14143 6.72895 8.60602
#
# Compressibility (1/GPa) = 0.03014971
#
# Stress axis : x y z
#
# Youngs Moduli (GPa) = 134.08487 169.54830 37.55155
#
# Poissons Ratio (x) = 0.22420 0.04732
# Poissons Ratio (y) = 0.17731 0.08770
# Poissons Ratio (z) = 0.16898 0.39599
#
# Static dielectric constant tensor:
#      x y z
#    x 1.755260 0.000000 -0.000910 
#    y 0.000000 1.779840 0.000000 
#    z -0.000910 0.000000 1.721370 
# 
# From -- ./inp_files/24305.got.cif
#   From: 2010.05.17/outbox.cif.g08.bks.cpg/sg5_13_cif.got.tgz:24305.got - 2010.06.03 18:56:24.
