data_PCOD9123033
_publ_section_title
;
Structure prediction by ZEFSAII (Michael W. Deem and Ramdas Pophale) SiO2 
 PCOD9123033
Probable space group: C 2
;
_chemical_formula_sum "Si O2"
_cell_formula_units_Z 28
_cell_length_a 29.897104
_cell_length_b 7.993992
_cell_length_c 8.617957
_cell_angle_alpha 90.000000
_cell_angle_beta 143.801087
_cell_angle_gamma 90.000000
_cell_volume 1216.419873
_symmetry_space_group_name_H-M "C 2"
_symmetry_group_IT_number 5
_symmetry_cell_setting 'monoclinic'
loop_
_space_group_symop_operation_xyz
x,y,z
-x,y,-z
1/2+x,1/2+y,z
1/2-x,1/2+y,-z
loop_
_atom_site_type_symbol
_atom_site_label
_atom_site_fract_x
_atom_site_fract_y
_atom_site_fract_z
Si Si1 0.788958 0.473620 0.493184
Si Si2 0.367656 0.207712 0.482848
Si Si3 0.583919 0.483779 0.162356
Si Si4 0.244655 0.818951 0.083004
Si Si5 0.369370 0.633885 0.259286
Si Si6 0.494138 0.356875 0.662251
Si Si7 0.150645 0.227880 0.136036
O O1 0.849608 0.560876 0.549995
O O2 0.756177 0.317264 0.300326
O O3 0.822246 0.412288 0.747601
O O4 0.723539 0.608029 0.332831
O O5 0.362375 0.379913 0.571926
O O6 0.449918 0.218786 0.637606
O O7 0.311237 0.207014 0.178735
O O8 0.605526 0.664969 0.161294
O O9 0.500000 0.483019 0.000000
O O10 0.573387 0.387055 0.968838
O O11 0.327676 0.778249 0.242393
O O12 0.196263 0.991475 0.932786
O O13 0.442648 0.528759 0.521916
O O14 0.386796 0.704223 0.136446
O O15 0.500000 0.312107 0.500000
#
# Coordination Sequence:
#
# PCOD9123033 Si02
#       7
#     4   4   4   4   4   4   4
#     4  11  24  38  63  93 130 158 205 261 327 367
#     4  10  21  40  58  93 123 161 210 252 316 372
#     4  10  22  38  63  88 121 172 211 249 305 373
#     4  10  20  37  59  92 125 158 194 258 320 371
#     4  10  21  37  62  93 125 156 209 255 312 371
#     4  10  20  39  67  87 121 165 216 251 295 382
#     4  11  22  38  59  95 124 161 207 260 309 368
#
# _framework density 23.018367999999999
#
# number of rings (size 3 to 8) (size 9 to 14) (size 15 to 20)
#    0.000    1.714    4.286    0.857    6.000    0.000 
#    0.000    2.143    0.000    0.857    0.000    0.000 
#    0.000    0.000    0.000    0.000    0.000    0.000 
#
# Total GULP energy -77972.242142 kJ/mol
# GULP energy per Si atom -5569.445867 kJ/mol
# Density = 2.296598 g / cm^3
# Si number density = 23.018368 Si / 1000 Ang^3
#
#
#
# Elastic Constant Matrix: (Units=GPa)
#
#
# Indices 1 2 3 4 5 6 
#
# 1 79.5700 21.1014 10.4963 0.0000 -9.9595 0.0000
# 2 21.1014 33.0754 5.8672 0.0000 -3.7565 0.0000
# 3 10.4963 5.8672 59.5510 0.0000 -16.2740 0.0000
# 4 0.0000 0.0000 0.0000 24.3142 0.0000 -7.2166
# 5 -9.9595 -3.7565 -16.2740 0.0000 32.4618 0.0000
# 6 0.0000 0.0000 0.0000 -7.2166 0.0000 53.9725
#
#
#
# Elastic Compliance Matrix: (Units=1/GPa)
#
#
# Indices 1 2 3 4 5 6 
#
# 1 0.015592 -0.009414 -0.000940 0.000000 0.003223 0.000000
# 2 -0.009414 0.036614 -0.001830 0.000000 0.000431 0.000000
# 3 -0.000940 -0.001830 0.019701 0.000000 0.009376 0.000000
# 4 0.000000 0.000000 0.000000 0.042828 0.000000 0.005726
# 5 0.003223 0.000431 0.009376 0.000000 0.036545 0.000000
# 6 0.000000 0.000000 0.000000 0.005726 0.000000 0.019294
#
#
# Mechanical properties :
#
#
# Convention : Reuss Voigt Hill
#
# Bulk Modulus (GPa) = 21.03612 27.45846 24.24729
# Shear Modulus (GPa) = 23.72071 31.13182 27.42626
#
# Velocity S-wave (km/s) = 3.21364 3.68159 3.45555
# Velocity P-wave (km/s) = 4.78839 5.47969 5.14566
#
# Compressibility (1/GPa) = 0.04753727
#
# Stress axis : x y z
#
# Youngs Moduli (GPa) = 64.13738 27.31222 50.75979
#
# Poissons Ratio (x) = 0.25712 0.04770
# Poissons Ratio (y) = 0.60381 0.09290
# Poissons Ratio (z) = 0.06028 0.04999
#
# Static dielectric constant tensor:
#      x y z
#    x 1.906250 0.000000 -0.001030 
#    y 0.000000 1.984500 0.000000 
#    z -0.001030 0.000000 1.923240 
# 
# From -- ./inp_files/32530.got.cif
#   From: 2010.05.17/outbox.cif.g08.bks.cpg/sg5_17_cif.got.tgz:32530.got - 2010.06.03 18:56:24.
