data_PCOD9123591
_publ_section_title
;
Structure prediction by ZEFSAII (Michael W. Deem and Ramdas Pophale) SiO2 
 PCOD9123591
Probable space group: C 2
;
_chemical_formula_sum "Si O2"
_cell_formula_units_Z 28
_cell_length_a 20.201501
_cell_length_b 13.339207
_cell_length_c 5.592919
_cell_angle_alpha 90.000000
_cell_angle_beta 64.407011
_cell_angle_gamma 90.000000
_cell_volume 1359.263120
_symmetry_space_group_name_H-M "C 2"
_symmetry_group_IT_number 5
_symmetry_cell_setting 'monoclinic'
loop_
_space_group_symop_operation_xyz
x,y,z
-x,y,-z
1/2+x,1/2+y,z
1/2-x,1/2+y,-z
loop_
_atom_site_type_symbol
_atom_site_label
_atom_site_fract_x
_atom_site_fract_y
_atom_site_fract_z
Si Si1 0.308419 0.282430 0.659599
Si Si2 0.912005 0.260275 0.620529
Si Si3 0.074045 0.653806 0.761319
Si Si4 0.699264 0.136603 0.955930
Si Si5 0.137832 0.479464 0.433507
Si Si6 0.282170 0.496175 0.511884
Si Si7 0.656799 0.680767 0.770807
O O1 0.386552 0.231193 0.478290
O O2 0.313022 0.397264 0.584100
O O3 0.238905 0.230796 0.633534
O O4 0.289569 0.247577 0.957696
O O5 0.886213 0.376391 0.645394
O O6 0.886893 0.214663 0.400419
O O7 0.000000 0.254100 0.500000
O O8 0.879045 0.214712 0.920287
O O9 0.134239 0.643049 0.871757
O O10 0.070347 0.543186 0.650035
O O11 0.000000 0.686937 0.000000
O O12 0.767272 0.081349 0.732505
O O13 0.673605 0.058956 0.197438
O O14 0.203170 0.465138 0.524240
O O15 0.330803 0.559985 0.250987
#
# Coordination Sequence:
#
# PCOD9123591 Si02
#       7
#     4   4   4   4   4   4   4
#     4  11  22  40  67 101 130 181 231 289 349 414
#     4  12  28  45  69 103 144 189 228 288 359 423
#     4  10  23  39  61  97 141 173 224 289 354 420
#     4  10  20  39  62  97 136 169 227 286 355 399
#     4  10  22  38  66  98 134 173 226 286 355 416
#     4  11  22  41  68 103 128 182 234 292 344 410
#     4  12  24  46  69 100 144 176 238 292 335 426
#
# _framework density 20.599395999999999
#
# number of rings (size 3 to 8) (size 9 to 14) (size 15 to 20)
#    0.000    1.143    5.714    2.143    4.000    2.857 
#    0.000    1.429    0.000    0.000    0.000    0.000 
#    0.000    0.000    0.000    0.000    0.000    0.000 
#
# Total GULP energy -78070.592619 kJ/mol
# GULP energy per Si atom -5576.470901 kJ/mol
# Density = 2.055251 g / cm^3
# Si number density = 20.599396 Si / 1000 Ang^3
#
#
#
# Elastic Constant Matrix: (Units=GPa)
#
#
# Indices 1 2 3 4 5 6 
#
# 1 59.5110 24.7302 30.9876 0.0000 -12.4239 0.0000
# 2 24.7302 143.7889 51.5148 0.0000 -7.2536 0.0000
# 3 30.9876 51.5148 109.7220 0.0000 -11.0824 0.0000
# 4 0.0000 0.0000 0.0000 31.7597 0.0000 8.1707
# 5 -12.4239 -7.2536 -11.0824 0.0000 34.7286 0.0000
# 6 0.0000 0.0000 0.0000 8.1707 0.0000 25.7575
#
#
#
# Elastic Compliance Matrix: (Units=1/GPa)
#
#
# Indices 1 2 3 4 5 6 
#
# 1 0.021090 -0.001697 -0.004581 0.000000 0.005729 0.000000
# 2 -0.001697 0.008506 -0.003509 0.000000 0.000050 0.000000
# 3 -0.004581 -0.003509 0.012209 0.000000 0.001524 0.000000
# 4 0.000000 0.000000 0.000000 0.034284 0.000000 -0.010876
# 5 0.005729 0.000050 0.001524 0.000000 0.031341 0.000000
# 6 0.000000 0.000000 0.000000 -0.010876 0.000000 0.042274
#
#
# Mechanical properties :
#
#
# Convention : Reuss Voigt Hill
#
# Bulk Modulus (GPa) = 44.98234 58.60966 51.79600
# Shear Modulus (GPa) = 28.29824 32.16847 30.23335
#
# Velocity S-wave (km/s) = 3.71042 3.95602 3.83519
# Velocity P-wave (km/s) = 6.34354 7.02714 6.69407
#
# Compressibility (1/GPa) = 0.02223095
#
# Stress axis : x y z
#
# Youngs Moduli (GPa) = 47.41575 117.55921 81.90466
#
# Poissons Ratio (x) = 0.19951 0.37519
# Poissons Ratio (y) = 0.08047 0.28744
# Poissons Ratio (z) = 0.21720 0.41257
#
# Static dielectric constant tensor:
#      x y z
#    x 1.730880 0.000000 0.022650 
#    y 0.000000 1.743680 0.000000 
#    z 0.022650 0.000000 1.865560 
# 
# From -- ./inp_files/9551.got.cif
#   From: 2010.05.17/outbox.cif.g08.bks.cpg/sg5_5_cif.got.tgz:9551.got - 2010.06.03 18:56:24.
