data_PCOD9123959
_publ_section_title
;
Structure prediction by ZEFSAII (Michael W. Deem and Ramdas Pophale) SiO2 
 PCOD9123959
Probable space group: C 2
;
_chemical_formula_sum "Si O2"
_cell_formula_units_Z 28
_cell_length_a 8.413902
_cell_length_b 29.568012
_cell_length_c 5.435197
_cell_angle_alpha 90.000000
_cell_angle_beta 66.303284
_cell_angle_gamma 90.000000
_cell_volume 1238.172813
_symmetry_space_group_name_H-M "C 2"
_symmetry_group_IT_number 5
_symmetry_cell_setting 'monoclinic'
loop_
_space_group_symop_operation_xyz
x,y,z
-x,y,-z
1/2+x,1/2+y,z
1/2-x,1/2+y,-z
loop_
_atom_site_type_symbol
_atom_site_label
_atom_site_fract_x
_atom_site_fract_y
_atom_site_fract_z
Si Si1 0.613851 0.121430 0.184525
Si Si2 0.106468 0.392001 0.693001
Si Si3 0.682638 0.796461 0.530765
Si Si4 0.500000 0.281152 0.000000
Si Si5 0.688414 0.026324 0.998940
Si Si6 0.684965 0.216852 0.245494
Si Si7 0.349375 0.452057 0.234086
Si Si8 0.000000 0.021926 0.500000
O O1 0.500000 0.123442 0.500000
O O2 0.733079 0.166479 0.129486
O O3 0.500000 0.124392 0.000000
O O4 0.697682 0.071943 0.152027
O O5 0.169913 0.341028 0.709261
O O6 0.257774 0.425505 0.511961
O O7 0.000000 0.390046 0.500000
O O8 0.000000 0.406515 0.000000
O O9 0.500000 0.795544 0.500000
O O10 0.864858 0.805209 0.269301
O O11 0.696656 0.748250 0.657700
O O12 0.636881 0.248433 0.048256
O O13 0.818278 0.041366 0.697567
O O14 0.500000 0.021417 0.000000
O O15 0.723365 0.980206 0.130840
O O16 0.500000 0.213468 0.500000
O O17 0.457108 0.491514 0.293943
O O18 0.500000 0.423906 0.000000
#
# Coordination Sequence:
#
# PCOD9123959 Si02
#       8
#     4   4   4   2   4   4   4   2
#     4  10  21  39  70 108 138 182 242 286 346 423
#     4  11  28  46  71 105 142 184 243 303 352 433
#     4  10  24  43  70 101 141 182 237 296 359 420
#     4  10  20  40  72  96 130 190 226 290 354 424
#     4  10  24  42  75 102 137 192 230 292 353 418
#     4   9  19  39  68  99 138 181 233 289 349 419
#     4  10  25  46  69 101 143 188 235 298 355 429
#     4  10  24  44  66  98 146 172 238 288 348 424
#
# _framework density 22.613970999999999
#
# number of rings (size 3 to 8) (size 9 to 14) (size 15 to 20)
#    0.000    2.000    0.714    0.000   15.000    0.000 
#    3.857    0.000   12.571    0.000    0.000    0.000 
#    0.000    0.000    0.000    0.000    0.000    0.000 
#
# Total GULP energy -77943.970129 kJ/mol
# GULP energy per Si atom -5567.426438 kJ/mol
# Density = 2.256250 g / cm^3
# Si number density = 22.613971 Si / 1000 Ang^3
#
#
#
# Elastic Constant Matrix: (Units=GPa)
#
#
# Indices 1 2 3 4 5 6 
#
# 1 72.8298 24.6755 25.8763 0.0000 -4.9195 0.0000
# 2 24.6755 111.8857 41.9429 0.0000 -11.3335 0.0000
# 3 25.8763 41.9429 145.8187 0.0000 -12.2889 0.0000
# 4 0.0000 0.0000 0.0000 247.5527 0.0000 42.6739
# 5 -4.9195 -11.3335 -12.2889 0.0000 30.7873 0.0000
# 6 0.0000 0.0000 0.0000 42.6739 0.0000 13.4735
#
#
#
# Elastic Compliance Matrix: (Units=1/GPa)
#
#
# Indices 1 2 3 4 5 6 
#
# 1 0.015338 -0.002591 -0.001915 0.000000 0.000733 0.000000
# 2 -0.002591 0.010665 -0.002392 0.000000 0.002557 0.000000
# 3 -0.001915 -0.002392 0.008057 0.000000 0.002029 0.000000
# 4 0.000000 0.000000 0.000000 0.008897 0.000000 -0.028180
# 5 0.000733 0.002557 0.002029 0.000000 0.034349 0.000000
# 6 0.000000 0.000000 0.000000 -0.028180 0.000000 0.163474
#
#
# Mechanical properties :
#
#
# Convention : Reuss Voigt Hill
#
# Bulk Modulus (GPa) = 49.34853 57.28039 53.31446
# Shear Modulus (GPa) = 19.13284 74.23199 46.68241
#
# Velocity S-wave (km/s) = 2.91187 5.73559 4.54841
# Velocity P-wave (km/s) = 5.75976 8.32150 7.15619
#
# Compressibility (1/GPa) = 0.02026403
#
# Stress axis : x y z
#
# Youngs Moduli (GPa) = 65.19652 93.76555 124.11872
#
# Poissons Ratio (x) = 0.24291 0.23768
# Poissons Ratio (y) = 0.16890 0.29694
# Poissons Ratio (z) = 0.12485 0.22433
#
# Static dielectric constant tensor:
#      x y z
#    x 3.105670 0.000000 -1.302760 
#    y 0.000000 1.880900 0.000000 
#    z -1.302760 0.000000 3.232900 
# 
# From -- ./inp_files/3915.got.cif
#   From: 2010.05.17/outbox.cif.g08.bks.cpg/sg5_2_cif.got.tgz:3915.got - 2010.06.03 18:56:24.
