data_PCOD9123167
_publ_section_title
;
Structure prediction by ZEFSAII (Michael W. Deem and Ramdas Pophale) SiO2 
 PCOD9123167
Probable space group: C 2
;
_chemical_formula_sum "Si O2"
_cell_formula_units_Z 24
_cell_length_a 8.161057
_cell_length_b 23.401700
_cell_length_c 7.161000
_cell_angle_alpha 90.000000
_cell_angle_beta 44.799927
_cell_angle_gamma 90.000000
_cell_volume 963.675149
_symmetry_space_group_name_H-M "C 2"
_symmetry_group_IT_number 5
_symmetry_cell_setting 'monoclinic'
loop_
_space_group_symop_operation_xyz
x,y,z
-x,y,-z
1/2+x,1/2+y,z
1/2-x,1/2+y,-z
loop_
_atom_site_type_symbol
_atom_site_label
_atom_site_fract_x
_atom_site_fract_y
_atom_site_fract_z
Si Si1 0.344776 0.737510 0.990151
Si Si2 0.488163 0.143612 0.730169
Si Si3 0.492808 0.345694 0.721975
Si Si4 0.937125 0.515397 0.327006
Si Si5 0.059768 0.973869 0.155721
Si Si6 0.820456 0.248513 0.532831
O O1 0.263336 0.671365 0.037168
O O2 0.367587 0.741142 0.227571
O O3 0.189955 0.794704 0.113089
O O4 0.393898 0.744380 0.710290
O O5 0.500000 0.139265 0.500000
O O6 0.649367 0.194889 0.671150
O O7 0.561313 0.081597 0.737166
O O8 0.500000 0.360603 0.500000
O O9 0.440775 0.405323 0.857850
O O10 0.722818 0.312669 0.602526
O O11 0.000000 0.510163 0.500000
O O12 0.670334 0.490968 0.533748
O O13 0.166987 0.489905 0.035385
O O14 0.000000 0.999748 0.000000
#
# Coordination Sequence:
#
# PCOD9123167 Si02
#       6
#     4   4   4   4   4   4
#     4  11  20  37  65  91 122 161 207 258 315 383
#     4  10  20  37  64  94 121 162 211 254 308 383
#     4  11  24  40  61  92 124 165 213 257 315 386
#     4   9  21  39  64  95 124 164 215 262 309 371
#     4  10  23  40  64  94 125 164 217 266 311 364
#     4  11  24  38  61  94 129 158 203 263 322 373
#
# _framework density 24.90466
#
# number of rings (size 3 to 8) (size 9 to 14) (size 15 to 20)
#    0.000    1.667    3.333    1.000    7.000    3.333 
#    0.000    0.833    3.667    0.000    0.000    0.000 
#    0.000    0.000    0.000    0.000    0.000    0.000 
#
# Total GULP energy -66825.066872 kJ/mol
# GULP energy per Si atom -5568.755573 kJ/mol
# Density = 2.484798 g / cm^3
# Si number density = 24.904660 Si / 1000 Ang^3
#
#
#
# Elastic Constant Matrix: (Units=GPa)
#
#
# Indices 1 2 3 4 5 6 
#
# 1 124.0917 39.4249 34.3791 0.0000 -6.1026 0.0000
# 2 39.4249 170.1496 37.5917 0.0000 -40.3034 0.0000
# 3 34.3791 37.5917 137.5049 0.0000 -12.9171 0.0000
# 4 0.0000 0.0000 0.0000 27.2515 0.0000 1.6530
# 5 -6.1026 -40.3034 -12.9171 0.0000 54.5372 0.0000
# 6 0.0000 0.0000 0.0000 1.6530 0.0000 11.6027
#
#
#
# Elastic Compliance Matrix: (Units=1/GPa)
#
#
# Indices 1 2 3 4 5 6 
#
# 1 0.009133 -0.001904 -0.001840 0.000000 -0.000821 0.000000
# 2 -0.001904 0.007831 -0.001167 0.000000 0.005298 0.000000
# 3 -0.001840 -0.001167 0.008132 0.000000 0.000858 0.000000
# 4 0.000000 0.000000 0.000000 0.037015 0.000000 -0.005273
# 5 -0.000821 0.005298 0.000858 0.000000 0.022362 0.000000
# 6 0.000000 0.000000 0.000000 -0.005273 0.000000 0.086938
#
#
# Mechanical properties :
#
#
# Convention : Reuss Voigt Hill
#
# Bulk Modulus (GPa) = 65.47232 72.72641 69.09937
# Shear Modulus (GPa) = 26.83470 40.03498 33.43484
#
# Velocity S-wave (km/s) = 3.28609 4.01375 3.66801
# Velocity P-wave (km/s) = 6.38311 7.12359 6.76349
#
# Compressibility (1/GPa) = 0.01527363
#
# Stress axis : x y z
#
# Youngs Moduli (GPa) = 109.49430 127.69551 122.96865
#
# Poissons Ratio (x) = 0.24315 0.22626
# Poissons Ratio (y) = 0.20849 0.14353
# Poissons Ratio (z) = 0.20147 0.14904
#
# Static dielectric constant tensor:
#      x y z
#    x 2.730620 0.000000 0.775220 
#    y 0.000000 1.794050 0.000000 
#    z 0.775220 0.000000 2.999240 
# 
# From -- ./inp_files/21710.got.cif
#   From: 2010.05.17/outbox.cif.g08.bks.cpg/sg5_11_cif.got.tgz:21710.got - 2010.06.03 18:56:24.
