data_PCOD9123738
_publ_section_title
;
Structure prediction by ZEFSAII (Michael W. Deem and Ramdas Pophale) SiO2 
 PCOD9123738
Probable space group: C 2
;
_chemical_formula_sum "Si O2"
_cell_formula_units_Z 28
_cell_length_a 12.778546
_cell_length_b 11.063090
_cell_length_c 9.176180
_cell_angle_alpha 90.000000
_cell_angle_beta 101.695798
_cell_angle_gamma 90.000000
_cell_volume 1270.304763
_symmetry_space_group_name_H-M "C 2"
_symmetry_group_IT_number 5
_symmetry_cell_setting 'monoclinic'
loop_
_space_group_symop_operation_xyz
x,y,z
-x,y,-z
1/2+x,1/2+y,z
1/2-x,1/2+y,-z
loop_
_atom_site_type_symbol
_atom_site_label
_atom_site_fract_x
_atom_site_fract_y
_atom_site_fract_z
Si Si1 0.378294 0.868940 0.281796
Si Si2 0.511379 0.376792 0.274364
Si Si3 0.775232 0.911648 0.490301
Si Si4 0.500000 0.032359 0.500000
Si Si5 0.147844 0.084032 0.740001
Si Si6 0.000000 0.724115 0.000000
Si Si7 0.324649 0.202592 0.338102
Si Si8 0.693621 0.058459 0.945675
O O1 0.299454 0.910709 0.390113
O O2 0.379018 0.725069 0.284527
O O3 0.485547 0.943652 0.357268
O O4 0.337793 0.924667 0.118173
O O5 0.607516 0.382376 0.413350
O O6 0.459288 0.508641 0.256751
O O7 0.413505 0.291001 0.293452
O O8 0.548107 0.314353 0.135122
O O9 0.742947 0.792308 0.390912
O O10 0.793376 0.024385 0.385594
O O11 0.397416 0.120435 0.465710
O O12 0.223373 0.062987 0.900728
O O13 0.091080 0.635361 0.966864
O O14 0.272165 0.125175 0.194718
#
# Coordination Sequence:
#
# PCOD9123738 Si02
#       8
#     4   4   4   2   4   2   4   4
#     4  11  27  40  66  99 139 168 215 281 335 395
#     4  10  21  39  70  96 123 172 222 279 316 382
#     4  11  23  40  71  96 125 179 230 263 328 389
#     4  10  20  40  60  90 128 168 210 266 326 370
#     4  11  25  41  65  99 142 167 218 281 333 391
#     4  10  22  44  76  92 124 172 240 268 314 412
#     4   9  18  39  68  91 123 168 226 272 299 400
#     4  10  24  42  67  95 132 175 222 269 336 384
#
# _framework density 22.041955000000002
#
# number of rings (size 3 to 8) (size 9 to 14) (size 15 to 20)
#    0.000    1.714    1.429    2.143   14.000    3.429 
#    0.000    0.714    0.000    0.000    0.000    0.000 
#    0.000    0.000    0.000    0.000    0.000    0.000 
#
# Total GULP energy -78122.368342 kJ/mol
# GULP energy per Si atom -5580.169167 kJ/mol
# Density = 2.199179 g / cm^3
# Si number density = 22.041955 Si / 1000 Ang^3
#
#
#
# Elastic Constant Matrix: (Units=GPa)
#
#
# Indices 1 2 3 4 5 6 
#
# 1 16.8671 16.8785 4.7040 0.0000 -14.9329 0.0000
# 2 16.8785 186.3362 44.8841 0.0000 -11.3371 0.0000
# 3 4.7040 44.8841 104.1674 0.0000 -0.2230 0.0000
# 4 0.0000 0.0000 0.0000 40.0870 0.0000 -0.7534
# 5 -14.9329 -11.3371 -0.2230 0.0000 26.0504 0.0000
# 6 0.0000 0.0000 0.0000 -0.7534 0.0000 8.5321
#
#
#
# Elastic Compliance Matrix: (Units=1/GPa)
#
#
# Indices 1 2 3 4 5 6 
#
# 1 0.130385 -0.006764 -0.002820 0.000000 0.071773 0.000000
# 2 -0.006764 0.006518 -0.002505 0.000000 -0.001062 0.000000
# 3 -0.002820 -0.002505 0.010801 0.000000 -0.002614 0.000000
# 4 0.000000 0.000000 0.000000 0.024987 0.000000 0.002206
# 5 0.071773 -0.001062 -0.002614 0.000000 0.079045 0.000000
# 6 0.000000 0.000000 0.000000 0.002206 0.000000 0.117400
#
#
# Mechanical properties :
#
#
# Convention : Reuss Voigt Hill
#
# Bulk Modulus (GPa) = 8.09549 48.92264 28.50907
# Shear Modulus (GPa) = 11.50775 30.99418 21.25096
#
# Velocity S-wave (km/s) = 2.28739 3.75393 3.10839
# Velocity P-wave (km/s) = 3.26450 6.40568 5.08378
#
# Compressibility (1/GPa) = 0.12352552
#
# Stress axis : x y z
#
# Youngs Moduli (GPa) = 7.66960 153.41595 92.58226
#
# Poissons Ratio (x) = 1.03776 0.26105
# Poissons Ratio (y) = 0.05188 0.23196
# Poissons Ratio (z) = 0.02163 0.38437
#
# Static dielectric constant tensor:
#      x y z
#    x 1.892060 0.000000 -0.046970 
#    y 0.000000 1.883360 0.000000 
#    z -0.046970 0.000000 1.887870 
# 
# From -- ./inp_files/23691.got.cif
#   From: 2010.05.17/outbox.cif.g08.bks.cpg/sg5_12_cif.got.tgz:23691.got - 2010.06.03 18:56:24.
