data_PCOD9123505
_publ_section_title
;
Structure prediction by ZEFSAII (Michael W. Deem and Ramdas Pophale) SiO2 
 PCOD9123505
Probable space group: C 2
;
_chemical_formula_sum "Si O2"
_cell_formula_units_Z 26
_cell_length_a 28.531128
_cell_length_b 5.174427
_cell_length_c 14.486499
_cell_angle_alpha 90.000000
_cell_angle_beta 27.430448
_cell_angle_gamma 90.000000
_cell_volume 985.226335
_symmetry_space_group_name_H-M "C 2"
_symmetry_group_IT_number 5
_symmetry_cell_setting 'monoclinic'
loop_
_space_group_symop_operation_xyz
x,y,z
-x,y,-z
1/2+x,1/2+y,z
1/2-x,1/2+y,-z
loop_
_atom_site_type_symbol
_atom_site_label
_atom_site_fract_x
_atom_site_fract_y
_atom_site_fract_z
Si Si1 0.813339 0.845300 0.909180
Si Si2 0.651793 0.480943 0.959299
Si Si3 0.304554 0.361881 0.618915
Si Si4 0.844418 0.714378 0.215862
Si Si5 0.029790 0.266008 0.642521
Si Si6 0.000000 0.176654 0.500000
Si Si7 0.142291 0.518577 0.619417
O O1 0.907476 0.986831 0.693380
O O2 0.771083 0.577144 0.942475
O O3 0.837521 0.784682 0.974483
O O4 0.761056 0.604864 0.742138
O O5 0.598414 0.405152 0.954656
O O6 0.581564 0.690310 0.130702
O O7 0.207170 0.538566 0.772300
O O8 0.397739 0.513735 0.498106
O O9 0.338281 0.301270 0.455602
O O10 0.892099 0.552078 0.215440
O O11 0.749775 0.869201 0.426557
O O12 0.023469 0.357959 0.548078
O O13 0.073723 0.406277 0.656539
#
# Coordination Sequence:
#
# PCOD9123505 Si02
#       7
#     4   4   4   4   4   2   4
#     4  11  26  46  74 109 149 195 250 303 374 438
#     4  10  24  41  64 100 137 182 233 291 355 433
#     4  10  21  39  67  90 129 175 223 284 356 417
#     4  10  20  38  68  93 133 175 229 286 351 427
#     4  10  23  43  64  97 137 177 233 283 357 426
#     4  10  24  48  68 108 148 190 248 310 360 446
#     4  10  20  38  67  96 127 177 224 285 352 428
#
# _framework density 26.389876000000001
#
# number of rings (size 3 to 8) (size 9 to 14) (size 15 to 20)
#    0.000    1.846    1.538    0.923    8.615    1.846 
#    8.308    4.615    0.000    0.000    0.000    0.000 
#    0.000    0.000    0.000    0.000    0.000    0.000 
#
# Total GULP energy -72557.605393 kJ/mol
# GULP energy per Si atom -5581.354261 kJ/mol
# Density = 2.632981 g / cm^3
# Si number density = 26.389876 Si / 1000 Ang^3
#
#
#
# Elastic Constant Matrix: (Units=GPa)
#
#
# Indices 1 2 3 4 5 6 
#
# 1 165.4605 33.4856 46.8414 0.0013 39.1753 0.0040
# 2 33.4856 53.1493 12.2403 -0.0031 16.5834 -0.0032
# 3 46.8414 12.2403 107.1997 0.0018 16.1657 0.0011
# 4 0.0013 -0.0031 0.0018 11.0957 0.0009 10.5486
# 5 39.1753 16.5834 16.1657 0.0009 36.4059 0.0021
# 6 0.0040 -0.0032 0.0011 10.5486 0.0021 38.6752
#
#
#
# Elastic Compliance Matrix: (Units=1/GPa)
#
#
# Indices 1 2 3 4 5 6 
#
# 1 0.009075 -0.002842 -0.002533 0.000000 -0.007346 -0.000001
# 2 -0.002842 0.022937 -0.000282 0.000007 -0.007265 0.000001
# 3 -0.002533 -0.000282 0.010757 -0.000002 -0.001923 0.000001
# 4 0.000000 0.000007 -0.000002 0.121675 -0.000003 -0.033187
# 5 -0.007346 -0.007265 -0.001923 -0.000003 0.039536 -0.000001
# 6 -0.000001 0.000001 0.000001 -0.033187 -0.000001 0.034908
#
#
# Mechanical properties :
#
#
# Convention : Reuss Voigt Hill
#
# Bulk Modulus (GPa) = 31.79051 56.77155 44.28103
# Shear Modulus (GPa) = 19.18001 32.78485 25.98243
#
# Velocity S-wave (km/s) = 2.69884 3.52849 3.14117
# Velocity P-wave (km/s) = 4.66736 6.17735 5.47466
#
# Compressibility (1/GPa) = 0.03145593
#
# Stress axis : x y z
#
# Youngs Moduli (GPa) = 110.18766 43.59736 92.95975
#
# Poissons Ratio (x) = 0.12391 0.23549
# Poissons Ratio (y) = 0.31318 0.02617
# Poissons Ratio (z) = 0.27913 0.01228
#
# Static dielectric constant tensor:
#      x y z
#    x 2.162680 0.000010 -0.024440 
#    y 0.000010 2.319690 0.000010 
#    z -0.024440 0.000010 2.048470 
# 
# From -- ./inp_files/58293.got.cif
#   From: 2010.05.17/outbox.cif.g08.bks.cpg/sg5_30_cif.got.tgz:58293.got - 2010.06.03 18:56:24.
