data_PCOD9123118
_publ_section_title
;
Structure prediction by ZEFSAII (Michael W. Deem and Ramdas Pophale) SiO2 
 PCOD9123118
Probable space group: C 2
;
_chemical_formula_sum "Si O2"
_cell_formula_units_Z 18
_cell_length_a 23.958965
_cell_length_b 4.700471
_cell_length_c 5.397983
_cell_angle_alpha 90.000000
_cell_angle_beta 94.596385
_cell_angle_gamma 90.000000
_cell_volume 605.957233
_symmetry_space_group_name_H-M "C 2"
_symmetry_group_IT_number 5
_symmetry_cell_setting 'monoclinic'
loop_
_space_group_symop_operation_xyz
x,y,z
-x,y,-z
1/2+x,1/2+y,z
1/2-x,1/2+y,-z
loop_
_atom_site_type_symbol
_atom_site_label
_atom_site_fract_x
_atom_site_fract_y
_atom_site_fract_z
Si Si1 0.945496 0.504680 0.736946
Si Si2 0.651569 0.195096 0.608562
Si Si3 0.263114 0.821679 0.836040
Si Si4 0.000000 0.992323 0.500000
Si Si5 0.874853 0.194345 0.062912
O O1 0.889674 0.676283 0.636497
O O2 0.954199 0.234693 0.554524
O O3 0.931545 0.337105 0.984039
O O4 0.992001 0.752552 0.714933
O O5 0.716137 0.285073 0.609325
O O6 0.622480 0.390101 0.809520
O O7 0.651194 0.885968 0.730048
O O8 0.326662 0.715538 0.833518
O O9 0.238288 0.638211 0.057571
#
# Coordination Sequence:
#
# PCOD9123118 Si02
#       5
#     4   4   4   2   4
#     4  11  22  42  63  86 123 164 212 267 318 370
#     4  10  20  37  62  91 125 164 202 248 311 380
#     4   8  16  32  54  86 126 158 194 246 298 368
#     4  10  24  42  60  86 122 160 212 282 318 344
#     4  10  20  37  62  91 125 164 202 248 311 380
#
# _framework density 29.705069000000002
#
# number of rings (size 3 to 8) (size 9 to 14) (size 15 to 20)
#    0.000    2.222    0.000    2.667    0.000    0.000 
#    0.000   32.222    0.000    0.000    0.000    0.000 
#    0.000    0.000    0.000    0.000    0.000    0.000 
#
# Total GULP energy -50298.513854 kJ/mol
# GULP energy per Si atom -5588.723762 kJ/mol
# Density = 2.963746 g / cm^3
# Si number density = 29.705069 Si / 1000 Ang^3
#
#
#
# Elastic Constant Matrix: (Units=GPa)
#
#
# Indices 1 2 3 4 5 6 
#
# 1 103.6950 55.8374 23.0817 0.0000 -3.9192 0.0000
# 2 55.8374 178.6271 36.1555 0.0000 -10.6416 0.0000
# 3 23.0817 36.1555 100.5127 0.0000 -10.0424 0.0000
# 4 0.0000 0.0000 0.0000 41.5036 0.0000 -12.3727
# 5 -3.9192 -10.6416 -10.0424 0.0000 35.3424 0.0000
# 6 0.0000 0.0000 0.0000 -12.3727 0.0000 73.1912
#
#
#
# Elastic Compliance Matrix: (Units=1/GPa)
#
#
# Indices 1 2 3 4 5 6 
#
# 1 0.011800 -0.003393 -0.001503 0.000000 -0.000140 0.000000
# 2 -0.003393 0.007066 -0.001634 0.000000 0.001287 0.000000
# 3 -0.001503 -0.001634 0.011132 0.000000 0.002504 0.000000
# 4 0.000000 0.000000 0.000000 0.025373 0.000000 0.004289
# 5 -0.000140 0.001287 0.002504 0.000000 0.029378 0.000000
# 6 0.000000 0.000000 0.000000 0.004289 0.000000 0.014388
#
#
# Mechanical properties :
#
#
# Convention : Reuss Voigt Hill
#
# Bulk Modulus (GPa) = 59.03838 68.10934 63.57386
# Shear Modulus (GPa) = 42.42914 47.85813 45.14364
#
# Velocity S-wave (km/s) = 3.78345 4.01822 3.90260
# Velocity P-wave (km/s) = 6.24532 6.67131 6.46183
#
# Compressibility (1/GPa) = 0.01693814
#
# Stress axis : x y z
#
# Youngs Moduli (GPa) = 84.74693 141.51903 89.82909
#
# Poissons Ratio (x) = 0.48012 0.13505
# Poissons Ratio (y) = 0.28751 0.14679
# Poissons Ratio (z) = 0.12741 0.23126
#
# Static dielectric constant tensor:
#      x y z
#    x 2.396550 0.000000 0.106970 
#    y 0.000000 2.144880 0.000000 
#    z 0.106970 0.000000 2.307470 
# 
# From -- ./inp_files/10535.got.cif
#   From: 2010.05.17/outbox.cif.g08.bks.cpg/sg5_6_cif.got.tgz:10535.got - 2010.06.03 18:56:24.
