data_PCOD9123540
_publ_section_title
;
Structure prediction by ZEFSAII (Michael W. Deem and Ramdas Pophale) SiO2 
 PCOD9123540
Probable space group: C 2
;
_chemical_formula_sum "Si O2"
_cell_formula_units_Z 24
_cell_length_a 7.507643
_cell_length_b 15.071037
_cell_length_c 9.229008
_cell_angle_alpha 90.000000
_cell_angle_beta 80.740929
_cell_angle_gamma 90.000000
_cell_volume 1030.637931
_symmetry_space_group_name_H-M "C 2"
_symmetry_group_IT_number 5
_symmetry_cell_setting 'monoclinic'
loop_
_space_group_symop_operation_xyz
x,y,z
-x,y,-z
1/2+x,1/2+y,z
1/2-x,1/2+y,-z
loop_
_atom_site_type_symbol
_atom_site_label
_atom_site_fract_x
_atom_site_fract_y
_atom_site_fract_z
Si Si1 0.720380 0.114600 0.964894
Si Si2 0.688980 0.923816 0.063704
Si Si3 0.793211 0.778396 0.844652
Si Si4 0.154451 0.377028 0.597298
Si Si5 0.117465 0.034897 0.341659
Si Si6 0.880187 0.862697 0.304218
O O1 0.814008 0.101922 0.793975
O O2 0.500000 0.122597 0.000000
O O3 0.779976 0.195900 0.056960
O O4 0.758265 0.023192 0.043586
O O5 0.711734 0.885659 0.221268
O O6 0.500000 0.922708 0.000000
O O7 0.808119 0.857861 0.956066
O O8 0.663756 0.812050 0.733141
O O9 0.998265 0.779112 0.759539
O O10 0.202835 0.478355 0.636799
O O11 0.318900 0.347024 0.474346
O O12 0.000000 0.373628 0.500000
O O13 0.000000 0.066684 0.500000
O O14 0.995213 0.954640 0.292953
#
# Coordination Sequence:
#
# PCOD9123540 Si02
#       6
#     4   4   4   4   4   4
#     4  11  23  39  72 107 146 184 241 297 356 429
#     4  11  22  39  65 101 139 181 238 292 352 417
#     4  11  22  42  68 105 137 188 237 291 358 422
#     4  10  20  39  76 103 140 186 241 299 361 421
#     4   9  20  41  69 108 138 185 243 292 363 425
#     4  10  20  38  72  98 137 187 235 296 360 422
#
# _framework density 23.286546999999999
#
# number of rings (size 3 to 8) (size 9 to 14) (size 15 to 20)
#    0.000    1.667    3.333    4.000    2.333    0.000 
#    3.000    0.000   25.667    2.000    0.000    0.000 
#    0.000    0.000    0.000    0.000    0.000    0.000 
#
# Total GULP energy -66883.497044 kJ/mol
# GULP energy per Si atom -5573.624754 kJ/mol
# Density = 2.323355 g / cm^3
# Si number density = 23.286547 Si / 1000 Ang^3
#
#
#
# Elastic Constant Matrix: (Units=GPa)
#
#
# Indices 1 2 3 4 5 6 
#
# 1 97.9576 36.4228 47.7183 0.0000 25.4724 0.0000
# 2 36.4228 94.3297 81.2623 0.0000 -0.1743 0.0000
# 3 47.7183 81.2623 197.8150 0.0000 -4.0277 0.0000
# 4 0.0000 0.0000 0.0000 49.8930 0.0000 -5.3555
# 5 25.4724 -0.1743 -4.0277 0.0000 50.2028 0.0000
# 6 0.0000 0.0000 0.0000 -5.3555 0.0000 10.2870
#
#
#
# Elastic Compliance Matrix: (Units=1/GPa)
#
#
# Indices 1 2 3 4 5 6 
#
# 1 0.014648 -0.003857 -0.002104 0.000000 -0.007614 0.000000
# 2 -0.003857 0.017435 -0.006201 0.000000 0.001520 0.000000
# 3 -0.002104 -0.006201 0.008145 0.000000 0.001699 0.000000
# 4 0.000000 0.000000 0.000000 0.021229 0.000000 0.011052
# 5 -0.007614 0.001520 0.001699 0.000000 0.023924 0.000000
# 6 0.000000 0.000000 0.000000 0.011052 0.000000 0.102964
#
#
# Mechanical properties :
#
#
# Convention : Reuss Voigt Hill
#
# Bulk Modulus (GPa) = 62.88059 80.10101 71.49080
# Shear Modulus (GPa) = 22.93891 37.05647 29.99769
#
# Velocity S-wave (km/s) = 3.14199 3.99347 3.59304
# Velocity P-wave (km/s) = 6.34227 7.46568 6.92679
#
# Compressibility (1/GPa) = 0.01590316
#
# Stress axis : x y z
#
# Youngs Moduli (GPa) = 68.27070 57.35496 122.77999
#
# Poissons Ratio (x) = 0.22125 0.25830
# Poissons Ratio (y) = 0.26335 0.76135
# Poissons Ratio (z) = 0.14363 0.35565
#
# Static dielectric constant tensor:
#      x y z
#    x 2.080260 0.000000 -0.082620 
#    y 0.000000 1.848470 0.000000 
#    z -0.082620 0.000000 1.924040 
# 
# From -- ./inp_files/15749.got.cif
#   From: 2010.05.17/outbox.cif.g08.bks.cpg/sg5_8_cif.got.tgz:15749.got - 2010.06.03 18:56:24.
