data_PCOD9123529
_publ_section_title
;
Structure prediction by ZEFSAII (Michael W. Deem and Ramdas Pophale) SiO2 
 PCOD9123529
Probable space group: C 2
;
_chemical_formula_sum "Si O2"
_cell_formula_units_Z 26
_cell_length_a 8.210190
_cell_length_b 21.563572
_cell_length_c 8.164935
_cell_angle_alpha 90.000000
_cell_angle_beta 126.330727
_cell_angle_gamma 90.000000
_cell_volume 1164.533151
_symmetry_space_group_name_H-M "C 2"
_symmetry_group_IT_number 5
_symmetry_cell_setting 'monoclinic'
loop_
_space_group_symop_operation_xyz
x,y,z
-x,y,-z
1/2+x,1/2+y,z
1/2-x,1/2+y,-z
loop_
_atom_site_type_symbol
_atom_site_label
_atom_site_fract_x
_atom_site_fract_y
_atom_site_fract_z
Si Si1 0.676803 0.061210 0.699456
Si Si2 0.066841 0.155244 0.349926
Si Si3 0.000000 0.975359 0.000000
Si Si4 0.636359 0.163534 0.924187
Si Si5 0.401917 0.794356 0.619635
Si Si6 0.331730 0.303696 0.043937
Si Si7 0.946905 0.897048 0.637834
O O1 0.500000 0.025515 0.500000
O O2 0.814666 0.096090 0.648072
O O3 0.585157 0.116984 0.750629
O O4 0.805652 0.019388 0.898972
O O5 0.171215 0.223406 0.386922
O O6 0.000000 0.148978 0.500000
O O7 0.866779 0.157496 0.119057
O O8 0.945300 0.938529 0.800831
O O9 0.613162 0.235092 0.865508
O O10 0.500000 0.150925 0.000000
O O11 0.500000 0.787080 0.500000
O O12 0.242947 0.850546 0.504203
O O13 0.600518 0.807686 0.848153
O O14 0.369607 0.350654 0.211722
O O15 0.500000 0.316437 0.000000
O O16 0.000000 0.931077 0.500000
#
# Coordination Sequence:
#
# PCOD9123529 Si02
#       7
#     4   4   2   4   4   4   4
#     4  12  26  45  72  98 136 196 232 295 350 419
#     4  10  21  38  66 107 147 176 230 292 356 430
#     4  12  28  56  66  96 152 190 248 282 340 428
#     4  10  21  39  67 108 144 178 226 291 367 416
#     4  10  20  38  69 106 142 185 223 290 368 413
#     4  10  20  39  68 104 147 178 221 297 356 417
#     4  12  27  45  73 101 136 193 236 294 345 425
#
# _framework density 22.326543000000001
#
# number of rings (size 3 to 8) (size 9 to 14) (size 15 to 20)
#    0.000    1.231    3.846    0.923    6.462    3.077 
#    2.769    0.000    0.000    0.000    0.000    0.000 
#    0.000    0.000    0.000    0.000    0.000    0.000 
#
# Total GULP energy -72568.491695 kJ/mol
# GULP energy per Si atom -5582.191669 kJ/mol
# Density = 2.227573 g / cm^3
# Si number density = 22.326543 Si / 1000 Ang^3
#
#
#
# Elastic Constant Matrix: (Units=GPa)
#
#
# Indices 1 2 3 4 5 6 
#
# 1 42.2098 27.4631 19.6669 0.0000 -14.8280 0.0000
# 2 27.4631 60.6201 28.9282 0.0000 -2.3027 0.0000
# 3 19.6669 28.9282 105.6869 0.0000 13.9773 0.0000
# 4 0.0000 0.0000 0.0000 44.3899 0.0000 6.1119
# 5 -14.8280 -2.3027 13.9773 0.0000 45.2029 0.0000
# 6 0.0000 0.0000 0.0000 6.1119 0.0000 13.4778
#
#
#
# Elastic Compliance Matrix: (Units=1/GPa)
#
#
# Indices 1 2 3 4 5 6 
#
# 1 0.041459 -0.015690 -0.005331 0.000000 0.014449 0.000000
# 2 -0.015690 0.025229 -0.003624 0.000000 -0.002741 0.000000
# 3 -0.005331 -0.003624 0.012200 0.000000 -0.005706 0.000000
# 4 0.000000 0.000000 0.000000 0.024028 0.000000 -0.010896
# 5 0.014449 -0.002741 -0.005706 0.000000 0.028487 0.000000
# 6 0.000000 0.000000 0.000000 -0.010896 0.000000 0.079137
#
#
# Mechanical properties :
#
#
# Convention : Reuss Voigt Hill
#
# Bulk Modulus (GPa) = 33.78386 40.07036 36.92711
# Shear Modulus (GPa) = 18.53931 29.44468 23.99200
#
# Velocity S-wave (km/s) = 2.88474 3.63550 3.28166
# Velocity P-wave (km/s) = 5.12447 5.96731 5.56188
#
# Compressibility (1/GPa) = 0.02959993
#
# Stress axis : x y z
#
# Youngs Moduli (GPa) = 24.12000 39.63667 81.96410
#
# Poissons Ratio (x) = 0.62188 0.43699
# Poissons Ratio (y) = 0.37843 0.29700
# Poissons Ratio (z) = 0.12860 0.14362
#
# Static dielectric constant tensor:
#      x y z
#    x 1.857480 0.000000 -0.011490 
#    y 0.000000 1.859390 0.000000 
#    z -0.011490 0.000000 1.926120 
# 
# From -- ./inp_files/16892.got.cif
#   From: 2010.05.17/outbox.cif.g08.bks.cpg/sg5_9_cif.got.tgz:16892.got - 2010.06.03 18:56:24.
