data_PCOD9123018
_publ_section_title
;
Structure prediction by ZEFSAII (Michael W. Deem and Ramdas Pophale) SiO2 
 PCOD9123018
Probable space group: C 2
;
_chemical_formula_sum "Si O2"
_cell_formula_units_Z 26
_cell_length_a 14.125607
_cell_length_b 7.267488
_cell_length_c 10.036277
_cell_angle_alpha 90.000000
_cell_angle_beta 75.738163
_cell_angle_gamma 90.000000
_cell_volume 998.547068
_symmetry_space_group_name_H-M "C 2"
_symmetry_group_IT_number 5
_symmetry_cell_setting 'monoclinic'
loop_
_space_group_symop_operation_xyz
x,y,z
-x,y,-z
1/2+x,1/2+y,z
1/2-x,1/2+y,-z
loop_
_atom_site_type_symbol
_atom_site_label
_atom_site_fract_x
_atom_site_fract_y
_atom_site_fract_z
Si Si1 0.152569 0.360480 0.476581
Si Si2 0.588552 0.884226 0.219526
Si Si3 0.831220 0.155800 0.107817
Si Si4 0.500000 0.946808 0.000000
Si Si5 0.565102 0.569371 0.671152
Si Si6 0.694381 0.276979 0.952047
Si Si7 0.638701 0.194286 0.681870
O O1 0.102641 0.451438 0.364816
O O2 0.099425 0.166636 0.524789
O O3 0.262739 0.296267 0.407585
O O4 0.137484 0.500408 0.605036
O O5 0.524264 0.696136 0.248272
O O6 0.696928 0.824667 0.139060
O O7 0.536276 0.020579 0.131235
O O8 0.844780 0.109384 0.256919
O O9 0.861742 0.968833 0.021207
O O10 0.907855 0.314529 0.057065
O O11 0.724897 0.203580 0.086167
O O12 0.557107 0.349425 0.676519
O O13 0.648918 0.171963 0.840649
#
# Coordination Sequence:
#
# PCOD9123018 Si02
#       7
#     4   4   4   2   4   4   4
#     4  11  20  36  60  88 118 156 201 247 290 355
#     4   9  19  36  59  84 115 156 199 233 304 349
#     4   9  18  33  59  83 116 150 204 233 300 343
#     4   8  16  36  60  82 110 160 190 246 294 346
#     4  10  20  37  59  84 121 161 188 255 291 349
#     4   9  19  34  57  88 113 155 199 238 289 360
#     4  10  21  36  59  89 120 153 206 239 296 349
#
# _framework density 26.037831000000001
#
# number of rings (size 3 to 8) (size 9 to 14) (size 15 to 20)
#    0.000    2.462    1.538    0.462    2.154    0.000 
#    0.000    3.077   13.538    0.000    0.000    0.000 
#    0.000    0.000    0.000    0.000    0.000    0.000 
#
# Total GULP energy -72537.772334 kJ/mol
# GULP energy per Si atom -5579.828641 kJ/mol
# Density = 2.597857 g / cm^3
# Si number density = 26.037831 Si / 1000 Ang^3
#
#
#
# Elastic Constant Matrix: (Units=GPa)
#
#
# Indices 1 2 3 4 5 6 
#
# 1 89.6187 29.2905 -4.4023 0.0000 16.1469 0.0000
# 2 29.2905 121.4725 10.9854 0.0000 4.9949 0.0000
# 3 -4.4023 10.9854 77.7667 0.0000 37.7200 0.0000
# 4 0.0000 0.0000 0.0000 33.7845 0.0000 11.9458
# 5 16.1469 4.9949 37.7200 0.0000 50.8202 0.0000
# 6 0.0000 0.0000 0.0000 11.9458 0.0000 30.4224
#
#
#
# Elastic Compliance Matrix: (Units=1/GPa)
#
#
# Indices 1 2 3 4 5 6 
#
# 1 0.013979 -0.003509 0.005116 0.000000 -0.007893 0.000000
# 2 -0.003509 0.009220 -0.002503 0.000000 0.002067 0.000000
# 3 0.005116 -0.002503 0.022143 0.000000 -0.017814 0.000000
# 4 0.000000 0.000000 0.000000 0.034372 0.000000 -0.013497
# 5 -0.007893 0.002067 -0.017814 0.000000 0.035204 0.000000
# 6 0.000000 0.000000 0.000000 -0.013497 0.000000 0.038170
#
#
# Mechanical properties :
#
#
# Convention : Reuss Voigt Hill
#
# Bulk Modulus (GPa) = 22.96318 40.06722 31.51520
# Shear Modulus (GPa) = 29.51660 39.87106 34.69383
#
# Velocity S-wave (km/s) = 3.37056 3.91739 3.65422
# Velocity P-wave (km/s) = 4.89753 5.99023 5.47123
#
# Compressibility (1/GPa) = 0.04354798
#
# Stress axis : x y z
#
# Youngs Moduli (GPa) = 71.53785 108.46242 45.16141
#
# Poissons Ratio (x) = 0.38056 -0.23103
# Poissons Ratio (y) = 0.25100 0.11306
# Poissons Ratio (z) = -0.36596 0.27153
#
# Static dielectric constant tensor:
#      x y z
#    x 2.056230 0.000000 0.017650 
#    y 0.000000 2.075000 0.000000 
#    z 0.017650 0.000000 2.151030 
# 
# From -- ./inp_files/41521.got.cif
#   From: 2010.05.17/outbox.cif.g08.bks.cpg/sg5_21_cif.got.tgz:41521.got - 2010.06.03 18:56:24.
