data_PCOD9123285
_publ_section_title
;
Structure prediction by ZEFSAII (Michael W. Deem and Ramdas Pophale) SiO2 
 PCOD9123285
Probable space group: C 2
;
_chemical_formula_sum "Si O2"
_cell_formula_units_Z 28
_cell_length_a 11.996952
_cell_length_b 8.979354
_cell_length_c 12.161183
_cell_angle_alpha 90.000000
_cell_angle_beta 66.884998
_cell_angle_gamma 90.000000
_cell_volume 1204.888539
_symmetry_space_group_name_H-M "C 2"
_symmetry_group_IT_number 5
_symmetry_cell_setting 'monoclinic'
loop_
_space_group_symop_operation_xyz
x,y,z
-x,y,-z
1/2+x,1/2+y,z
1/2-x,1/2+y,-z
loop_
_atom_site_type_symbol
_atom_site_label
_atom_site_fract_x
_atom_site_fract_y
_atom_site_fract_z
Si Si1 0.780772 0.248110 0.436711
Si Si2 0.435024 0.244321 0.311216
Si Si3 0.679626 0.075224 0.278729
Si Si4 0.642714 0.742095 0.953022
Si Si5 0.629980 0.776973 0.202006
Si Si6 0.502905 0.542376 0.376180
Si Si7 0.884140 0.457601 0.223576
O O1 0.684288 0.257426 0.569006
O O2 0.731852 0.122931 0.373690
O O3 0.907262 0.178381 0.426004
O O4 0.795610 0.396150 0.355195
O O5 0.547059 0.150864 0.321463
O O6 0.476936 0.415204 0.295557
O O7 0.405345 0.133473 0.222315
O O8 0.767585 0.140235 0.151405
O O9 0.683582 0.900625 0.260058
O O10 0.648926 0.898368 0.884053
O O11 0.500000 0.693702 0.000000
O O12 0.686712 0.747699 0.061173
O O13 0.614971 0.629351 0.279730
O O14 0.504793 0.861035 0.209505
O O15 0.500000 0.472692 0.500000
#
# Coordination Sequence:
#
# PCOD9123285 Si02
#       7
#     4   4   4   4   4   4   4
#     4  10  20  38  60  85 123 165 206 254 308 366
#     4  11  21  36  59  90 123 158 206 256 306 366
#     4  10  21  37  60  88 117 164 210 249 309 374
#     4   9  18  39  64  83 115 161 212 265 311 359
#     4   9  20  37  59  87 121 157 199 252 309 367
#     4  11  24  39  58  91 129 166 205 254 308 370
#     4   8  18  36  61  84 111 161 211 250 301 358
#
# _framework density 23.238664
#
# number of rings (size 3 to 8) (size 9 to 14) (size 15 to 20)
#    0.000    2.286    0.000    3.000    0.000    6.857 
#    0.000    2.143    0.000   24.857    0.000    0.000 
#    0.000    0.000    0.000    0.000    0.000    0.000 
#
# Total GULP energy -78120.155430 kJ/mol
# GULP energy per Si atom -5580.011102 kJ/mol
# Density = 2.318577 g / cm^3
# Si number density = 23.238664 Si / 1000 Ang^3
#
#
#
# Elastic Constant Matrix: (Units=GPa)
#
#
# Indices 1 2 3 4 5 6 
#
# 1 31.4072 -0.7673 6.0630 0.0000 0.6512 0.0000
# 2 -0.7673 127.4865 20.0461 0.0000 11.1831 0.0000
# 3 6.0630 20.0461 63.4552 0.0000 6.5411 0.0000
# 4 0.0000 0.0000 0.0000 95.3461 0.0000 -7.4745
# 5 0.6512 11.1831 6.5411 0.0000 22.0755 0.0000
# 6 0.0000 0.0000 0.0000 -7.4745 0.0000 37.9389
#
#
#
# Elastic Compliance Matrix: (Units=1/GPa)
#
#
# Indices 1 2 3 4 5 6 
#
# 1 0.032503 0.000747 -0.003305 0.000000 -0.000358 0.000000
# 2 0.000747 0.008544 -0.002395 0.000000 -0.003641 0.000000
# 3 -0.003305 -0.002395 0.017223 0.000000 -0.003792 0.000000
# 4 0.000000 0.000000 0.000000 0.010653 0.000000 0.002099
# 5 -0.000358 -0.003641 -0.003792 0.000000 0.048278 0.000000
# 6 0.000000 0.000000 0.000000 0.002099 0.000000 0.026772
#
#
# Mechanical properties :
#
#
# Convention : Reuss Voigt Hill
#
# Bulk Modulus (GPa) = 20.67658 30.33693 25.50676
# Shear Modulus (GPa) = 29.41171 44.20591 36.80881
#
# Velocity S-wave (km/s) = 3.56144 4.36622 3.98420
# Velocity P-wave (km/s) = 5.08218 6.20494 5.67142
#
# Compressibility (1/GPa) = 0.04836390
#
# Stress axis : x y z
#
# Youngs Moduli (GPa) = 30.76596 117.03469 58.06355
#
# Poissons Ratio (x) = -0.08738 0.19188
# Poissons Ratio (y) = -0.02297 0.13908
# Poissons Ratio (z) = 0.10167 0.28034
#
# Static dielectric constant tensor:
#      x y z
#    x 1.990860 0.000000 -0.011640 
#    y 0.000000 1.902470 0.000000 
#    z -0.011640 0.000000 1.609750 
# 
# From -- ./inp_files/41871.got.cif
#   From: 2010.05.17/outbox.cif.g08.bks.cpg/sg5_21_cif.got.tgz:41871.got - 2010.06.03 18:56:24.
