data_PCOD9123896
_publ_section_title
;
Structure prediction by ZEFSAII (Michael W. Deem and Ramdas Pophale) SiO2 
 PCOD9123896
Probable space group: C 2
;
_chemical_formula_sum "Si O2"
_cell_formula_units_Z 28
_cell_length_a 13.984403
_cell_length_b 4.874928
_cell_length_c 16.031928
_cell_angle_alpha 90.000000
_cell_angle_beta 60.271812
_cell_angle_gamma 90.000000
_cell_volume 949.099036
_symmetry_space_group_name_H-M "C 2"
_symmetry_group_IT_number 5
_symmetry_cell_setting 'monoclinic'
loop_
_space_group_symop_operation_xyz
x,y,z
-x,y,-z
1/2+x,1/2+y,z
1/2-x,1/2+y,-z
loop_
_atom_site_type_symbol
_atom_site_label
_atom_site_fract_x
_atom_site_fract_y
_atom_site_fract_z
Si Si1 0.780565 0.661530 0.934689
Si Si2 0.808105 0.536062 0.175521
Si Si3 0.072769 0.285844 0.295636
Si Si4 0.133374 0.561286 0.675165
Si Si5 0.500000 0.378475 0.000000
Si Si6 0.998808 0.942746 0.829741
Si Si7 0.000000 0.372866 0.500000
Si Si8 0.776802 0.555245 0.518861
O O1 0.732065 0.795047 0.871866
O O2 0.911064 0.694230 0.873700
O O3 0.754115 0.356190 0.973260
O O4 0.702712 0.740243 0.235980
O O5 0.831174 0.386824 0.255029
O O6 0.905799 0.687121 0.081436
O O7 0.036280 0.121924 0.231544
O O8 0.033847 0.194184 0.405241
O O9 0.989484 0.543638 0.318250
O O10 0.203223 0.777040 0.574852
O O11 0.111282 0.811990 0.752039
O O12 0.519070 0.571513 0.071764
O O13 0.111943 0.538389 0.474889
O O14 0.801578 0.323378 0.421595
#
# Coordination Sequence:
#
# PCOD9123896 Si02
#       8
#     4   4   4   4   2   4   2   4
#     4  11  24  42  67  99 139 189 244 305 375 450
#     4  10  22  43  68 104 142 197 254 311 386 459
#     4  10  23  45  69 105 146 195 254 322 381 467
#     4  10  24  45  66 104 147 193 251 314 383 462
#     4  10  20  40  68 102 150 192 250 314 384 456
#     4  10  23  39  68 100 145 192 249 311 376 464
#     4  10  24  50  78 112 154 212 258 328 402 464
#     4  11  26  49  78 114 155 202 260 322 392 470
#
# _framework density 29.501662
#
# number of rings (size 3 to 8) (size 9 to 14) (size 15 to 20)
#    0.000    1.714    1.429    0.857    8.000    1.714 
#   12.857    0.714    0.000    0.000    0.000    0.000 
#    0.000    0.000    0.000    0.000    0.000    0.000 
#
# Total GULP energy -78152.913790 kJ/mol
# GULP energy per Si atom -5582.350985 kJ/mol
# Density = 2.943451 g / cm^3
# Si number density = 29.501662 Si / 1000 Ang^3
#
#
#
# Elastic Constant Matrix: (Units=GPa)
#
#
# Indices 1 2 3 4 5 6 
#
# 1 196.8663 46.9397 77.8565 0.0022 3.1671 0.0104
# 2 46.9397 175.6931 49.6961 0.0114 -8.0766 0.0193
# 3 77.8565 49.6961 337.8784 -0.0012 41.3635 0.0009
# 4 0.0022 0.0114 -0.0012 58.1225 -0.0013 -7.7651
# 5 3.1671 -8.0766 41.3635 -0.0013 62.7855 0.0019
# 6 0.0104 0.0193 0.0009 -7.7651 0.0019 26.3037
#
#
#
# Elastic Compliance Matrix: (Units=1/GPa)
#
#
# Indices 1 2 3 4 5 6 
#
# 1 0.005840 -0.001201 -0.001212 0.000000 0.000349 -0.000001
# 2 -0.001201 0.006311 -0.000825 -0.000002 0.001416 -0.000005
# 3 -0.001212 -0.000825 0.003661 0.000000 -0.002457 0.000001
# 4 0.000000 -0.000002 0.000000 0.017911 0.000000 0.005288
# 5 0.000349 0.001416 -0.002457 0.000000 0.017710 -0.000002
# 6 -0.000001 -0.000005 0.000001 0.005288 -0.000002 0.039578
#
#
# Mechanical properties :
#
#
# Convention : Reuss Voigt Hill
#
# Bulk Modulus (GPa) = 107.11164 117.71361 112.41263
# Shear Modulus (GPa) = 49.70207 65.17203 57.43705
#
# Velocity S-wave (km/s) = 4.10899 4.70520 4.41717
# Velocity P-wave (km/s) = 7.67447 8.33702 8.01260
#
# Compressibility (1/GPa) = 0.00933605
#
# Stress axis : x y z
#
# Youngs Moduli (GPa) = 171.24452 158.45136 273.15597
#
# Poissons Ratio (x) = 0.19036 0.33097
# Poissons Ratio (y) = 0.20573 0.22528
# Poissons Ratio (z) = 0.20749 0.13068
#
# Static dielectric constant tensor:
#      x y z
#    x 2.983310 -0.000030 0.227510 
#    y -0.000030 2.417210 -0.000010 
#    z 0.227510 -0.000010 2.469620 
# 
# From -- ./inp_files/61182.got.cif
#   From: 2010.05.17/outbox.cif.g08.bks.cpg/sg5_31_cif.got.tgz:61182.got - 2010.06.03 18:56:24.
