data_PCOD9123923
_publ_section_title
;
Structure prediction by ZEFSAII (Michael W. Deem and Ramdas Pophale) SiO2 
 PCOD9123923
Probable space group: C 2
;
_chemical_formula_sum "Si O2"
_cell_formula_units_Z 28
_cell_length_a 13.953856
_cell_length_b 7.190245
_cell_length_c 13.401900
_cell_angle_alpha 90.000000
_cell_angle_beta 119.019606
_cell_angle_gamma 90.000000
_cell_volume 1175.820825
_symmetry_space_group_name_H-M "C 2"
_symmetry_group_IT_number 5
_symmetry_cell_setting 'monoclinic'
loop_
_space_group_symop_operation_xyz
x,y,z
-x,y,-z
1/2+x,1/2+y,z
1/2-x,1/2+y,-z
loop_
_atom_site_type_symbol
_atom_site_label
_atom_site_fract_x
_atom_site_fract_y
_atom_site_fract_z
Si Si1 0.124677 0.381710 0.024562
Si Si2 0.439006 0.843554 0.223281
Si Si3 0.122579 0.558850 0.529849
Si Si4 0.776119 0.613743 0.218918
Si Si5 0.887372 0.776195 0.898078
Si Si6 0.109362 0.139085 0.598910
Si Si7 0.849979 0.547172 0.683898
O O1 0.121252 0.307624 0.910631
O O2 0.217489 0.282780 0.135737
O O3 0.142485 0.602829 0.045292
O O4 0.000000 0.351197 0.000000
O O5 0.200422 0.936606 0.155493
O O6 0.412680 0.701116 0.298268
O O7 0.393867 0.045613 0.237097
O O8 0.207794 0.628755 0.654924
O O9 0.124466 0.333098 0.544941
O O10 0.145708 0.613439 0.428503
O O11 0.000000 0.612788 0.500000
O O12 0.568431 0.870776 0.271305
O O13 0.896956 0.685471 0.792729
O O14 0.000000 0.852846 0.000000
O O15 0.222074 0.030831 0.645479
O O16 0.000000 0.047496 0.500000
#
# Coordination Sequence:
#
# PCOD9123923 Si02
#       7
#     4   4   4   4   4   4   4
#     4  11  25  42  68 102 139 191 242 304 367 435
#     4  11  22  41  69 100 146 192 237 305 375 428
#     4  10  20  40  68  99 139 192 238 295 373 426
#     4  11  24  44  68 102 146 184 243 303 359 438
#     4  11  23  42  69 104 140 188 246 293 372 439
#     4  10  21  40  68 104 138 195 245 294 378 440
#     4  12  20  39  77  98 140 195 233 298 366 434
#
# _framework density 23.813153
#
# number of rings (size 3 to 8) (size 9 to 14) (size 15 to 20)
#    0.000    1.143   10.000    0.429    2.000    2.286 
#    0.000    0.000    3.143    0.857    0.000    0.000 
#    0.000    0.000    0.000    0.000    0.000    0.000 
#
# Total GULP energy -78324.931898 kJ/mol
# GULP energy per Si atom -5594.637993 kJ/mol
# Density = 2.375895 g / cm^3
# Si number density = 23.813153 Si / 1000 Ang^3
#
#
#
# Elastic Constant Matrix: (Units=GPa)
#
#
# Indices 1 2 3 4 5 6 
#
# 1 145.5278 36.9874 67.7037 0.0000 18.8706 0.0000
# 2 36.9874 65.3551 12.7172 0.0000 11.9501 0.0000
# 3 67.7037 12.7172 202.8724 0.0000 16.8367 0.0000
# 4 0.0000 0.0000 0.0000 6.1712 0.0000 14.2200
# 5 18.8706 11.9501 16.8367 0.0000 45.5254 0.0000
# 6 0.0000 0.0000 0.0000 14.2200 0.0000 27.5459
#
#
#
# Elastic Compliance Matrix: (Units=1/GPa)
#
#
# Indices 1 2 3 4 5 6 
#
# 1 0.009532 -0.004540 -0.002752 0.000000 -0.001741 0.000000
# 2 -0.004540 0.018326 0.000629 0.000000 -0.003161 0.000000
# 3 -0.002752 0.000629 0.005909 0.000000 -0.001210 0.000000
# 4 0.000000 0.000000 0.000000 -0.855019 0.000000 0.441387
# 5 -0.001741 -0.003161 -0.001210 0.000000 0.023965 0.000000
# 6 0.000000 0.000000 0.000000 0.441387 0.000000 -0.191555
#
#
# Mechanical properties :
#
#
# Convention : Reuss Voigt Hill
#
# Bulk Modulus (GPa) = 48.92486 72.06353 60.49420
# Shear Modulus (GPa) = -5.16154 35.60497 15.22172
#
# Velocity S-wave (km/s) = -1.47385 3.87095 2.53101
# Velocity P-wave (km/s) = 4.20638 7.09273 5.83097
#
# Compressibility (1/GPa) = 0.02043951
#
# Stress axis : x y z
#
# Youngs Moduli (GPa) = 104.91469 54.56633 169.24728
#
# Poissons Ratio (x) = 0.24776 0.46573
# Poissons Ratio (y) = 0.47636 -0.10642
# Poissons Ratio (z) = 0.28870 -0.03431
#
# Static dielectric constant tensor:
#      x y z
#    x 1.960130 0.000000 0.004160 
#    y 0.000000 1.919740 0.000000 
#    z 0.004160 0.000000 1.910080 
# 
# From -- ./inp_files/41778.got.cif
#   From: 2010.05.17/outbox.cif.g08.bks.cpg/sg5_21_cif.got.tgz:41778.got - 2010.06.03 18:56:24.
