data_PCOD9123985
_publ_section_title
;
Structure prediction by ZEFSAII (Michael W. Deem and Ramdas Pophale) SiO2 
 PCOD9123985
Probable space group: C 2
;
_chemical_formula_sum "Si O2"
_cell_formula_units_Z 28
_cell_length_a 9.293049
_cell_length_b 13.749092
_cell_length_c 12.133221
_cell_angle_alpha 90.000000
_cell_angle_beta 64.424260
_cell_angle_gamma 90.000000
_cell_volume 1398.370664
_symmetry_space_group_name_H-M "C 2"
_symmetry_group_IT_number 5
_symmetry_cell_setting 'monoclinic'
loop_
_space_group_symop_operation_xyz
x,y,z
-x,y,-z
1/2+x,1/2+y,z
1/2-x,1/2+y,-z
loop_
_atom_site_type_symbol
_atom_site_label
_atom_site_fract_x
_atom_site_fract_y
_atom_site_fract_z
Si Si1 0.440500 0.589270 0.750778
Si Si2 0.381990 0.434910 0.432679
Si Si3 0.828150 0.048775 0.028534
Si Si4 0.017104 0.428970 0.119204
Si Si5 0.991982 0.735287 0.374670
Si Si6 0.811253 0.558047 0.344666
Si Si7 0.153758 0.227792 0.805342
O O1 0.532634 0.489410 0.695307
O O2 0.334893 0.603961 0.676662
O O3 0.575054 0.669398 0.729869
O O4 0.337547 0.579687 0.896673
O O5 0.500000 0.429894 0.500000
O O6 0.364719 0.322897 0.406128
O O7 0.242754 0.502618 0.526451
O O8 0.823789 0.146734 0.105459
O O9 0.689049 0.971322 0.097565
O O10 0.000000 0.003463 0.000000
O O11 0.887993 0.478105 0.240329
O O12 0.970580 0.315103 0.132116
O O13 0.000000 0.464327 0.000000
O O14 0.936642 0.641954 0.326746
O O15 0.000000 0.708215 0.500000
O O16 0.169597 0.767223 0.279384
#
# Coordination Sequence:
#
# PCOD9123985 Si02
#       7
#     4   4   4   4   4   4   4
#     4  10  20  41  61  88 131 167 212 274 321 383
#     4   9  20  38  63  86 123 170 211 263 334 389
#     4  10  22  41  63  92 135 169 216 269 325 387
#     4  12  22  40  68  94 129 178 219 264 336 397
#     4  11  22  40  63  96 125 170 224 268 332 405
#     4  11  22  40  65  94 124 169 221 273 329 395
#     4  11  23  41  65  95 132 174 216 268 336 389
#
# _framework density 20.023304
#
# number of rings (size 3 to 8) (size 9 to 14) (size 15 to 20)
#    0.000    1.429    2.857    4.714    0.000    0.000 
#    5.143    0.000    0.000    0.000    0.000    0.000 
#    0.000    0.000    0.000    0.000    0.000    0.000 
#
# Total GULP energy -78048.147640 kJ/mol
# GULP energy per Si atom -5574.867689 kJ/mol
# Density = 1.997773 g / cm^3
# Si number density = 20.023304 Si / 1000 Ang^3
#
#
#
# Elastic Constant Matrix: (Units=GPa)
#
#
# Indices 1 2 3 4 5 6 
#
# 1 70.2422 45.6333 18.3541 0.0000 -10.3150 0.0000
# 2 45.6333 112.9296 30.8780 0.0000 -0.7748 0.0000
# 3 18.3541 30.8780 74.2871 0.0000 -2.2246 0.0000
# 4 0.0000 0.0000 0.0000 34.0427 0.0000 -6.1247
# 5 -10.3150 -0.7748 -2.2246 0.0000 23.3652 0.0000
# 6 0.0000 0.0000 0.0000 -6.1247 0.0000 33.6288
#
#
#
# Elastic Compliance Matrix: (Units=1/GPa)
#
#
# Indices 1 2 3 4 5 6 
#
# 1 0.021215 -0.008068 -0.001620 0.000000 0.008944 0.000000
# 2 -0.008068 0.013059 -0.003538 0.000000 -0.003466 0.000000
# 3 -0.001620 -0.003538 0.015351 0.000000 0.000629 0.000000
# 4 0.000000 0.000000 0.000000 0.030370 0.000000 0.005531
# 5 0.008944 -0.003466 0.000629 0.000000 0.046692 0.000000
# 6 0.000000 0.000000 0.000000 0.005531 0.000000 0.030744
#
#
# Mechanical properties :
#
#
# Convention : Reuss Voigt Hill
#
# Bulk Modulus (GPa) = 43.15655 49.68776 46.42216
# Shear Modulus (GPa) = 26.09487 29.04689 27.57088
#
# Velocity S-wave (km/s) = 3.61394 3.81288 3.71474
# Velocity P-wave (km/s) = 6.24612 6.65228 6.45240
#
# Compressibility (1/GPa) = 0.02317145
#
# Stress axis : x y z
#
# Youngs Moduli (GPa) = 47.13690 76.57505 65.14158
#
# Poissons Ratio (x) = 0.61783 0.10553
# Poissons Ratio (y) = 0.38031 0.23050
# Poissons Ratio (z) = 0.07636 0.27096
#
# Static dielectric constant tensor:
#      x y z
#    x 1.732910 0.000000 -0.019880 
#    y 0.000000 1.705610 0.000000 
#    z -0.019880 0.000000 1.728790 
# 
# From -- ./inp_files/36201.got.cif
#   From: 2010.05.17/outbox.cif.g08.bks.cpg/sg5_19_cif.got.tgz:36201.got - 2010.06.03 18:56:24.
