data_PCOD9123665
_publ_section_title
;
Structure prediction by ZEFSAII (Michael W. Deem and Ramdas Pophale) SiO2 
 PCOD9123665
Probable space group: C 2
;
_chemical_formula_sum "Si O2"
_cell_formula_units_Z 26
_cell_length_a 18.409643
_cell_length_b 7.991483
_cell_length_c 16.742774
_cell_angle_alpha 90.000000
_cell_angle_beta 29.390282
_cell_angle_gamma 90.000000
_cell_volume 1208.831480
_symmetry_space_group_name_H-M "C 2"
_symmetry_group_IT_number 5
_symmetry_cell_setting 'monoclinic'
loop_
_space_group_symop_operation_xyz
x,y,z
-x,y,-z
1/2+x,1/2+y,z
1/2-x,1/2+y,-z
loop_
_atom_site_type_symbol
_atom_site_label
_atom_site_fract_x
_atom_site_fract_y
_atom_site_fract_z
Si Si1 0.204157 0.736030 0.411194
Si Si2 0.336216 0.976824 0.684618
Si Si3 0.186170 0.297401 0.057915
Si Si4 0.557653 0.135708 0.253604
Si Si5 0.514197 0.850791 0.077997
Si Si6 0.247441 0.646926 0.840223
Si Si7 0.500000 0.461641 0.500000
O O1 0.228625 0.582538 0.326306
O O2 0.351458 0.845876 0.272330
O O3 0.117909 0.664189 0.570623
O O4 0.081230 0.850818 0.487796
O O5 0.500000 0.911617 0.500000
O O6 0.378273 0.094448 0.719354
O O7 0.230414 0.829134 0.816218
O O8 0.109204 0.471424 0.155529
O O9 0.105907 0.240201 0.053550
O O10 0.182575 0.184516 0.140058
O O11 0.358071 0.291788 0.867041
O O12 0.500000 0.790792 0.000000
O O13 0.605010 0.026204 0.983661
O O14 0.369585 0.558653 0.668938
#
# Coordination Sequence:
#
# PCOD9123665 Si02
#       7
#     4   4   4   4   4   4   2
#     4  11  22  40  70 100 141 180 237 284 356 418
#     4   9  18  38  67 101 130 178 236 281 338 417
#     4  11  23  43  67 100 139 183 235 283 351 421
#     4  10  20  39  66  97 131 185 227 277 347 420
#     4  12  24  44  69 104 143 179 236 298 344 415
#     4  11  23  41  71 102 141 185 236 292 349 418
#     4  12  20  40  74  98 134 198 232 280 354 432
#
# _framework density 21.508375000000001
#
# number of rings (size 3 to 8) (size 9 to 14) (size 15 to 20)
#    0.000    1.231    6.154    1.846    0.000    0.000 
#    2.769    3.846    0.000    0.000    0.000    0.000 
#    0.000    0.000    0.000    0.000    0.000    0.000 
#
# Total GULP energy -72454.786356 kJ/mol
# GULP energy per Si atom -5573.445104 kJ/mol
# Density = 2.145942 g / cm^3
# Si number density = 21.508375 Si / 1000 Ang^3
#
#
#
# Elastic Constant Matrix: (Units=GPa)
#
#
# Indices 1 2 3 4 5 6 
#
# 1 70.0379 15.2065 19.6274 0.0000 15.7553 0.0000
# 2 15.2065 91.2723 70.3488 0.0000 4.3031 0.0000
# 3 19.6274 70.3488 163.2510 0.0000 6.9621 0.0000
# 4 0.0000 0.0000 0.0000 44.1926 0.0000 8.1668
# 5 15.7553 4.3031 6.9621 0.0000 34.7312 0.0000
# 6 0.0000 0.0000 0.0000 8.1668 0.0000 23.8697
#
#
#
# Elastic Compliance Matrix: (Units=1/GPa)
#
#
# Indices 1 2 3 4 5 6 
#
# 1 0.016505 -0.001676 -0.000960 0.000000 -0.007087 0.000000
# 2 -0.001676 0.016588 -0.006951 0.000000 0.000098 0.000000
# 3 -0.000960 -0.006951 0.009260 0.000000 -0.000560 0.000000
# 4 0.000000 0.000000 0.000000 0.024155 0.000000 -0.008265
# 5 -0.007087 0.000098 -0.000560 0.000000 0.032108 0.000000
# 6 0.000000 0.000000 0.000000 -0.008265 0.000000 0.044722
#
#
# Mechanical properties :
#
#
# Convention : Reuss Voigt Hill
#
# Bulk Modulus (GPa) = 43.14056 59.43628 51.28842
# Shear Modulus (GPa) = 29.37051 35.18394 32.27722
#
# Velocity S-wave (km/s) = 3.69933 4.04892 3.87807
# Velocity P-wave (km/s) = 6.19256 7.03934 6.62949
#
# Compressibility (1/GPa) = 0.02318004
#
# Stress axis : x y z
#
# Youngs Moduli (GPa) = 60.58710 60.28325 107.98913
#
# Poissons Ratio (x) = 0.10102 0.10367
# Poissons Ratio (y) = 0.10153 0.75064
# Poissons Ratio (z) = 0.05816 0.41903
#
# Static dielectric constant tensor:
#      x y z
#    x 1.795080 0.000000 0.012980 
#    y 0.000000 1.823940 0.000000 
#    z 0.012980 0.000000 1.840640 
# 
# From -- ./inp_files/62226.got.cif
#   From: 2010.05.17/outbox.cif.g08.bks.cpg/sg5_32_cif.got.tgz:62226.got - 2010.06.03 18:56:24.
