data_PCOD9123958
_publ_section_title
;
Structure prediction by ZEFSAII (Michael W. Deem and Ramdas Pophale) SiO2 
 PCOD9123958
Probable space group: C 2
;
_chemical_formula_sum "Si O2"
_cell_formula_units_Z 24
_cell_length_a 12.993764
_cell_length_b 8.062115
_cell_length_c 14.605971
_cell_angle_alpha 90.000000
_cell_angle_beta 39.590810
_cell_angle_gamma 90.000000
_cell_volume 975.121169
_symmetry_space_group_name_H-M "C 2"
_symmetry_group_IT_number 5
_symmetry_cell_setting 'monoclinic'
loop_
_space_group_symop_operation_xyz
x,y,z
-x,y,-z
1/2+x,1/2+y,z
1/2-x,1/2+y,-z
loop_
_atom_site_type_symbol
_atom_site_label
_atom_site_fract_x
_atom_site_fract_y
_atom_site_fract_z
Si Si1 0.000000 0.957551 0.000000
Si Si2 0.000000 0.812686 0.500000
Si Si3 0.198849 0.860957 0.038345
Si Si4 0.487764 0.516061 0.329644
Si Si5 0.032206 0.539710 0.226976
Si Si6 0.768181 0.256454 0.574463
Si Si7 0.312320 0.026541 0.687682
O O1 0.899375 0.861454 0.990596
O O2 0.136595 0.053274 0.850721
O O3 0.041462 0.928271 0.386619
O O4 0.853974 0.680232 0.593522
O O5 0.152441 0.692481 0.120048
O O6 0.123366 0.000374 0.158758
O O7 0.384966 0.893340 0.887004
O O8 0.343725 0.395685 0.394808
O O9 0.409066 0.689096 0.413004
O O10 0.060801 0.522284 0.315719
O O11 0.853429 0.601061 0.325363
O O12 0.817215 0.350054 0.633448
#
# Coordination Sequence:
#
# PCOD9123958 Si02
#       7
#     2   2   4   4   4   4   4
#     4  10  20  40  72  94 128 188 226 284 352 412
#     4  12  24  46  66 100 142 184 240 292 354 430
#     4  10  21  43  66 100 140 179 235 293 345 421
#     4  11  24  44  66 102 144 181 241 290 353 427
#     4  10  22  43  70 101 137 184 235 291 351 423
#     4  11  23  45  69 103 138 187 231 297 351 424
#     4  11  22  43  73  97 135 187 234 291 363 411
#
# _framework density 24.612327000000001
#
# number of rings (size 3 to 8) (size 9 to 14) (size 15 to 20)
#    0.000    1.333    6.667    1.000    0.000    2.000 
#   12.000    0.000    0.000    0.000    0.000    0.000 
#    0.000    0.000    0.000    0.000    0.000    0.000 
#
# Total GULP energy -67107.996661 kJ/mol
# GULP energy per Si atom -5592.333055 kJ/mol
# Density = 2.455631 g / cm^3
# Si number density = 24.612327 Si / 1000 Ang^3
#
#
#
# Elastic Constant Matrix: (Units=GPa)
#
#
# Indices 1 2 3 4 5 6 
#
# 1 91.7843 20.4403 23.6352 0.0000 21.0520 0.0000
# 2 20.4403 53.2178 27.2156 0.0000 0.8759 0.0000
# 3 23.6352 27.2156 149.8887 0.0000 9.5535 0.0000
# 4 0.0000 0.0000 0.0000 43.0405 0.0000 1.8060
# 5 21.0520 0.8759 9.5535 0.0000 34.8831 0.0000
# 6 0.0000 0.0000 0.0000 1.8060 0.0000 40.4639
#
#
#
# Elastic Compliance Matrix: (Units=1/GPa)
#
#
# Indices 1 2 3 4 5 6 
#
# 1 0.014050 -0.004845 -0.000817 0.000000 -0.008134 0.000000
# 2 -0.004845 0.022394 -0.003514 0.000000 0.003324 0.000000
# 3 -0.000817 -0.003514 0.007533 0.000000 -0.001482 0.000000
# 4 0.000000 0.000000 0.000000 0.023278 0.000000 -0.001039
# 5 -0.008134 0.003324 -0.001482 0.000000 0.033898 0.000000
# 6 0.000000 0.000000 0.000000 -0.001039 0.000000 0.024760
#
#
# Mechanical properties :
#
#
# Convention : Reuss Voigt Hill
#
# Bulk Modulus (GPa) = 39.02464 48.60811 43.81637
# Shear Modulus (GPa) = 32.72125 38.58417 35.65271
#
# Velocity S-wave (km/s) = 3.65014 3.96368 3.81014
# Velocity P-wave (km/s) = 5.80128 6.38280 6.09897
#
# Compressibility (1/GPa) = 0.02562484
#
# Stress axis : x y z
#
# Youngs Moduli (GPa) = 71.17410 44.65520 132.74935
#
# Poissons Ratio (x) = 0.21633 0.10851
# Poissons Ratio (y) = 0.34481 0.46649
# Poissons Ratio (z) = 0.05818 0.15692
#
# Static dielectric constant tensor:
#      x y z
#    x 2.014390 0.000000 0.001410 
#    y 0.000000 2.010040 0.000000 
#    z 0.001410 0.000000 1.975480 
# 
# From -- ./inp_files/54103.got.cif
#   From: 2010.05.17/outbox.cif.g08.bks.cpg/sg5_28_cif.got.tgz:54103.got - 2010.06.03 18:56:24.
