data_PCOD9123181
_publ_section_title
;
Structure prediction by ZEFSAII (Michael W. Deem and Ramdas Pophale) SiO2 
 PCOD9123181
Probable space group: C 2
;
_chemical_formula_sum "Si O2"
_cell_formula_units_Z 32
_cell_length_a 14.780352
_cell_length_b 11.229089
_cell_length_c 16.074602
_cell_angle_alpha 90.000000
_cell_angle_beta 32.738991
_cell_angle_gamma 90.000000
_cell_volume 1442.834576
_symmetry_space_group_name_H-M "C 2"
_symmetry_group_IT_number 5
_symmetry_cell_setting 'monoclinic'
loop_
_space_group_symop_operation_xyz
x,y,z
-x,y,-z
1/2+x,1/2+y,z
1/2-x,1/2+y,-z
loop_
_atom_site_type_symbol
_atom_site_label
_atom_site_fract_x
_atom_site_fract_y
_atom_site_fract_z
Si Si1 0.773719 0.618870 0.622242
Si Si2 0.476753 0.521895 0.754559
Si Si3 0.119375 0.186122 0.328503
Si Si4 0.469443 0.939382 0.662824
Si Si5 0.819087 0.485766 0.223835
Si Si6 0.771930 0.869489 0.541850
Si Si7 0.811866 0.379097 0.056751
Si Si8 0.190986 0.122391 0.874848
O O1 0.586502 0.578847 0.741989
O O2 0.807536 0.735448 0.541098
O O3 0.770944 0.650709 0.721469
O O4 0.903407 0.516707 0.493424
O O5 0.439626 0.620019 0.711071
O O6 0.594993 0.420132 0.624687
O O7 0.311110 0.450400 0.907949
O O8 0.113460 0.326568 0.318411
O O9 0.000000 0.162363 0.500000
O O10 0.293680 0.123574 0.220166
O O11 0.589397 0.887551 0.642088
O O12 0.319228 0.023835 0.808539
O O13 0.721844 0.450574 0.381197
O O14 0.750144 0.416274 0.197087
O O15 0.005122 0.435988 0.091655
O O16 0.815499 0.237050 0.059469
O O17 0.000000 0.087078 0.000000
#
# Coordination Sequence:
#
# PCOD9123181 Si02
#       8
#     4   4   4   4   4   4   4   4
#     4  11  22  42  65  89 127 163 206 259 311 369
#     4  10  22  35  62  93 118 154 200 261 305 357
#     4  11  20  39  61  91 126 155 202 255 308 369
#     4  11  26  40  61  94 130 164 203 256 319 369
#     4  10  20  37  65  88 117 159 204 264 297 362
#     4  11  20  40  62  93 118 159 212 254 308 365
#     4  10  20  39  61  91 119 153 215 251 303 361
#     4  12  23  43  62  88 125 170 209 253 306 377
#
# _framework density 22.178564000000001
#
# number of rings (size 3 to 8) (size 9 to 14) (size 15 to 20)
#    0.000    1.250    5.000    1.875    0.000    1.000 
#    4.500    0.000    0.000    0.000    0.000    0.000 
#    0.000    0.000    0.000    0.000    0.000    0.000 
#
# Total GULP energy -89355.549055 kJ/mol
# GULP energy per Si atom -5584.721816 kJ/mol
# Density = 2.212808 g / cm^3
# Si number density = 22.178564 Si / 1000 Ang^3
#
#
#
# Elastic Constant Matrix: (Units=GPa)
#
#
# Indices 1 2 3 4 5 6 
#
# 1 48.6629 40.1507 18.2632 -0.0001 -2.8419 0.0000
# 2 40.1507 167.7781 53.3552 -0.0001 -22.8423 0.0000
# 3 18.2632 53.3552 59.3384 -0.0002 -14.9946 0.0000
# 4 -0.0001 -0.0001 -0.0002 28.9391 0.0001 -12.0696
# 5 -2.8419 -22.8423 -14.9946 0.0001 37.6066 0.0000
# 6 0.0000 0.0000 0.0000 -12.0696 0.0000 26.7166
#
#
#
# Elastic Compliance Matrix: (Units=1/GPa)
#
#
# Indices 1 2 3 4 5 6 
#
# 1 0.026354 -0.005446 -0.003945 0.000000 -0.002889 0.000000
# 2 -0.005446 0.009657 -0.006259 0.000000 0.002958 0.000000
# 3 -0.003945 -0.006259 0.025198 0.000000 0.005947 0.000000
# 4 0.000000 0.000000 0.000000 0.042578 0.000000 0.019235
# 5 -0.002889 0.002958 0.005947 0.000000 0.030541 0.000000
# 6 0.000000 0.000000 0.000000 0.019235 0.000000 0.046120
#
#
# Mechanical properties :
#
#
# Convention : Reuss Voigt Hill
#
# Bulk Modulus (GPa) = 33.43483 55.47973 44.45728
# Shear Modulus (GPa) = 22.55134 29.58648 26.06891
#
# Velocity S-wave (km/s) = 3.19220 3.65638 3.43215
# Velocity P-wave (km/s) = 5.35676 6.54941 5.98288
#
# Compressibility (1/GPa) = 0.02990893
#
# Stress axis : x y z
#
# Youngs Moduli (GPa) = 37.94428 103.55418 39.68619
#
# Poissons Ratio (x) = 0.56392 0.15656
# Poissons Ratio (y) = 0.20663 0.24841
# Poissons Ratio (z) = 0.14968 0.64819
#
# Static dielectric constant tensor:
#      x y z
#    x 1.856420 0.000000 -0.012970 
#    y 0.000000 1.813720 0.000000 
#    z -0.012970 0.000000 1.837250 
# 
# From -- ./inp_files/61697.got.cif
#   From: 2010.05.17/outbox.cif.g08.bks.cpg/sg5_31_cif.got.tgz:61697.got - 2010.06.03 18:56:24.
