data_PCOD9123299
_publ_section_title
;
Structure prediction by ZEFSAII (Michael W. Deem and Ramdas Pophale) SiO2 
 PCOD9123299
Probable space group: C 2
;
_chemical_formula_sum "Si O2"
_cell_formula_units_Z 26
_cell_length_a 19.653456
_cell_length_b 9.462456
_cell_length_c 7.211634
_cell_angle_alpha 90.000000
_cell_angle_beta 56.704387
_cell_angle_gamma 90.000000
_cell_volume 1120.997166
_symmetry_space_group_name_H-M "C 2"
_symmetry_group_IT_number 5
_symmetry_cell_setting 'monoclinic'
loop_
_space_group_symop_operation_xyz
x,y,z
-x,y,-z
1/2+x,1/2+y,z
1/2-x,1/2+y,-z
loop_
_atom_site_type_symbol
_atom_site_label
_atom_site_fract_x
_atom_site_fract_y
_atom_site_fract_z
Si Si1 0.611906 0.777780 0.029643
Si Si2 0.123091 0.944845 0.422242
Si Si3 0.764165 0.059059 0.074174
Si Si4 0.500000 0.544355 0.000000
Si Si5 0.000000 0.175069 0.500000
Si Si6 0.500000 0.202811 0.500000
Si Si7 0.837296 0.861469 0.260116
Si Si8 0.886595 0.586498 0.964002
O O1 0.701477 0.712549 0.920913
O O2 0.561705 0.660979 0.995302
O O3 0.564427 0.771564 0.297433
O O4 0.607633 0.932831 0.953418
O O5 0.182669 0.899300 0.497916
O O6 0.073699 0.806629 0.440980
O O7 0.172894 0.003530 0.175258
O O8 0.052392 0.067704 0.555783
O O9 0.677723 0.067252 0.107880
O O10 0.775592 0.948571 0.223160
O O11 0.427687 0.427656 0.127524
O O12 0.470087 0.125072 0.731466
O O13 0.850881 0.705791 0.155015
#
# Coordination Sequence:
#
# PCOD9123299 Si02
#       8
#     4   4   4   2   2   2   4   4
#     4  10  21  36  64  92 132 170 215 287 346 396
#     4  10  20  41  71  97 123 180 235 271 335 428
#     4  10  23  44  66  94 136 180 227 277 350 415
#     4  10  20  38  60  94 122 172 230 270 330 420
#     4   9  17  38  64  96 124 168 226 280 328 418
#     4  11  23  40  68 100 140 176 236 284 342 408
#     4  11  21  41  71  92 133 182 232 276 344 416
#     4  12  24  41  65 103 139 182 225 301 346 400
#
# _framework density 23.193636999999999
#
# number of rings (size 3 to 8) (size 9 to 14) (size 15 to 20)
#    0.000    1.538    3.077    2.308    0.000    1.846 
#    2.769    0.000    0.000    0.000    0.000    0.000 
#    0.000    0.000    0.000    0.000    0.000    0.000 
#
# Total GULP energy -72477.130544 kJ/mol
# GULP energy per Si atom -5575.163888 kJ/mol
# Density = 2.314085 g / cm^3
# Si number density = 23.193637 Si / 1000 Ang^3
#
#
#
# Elastic Constant Matrix: (Units=GPa)
#
#
# Indices 1 2 3 4 5 6 
#
# 1 8.3889 -93.7294 122.2872 0.0000 15.1348 0.0000
# 2 -93.7294 -48.9938 215.0052 0.0000 24.9835 0.0000
# 3 122.2872 215.0052 -155.7642 0.0000 -7.9837 0.0000
# 4 0.0000 0.0000 0.0000 16.5089 0.0000 -12.7078
# 5 15.1348 24.9835 -7.9837 0.0000 35.4413 0.0000
# 6 0.0000 0.0000 0.0000 -12.7078 0.0000 -14.1510
#
#
#
# Elastic Compliance Matrix: (Units=1/GPa)
#
#
# Indices 1 2 3 4 5 6 
#
# 1 0.012340 -0.003646 0.004738 0.000000 -0.001632 0.000000
# 2 -0.003646 0.005204 0.004378 0.000000 -0.001125 0.000000
# 3 0.004738 0.004378 0.003564 0.000000 -0.004307 0.000000
# 4 0.000000 0.000000 0.000000 0.035816 0.000000 -0.032163
# 5 -0.001632 -0.001125 -0.004307 0.000000 0.028735 0.000000
# 6 0.000000 0.000000 0.000000 -0.032163 0.000000 -0.041784
#
#
# Mechanical properties :
#
#
# Convention : Reuss Voigt Hill
#
# Bulk Modulus (GPa) = 31.20469 32.30633 31.75551
# Shear Modulus (GPa) = 114.63303 -21.76895 46.43204
#
# Velocity S-wave (km/s) = 7.03787 -3.06694 4.47915
# Velocity P-wave (km/s) = 8.91770 1.19068 6.36173
#
# Compressibility (1/GPa) = 0.03204647
#
# Stress axis : x y z
#
# Youngs Moduli (GPa) = 81.03922 192.16479 280.61665
#
# Poissons Ratio (x) = 0.70071 -1.32958
# Poissons Ratio (y) = 0.29550 -1.22853
# Poissons Ratio (z) = -0.38397 -0.84129
#
# Static dielectric constant tensor:
#      x y z
#    x 1.909390 0.000000 0.039430 
#    y 0.000000 1.912270 0.000000 
#    z 0.039430 0.000000 2.161960 
# 
# From -- ./inp_files/28689.got.cif
#   From: 2010.05.17/outbox.cif.g08.bks.cpg/sg5_15_cif.got.tgz:28689.got - 2010.06.03 18:56:24.
