data_PCOD9123875
_publ_section_title
;
Structure prediction by ZEFSAII (Michael W. Deem and Ramdas Pophale) SiO2 
 PCOD9123875
Probable space group: C 2
;
_chemical_formula_sum "Si O2"
_cell_formula_units_Z 32
_cell_length_a 29.640393
_cell_length_b 10.991076
_cell_length_c 9.012590
_cell_angle_alpha 90.000000
_cell_angle_beta 31.495597
_cell_angle_gamma 90.000000
_cell_volume 1533.926035
_symmetry_space_group_name_H-M "C 2"
_symmetry_group_IT_number 5
_symmetry_cell_setting 'monoclinic'
loop_
_space_group_symop_operation_xyz
x,y,z
-x,y,-z
1/2+x,1/2+y,z
1/2-x,1/2+y,-z
loop_
_atom_site_type_symbol
_atom_site_label
_atom_site_fract_x
_atom_site_fract_y
_atom_site_fract_z
Si Si1 0.103149 0.622500 0.528144
Si Si2 0.921853 0.350398 0.324430
Si Si3 0.647252 0.079255 0.078620
Si Si4 0.591596 0.454037 0.829176
Si Si5 0.730050 0.260170 0.364000
Si Si6 0.194676 0.189594 0.531712
Si Si7 0.467458 0.290078 0.745774
Si Si8 0.406393 0.806437 0.710270
O O1 0.064129 0.493357 0.682594
O O2 0.162924 0.660679 0.495419
O O3 0.036353 0.726463 0.663728
O O4 0.156916 0.604048 0.226336
O O5 0.837714 0.305133 0.471661
O O6 0.912283 0.298338 0.516378
O O7 0.000000 0.310177 0.000000
O O8 0.736371 0.108635 0.750116
O O9 0.585022 0.175692 0.172893
O O10 0.605149 0.945351 0.193698
O O11 0.669990 0.381170 0.527922
O O12 0.617713 0.594155 0.776802
O O13 0.500000 0.445669 0.000000
O O14 0.582024 0.385652 0.013711
O O15 0.763007 0.236534 0.436447
O O16 0.815774 0.253367 0.022324
O O17 0.500000 0.349513 0.500000
O O18 0.500000 0.759741 0.500000
#
# Coordination Sequence:
#
# PCOD9123875 Si02
#       8
#     4   4   4   4   4   4   4   4
#     4  10  23  40  68 101 128 175 231 284 343 408
#     4  11  25  43  68  97 136 181 230 281 344 410
#     4  10  20  40  66  99 134 171 223 286 341 407
#     4  12  25  45  68 100 141 183 224 280 353 412
#     4  12  25  41  69  99 133 179 230 284 342 412
#     4  12  26  42  66  98 144 179 231 282 349 414
#     4  10  21  41  68 101 136 175 229 288 344 409
#     4  11  23  44  69  99 136 178 226 283 350 415
#
# _framework density 20.861501000000001
#
# number of rings (size 3 to 8) (size 9 to 14) (size 15 to 20)
#    0.000    1.000    3.750    3.750    3.500    1.000 
#    0.000    4.375    0.000    0.000    0.000    0.000 
#    0.000    0.000    0.000    0.000    0.000    0.000 
#
# Total GULP energy -89228.415066 kJ/mol
# GULP energy per Si atom -5576.775942 kJ/mol
# Density = 2.081402 g / cm^3
# Si number density = 20.861501 Si / 1000 Ang^3
#
#
#
# Elastic Constant Matrix: (Units=GPa)
#
#
# Indices 1 2 3 4 5 6 
#
# 1 131.6315 7.0912 32.2958 0.0000 -0.2105 0.0000
# 2 7.0912 28.1944 7.9717 0.0000 0.1667 0.0000
# 3 32.2958 7.9717 111.5935 0.0000 5.3528 0.0000
# 4 0.0000 0.0000 0.0000 6.9946 0.0000 -3.6977
# 5 -0.2105 0.1667 5.3528 0.0000 26.6010 0.0000
# 6 0.0000 0.0000 0.0000 -3.6977 0.0000 17.1441
#
#
#
# Elastic Compliance Matrix: (Units=1/GPa)
#
#
# Indices 1 2 3 4 5 6 
#
# 1 0.008241 -0.001423 -0.002309 0.000000 0.000539 0.000000
# 2 -0.001423 0.036447 -0.002202 0.000000 0.000203 0.000000
# 3 -0.002309 -0.002202 0.009882 0.000000 -0.001993 0.000000
# 4 0.000000 0.000000 0.000000 0.161367 0.000000 0.034804
# 5 0.000539 0.000203 -0.001993 0.000000 0.037997 0.000000
# 6 0.000000 0.000000 0.000000 0.034804 0.000000 0.065836
#
#
# Mechanical properties :
#
#
# Convention : Reuss Voigt Hill
#
# Bulk Modulus (GPa) = 23.41754 40.68186 32.04970
# Shear Modulus (GPa) = 14.45622 25.08530 19.77076
#
# Velocity S-wave (km/s) = 2.63527 3.47143 3.08184
# Velocity P-wave (km/s) = 4.52870 5.96749 5.29718
#
# Compressibility (1/GPa) = 0.04270303
#
# Stress axis : x y z
#
# Youngs Moduli (GPa) = 121.34377 27.43697 101.19140
#
# Poissons Ratio (x) = 0.03904 0.23367
# Poissons Ratio (y) = 0.17267 0.22278
# Poissons Ratio (z) = 0.28021 0.06040
#
# Static dielectric constant tensor:
#      x y z
#    x 1.716010 0.000000 -0.004700 
#    y 0.000000 1.773000 0.000000 
#    z -0.004700 0.000000 1.819450 
# 
# From -- ./inp_files/32626.got.cif
#   From: 2010.05.17/outbox.cif.g08.bks.cpg/sg5_17_cif.got.tgz:32626.got - 2010.06.03 18:56:24.
