data_PCOD9123102
_publ_section_title
;
Structure prediction by ZEFSAII (Michael W. Deem and Ramdas Pophale) SiO2 
 PCOD9123102
Probable space group: C 2
;
_chemical_formula_sum "Si O2"
_cell_formula_units_Z 32
_cell_length_a 27.755576
_cell_length_b 9.663115
_cell_length_c 5.204918
_cell_angle_alpha 90.000000
_cell_angle_beta 81.530092
_cell_angle_gamma 90.000000
_cell_volume 1380.761184
_symmetry_space_group_name_H-M "C 2"
_symmetry_group_IT_number 5
_symmetry_cell_setting 'monoclinic'
loop_
_space_group_symop_operation_xyz
x,y,z
-x,y,-z
1/2+x,1/2+y,z
1/2-x,1/2+y,-z
loop_
_atom_site_type_symbol
_atom_site_label
_atom_site_fract_x
_atom_site_fract_y
_atom_site_fract_z
Si Si1 0.607959 0.653450 0.059211
Si Si2 0.166433 0.905400 0.858786
Si Si3 0.957779 0.464786 0.356448
Si Si4 0.389122 0.154202 0.130303
Si Si5 0.225952 0.834021 0.306693
Si Si6 0.454748 0.655132 0.380695
Si Si7 0.706253 0.041224 0.512994
Si Si8 0.135318 0.433443 0.222645
O O1 0.653679 0.556292 0.970030
O O2 0.586985 0.641935 0.364899
O O3 0.624815 0.813885 0.024129
O O4 0.568911 0.612704 0.870981
O O5 0.200795 0.836872 0.048696
O O6 0.116162 0.817331 0.883808
O O7 0.190995 0.894791 0.561353
O O8 0.938838 0.577598 0.169915
O O9 0.975099 0.309195 0.280920
O O10 0.908977 0.422585 0.544761
O O11 0.000000 0.526431 0.500000
O O12 0.344199 0.107490 0.346954
O O13 0.373119 0.085490 0.879425
O O14 0.235659 0.673777 0.381475
O O15 0.269125 0.946251 0.291368
O O16 0.500000 0.588529 0.500000
O O17 0.687809 0.932862 0.311799
#
# Coordination Sequence:
#
# PCOD9123102 Si02
#       8
#     4   4   4   4   4   4   4   4
#     4  11  22  38  62  92 119 167 205 250 309 373
#     4  11  25  42  62  88 128 166 205 254 315 368
#     4   9  19  35  61  94 119 159 209 259 307 369
#     4  10  20  41  61  85 125 161 199 255 315 361
#     4  11  25  42  63  91 122 164 207 261 306 371
#     4  10  20  37  62  92 125 156 207 260 306 361
#     4  10  24  40  61  90 123 162 205 261 314 363
#     4  10  20  37  62  86 124 158 205 255 308 362
#
# _framework density 23.175623999999999
#
# number of rings (size 3 to 8) (size 9 to 14) (size 15 to 20)
#    0.000    1.750    2.500    1.125    3.500    1.500 
#    0.000    0.625    2.750    0.000    0.000    0.000 
#    0.000    0.000    0.000    0.000    0.000    0.000 
#
# Total GULP energy -89152.948927 kJ/mol
# GULP energy per Si atom -5572.059308 kJ/mol
# Density = 2.312288 g / cm^3
# Si number density = 23.175624 Si / 1000 Ang^3
#
#
#
# Elastic Constant Matrix: (Units=GPa)
#
#
# Indices 1 2 3 4 5 6 
#
# 1 44.6650 23.7335 7.0539 0.0000 19.4140 0.0000
# 2 23.7335 40.6179 -7.6241 0.0000 2.3291 0.0000
# 3 7.0539 -7.6241 90.7263 0.0000 1.9162 0.0000
# 4 0.0000 0.0000 0.0000 -2.3952 0.0000 -2.6726
# 5 19.4140 2.3291 1.9162 0.0000 38.0988 0.0000
# 6 0.0000 0.0000 0.0000 -2.6726 0.0000 14.9214
#
#
#
# Elastic Compliance Matrix: (Units=1/GPa)
#
#
# Indices 1 2 3 4 5 6 
#
# 1 0.047615 -0.027585 -0.005549 0.000000 -0.022297 0.000000
# 2 -0.027585 0.041097 0.005360 0.000000 0.011274 0.000000
# 3 -0.005549 0.005360 0.011864 0.000000 0.001903 0.000000
# 4 0.000000 0.000000 0.000000 -0.347960 0.000000 -0.062324
# 5 -0.022297 0.011274 0.001903 0.000000 0.036825 0.000000
# 6 0.000000 0.000000 0.000000 -0.062324 0.000000 0.055855
#
#
# Mechanical properties :
#
#
# Convention : Reuss Voigt Hill
#
# Bulk Modulus (GPa) = 22.20820 24.70397 23.45608
# Shear Modulus (GPa) = -59.41911 20.31474 -19.55218
#
# Velocity S-wave (km/s) = -5.06895 2.96388 -2.90772
# Velocity P-wave (km/s) = 4.96545 4.73238 1.06308
#
# Compressibility (1/GPa) = 0.04502841
#
# Stress axis : x y z
#
# Youngs Moduli (GPa) = 21.00197 24.33248 84.28978
#
# Poissons Ratio (x) = 0.67120 0.46773
# Poissons Ratio (y) = 0.57933 -0.45181
# Poissons Ratio (z) = 0.11654 -0.13043
#
# Static dielectric constant tensor:
#      x y z
#    x 2.037720 0.000000 -0.107960 
#    y 0.000000 1.951670 0.000000 
#    z -0.107960 0.000000 1.996680 
# 
# From -- ./inp_files/11244.got.cif
#   From: 2010.05.17/outbox.cif.g08.bks.cpg/sg5_6_cif.got.tgz:11244.got - 2010.06.03 18:56:24.
