data_PCOD9123452
_publ_section_title
;
Structure prediction by ZEFSAII (Michael W. Deem and Ramdas Pophale) SiO2 
 PCOD9123452
Probable space group: C 2
;
_chemical_formula_sum "Si O2"
_cell_formula_units_Z 20
_cell_length_a 8.163871
_cell_length_b 22.948804
_cell_length_c 9.095070
_cell_angle_alpha 90.000000
_cell_angle_beta 32.605650
_cell_angle_gamma 90.000000
_cell_volume 918.191425
_symmetry_space_group_name_H-M "C 2"
_symmetry_group_IT_number 5
_symmetry_cell_setting 'monoclinic'
loop_
_space_group_symop_operation_xyz
x,y,z
-x,y,-z
1/2+x,1/2+y,z
1/2-x,1/2+y,-z
loop_
_atom_site_type_symbol
_atom_site_label
_atom_site_fract_x
_atom_site_fract_y
_atom_site_fract_z
Si Si1 0.250548 0.615610 0.565230
Si Si2 0.419350 0.242332 0.396446
Si Si3 0.658976 0.549621 0.039173
Si Si4 0.807939 0.302601 0.864421
Si Si5 0.152401 0.431419 0.222663
O O1 0.500000 0.629215 0.500000
O O2 0.159412 0.673947 0.548154
O O3 0.929465 0.593854 0.868820
O O4 0.396114 0.564429 0.354344
O O5 0.500000 0.260092 0.500000
O O6 0.109128 0.272216 0.576537
O O7 0.697227 0.264848 0.087207
O O8 0.830131 0.487266 0.897262
O O9 0.500000 0.558611 0.000000
O O10 0.920599 0.369716 0.797503
O O11 0.500000 0.302187 0.000000
O O12 0.000000 0.440246 0.500000
O O13 0.500000 0.424565 0.000000
#
# Coordination Sequence:
#
# PCOD9123452 Si02
#       5
#     4   4   4   4   4
#     4  12  25  42  62  91 127 167 209 260 316 372
#     4  12  25  42  62  91 127 167 209 260 316 372
#     4  11  22  41  66  93 123 164 211 258 307 371
#     4  11  22  41  66  93 123 164 211 258 307 371
#     4  10  20  38  65  96 125 162 209 256 307 374
#
# _framework density 21.781949999999998
#
# number of rings (size 3 to 8) (size 9 to 14) (size 15 to 20)
#    0.000    0.800    0.000   10.800    0.000    0.000 
#    0.000    6.000    0.000    0.000    0.000    0.000 
#    0.000    0.000    0.000    0.000    0.000    0.000 
#
# Total GULP energy -55755.792580 kJ/mol
# GULP energy per Si atom -5575.579258 kJ/mol
# Density = 2.173237 g / cm^3
# Si number density = 21.781950 Si / 1000 Ang^3
#
#
#
# Elastic Constant Matrix: (Units=GPa)
#
#
# Indices 1 2 3 4 5 6 
#
# 1 65.4417 -3.7426 -4.5939 0.0000 0.4111 0.0000
# 2 -3.7426 109.1022 17.7505 0.0000 -1.8906 0.0000
# 3 -4.5939 17.7505 117.2574 0.0000 -0.1546 0.0000
# 4 0.0000 0.0000 0.0000 29.8399 0.0000 -8.4881
# 5 0.4111 -1.8906 -0.1546 0.0000 35.2666 0.0000
# 6 0.0000 0.0000 0.0000 -8.4881 0.0000 58.7472
#
#
#
# Elastic Compliance Matrix: (Units=1/GPa)
#
#
# Indices 1 2 3 4 5 6 
#
# 1 0.015344 0.000437 0.000535 0.000000 -0.000153 0.000000
# 2 0.000437 0.009418 -0.001408 0.000000 0.000494 0.000000
# 3 0.000535 -0.001408 0.008762 0.000000 -0.000043 0.000000
# 4 0.000000 0.000000 0.000000 0.034949 0.000000 0.005050
# 5 -0.000153 0.000494 -0.000043 0.000000 0.028383 0.000000
# 6 0.000000 0.000000 0.000000 0.005050 0.000000 0.017752
#
#
# Mechanical properties :
#
#
# Convention : Reuss Voigt Hill
#
# Bulk Modulus (GPa) = 30.62601 34.51436 32.57018
# Shear Modulus (GPa) = 39.56778 43.59658 41.58218
#
# Velocity S-wave (km/s) = 4.26671 4.47867 4.37397
# Velocity P-wave (km/s) = 6.19386 6.52874 6.36350
#
# Compressibility (1/GPa) = 0.03265199
#
# Stress axis : x y z
#
# Youngs Moduli (GPa) = 65.17094 106.17599 114.12550
#
# Poissons Ratio (x) = -0.04637 -0.06104
# Poissons Ratio (y) = -0.02846 0.16069
# Poissons Ratio (z) = -0.03486 0.14950
#
# Static dielectric constant tensor:
#      x y z
#    x 1.672610 0.000000 -0.176720 
#    y 0.000000 1.955810 0.000000 
#    z -0.176720 0.000000 1.309900 
# 
# From -- ./inp_files/2950.got.cif
#   From: 2010.05.17/outbox.cif.g08.bks.cpg/sg5_2_cif.got.tgz:2950.got - 2010.06.03 18:56:24.
