data_PCOD9123194
_publ_section_title
;
Structure prediction by ZEFSAII (Michael W. Deem and Ramdas Pophale) SiO2 
 PCOD9123194
Probable space group: C 2
;
_chemical_formula_sum "Si O2"
_cell_formula_units_Z 28
_cell_length_a 8.897992
_cell_length_b 14.392156
_cell_length_c 14.752314
_cell_angle_alpha 90.000000
_cell_angle_beta 141.305350
_cell_angle_gamma 90.000000
_cell_volume 1181.070966
_symmetry_space_group_name_H-M "C 2"
_symmetry_group_IT_number 5
_symmetry_cell_setting 'monoclinic'
loop_
_space_group_symop_operation_xyz
x,y,z
-x,y,-z
1/2+x,1/2+y,z
1/2-x,1/2+y,-z
loop_
_atom_site_type_symbol
_atom_site_label
_atom_site_fract_x
_atom_site_fract_y
_atom_site_fract_z
Si Si1 0.280937 0.366490 0.760620
Si Si2 0.937739 0.820453 0.272364
Si Si3 0.226457 0.401974 0.435236
Si Si4 0.000000 0.424005 0.000000
Si Si5 0.533846 0.042634 0.199133
Si Si6 0.238889 0.702004 0.652954
Si Si7 0.000000 0.011820 0.000000
Si Si8 0.745885 0.175083 0.167151
O O1 0.357607 0.313926 0.705765
O O2 0.263156 0.285537 0.826933
O O3 0.014921 0.404169 0.620215
O O4 0.438081 0.446877 0.882948
O O5 0.728163 0.859380 0.112542
O O6 0.836662 0.734117 0.281892
O O7 0.041199 0.896962 0.391865
O O8 0.237743 0.300801 0.390466
O O9 0.176118 0.484298 0.341781
O O10 0.002359 0.478716 0.095142
O O11 0.703206 0.125085 0.243009
O O12 0.256481 0.062799 0.100168
O O13 0.496945 0.652873 0.759180
O O14 0.000000 0.653390 0.500000
O O15 0.500000 0.149630 0.000000
#
# Coordination Sequence:
#
# PCOD9123194 Si02
#       8
#     4   4   4   2   4   4   2   4
#     4  10  20  37  66 100 135 172 227 286 340 408
#     4  11  21  36  67 102 123 164 237 288 329 400
#     4   9  20  39  67  93 130 174 223 282 335 407
#     4  12  22  33  63  98 124 166 222 288 330 399
#     4  11  22  41  63  98 138 187 219 287 352 408
#     4   9  20  40  67  93 130 177 230 277 330 412
#     4  10  20  39  65  98 138 178 236 284 332 401
#     4  11  23  39  64 100 145 184 220 285 360 407
#
# _framework density 23.707294999999998
#
# number of rings (size 3 to 8) (size 9 to 14) (size 15 to 20)
#    0.000    1.714    4.286    0.429    2.000    0.000 
#    2.571    0.000   18.857    0.000    0.000    0.000 
#    0.000    0.000    0.000    0.000    0.000    0.000 
#
# Total GULP energy -78028.819452 kJ/mol
# GULP energy per Si atom -5573.487104 kJ/mol
# Density = 2.365334 g / cm^3
# Si number density = 23.707295 Si / 1000 Ang^3
#
#
#
# Elastic Constant Matrix: (Units=GPa)
#
#
# Indices 1 2 3 4 5 6 
#
# 1 161.0481 15.4950 38.6185 0.0000 28.8739 0.0000
# 2 15.4950 31.4379 25.3912 0.0000 7.3970 0.0000
# 3 38.6185 25.3912 119.4111 0.0000 19.5403 0.0001
# 4 0.0000 0.0000 0.0000 1.7229 0.0000 -7.2846
# 5 28.8739 7.3970 19.5403 0.0000 44.3237 0.0000
# 6 0.0000 0.0000 0.0001 -7.2846 0.0000 31.9725
#
#
#
# Elastic Compliance Matrix: (Units=1/GPa)
#
#
# Indices 1 2 3 4 5 6 
#
# 1 0.007407 -0.001581 -0.001415 0.000003 -0.003937 0.000001
# 2 -0.001581 0.039123 -0.007445 -0.000017 -0.002217 -0.000004
# 3 -0.001415 -0.007445 0.010843 -0.000003 -0.002616 -0.000001
# 4 0.000003 -0.000017 -0.000003 15.822635 -0.000006 3.605025
# 5 -0.003937 -0.002217 -0.002616 -0.000006 0.026649 -0.000001
# 6 0.000001 -0.000004 -0.000001 3.605025 -0.000001 0.852645
#
#
# Mechanical properties :
#
#
# Convention : Reuss Voigt Hill
#
# Bulk Modulus (GPa) = 27.40447 52.32295 39.86371
# Shear Modulus (GPa) = 0.29775 31.09665 15.69720
#
# Velocity S-wave (km/s) = 0.35478 3.62566 2.57597
# Velocity P-wave (km/s) = 3.42818 6.29647 5.06941
#
# Compressibility (1/GPa) = 0.03649039
#
# Stress axis : x y z
#
# Youngs Moduli (GPa) = 135.01384 25.56072 92.22442
#
# Poissons Ratio (x) = 0.04042 0.13048
# Poissons Ratio (y) = 0.21352 0.68658
# Poissons Ratio (z) = 0.19102 0.19029
#
# Static dielectric constant tensor:
#      x y z
#    x 2.365120 0.000000 0.092580 
#    y 0.000000 1.921190 0.000000 
#    z 0.092580 0.000000 1.940910 
# 
# From -- ./inp_files/51431.got.cif
#   From: 2010.05.17/outbox.cif.g08.bks.cpg/sg5_26_cif.got.tgz:51431.got - 2010.06.03 18:56:24.
