data_PCOD9123022
_publ_section_title
;
Structure prediction by ZEFSAII (Michael W. Deem and Ramdas Pophale) SiO2 
 PCOD9123022
Probable space group: C 2
;
_chemical_formula_sum "Si O2"
_cell_formula_units_Z 28
_cell_length_a 8.041048
_cell_length_b 9.772724
_cell_length_c 23.616469
_cell_angle_alpha 90.000000
_cell_angle_beta 137.827923
_cell_angle_gamma 90.000000
_cell_volume 1245.943586
_symmetry_space_group_name_H-M "C 2"
_symmetry_group_IT_number 5
_symmetry_cell_setting 'monoclinic'
loop_
_space_group_symop_operation_xyz
x,y,z
-x,y,-z
1/2+x,1/2+y,z
1/2-x,1/2+y,-z
loop_
_atom_site_type_symbol
_atom_site_label
_atom_site_fract_x
_atom_site_fract_y
_atom_site_fract_z
Si Si1 0.366997 0.742430 0.809457
Si Si2 0.394210 0.015367 0.123513
Si Si3 0.534082 0.552713 0.575968
Si Si4 0.369468 0.847655 0.527269
Si Si5 0.996284 0.803626 0.819327
Si Si6 0.628441 0.518034 0.941833
Si Si7 0.425970 0.011381 0.317521
O O1 0.475406 0.884591 0.817778
O O2 0.591256 0.654023 0.894432
O O3 0.238327 0.647433 0.730313
O O4 0.163013 0.784686 0.805391
O O5 0.551519 0.150878 0.172519
O O6 0.131230 0.022103 0.089218
O O7 0.337471 0.008844 0.042180
O O8 0.500000 0.562937 0.500000
O O9 0.407950 0.695874 0.564405
O O10 0.400464 0.409281 0.555359
O O11 0.828385 0.541127 0.657593
O O12 0.500000 0.845804 0.500000
O O13 0.489880 0.960031 0.599539
O O14 0.749707 0.890399 0.748346
O O15 0.142967 0.887937 0.904428
#
# Coordination Sequence:
#
# PCOD9123022 Si02
#       7
#     4   4   4   4   4   4   4
#     4  10  21  38  58  86 122 159 199 247 299 348
#     4  10  20  37  59  85 118 158 205 251 293 347
#     4   9  20  40  62  87 119 150 188 239 292 350
#     4  10  21  41  66  91 114 150 199 240 291 355
#     4  10  21  38  59  87 119 161 203 239 298 352
#     4   9  20  37  57  84 120 157 202 256 298 340
#     4  10  21  41  60  84 128 159 185 244 301 350
#
# _framework density 22.472928
#
# number of rings (size 3 to 8) (size 9 to 14) (size 15 to 20)
#    0.000    2.286    0.000    1.714    0.000    5.714 
#    0.000   34.286    0.000    0.000    0.000    0.000 
#    0.000    0.000    0.000    0.000    0.000    0.000 
#
# Total GULP energy -78126.162443 kJ/mol
# GULP energy per Si atom -5580.440175 kJ/mol
# Density = 2.242178 g / cm^3
# Si number density = 22.472928 Si / 1000 Ang^3
#
#
#
# Elastic Constant Matrix: (Units=GPa)
#
#
# Indices 1 2 3 4 5 6 
#
# 1 18.5439 22.9093 10.6914 0.0000 -0.7200 0.0000
# 2 22.9093 166.9586 37.5485 0.0000 18.0633 0.0000
# 3 10.6914 37.5485 65.4670 0.0000 10.0477 0.0000
# 4 0.0000 0.0000 0.0000 19.5977 0.0000 -1.8761
# 5 -0.7200 18.0633 10.0477 0.0000 29.0971 0.0000
# 6 0.0000 0.0000 0.0000 -1.8761 0.0000 19.5963
#
#
#
# Elastic Compliance Matrix: (Units=1/GPa)
#
#
# Indices 1 2 3 4 5 6 
#
# 1 0.069816 -0.008896 -0.007827 0.000000 0.009953 0.000000
# 2 -0.008896 0.008280 -0.002612 0.000000 -0.004458 0.000000
# 3 -0.007827 -0.002612 0.018830 0.000000 -0.005074 0.000000
# 4 0.000000 0.000000 0.000000 0.051498 0.000000 0.004930
# 5 0.009953 -0.004458 -0.005074 0.000000 0.039134 0.000000
# 6 0.000000 0.000000 0.000000 0.004930 0.000000 0.051502
#
#
# Mechanical properties :
#
#
# Convention : Reuss Voigt Hill
#
# Bulk Modulus (GPa) = 17.16569 43.69645 30.43107
# Shear Modulus (GPa) = 16.82660 25.64623 21.23642
#
# Velocity S-wave (km/s) = 2.73930 3.38184 3.07738
# Velocity P-wave (km/s) = 4.20238 5.89367 5.11837
#
# Compressibility (1/GPa) = 0.05825575
#
# Stress axis : x y z
#
# Youngs Moduli (GPa) = 14.32341 120.77308 53.10715
#
# Poissons Ratio (x) = 1.07445 0.41565
# Poissons Ratio (y) = 0.12743 0.13871
# Poissons Ratio (z) = 0.11210 0.31544
#
# Static dielectric constant tensor:
#      x y z
#    x 1.855370 0.000000 0.015590 
#    y 0.000000 1.867060 0.000000 
#    z 0.015590 0.000000 1.907830 
# 
# From -- ./inp_files/64385.got.cif
#   From: 2010.05.17/outbox.cif.g08.bks.cpg/sg5_33_cif.got.tgz:64385.got - 2010.06.03 18:56:24.
