data_PCOD9123471
_publ_section_title
;
Structure prediction by ZEFSAII (Michael W. Deem and Ramdas Pophale) SiO2 
 PCOD9123471
Probable space group: C 2
;
_chemical_formula_sum "Si O2"
_cell_formula_units_Z 22
_cell_length_a 12.296756
_cell_length_b 8.058438
_cell_length_c 12.665487
_cell_angle_alpha 90.000000
_cell_angle_beta 54.439545
_cell_angle_gamma 90.000000
_cell_volume 1020.991499
_symmetry_space_group_name_H-M "C 2"
_symmetry_group_IT_number 5
_symmetry_cell_setting 'monoclinic'
loop_
_space_group_symop_operation_xyz
x,y,z
-x,y,-z
1/2+x,1/2+y,z
1/2-x,1/2+y,-z
loop_
_atom_site_type_symbol
_atom_site_label
_atom_site_fract_x
_atom_site_fract_y
_atom_site_fract_z
Si Si1 0.091075 0.300920 0.852134
Si Si2 0.989869 0.335512 0.334384
Si Si3 0.310144 0.714406 0.612269
Si Si4 0.500000 0.422436 0.500000
Si Si5 0.968167 0.697563 0.133625
Si Si6 0.111038 0.703559 0.253725
O O1 0.072923 0.502758 0.860778
O O2 0.046582 0.259977 0.758050
O O3 0.238245 0.234030 0.793728
O O4 0.000000 0.239688 0.000000
O O5 0.867123 0.327833 0.486109
O O6 0.049362 0.519563 0.294846
O O7 0.106423 0.236987 0.327187
O O8 0.365468 0.531122 0.552686
O O9 0.160008 0.754820 0.726895
O O10 0.526473 0.314863 0.381669
O O11 0.092411 0.737230 0.139736
O O12 0.000000 0.766374 0.000000
#
# Coordination Sequence:
#
# PCOD9123471 Si02
#       6
#     4   4   4   2   4   4
#     4  10  22  42  65  93 131 169 211 267 318 385
#     4   9  22  41  61  92 133 163 210 270 316 371
#     4  10  21  43  60  93 134 170 202 276 322 368
#     4  10  20  38  66  92 122 168 222 256 318 384
#     4  10  23  41  65  91 133 170 207 264 323 385
#     4  11  22  39  66  97 118 171 221 258 319 387
#
# _framework density 21.547682999999999
#
# number of rings (size 3 to 8) (size 9 to 14) (size 15 to 20)
#    0.000    2.182    1.818    1.091    5.091    0.000 
#    6.545    0.909    0.000    0.000    0.000    0.000 
#    0.000    0.000    0.000    0.000    0.000    0.000 
#
# Total GULP energy -61316.405029 kJ/mol
# GULP energy per Si atom -5574.218639 kJ/mol
# Density = 2.149864 g / cm^3
# Si number density = 21.547683 Si / 1000 Ang^3
#
#
#
# Elastic Constant Matrix: (Units=GPa)
#
#
# Indices 1 2 3 4 5 6 
#
# 1 128.0212 31.1689 90.1449 0.0000 27.4925 0.0000
# 2 31.1689 35.5151 32.3173 0.0000 10.2180 0.0000
# 3 90.1449 32.3173 147.5561 0.0000 26.1528 0.0000
# 4 0.0000 0.0000 0.0000 12.3257 0.0000 -2.5220
# 5 27.4925 10.2180 26.1528 0.0000 41.7309 0.0000
# 6 0.0000 0.0000 0.0000 -2.5220 0.0000 14.9316
#
#
#
# Elastic Compliance Matrix: (Units=1/GPa)
#
#
# Indices 1 2 3 4 5 6 
#
# 1 0.015205 -0.005468 -0.007372 0.000000 -0.004058 0.000000
# 2 -0.005468 0.037817 -0.004431 0.000000 -0.002880 0.000000
# 3 -0.007372 -0.004431 0.012598 0.000000 -0.001953 0.000000
# 4 0.000000 0.000000 0.000000 0.084036 0.000000 0.014194
# 5 -0.004058 -0.002880 -0.001953 0.000000 0.028566 0.000000
# 6 0.000000 0.000000 0.000000 0.014194 0.000000 0.069370
#
#
# Mechanical properties :
#
#
# Convention : Reuss Voigt Hill
#
# Bulk Modulus (GPa) = 32.17924 68.70608 50.44266
# Shear Modulus (GPa) = 17.09439 24.29506 20.69473
#
# Velocity S-wave (km/s) = 2.81966 3.36147 3.10242
# Velocity P-wave (km/s) = 5.05639 6.85717 6.02445
#
# Compressibility (1/GPa) = 0.03107593
#
# Stress axis : x y z
#
# Youngs Moduli (GPa) = 65.76744 26.44290 79.38029
#
# Poissons Ratio (x) = 0.14460 0.58520
# Poissons Ratio (y) = 0.35965 0.35177
# Poissons Ratio (z) = 0.48485 0.11718
#
# Static dielectric constant tensor:
#      x y z
#    x 1.805330 0.000000 -0.012200 
#    y 0.000000 1.890820 0.000000 
#    z -0.012200 0.000000 1.824730 
# 
# From -- ./inp_files/38087.got.cif
#   From: 2010.05.17/outbox.cif.g08.bks.cpg/sg5_20_cif.got.tgz:38087.got - 2010.06.03 18:56:24.
