data_PCOD9123319
_publ_section_title
;
Structure prediction by ZEFSAII (Michael W. Deem and Ramdas Pophale) SiO2 
 PCOD9123319
Probable space group: C 2
;
_chemical_formula_sum "Si O2"
_cell_formula_units_Z 32
_cell_length_a 17.565977
_cell_length_b 10.640363
_cell_length_c 14.352802
_cell_angle_alpha 90.000000
_cell_angle_beta 153.547215
_cell_angle_gamma 90.000000
_cell_volume 1195.017707
_symmetry_space_group_name_H-M "C 2"
_symmetry_group_IT_number 5
_symmetry_cell_setting 'monoclinic'
loop_
_space_group_symop_operation_xyz
x,y,z
-x,y,-z
1/2+x,1/2+y,z
1/2-x,1/2+y,-z
loop_
_atom_site_type_symbol
_atom_site_label
_atom_site_fract_x
_atom_site_fract_y
_atom_site_fract_z
Si Si1 0.677183 0.220100 0.299644
Si Si2 0.051272 0.323046 0.775375
Si Si3 0.748085 0.828290 0.180647
Si Si4 0.927757 0.596891 0.638005
Si Si5 0.091781 0.869805 0.469534
Si Si6 0.418400 0.481773 0.735476
Si Si7 0.308055 0.778594 0.258958
Si Si8 0.178926 0.055576 0.136267
O O1 0.584446 0.121863 0.264725
O O2 0.572351 0.349184 0.201287
O O3 0.697722 0.199008 0.212150
O O4 0.865883 0.257230 0.551825
O O5 0.186836 0.268801 0.847932
O O6 0.032104 0.471788 0.730722
O O7 0.108149 0.322886 0.945827
O O8 0.746395 0.879868 0.284364
O O9 0.785088 0.682288 0.248975
O O10 0.910720 0.901736 0.317560
O O11 0.953961 0.730868 0.619859
O O12 0.737527 0.560487 0.396007
O O13 0.123473 0.954050 0.415903
O O14 0.597525 0.546926 0.943089
O O15 0.500000 0.748295 0.500000
O O16 0.274934 0.924218 0.252736
O O17 0.000000 0.065962 0.000000
#
# Coordination Sequence:
#
# PCOD9123319 Si02
#       8
#     4   4   4   4   4   4   4   4
#     4   9  19  37  62  94 129 163 213 266 328 378
#     4  10  21  38  64  92 134 168 215 262 329 390
#     4  11  24  39  62  94 125 167 214 270 314 381
#     4  10  20  39  66  94 121 176 207 266 327 395
#     4  10  23  40  64  88 129 167 213 261 323 386
#     4  10  20  38  61  90 129 163 206 261 324 382
#     4  10  21  37  63  92 134 167 208 270 329 385
#     4  12  22  34  65  99 122 156 222 269 315 373
#
# _framework density 26.777846
#
# number of rings (size 3 to 8) (size 9 to 14) (size 15 to 20)
#    0.000    1.750    1.250    3.000    5.250    2.000 
#    0.000    0.000   33.000    0.000    0.000    0.000 
#    0.000    0.000    0.000    0.000    0.000    0.000 
#
# Total GULP energy -89374.284864 kJ/mol
# GULP energy per Si atom -5585.892804 kJ/mol
# Density = 2.671690 g / cm^3
# Si number density = 26.777846 Si / 1000 Ang^3
#
#
#
# Elastic Constant Matrix: (Units=GPa)
#
#
# Indices 1 2 3 4 5 6 
#
# 1 134.5804 2.8752 32.5315 0.0000 -17.8333 0.0000
# 2 2.8752 41.7802 -4.2754 0.0000 2.2833 0.0000
# 3 32.5315 -4.2754 94.0292 0.0000 -28.1144 0.0000
# 4 0.0000 0.0000 0.0000 19.5938 0.0000 -4.2133
# 5 -17.8333 2.2833 -28.1144 0.0000 50.6661 0.0000
# 6 0.0000 0.0000 0.0000 -4.2133 0.0000 31.0555
#
#
#
# Elastic Compliance Matrix: (Units=1/GPa)
#
#
# Indices 1 2 3 4 5 6 
#
# 1 0.008246 -0.000902 -0.002414 0.000000 0.001603 0.000000
# 2 -0.000902 0.024159 0.001187 0.000000 -0.000748 0.000000
# 3 -0.002414 0.001187 0.013493 0.000000 0.006584 0.000000
# 4 0.000000 0.000000 0.000000 0.052570 0.000000 0.007132
# 5 0.001603 -0.000748 0.006584 0.000000 0.023988 0.000000
# 6 0.000000 0.000000 0.000000 0.007132 0.000000 0.033168
#
#
# Mechanical properties :
#
#
# Convention : Reuss Voigt Hill
#
# Bulk Modulus (GPa) = 24.01608 36.96139 30.48873
# Shear Modulus (GPa) = 28.77476 36.21363 32.49420
#
# Velocity S-wave (km/s) = 3.28162 3.68145 3.48727
# Velocity P-wave (km/s) = 4.83186 5.64834 5.25598
#
# Compressibility (1/GPa) = 0.04163877
#
# Stress axis : x y z
#
# Youngs Moduli (GPa) = 121.27294 41.39207 74.11334
#
# Poissons Ratio (x) = 0.03734 0.17895
# Poissons Ratio (y) = 0.10941 -0.08798
# Poissons Ratio (z) = 0.29281 -0.04914
#
# Static dielectric constant tensor:
#      x y z
#    x 2.184550 0.000000 -0.075750 
#    y 0.000000 2.045360 0.000000 
#    z -0.075750 0.000000 2.155640 
# 
# From -- ./inp_files/56044.got.cif
#   From: 2010.05.17/outbox.cif.g08.bks.cpg/sg5_29_cif.got.tgz:56044.got - 2010.06.03 18:56:24.
