data_PCOD9123482
_publ_section_title
;
Structure prediction by ZEFSAII (Michael W. Deem and Ramdas Pophale) SiO2 
 PCOD9123482
Probable space group: C 2
;
_chemical_formula_sum "Si O2"
_cell_formula_units_Z 26
_cell_length_a 12.572089
_cell_length_b 8.149058
_cell_length_c 20.872878
_cell_angle_alpha 90.000000
_cell_angle_beta 142.662202
_cell_angle_gamma 90.000000
_cell_volume 1296.992110
_symmetry_space_group_name_H-M "C 2"
_symmetry_group_IT_number 5
_symmetry_cell_setting 'monoclinic'
loop_
_space_group_symop_operation_xyz
x,y,z
-x,y,-z
1/2+x,1/2+y,z
1/2-x,1/2+y,-z
loop_
_atom_site_type_symbol
_atom_site_label
_atom_site_fract_x
_atom_site_fract_y
_atom_site_fract_z
Si Si1 0.153363 0.824470 0.764450
Si Si2 0.396695 0.991550 0.297033
Si Si3 0.780973 0.664217 0.978240
Si Si4 0.136355 0.723487 0.616086
Si Si5 0.985066 0.178759 0.262047
Si Si6 0.500000 0.909040 0.000000
Si Si7 0.990853 0.975533 0.072277
O O1 0.056685 0.648086 0.726764
O O2 0.170218 0.832979 0.695361
O O3 0.061455 0.991232 0.742608
O O4 0.343011 0.815852 0.889165
O O5 0.463563 0.816555 0.306494
O O6 0.184783 0.992732 0.192834
O O7 0.444482 0.057654 0.390341
O O8 0.656501 0.725218 0.860599
O O9 0.648632 0.608214 0.969929
O O10 0.909752 0.807277 0.060404
O O11 0.901975 0.522032 0.005840
O O12 0.320235 0.688239 0.671393
O O13 0.000000 0.793128 0.500000
O O14 0.000000 0.964103 0.000000
#
# Coordination Sequence:
#
# PCOD9123482 Si02
#       7
#     4   4   4   4   4   2   4
#     4   9  23  40  65  99 125 169 211 262 318 386
#     4  10  23  42  64  94 125 171 214 261 320 381
#     4  11  23  37  62  93 133 174 207 268 318 392
#     4  10  24  46  65  95 130 164 223 273 317 385
#     4  11  21  46  64  92 134 163 216 271 319 382
#     4  10  20  38  66  94 136 168 216 258 320 398
#     4  12  23  39  58  94 134 170 211 257 324 389
#
# _framework density 20.046382999999999
#
# number of rings (size 3 to 8) (size 9 to 14) (size 15 to 20)
#    0.923    0.615    3.846    0.923    5.385    2.462 
#    2.769    0.769    0.000    0.000    0.000    0.000 
#    0.000    0.000    0.000    0.000    0.000    0.000 
#
# Total GULP energy -72508.108165 kJ/mol
# GULP energy per Si atom -5577.546782 kJ/mol
# Density = 2.000076 g / cm^3
# Si number density = 20.046383 Si / 1000 Ang^3
#
#
#
# Elastic Constant Matrix: (Units=GPa)
#
#
# Indices 1 2 3 4 5 6 
#
# 1 63.6227 2.6587 -5.8945 0.0000 5.2826 0.0000
# 2 2.6587 67.6301 -7.1405 0.0000 5.2853 0.0000
# 3 -5.8945 -7.1405 54.8885 0.0000 -10.1779 0.0000
# 4 0.0000 0.0000 0.0000 13.0141 0.0000 -6.4603
# 5 5.2826 5.2853 -10.1779 0.0000 17.4027 0.0000
# 6 0.0000 0.0000 0.0000 -6.4603 0.0000 29.4994
#
#
#
# Elastic Compliance Matrix: (Units=1/GPa)
#
#
# Indices 1 2 3 4 5 6 
#
# 1 0.016169 -0.000202 0.000910 0.000000 -0.004314 0.000000
# 2 -0.000202 0.015226 0.001248 0.000000 -0.003833 0.000000
# 3 0.000910 0.001248 0.020590 0.000000 0.011387 0.000000
# 4 0.000000 0.000000 0.000000 0.086212 0.000000 0.018880
# 5 -0.004314 -0.003833 0.011387 0.000000 0.066596 0.000000
# 6 0.000000 0.000000 0.000000 0.018880 0.000000 0.038034
#
#
# Mechanical properties :
#
#
# Convention : Reuss Voigt Hill
#
# Bulk Modulus (GPa) = 17.89021 18.37651 18.13336
# Shear Modulus (GPa) = 19.41399 25.08441 22.24920
#
# Velocity S-wave (km/s) = 3.11537 3.54124 3.33511
# Velocity P-wave (km/s) = 4.67809 5.08993 4.88835
#
# Compressibility (1/GPa) = 0.05589650
#
# Stress axis : x y z
#
# Youngs Moduli (GPa) = 61.84804 65.67892 48.56652
#
# Poissons Ratio (x) = 0.01329 -0.04420
# Poissons Ratio (y) = 0.01252 -0.06063
# Poissons Ratio (z) = -0.05628 -0.08199
#
# Static dielectric constant tensor:
#      x y z
#    x 1.713000 0.000000 -0.016390 
#    y 0.000000 1.784200 0.000000 
#    z -0.016390 0.000000 1.678680 
# 
# From -- ./inp_files/65167.got.cif
#   From: 2010.05.17/outbox.cif.g08.bks.cpg/sg5_33_cif.got.tgz:65167.got - 2010.06.03 18:56:24.
