data_PCOD9123983
_publ_section_title
;
Structure prediction by ZEFSAII (Michael W. Deem and Ramdas Pophale) SiO2 
 PCOD9123983
Probable space group: C 2
;
_chemical_formula_sum "Si O2"
_cell_formula_units_Z 26
_cell_length_a 14.798487
_cell_length_b 15.065183
_cell_length_c 5.164852
_cell_angle_alpha 90.000000
_cell_angle_beta 94.032814
_cell_angle_gamma 90.000000
_cell_volume 1148.610901
_symmetry_space_group_name_H-M "C 2"
_symmetry_group_IT_number 5
_symmetry_cell_setting 'monoclinic'
loop_
_space_group_symop_operation_xyz
x,y,z
-x,y,-z
1/2+x,1/2+y,z
1/2-x,1/2+y,-z
loop_
_atom_site_type_symbol
_atom_site_label
_atom_site_fract_x
_atom_site_fract_y
_atom_site_fract_z
Si Si1 0.320008 0.325540 0.998072
Si Si2 0.258322 0.760884 0.508109
Si Si3 0.748789 0.493333 0.778620
Si Si4 0.914074 0.956689 0.659932
Si Si5 0.500000 0.765959 0.000000
Si Si6 0.591148 0.907911 0.394535
Si Si7 0.642815 0.628939 0.094997
O O1 0.286695 0.254537 0.781237
O O2 0.326048 0.470217 0.456330
O O3 0.399401 0.379609 0.869581
O O4 0.317308 0.284814 0.285627
O O5 0.329209 0.842865 0.480110
O O6 0.310676 0.679910 0.654485
O O7 0.713301 0.576900 0.929841
O O8 0.849746 0.490908 0.692007
O O9 0.748766 0.408275 0.970759
O O10 0.000000 0.939569 0.500000
O O11 0.920008 0.051093 0.803468
O O12 0.455857 0.833076 0.792519
O O13 0.581344 0.700702 0.932268
O O14 0.500000 0.945996 0.500000
#
# Coordination Sequence:
#
# PCOD9123983 Si02
#       7
#     4   4   4   4   2   4   4
#     4  10  20  41  61  88 125 172 225 258 326 385
#     4  10  22  38  63  90 126 171 216 274 321 392
#     4  10  22  40  60  94 140 184 212 268 337 413
#     4  11  22  39  64  98 135 174 216 272 337 405
#     4  10  22  38  58 104 130 176 216 294 326 400
#     4  10  22  35  64  93 133 174 229 271 327 399
#     4  10  23  35  62  95 140 170 213 272 351 386
#
# _framework density 22.636037999999999
#
# number of rings (size 3 to 8) (size 9 to 14) (size 15 to 20)
#    0.000    1.846    3.077    0.923    8.615    5.538 
#    0.000    0.000    0.000    0.923    4.000    0.000 
#    0.000    0.000    0.000    0.000    0.000    0.000 
#
# Total GULP energy -72426.690965 kJ/mol
# GULP energy per Si atom -5571.283920 kJ/mol
# Density = 2.258452 g / cm^3
# Si number density = 22.636038 Si / 1000 Ang^3
#
#
#
# Elastic Constant Matrix: (Units=GPa)
#
#
# Indices 1 2 3 4 5 6 
#
# 1 121.0249 26.1026 54.5881 0.0000 -36.5910 0.0000
# 2 26.1026 51.2176 17.8428 0.0000 4.1642 0.0000
# 3 54.5881 17.8428 102.0649 0.0000 -2.3376 0.0000
# 4 0.0000 0.0000 0.0000 35.4337 0.0000 -11.0713
# 5 -36.5910 4.1642 -2.3376 0.0000 50.4497 0.0000
# 6 0.0000 0.0000 0.0000 -11.0713 0.0000 32.7161
#
#
#
# Elastic Compliance Matrix: (Units=1/GPa)
#
#
# Indices 1 2 3 4 5 6 
#
# 1 0.016992 -0.007044 -0.007569 0.000000 0.012555 0.000000
# 2 -0.007044 0.023891 -0.000572 0.000000 -0.007107 0.000000
# 3 -0.007569 -0.000572 0.013836 0.000000 -0.004801 0.000000
# 4 0.000000 0.000000 0.000000 0.031559 0.000000 0.010680
# 5 0.012555 -0.007107 -0.004801 0.000000 0.029292 0.000000
# 6 0.000000 0.000000 0.000000 0.010680 0.000000 0.034180
#
#
# Mechanical properties :
#
#
# Convention : Reuss Voigt Hill
#
# Bulk Modulus (GPa) = 41.06858 52.37494 46.72176
# Shear Modulus (GPa) = 26.56250 35.43817 31.00034
#
# Velocity S-wave (km/s) = 3.42930 3.96101 3.70471
# Velocity P-wave (km/s) = 5.81915 6.64135 6.24380
#
# Compressibility (1/GPa) = 0.02434952
#
# Stress axis : x y z
#
# Youngs Moduli (GPa) = 58.85231 41.85597 72.27583
#
# Poissons Ratio (x) = 0.29482 0.54705
# Poissons Ratio (y) = 0.41453 0.04136
# Poissons Ratio (z) = 0.44545 0.02395
#
# Static dielectric constant tensor:
#      x y z
#    x 1.920710 0.000000 -0.020130 
#    y 0.000000 1.883810 0.000000 
#    z -0.020130 0.000000 1.953750 
# 
# From -- ./inp_files/6856.got.cif
#   From: 2010.05.17/outbox.cif.g08.bks.cpg/sg5_4_cif.got.tgz:6856.got - 2010.06.03 18:56:24.
