data_PCOD9123987
_publ_section_title
;
Structure prediction by ZEFSAII (Michael W. Deem and Ramdas Pophale) SiO2 
 PCOD9123987
Probable space group: C 2
;
_chemical_formula_sum "Si O2"
_cell_formula_units_Z 26
_cell_length_a 18.883901
_cell_length_b 8.933144
_cell_length_c 7.679433
_cell_angle_alpha 90.000000
_cell_angle_beta 104.231873
_cell_angle_gamma 90.000000
_cell_volume 1255.704161
_symmetry_space_group_name_H-M "C 2"
_symmetry_group_IT_number 5
_symmetry_cell_setting 'monoclinic'
loop_
_space_group_symop_operation_xyz
x,y,z
-x,y,-z
1/2+x,1/2+y,z
1/2-x,1/2+y,-z
loop_
_atom_site_type_symbol
_atom_site_label
_atom_site_fract_x
_atom_site_fract_y
_atom_site_fract_z
Si Si1 0.500000 0.126220 0.000000
Si Si2 0.720600 0.543913 0.576094
Si Si3 0.235627 0.492582 0.017800
Si Si4 0.858214 0.783483 0.060735
Si Si5 0.186972 0.382125 0.637943
Si Si6 0.558845 0.038971 0.384568
Si Si7 0.584685 0.346608 0.525351
O O1 0.571169 0.228415 0.002772
O O2 0.479357 0.023466 0.823366
O O3 0.760150 0.503033 0.421429
O O4 0.717124 0.718751 0.614023
O O5 0.638695 0.480359 0.513460
O O6 0.760619 0.466219 0.769555
O O7 0.206448 0.661454 0.988420
O O8 0.183831 0.410014 0.843900
O O9 0.316910 0.441522 0.004483
O O10 0.887852 0.786313 0.273523
O O11 0.112841 0.413442 0.487597
O O12 0.500000 0.055491 0.500000
O O13 0.594290 0.205745 0.402445
O O14 0.500000 0.389634 0.500000
#
# Coordination Sequence:
#
# PCOD9123987 Si02
#       7
#     2   4   4   4   4   4   4
#     4  12  22  40  68  98 120 180 218 268 320 396
#     4  11  26  39  64  98 130 169 220 271 324 391
#     4  11  23  42  62  98 130 176 210 275 325 394
#     4  11  22  39  69  92 131 168 224 264 325 386
#     4  12  24  41  66  94 132 173 214 273 326 391
#     4  11  22  40  64  91 129 170 221 264 319 393
#     4  10  20  41  61  90 127 168 214 268 313 388
#
# _framework density 20.705514000000001
#
# number of rings (size 3 to 8) (size 9 to 14) (size 15 to 20)
#    0.000    0.923    6.154    1.846    4.308    0.615 
#    0.000    0.000    0.000    1.846    0.000    0.000 
#    0.000    0.000    0.000    0.000    0.000    0.000 
#
# Total GULP energy -72450.213171 kJ/mol
# GULP energy per Si atom -5573.093321 kJ/mol
# Density = 2.065839 g / cm^3
# Si number density = 20.705514 Si / 1000 Ang^3
#
#
#
# Elastic Constant Matrix: (Units=GPa)
#
#
# Indices 1 2 3 4 5 6 
#
# 1 81.5194 27.2613 23.0042 0.0000 19.5027 0.0000
# 2 27.2613 69.6330 13.9169 0.0000 1.9509 0.0000
# 3 23.0042 13.9169 136.3060 0.0000 24.3378 0.0000
# 4 0.0000 0.0000 0.0000 22.3341 0.0000 13.8931
# 5 19.5027 1.9509 24.3378 0.0000 26.9036 0.0000
# 6 0.0000 0.0000 0.0000 13.8931 0.0000 24.0469
#
#
#
# Elastic Compliance Matrix: (Units=1/GPa)
#
#
# Indices 1 2 3 4 5 6 
#
# 1 0.017313 -0.006417 -0.000130 0.000000 -0.011967 0.000000
# 2 -0.006417 0.017041 -0.001511 0.000000 0.004783 0.000000
# 3 -0.000130 -0.001511 0.008916 0.000000 -0.007862 0.000000
# 4 0.000000 0.000000 0.000000 0.069894 0.000000 -0.040381
# 5 -0.011967 0.004783 -0.007862 0.000000 0.052611 0.000000
# 6 0.000000 0.000000 0.000000 -0.040381 0.000000 0.064915
#
#
# Mechanical properties :
#
#
# Convention : Reuss Voigt Hill
#
# Bulk Modulus (GPa) = 36.82528 46.20258 41.51393
# Shear Modulus (GPa) = 19.54221 29.54199 24.54210
#
# Velocity S-wave (km/s) = 3.07549 3.78136 3.44654
# Velocity P-wave (km/s) = 5.51683 6.43642 5.99428
#
# Compressibility (1/GPa) = 0.02715526
#
# Stress axis : x y z
#
# Youngs Moduli (GPa) = 57.76160 58.68172 112.15202
#
# Poissons Ratio (x) = 0.37654 0.01457
# Poissons Ratio (y) = 0.37063 0.16945
# Poissons Ratio (z) = 0.00750 0.08866
#
# Static dielectric constant tensor:
#      x y z
#    x 1.829690 0.000000 0.033080 
#    y 0.000000 1.737010 0.000000 
#    z 0.033080 0.000000 1.776850 
# 
# From -- ./inp_files/26782.got.cif
#   From: 2010.05.17/outbox.cif.g08.bks.cpg/sg5_14_cif.got.tgz:26782.got - 2010.06.03 18:56:24.
