data_PCOD9123901
_publ_section_title
;
Structure prediction by ZEFSAII (Michael W. Deem and Ramdas Pophale) SiO2 
 PCOD9123901
Probable space group: C 2
;
_chemical_formula_sum "Si O2"
_cell_formula_units_Z 22
_cell_length_a 11.520578
_cell_length_b 13.392416
_cell_length_c 9.268962
_cell_angle_alpha 90.000000
_cell_angle_beta 39.876574
_cell_angle_gamma 90.000000
_cell_volume 916.884026
_symmetry_space_group_name_H-M "C 2"
_symmetry_group_IT_number 5
_symmetry_cell_setting 'monoclinic'
loop_
_space_group_symop_operation_xyz
x,y,z
-x,y,-z
1/2+x,1/2+y,z
1/2-x,1/2+y,-z
loop_
_atom_site_type_symbol
_atom_site_label
_atom_site_fract_x
_atom_site_fract_y
_atom_site_fract_z
Si Si1 0.000000 0.690500 0.000000
Si Si2 0.285567 0.787941 0.548362
Si Si3 0.291718 0.572803 0.491571
Si Si4 0.632298 0.023326 0.042150
Si Si5 0.317100 0.387878 0.634228
Si Si6 0.288772 0.476158 0.204429
O O1 0.084090 0.754093 0.790497
O O2 0.915727 0.541033 0.268086
O O3 0.373380 0.678407 0.461424
O O4 0.294924 0.827503 0.377200
O O5 0.316372 0.880543 0.626811
O O6 0.160553 0.624286 0.920875
O O7 0.397084 0.481458 0.463508
O O8 0.282892 0.564030 0.328012
O O9 0.700754 0.931681 0.877435
O O10 0.717323 0.009610 0.117648
O O11 0.500000 0.329434 0.500000
O O12 0.500000 0.449540 0.000000
#
# Coordination Sequence:
#
# PCOD9123901 Si02
#       6
#     2   4   4   4   4   4
#     4  10  20  40  68  86 116 182 214 244 298 400
#     4  10  21  40  63  93 123 164 222 242 306 391
#     4  10  22  44  63  89 126 170 212 247 313 382
#     4  11  20  41  66  88 126 166 210 252 312 370
#     4  11  22  37  64  95 125 161 205 270 309 357
#     4  11  23  40  67  96 127 160 211 265 312 359
#
# _framework density 23.994309000000001
#
# number of rings (size 3 to 8) (size 9 to 14) (size 15 to 20)
#    0.000    1.455    4.545    2.727    0.000    2.909 
#    0.000    7.273    0.000    2.182    0.000    0.000 
#    0.000    0.000    0.000    0.000    0.000    0.000 
#
# Total GULP energy -61250.965370 kJ/mol
# GULP energy per Si atom -5568.269579 kJ/mol
# Density = 2.393970 g / cm^3
# Si number density = 23.994309 Si / 1000 Ang^3
#
#
#
# Elastic Constant Matrix: (Units=GPa)
#
#
# Indices 1 2 3 4 5 6 
#
# 1 122.6035 13.4003 41.0845 -0.0002 23.5836 0.0001
# 2 13.4003 89.5294 7.5661 0.0000 12.6364 0.0000
# 3 41.0845 7.5661 114.5288 0.0000 30.2631 0.0001
# 4 -0.0002 0.0000 0.0000 41.4602 0.0001 1.6524
# 5 23.5836 12.6364 30.2631 0.0001 51.5624 -0.0001
# 6 0.0001 0.0000 0.0001 1.6524 -0.0001 0.9273
#
#
#
# Elastic Compliance Matrix: (Units=1/GPa)
#
#
# Indices 1 2 3 4 5 6 
#
# 1 0.009663 -0.000847 -0.002719 0.000000 -0.002616 -0.000001
# 2 -0.000847 0.011644 0.000221 0.000000 -0.002596 -0.000001
# 3 -0.002719 0.000221 0.011099 0.000000 -0.005325 -0.000001
# 4 0.000000 0.000000 0.000000 0.025963 0.000000 -0.046264
# 5 -0.002616 -0.002596 -0.005325 0.000000 0.024352 0.000003
# 6 -0.000001 -0.000001 -0.000001 -0.046264 0.000003 1.160813
#
#
# Mechanical properties :
#
#
# Convention : Reuss Voigt Hill
#
# Bulk Modulus (GPa) = 38.88809 50.08482 44.48645
# Shear Modulus (GPa) = 3.97204 36.43072 20.20138
#
# Velocity S-wave (km/s) = 1.28802 3.90077 2.90474
# Velocity P-wave (km/s) = 4.29586 6.41927 5.46175
#
# Compressibility (1/GPa) = 0.02571481
#
# Stress axis : x y z
#
# Youngs Moduli (GPa) = 103.48271 85.88088 90.09546
#
# Poissons Ratio (x) = 0.07277 0.24499
# Poissons Ratio (y) = 0.08768 -0.01987
# Poissons Ratio (z) = 0.28140 -0.01894
#
# Static dielectric constant tensor:
#      x y z
#    x 1.957650 0.000000 -0.035990 
#    y 0.000000 2.053470 0.000000 
#    z -0.035990 0.000000 2.034090 
# 
# From -- ./inp_files/23050.got.cif
#   From: 2010.05.17/outbox.cif.g08.bks.cpg/sg5_12_cif.got.tgz:23050.got - 2010.06.03 18:56:24.
