data_PCOD9123357
_publ_section_title
;
Structure prediction by ZEFSAII (Michael W. Deem and Ramdas Pophale) SiO2 
 PCOD9123357
Probable space group: C 2
;
_chemical_formula_sum "Si O2"
_cell_formula_units_Z 22
_cell_length_a 10.523702
_cell_length_b 10.457230
_cell_length_c 11.754437
_cell_angle_alpha 90.000000
_cell_angle_beta 131.585981
_cell_angle_gamma 90.000000
_cell_volume 967.532823
_symmetry_space_group_name_H-M "C 2"
_symmetry_group_IT_number 5
_symmetry_cell_setting 'monoclinic'
loop_
_space_group_symop_operation_xyz
x,y,z
-x,y,-z
1/2+x,1/2+y,z
1/2-x,1/2+y,-z
loop_
_atom_site_type_symbol
_atom_site_label
_atom_site_fract_x
_atom_site_fract_y
_atom_site_fract_z
Si Si1 0.500000 0.167230 0.000000
Si Si2 0.659355 0.008321 0.513030
Si Si3 0.299771 0.818191 0.861527
Si Si4 0.143894 0.249468 0.362194
Si Si5 0.511527 0.384405 0.187398
Si Si6 0.325830 0.612270 0.072994
O O1 0.456783 0.259723 0.868075
O O2 0.339172 0.089882 0.948794
O O3 0.500000 0.030904 0.500000
O O4 0.624788 0.888806 0.407903
O O5 0.814463 0.952670 0.679302
O O6 0.728458 0.144664 0.505235
O O7 0.293183 0.772418 0.728579
O O8 0.112383 0.879225 0.775197
O O9 0.500000 0.860262 0.000000
O O10 0.287294 0.709217 0.949864
O O11 0.963663 0.179122 0.237063
O O12 0.394404 0.486333 0.051667
#
# Coordination Sequence:
#
# PCOD9123357 Si02
#       6
#     2   4   4   4   4   4
#     4  10  20  38  62  92 126 154 208 256 322 366
#     4  11  25  44  65  92 130 173 217 259 317 376
#     4   9  20  40  64  94 124 160 211 262 323 373
#     4  10  23  45  65  93 130 172 213 264 316 379
#     4  10  22  37  64  93 125 165 208 258 313 380
#     4   9  20  39  63  93 122 163 207 263 316 373
#
# _framework density 22.738247000000001
#
# number of rings (size 3 to 8) (size 9 to 14) (size 15 to 20)
#    0.000    2.182    0.000    1.091   10.182    0.000 
#    9.818    0.000    0.000    0.000    0.000    0.000 
#    0.000    0.000    0.000    0.000    0.000    0.000 
#
# Total GULP energy -61262.584191 kJ/mol
# GULP energy per Si atom -5569.325836 kJ/mol
# Density = 2.268649 g / cm^3
# Si number density = 22.738247 Si / 1000 Ang^3
#
#
#
# Elastic Constant Matrix: (Units=GPa)
#
#
# Indices 1 2 3 4 5 6 
#
# 1 135.9821 12.8830 11.4613 0.0000 5.2158 0.0000
# 2 12.8830 45.5618 5.5864 0.0000 -10.3158 0.0000
# 3 11.4613 5.5864 23.0694 0.0000 -7.1388 0.0000
# 4 0.0000 0.0000 0.0000 45.2745 0.0000 -11.7392
# 5 5.2158 -10.3158 -7.1388 0.0000 12.4170 0.0000
# 6 0.0000 0.0000 0.0000 -11.7392 0.0000 58.0370
#
#
#
# Elastic Compliance Matrix: (Units=1/GPa)
#
#
# Indices 1 2 3 4 5 6 
#
# 1 0.008733 -0.004127 -0.006734 0.000000 -0.010969 0.000000
# 2 -0.004127 0.028988 0.003673 0.000000 0.027928 0.000000
# 3 -0.006734 0.003673 0.057929 0.000000 0.039185 0.000000
# 4 0.000000 0.000000 0.000000 0.023310 0.000000 0.004715
# 5 -0.010969 0.027928 0.039185 0.000000 0.130873 0.000000
# 6 0.000000 0.000000 0.000000 0.004715 0.000000 0.018184
#
#
# Mechanical properties :
#
#
# Convention : Reuss Voigt Hill
#
# Bulk Modulus (GPa) = 12.30385 29.38608 20.84497
# Shear Modulus (GPa) = 16.15590 34.79120 25.47355
#
# Velocity S-wave (km/s) = 2.66844 3.91586 3.35071
# Velocity P-wave (km/s) = 3.86225 5.77901 4.91497
#
# Compressibility (1/GPa) = 0.08127537
#
# Stress axis : x y z
#
# Youngs Moduli (GPa) = 114.50577 34.49687 17.26244
#
# Poissons Ratio (x) = 0.14237 0.11624
# Poissons Ratio (y) = 0.47259 -0.06341
# Poissons Ratio (z) = 0.77104 -0.12671
#
# Static dielectric constant tensor:
#      x y z
#    x 1.810250 0.000000 0.024400 
#    y 0.000000 1.976830 0.000000 
#    z 0.024400 0.000000 1.830230 
# 
# From -- ./inp_files/39345.got.cif
#   From: 2010.05.17/outbox.cif.g08.bks.cpg/sg5_20_cif.got.tgz:39345.got - 2010.06.03 18:56:24.
