data_PCOD9123449
_publ_section_title
;
Structure prediction by ZEFSAII (Michael W. Deem and Ramdas Pophale) SiO2 
 PCOD9123449
Probable space group: C 2
;
_chemical_formula_sum "Si O2"
_cell_formula_units_Z 22
_cell_length_a 10.478196
_cell_length_b 12.895889
_cell_length_c 8.522921
_cell_angle_alpha 90.000000
_cell_angle_beta 46.469858
_cell_angle_gamma 90.000000
_cell_volume 834.971299
_symmetry_space_group_name_H-M "C 2"
_symmetry_group_IT_number 5
_symmetry_cell_setting 'monoclinic'
loop_
_space_group_symop_operation_xyz
x,y,z
-x,y,-z
1/2+x,1/2+y,z
1/2-x,1/2+y,-z
loop_
_atom_site_type_symbol
_atom_site_label
_atom_site_fract_x
_atom_site_fract_y
_atom_site_fract_z
Si Si1 0.697983 0.279570 0.303079
Si Si2 0.304262 0.489730 0.595047
Si Si3 0.500000 0.246120 0.000000
Si Si4 0.826674 0.345563 0.849846
Si Si5 0.964338 0.150599 0.244224
Si Si6 0.153694 0.561224 0.042969
O O1 0.500000 0.242987 0.500000
O O2 0.733313 0.370139 0.401056
O O3 0.735597 0.328662 0.100092
O O4 0.846106 0.195924 0.206456
O O5 0.500000 0.485166 0.500000
O O6 0.325878 0.574948 0.446226
O O7 0.180501 0.525880 0.839909
O O8 0.672067 0.320030 0.856120
O O9 0.456105 0.168030 0.889572
O O10 0.901574 0.463007 0.802876
O O11 0.965907 0.251763 0.719156
O O12 0.145854 0.086830 0.073446
#
# Coordination Sequence:
#
# PCOD9123449 Si02
#       6
#     4   4   2   4   4   4
#     4  10  21  37  65  93 129 176 220 272 340 408
#     4   8  17  35  59  87 120 167 215 263 331 393
#     4  10  22  38  64  94 136 168 228 278 336 404
#     4  10  22  41  64  98 129 178 221 280 342 403
#     4  10  20  38  65  94 131 171 224 277 331 406
#     4   9  20  38  64  91 126 175 216 275 336 399
#
# _framework density 26.348210999999999
#
# number of rings (size 3 to 8) (size 9 to 14) (size 15 to 20)
#    0.000    2.545    0.000    1.636    7.636    0.000 
#    6.545    0.000    4.000    0.000    0.000    0.000 
#    0.000    0.000    0.000    0.000    0.000    0.000 
#
# Total GULP energy -61369.560208 kJ/mol
# GULP energy per Si atom -5579.050928 kJ/mol
# Density = 2.628824 g / cm^3
# Si number density = 26.348211 Si / 1000 Ang^3
#
#
#
# Elastic Constant Matrix: (Units=GPa)
#
#
# Indices 1 2 3 4 5 6 
#
# 1 75.4783 31.4040 46.0080 -0.0001 -23.9608 0.0001
# 2 31.4040 132.1970 20.9676 0.0000 7.0488 0.0000
# 3 46.0080 20.9676 77.6469 -0.0002 -12.0140 0.0002
# 4 -0.0001 0.0000 -0.0002 30.5389 0.0002 -10.0050
# 5 -23.9608 7.0488 -12.0140 0.0002 27.8876 -0.0002
# 6 0.0001 0.0000 0.0002 -10.0050 -0.0002 43.0055
#
#
#
# Elastic Compliance Matrix: (Units=1/GPa)
#
#
# Indices 1 2 3 4 5 6 
#
# 1 0.031298 -0.006553 -0.013241 0.000000 0.022843 0.000000
# 2 -0.006553 0.009538 0.000068 0.000000 -0.008012 0.000000
# 3 -0.013241 0.000068 0.020296 0.000000 -0.002650 0.000000
# 4 0.000000 0.000000 0.000000 0.035447 0.000000 0.008246
# 5 0.022843 -0.008012 -0.002650 0.000000 0.056368 0.000000
# 6 0.000000 0.000000 0.000000 0.008246 0.000000 0.025171
#
#
# Mechanical properties :
#
#
# Convention : Reuss Voigt Hill
#
# Bulk Modulus (GPa) = 46.12702 53.56459 49.84581
# Shear Modulus (GPa) = 22.24232 32.74924 27.49578
#
# Velocity S-wave (km/s) = 2.90861 3.52936 3.23391
# Velocity P-wave (km/s) = 5.36887 6.08129 5.73615
#
# Compressibility (1/GPa) = 0.02167927
#
# Stress axis : x y z
#
# Youngs Moduli (GPa) = 31.95100 104.84845 49.27023
#
# Poissons Ratio (x) = 0.68705 0.65239
# Poissons Ratio (y) = 0.20937 -0.00333
# Poissons Ratio (z) = 0.42306 -0.00709
#
# Static dielectric constant tensor:
#      x y z
#    x 2.147680 0.000000 -0.022570 
#    y 0.000000 2.206330 0.000000 
#    z -0.022570 0.000000 2.053700 
# 
# From -- ./inp_files/38697.got.cif
#   From: 2010.05.17/outbox.cif.g08.bks.cpg/sg5_20_cif.got.tgz:38697.got - 2010.06.03 18:56:24.
