data_PCOD9123562
_publ_section_title
;
Structure prediction by ZEFSAII (Michael W. Deem and Ramdas Pophale) SiO2 
 PCOD9123562
Probable space group: C 2
;
_chemical_formula_sum "Si O2"
_cell_formula_units_Z 28
_cell_length_a 15.064439
_cell_length_b 12.105058
_cell_length_c 8.733641
_cell_angle_alpha 90.000000
_cell_angle_beta 122.637499
_cell_angle_gamma 90.000000
_cell_volume 1341.153958
_symmetry_space_group_name_H-M "C 2"
_symmetry_group_IT_number 5
_symmetry_cell_setting 'monoclinic'
loop_
_space_group_symop_operation_xyz
x,y,z
-x,y,-z
1/2+x,1/2+y,z
1/2-x,1/2+y,-z
loop_
_atom_site_type_symbol
_atom_site_label
_atom_site_fract_x
_atom_site_fract_y
_atom_site_fract_z
Si Si1 0.396788 0.886710 0.662042
Si Si2 0.756149 0.774297 0.257476
Si Si3 0.702128 0.705577 0.651479
Si Si4 0.412762 0.723062 0.130331
Si Si5 0.540218 0.313083 0.710808
Si Si6 0.947682 0.037133 0.621094
Si Si7 0.887678 0.647285 0.646418
O O1 0.310222 0.866013 0.713873
O O2 0.349785 0.811511 0.480817
O O3 0.511733 0.831844 0.804036
O O4 0.400197 0.016815 0.637751
O O5 0.835736 0.824878 0.204134
O O6 0.819626 0.700153 0.440411
O O7 0.665678 0.710239 0.083067
O O8 0.656881 0.713486 0.779650
O O9 0.661589 0.595445 0.522102
O O10 0.825540 0.692307 0.737704
O O11 0.493525 0.622701 0.216532
O O12 0.500000 0.301745 0.500000
O O13 0.471176 0.416006 0.706704
O O14 0.502796 0.202496 0.755808
O O15 0.000000 0.036162 0.500000
#
# Coordination Sequence:
#
# PCOD9123562 Si02
#       7
#     4   4   4   4   4   4   4
#     4  10  21  39  62  88 122 163 207 246 301 373
#     4  10  22  39  61  92 122 158 205 251 309 353
#     4   9  20  35  62  87 120 159 207 243 302 368
#     4  10  20  39  60  93 120 156 206 258 301 353
#     4   9  19  36  58  87 121 157 200 243 297 364
#     4   8  16  32  60  83 113 156 200 238 286 365
#     4  10  22  38  63  90 118 161 207 247 299 372
#
# _framework density 20.877544
#
# number of rings (size 3 to 8) (size 9 to 14) (size 15 to 20)
#    0.000    2.571    0.000    1.714   10.000    3.429 
#    5.143    2.143    0.000    1.714    0.000    0.000 
#    0.000    0.000    0.000    0.000    0.000    0.000 
#
# Total GULP energy -77935.433730 kJ/mol
# GULP energy per Si atom -5566.816695 kJ/mol
# Density = 2.083003 g / cm^3
# Si number density = 20.877544 Si / 1000 Ang^3
#
#
#
# Elastic Constant Matrix: (Units=GPa)
#
#
# Indices 1 2 3 4 5 6 
#
# 1 93.8971 36.4185 18.3912 0.0000 -1.8599 0.0000
# 2 36.4185 128.8074 14.9678 0.0000 -6.8161 0.0000
# 3 18.3912 14.9678 40.5743 0.0000 6.6386 0.0000
# 4 0.0000 0.0000 0.0000 6.0134 0.0000 -0.1524
# 5 -1.8599 -6.8161 6.6386 0.0000 12.1067 0.0000
# 6 0.0000 0.0000 0.0000 -0.1524 0.0000 25.4659
#
#
#
# Elastic Compliance Matrix: (Units=1/GPa)
#
#
# Indices 1 2 3 4 5 6 
#
# 1 0.012860 -0.002844 -0.005318 0.000000 0.003291 0.000000
# 2 -0.002844 0.009287 -0.003209 0.000000 0.006551 0.000000
# 3 -0.005318 -0.003209 0.031495 0.000000 -0.019894 0.000000
# 4 0.000000 0.000000 0.000000 0.166321 0.000000 0.000996
# 5 0.003291 0.006551 -0.019894 0.000000 0.097701 0.000000
# 6 0.000000 0.000000 0.000000 0.000996 0.000000 0.039274
#
#
# Mechanical properties :
#
#
# Convention : Reuss Voigt Hill
#
# Bulk Modulus (GPa) = 32.36213 44.75933 38.56073
# Shear Modulus (GPa) = 12.82112 21.61728 17.21920
#
# Velocity S-wave (km/s) = 2.48081 3.22130 2.87500
# Velocity P-wave (km/s) = 4.87242 5.94317 5.43423
#
# Compressibility (1/GPa) = 0.03090031
#
# Stress axis : x y z
#
# Youngs Moduli (GPa) = 77.76169 107.67591 31.75061
#
# Poissons Ratio (x) = 0.30621 0.16886
# Poissons Ratio (y) = 0.22114 0.10188
# Poissons Ratio (z) = 0.41356 0.34552
#
# Static dielectric constant tensor:
#      x y z
#    x 1.891340 0.000000 0.017500 
#    y 0.000000 1.792120 0.000000 
#    z 0.017500 0.000000 1.756710 
# 
# From -- ./inp_files/23956.got.cif
#   From: 2010.05.17/outbox.cif.g08.bks.cpg/sg5_12_cif.got.tgz:23956.got - 2010.06.03 18:56:24.
