data_PCOD9123295
_publ_section_title
;
Structure prediction by ZEFSAII (Michael W. Deem and Ramdas Pophale) SiO2 
 PCOD9123295
Probable space group: C 2
;
_chemical_formula_sum "Si O2"
_cell_formula_units_Z 30
_cell_length_a 11.614577
_cell_length_b 7.662848
_cell_length_c 13.474931
_cell_angle_alpha 90.000000
_cell_angle_beta 96.987121
_cell_angle_gamma 90.000000
_cell_volume 1190.372386
_symmetry_space_group_name_H-M "C 2"
_symmetry_group_IT_number 5
_symmetry_cell_setting 'monoclinic'
loop_
_space_group_symop_operation_xyz
x,y,z
-x,y,-z
1/2+x,1/2+y,z
1/2-x,1/2+y,-z
loop_
_atom_site_type_symbol
_atom_site_label
_atom_site_fract_x
_atom_site_fract_y
_atom_site_fract_z
Si Si1 0.932907 0.179560 0.907933
Si Si2 0.165728 0.133030 0.824084
Si Si3 0.252519 0.166360 0.430118
Si Si4 0.211365 0.741247 0.770023
Si Si5 0.225243 0.788407 0.360701
Si Si6 0.104950 0.553714 0.073452
Si Si7 0.978573 0.537477 0.710088
Si Si8 0.500000 0.000402 0.500000
O O1 0.037827 0.192088 0.840193
O O2 0.814717 0.140853 0.837775
O O3 0.890393 0.354116 0.963399
O O4 0.000000 0.069105 0.000000
O O5 0.202693 0.232390 0.727902
O O6 0.274603 0.155947 0.911637
O O7 0.168061 0.922025 0.812405
O O8 0.200909 0.989786 0.380507
O O9 0.386800 0.117309 0.465476
O O10 0.248289 0.296848 0.337184
O O11 0.208804 0.225858 0.532121
O O12 0.106162 0.608342 0.747377
O O13 0.102270 0.696556 0.334001
O O14 0.075249 0.508752 0.185806
O O15 0.000000 0.636178 0.000000
O O16 0.981713 0.418615 0.609535
#
# Coordination Sequence:
#
# PCOD9123295 Si02
#       8
#     4   4   4   4   4   4   4   2
#     4  10  23  41  62  90 126 165 212 269 324 385
#     4  10  22  40  60  91 128 161 213 266 317 392
#     4  10  20  38  60  91 126 167 212 256 324 384
#     4  10  22  39  62  89 127 165 203 267 317 373
#     4  10  21  38  62  93 124 167 212 260 320 389
#     4   9  20  39  63  89 122 168 209 263 326 387
#     4   9  19  36  62  86 125 160 210 257 315 382
#     4   8  18  34  54  84 118 166 198 246 310 376
#
# _framework density 25.202197999999999
#
# number of rings (size 3 to 8) (size 9 to 14) (size 15 to 20)
#    0.000    2.400    0.000    0.800    7.467    1.067 
#    0.000    0.667    0.000    0.000    0.000    0.000 
#    0.000    0.000    0.000    0.000    0.000    0.000 
#
# Total GULP energy -83589.377767 kJ/mol
# GULP energy per Si atom -5572.625184 kJ/mol
# Density = 2.514484 g / cm^3
# Si number density = 25.202198 Si / 1000 Ang^3
#
#
#
# Elastic Constant Matrix: (Units=GPa)
#
#
# Indices 1 2 3 4 5 6 
#
# 1 123.3543 16.7177 34.9981 0.0000 15.2271 0.0000
# 2 16.7177 60.8360 10.9936 0.0000 8.4722 0.0000
# 3 34.9981 10.9936 112.9563 0.0000 25.3555 0.0000
# 4 0.0000 0.0000 0.0000 20.4332 0.0000 3.4064
# 5 15.2271 8.4722 25.3555 0.0000 52.6872 0.0000
# 6 0.0000 0.0000 0.0000 3.4064 0.0000 27.6376
#
#
#
# Elastic Compliance Matrix: (Units=1/GPa)
#
#
# Indices 1 2 3 4 5 6 
#
# 1 0.009194 -0.001928 -0.002393 0.000000 -0.001196 0.000000
# 2 -0.001928 0.017354 -0.000662 0.000000 -0.001915 0.000000
# 3 -0.002393 -0.000662 0.010628 0.000000 -0.004317 0.000000
# 4 0.000000 0.000000 0.000000 0.049967 0.000000 -0.006158
# 5 -0.001196 -0.001915 -0.004317 0.000000 0.021711 0.000000
# 6 0.000000 0.000000 0.000000 -0.006158 0.000000 0.036942
#
#
# Mechanical properties :
#
#
# Convention : Reuss Voigt Hill
#
# Bulk Modulus (GPa) = 36.74959 46.95171 41.85065
# Shear Modulus (GPa) = 30.33432 35.78076 33.05754
#
# Velocity S-wave (km/s) = 3.47311 3.77204 3.62566
# Velocity P-wave (km/s) = 5.54048 6.13527 5.84544
#
# Compressibility (1/GPa) = 0.02721119
#
# Stress axis : x y z
#
# Youngs Moduli (GPa) = 108.76112 57.62475 94.09365
#
# Poissons Ratio (x) = 0.11108 0.22514
# Poissons Ratio (y) = 0.20966 0.06228
# Poissons Ratio (z) = 0.26024 0.03814
#
# Static dielectric constant tensor:
#      x y z
#    x 2.055330 0.000000 -0.093240 
#    y 0.000000 2.002640 0.000000 
#    z -0.093240 0.000000 2.198530 
# 
# From -- ./inp_files/52471.got.cif
#   From: 2010.05.17/outbox.cif.g08.bks.cpg/sg5_27_cif.got.tgz:52471.got - 2010.06.03 18:56:24.
