data_PCOD9123546
_publ_section_title
;
Structure prediction by ZEFSAII (Michael W. Deem and Ramdas Pophale) SiO2 
 PCOD9123546
Probable space group: C 2
;
_chemical_formula_sum "Si O2"
_cell_formula_units_Z 24
_cell_length_a 16.197666
_cell_length_b 5.299037
_cell_length_c 24.921254
_cell_angle_alpha 90.000000
_cell_angle_beta 29.361778
_cell_angle_gamma 90.000000
_cell_volume 1048.820261
_symmetry_space_group_name_H-M "C 2"
_symmetry_group_IT_number 5
_symmetry_cell_setting 'monoclinic'
loop_
_space_group_symop_operation_xyz
x,y,z
-x,y,-z
1/2+x,1/2+y,z
1/2-x,1/2+y,-z
loop_
_atom_site_type_symbol
_atom_site_label
_atom_site_fract_x
_atom_site_fract_y
_atom_site_fract_z
Si Si1 0.962536 0.614520 0.136643
Si Si2 0.408009 0.364283 0.657435
Si Si3 0.628284 0.330518 0.204109
Si Si4 0.527807 0.829716 0.198708
Si Si5 0.500000 0.629615 0.500000
Si Si6 0.500000 0.963350 0.000000
Si Si7 0.732703 0.494319 0.692728
O O1 0.771627 0.508830 0.241466
O O2 0.069112 0.426867 0.114497
O O3 0.930788 0.872802 0.186334
O O4 0.017508 0.625969 0.044347
O O5 0.465165 0.375316 0.686158
O O6 0.509635 0.474221 0.549857
O O7 0.358668 0.081479 0.668103
O O8 0.610430 0.584087 0.178738
O O9 0.558977 0.077645 0.216262
O O10 0.829003 0.301304 0.100885
O O11 0.334488 0.734837 0.301857
O O12 0.334854 0.804395 0.598297
#
# Coordination Sequence:
#
# PCOD9123546 Si02
#       7
#     4   4   4   4   2   2   4
#     4   9  20  42  67  94 136 177 220 282 330 397
#     4   9  21  38  67  97 130 177 227 276 332 395
#     4  11  25  43  70  97 140 179 224 282 334 401
#     4  11  23  44  69  95 138 182 215 279 352 386
#     4  10  20  38  74  98 132 176 240 274 324 408
#     4  10  24  44  66 106 128 182 242 270 324 412
#     4  10  20  42  71  98 136 182 224 274 342 402
#
# _framework density 22.882853999999998
#
# number of rings (size 3 to 8) (size 9 to 14) (size 15 to 20)
#    0.000    2.000    1.667    0.500    7.000    2.000 
#    6.000    0.000   14.667    0.000    0.000    0.000 
#    0.000    0.000    0.000    0.000    0.000    0.000 
#
# Total GULP energy -66914.232319 kJ/mol
# GULP energy per Si atom -5576.186027 kJ/mol
# Density = 2.283077 g / cm^3
# Si number density = 22.882854 Si / 1000 Ang^3
#
#
#
# Elastic Constant Matrix: (Units=GPa)
#
#
# Indices 1 2 3 4 5 6 
#
# 1 123.0874 65.2952 51.6560 0.0006 40.8961 0.0012
# 2 65.2952 140.3785 43.9844 -0.0005 22.7001 0.0057
# 3 51.6560 43.9844 120.1700 -0.0014 40.0244 0.0012
# 4 0.0006 -0.0005 -0.0014 11.2364 -0.0003 -2.6502
# 5 40.8961 22.7001 40.0244 -0.0003 31.4438 0.0004
# 6 0.0012 0.0057 0.0012 -2.6502 0.0004 32.1909
#
#
#
# Elastic Compliance Matrix: (Units=1/GPa)
#
#
# Indices 1 2 3 4 5 6 
#
# 1 0.016880 -0.005015 0.001191 -0.000002 -0.019849 0.000000
# 2 -0.005015 0.009775 -0.002160 0.000000 0.002215 -0.000001
# 3 0.001191 -0.002160 0.014924 0.000001 -0.018986 0.000000
# 4 -0.000002 0.000000 0.000001 0.090759 0.000001 0.007472
# 5 -0.019849 0.002215 -0.018986 0.000001 0.080187 0.000000
# 6 0.000000 -0.000001 0.000000 0.007472 0.000000 0.031680
#
#
# Mechanical properties :
#
#
# Convention : Reuss Voigt Hill
#
# Bulk Modulus (GPa) = 33.77166 78.38967 56.08067
# Shear Modulus (GPa) = 18.79410 29.82093 24.30751
#
# Velocity S-wave (km/s) = 2.86897 3.61390 3.26277
# Velocity P-wave (km/s) = 5.07595 7.19340 6.22536
#
# Compressibility (1/GPa) = 0.02961062
#
# Stress axis : x y z
#
# Youngs Moduli (GPa) = 59.24232 102.30487 67.00785
#
# Poissons Ratio (x) = 0.51303 -0.07979
# Poissons Ratio (y) = 0.29708 0.14472
# Poissons Ratio (z) = -0.07054 0.22095
#
# Static dielectric constant tensor:
#      x y z
#    x 1.910820 0.000000 -0.010460 
#    y 0.000000 1.943070 0.000000 
#    z -0.010460 0.000000 1.885040 
# 
# From -- ./inp_files/53712.got.cif
#   From: 2010.05.17/outbox.cif.g08.bks.cpg/sg5_27_cif.got.tgz:53712.got - 2010.06.03 18:56:24.
