data_PCOD9123028
_publ_section_title
;
Structure prediction by ZEFSAII (Michael W. Deem and Ramdas Pophale) SiO2 
 PCOD9123028
Probable space group: C 2
;
_chemical_formula_sum "Si O2"
_cell_formula_units_Z 24
_cell_length_a 6.256191
_cell_length_b 12.905938
_cell_length_c 14.628692
_cell_angle_alpha 90.000000
_cell_angle_beta 83.556791
_cell_angle_gamma 90.000000
_cell_volume 1173.689395
_symmetry_space_group_name_H-M "C 2"
_symmetry_group_IT_number 5
_symmetry_cell_setting 'monoclinic'
loop_
_space_group_symop_operation_xyz
x,y,z
-x,y,-z
1/2+x,1/2+y,z
1/2-x,1/2+y,-z
loop_
_atom_site_type_symbol
_atom_site_label
_atom_site_fract_x
_atom_site_fract_y
_atom_site_fract_z
Si Si1 0.857383 0.102690 0.582411
Si Si2 0.928528 0.608724 0.248657
Si Si3 0.500000 0.640918 0.000000
Si Si4 0.500000 0.244377 0.500000
Si Si5 0.632061 0.776933 0.168826
Si Si6 0.136406 0.482263 0.080328
Si Si7 0.709338 0.739711 0.670940
O O1 0.724320 0.051055 0.670614
O O2 0.675670 0.171104 0.540716
O O3 0.000000 0.043058 0.500000
O O4 0.027530 0.180054 0.621426
O O5 0.799614 0.708551 0.217772
O O6 0.985405 0.538477 0.160707
O O7 0.142646 0.652964 0.286622
O O8 0.440206 0.710135 0.915358
O O9 0.694217 0.566096 0.962186
O O10 0.365989 0.296507 0.589799
O O11 0.732695 0.882978 0.126942
O O12 0.424971 0.797820 0.243886
O O13 0.000000 0.445535 0.000000
#
# Coordination Sequence:
#
# PCOD9123028 Si02
#       7
#     4   4   2   2   4   4   4
#     4   8  15  29  56  91 118 154 193 233 295 352
#     4  10  20  37  59  87 120 155 198 245 292 352
#     4  12  24  40  58  84 116 154 204 250 298 348
#     4   8  14  28  56  94 116 154 194 228 296 354
#     4  11  23  39  60  86 116 157 200 247 296 351
#     4  12  25  39  61  86 115 160 203 246 297 351
#     4   9  17  33  58  87 121 154 193 240 292 351
#
# _framework density 20.448340999999999
#
# number of rings (size 3 to 8) (size 9 to 14) (size 15 to 20)
#    0.000    2.000    4.167    0.000    0.000    2.667 
#    0.000    0.000    1.833    0.000  108.333    0.000 
#    0.000    0.000    0.000    0.000    0.000    0.000 
#
# Total GULP energy -66869.880306 kJ/mol
# GULP energy per Si atom -5572.490026 kJ/mol
# Density = 2.040180 g / cm^3
# Si number density = 20.448341 Si / 1000 Ang^3
#
#
#
# Elastic Constant Matrix: (Units=GPa)
#
#
# Indices 1 2 3 4 5 6 
#
# 1 93.7716 12.2912 43.5434 0.0000 6.0790 0.0000
# 2 12.2912 53.5705 31.1312 0.0000 -9.9972 0.0000
# 3 43.5434 31.1312 149.2231 0.0000 -26.2575 0.0000
# 4 0.0000 0.0000 0.0000 7.6097 0.0000 -0.0408
# 5 6.0790 -9.9972 -26.2575 0.0000 43.5732 0.0000
# 6 0.0000 0.0000 0.0000 -0.0408 0.0000 9.9345
#
#
#
# Elastic Compliance Matrix: (Units=1/GPa)
#
#
# Indices 1 2 3 4 5 6 
#
# 1 0.013206 -0.001362 -0.004417 0.000000 -0.004817 0.000000
# 2 -0.001362 0.021622 -0.003587 0.000000 0.002989 0.000000
# 3 -0.004417 -0.003587 0.009734 0.000000 0.005659 0.000000
# 4 0.000000 0.000000 0.000000 0.131415 0.000000 0.000539
# 5 -0.004817 0.002989 0.005659 0.000000 0.027718 0.000000
# 6 0.000000 0.000000 0.000000 0.000539 0.000000 0.100661
#
#
# Mechanical properties :
#
#
# Convention : Reuss Voigt Hill
#
# Bulk Modulus (GPa) = 38.71507 52.27743 45.49625
# Shear Modulus (GPa) = 15.07392 26.19678 20.63535
#
# Velocity S-wave (km/s) = 2.71803 3.58316 3.18015
# Velocity P-wave (km/s) = 5.36884 6.53757 5.98182
#
# Compressibility (1/GPa) = 0.02582974
#
# Stress axis : x y z
#
# Youngs Moduli (GPa) = 75.72312 46.24910 102.72802
#
# Poissons Ratio (x) = 0.06299 0.45374
# Poissons Ratio (y) = 0.10314 0.36853
# Poissons Ratio (z) = 0.33446 0.16592
#
# Static dielectric constant tensor:
#      x y z
#    x 1.712410 0.000000 -0.044470 
#    y 0.000000 1.663920 0.000000 
#    z -0.044470 0.000000 1.791630 
# 
# From -- ./inp_files/48823.got.cif
#   From: 2010.05.17/outbox.cif.g08.bks.cpg/sg5_25_cif.got.tgz:48823.got - 2010.06.03 18:56:24.
