data_PCOD9123369
_publ_section_title
;
Structure prediction by ZEFSAII (Michael W. Deem and Ramdas Pophale) SiO2 
 PCOD9123369
Probable space group: C 2
;
_chemical_formula_sum "Si O2"
_cell_formula_units_Z 24
_cell_length_a 13.332891
_cell_length_b 7.266692
_cell_length_c 12.916723
_cell_angle_alpha 90.000000
_cell_angle_beta 119.450137
_cell_angle_gamma 90.000000
_cell_volume 1089.742336
_symmetry_space_group_name_H-M "C 2"
_symmetry_group_IT_number 5
_symmetry_cell_setting 'monoclinic'
loop_
_space_group_symop_operation_xyz
x,y,z
-x,y,-z
1/2+x,1/2+y,z
1/2-x,1/2+y,-z
loop_
_atom_site_type_symbol
_atom_site_label
_atom_site_fract_x
_atom_site_fract_y
_atom_site_fract_z
Si Si1 0.500000 0.005471 0.500000
Si Si2 0.649651 0.259847 0.847606
Si Si3 0.097544 0.684762 0.344462
Si Si4 0.748913 0.939820 0.668750
Si Si5 0.297137 0.427333 0.913404
Si Si6 0.181343 0.355497 0.243446
Si Si7 0.500000 0.710711 0.000000
O O1 0.549058 0.123513 0.430075
O O2 0.613228 0.902056 0.597107
O O3 0.513533 0.272831 0.769247
O O4 0.720061 0.377103 0.796633
O O5 0.681409 0.046537 0.845982
O O6 0.696754 0.298773 0.985844
O O7 0.192274 0.843281 0.398053
O O8 0.155811 0.513415 0.313286
O O9 0.806110 0.851399 0.801848
O O10 0.781571 0.156316 0.690388
O O11 0.398287 0.575542 0.984255
O O12 0.061113 0.327501 0.120103
#
# Coordination Sequence:
#
# PCOD9123369 Si02
#       7
#     2   4   4   4   4   4   2
#     4  12  26  50  68 100 138 172 246 286 316 420
#     4  10  22  40  65 105 137 173 224 279 332 418
#     4  12  26  46  74  94 136 186 224 288 344 387
#     4  10  25  48  65 101 139 176 229 283 336 404
#     4  10  20  38  62  99 140 172 218 278 335 407
#     4  10  23  43  66 105 135 177 227 274 341 406
#     4   8  18  36  62  94 142 168 214 276 328 416
#
# _framework density 22.023554000000001
#
# number of rings (size 3 to 8) (size 9 to 14) (size 15 to 20)
#    0.000    2.000    3.333    2.000    9.333    0.000 
#    3.000    1.667    0.000    0.000    0.000    0.000 
#    0.000    0.000    0.000    0.000    0.000    0.000 
#
# Total GULP energy -66937.060026 kJ/mol
# GULP energy per Si atom -5578.088336 kJ/mol
# Density = 2.197343 g / cm^3
# Si number density = 22.023554 Si / 1000 Ang^3
#
#
#
# Elastic Constant Matrix: (Units=GPa)
#
#
# Indices 1 2 3 4 5 6 
#
# 1 136.5180 33.9432 53.2853 0.0000 -3.2144 0.0000
# 2 33.9432 41.7276 21.4667 0.0000 -7.7096 0.0000
# 3 53.2853 21.4667 86.9504 0.0000 0.8537 0.0000
# 4 0.0000 0.0000 0.0000 13.6182 0.0000 -11.5367
# 5 -3.2144 -7.7096 0.8537 0.0000 36.7835 0.0000
# 6 0.0000 0.0000 0.0000 -11.5367 0.0000 35.7383
#
#
#
# Elastic Compliance Matrix: (Units=1/GPa)
#
#
# Indices 1 2 3 4 5 6 
#
# 1 0.010872 -0.006257 -0.005115 0.000000 -0.000243 0.000000
# 2 -0.006257 0.032401 -0.004227 0.000000 0.006342 0.000000
# 3 -0.005115 -0.004227 0.015696 0.000000 -0.001697 0.000000
# 4 0.000000 0.000000 0.000000 0.101070 0.000000 0.032627
# 5 -0.000243 0.006342 -0.001697 0.000000 0.028534 0.000000
# 6 0.000000 0.000000 0.000000 0.032627 0.000000 0.038513
#
#
# Mechanical properties :
#
#
# Convention : Reuss Voigt Hill
#
# Bulk Modulus (GPa) = 36.01025 53.62071 44.81548
# Shear Modulus (GPa) = 18.68870 27.66138 23.17504
#
# Velocity S-wave (km/s) = 2.91620 3.54784 3.24741
# Velocity P-wave (km/s) = 5.26547 6.41738 5.86975
#
# Compressibility (1/GPa) = 0.02776987
#
# Stress axis : x y z
#
# Youngs Moduli (GPa) = 91.98328 30.86318 63.71088
#
# Poissons Ratio (x) = 0.19310 0.32590
# Poissons Ratio (y) = 0.57551 0.26933
# Poissons Ratio (z) = 0.47052 0.13047
#
# Static dielectric constant tensor:
#      x y z
#    x 1.855880 0.000000 -0.024230 
#    y 0.000000 1.826360 0.000000 
#    z -0.024230 0.000000 1.896420 
# 
# From -- ./inp_files/38449.got.cif
#   From: 2010.05.17/outbox.cif.g08.bks.cpg/sg5_20_cif.got.tgz:38449.got - 2010.06.03 18:56:24.
