data_PCOD9123972
_publ_section_title
;
Structure prediction by ZEFSAII (Michael W. Deem and Ramdas Pophale) SiO2 
 PCOD9123972
Probable space group: C 2
;
_chemical_formula_sum "Si O2"
_cell_formula_units_Z 26
_cell_length_a 20.548714
_cell_length_b 8.964700
_cell_length_c 8.059475
_cell_angle_alpha 90.000000
_cell_angle_beta 49.658517
_cell_angle_gamma 90.000000
_cell_volume 1131.608019
_symmetry_space_group_name_H-M "C 2"
_symmetry_group_IT_number 5
_symmetry_cell_setting 'monoclinic'
loop_
_space_group_symop_operation_xyz
x,y,z
-x,y,-z
1/2+x,1/2+y,z
1/2-x,1/2+y,-z
loop_
_atom_site_type_symbol
_atom_site_label
_atom_site_fract_x
_atom_site_fract_y
_atom_site_fract_z
Si Si1 0.500000 0.849000 0.500000
Si Si2 0.500000 0.342504 0.500000
Si Si3 0.747433 0.742959 0.189363
Si Si4 0.349760 0.720157 0.301059
Si Si5 0.179407 0.074416 0.977417
Si Si6 0.000000 0.455637 0.000000
Si Si7 0.524090 0.579980 0.697072
Si Si8 0.416153 0.089651 0.841443
O O1 0.530361 0.740237 0.595633
O O2 0.425674 0.953869 0.695741
O O3 0.554866 0.449897 0.526137
O O4 0.440054 0.236432 0.702628
O O5 0.703324 0.747906 0.443482
O O6 0.698004 0.669083 0.113498
O O7 0.827296 0.628138 0.072311
O O8 0.776650 0.912154 0.098077
O O9 0.416373 0.589185 0.243372
O O10 0.296978 0.669565 0.227072
O O11 0.414934 0.853886 0.146913
O O12 0.077083 0.055812 0.125993
O O13 0.988463 0.554872 0.857079
#
# Coordination Sequence:
#
# PCOD9123972 Si02
#       8
#     2   2   4   4   4   2   4   4
#     4  10  20  40  80 100 140 190 256 290 364 454
#     4  10  22  42  74 108 146 188 244 306 374 444
#     4  12  31  47  77 113 158 195 244 323 386 444
#     4  12  27  50  79 108 147 202 258 309 372 454
#     4  12  28  50  75 112 155 199 250 310 385 448
#     4  12  26  46  82 104 148 204 260 304 370 462
#     4  11  21  47  79 104 138 203 253 298 372 458
#     4  11  25  45  69 116 145 191 248 317 366 439
#
# _framework density 22.976154999999999
#
# number of rings (size 3 to 8) (size 9 to 14) (size 15 to 20)
#    0.000    0.615    4.615    1.846    8.615    1.231 
#    0.000    0.000    0.000    0.000    0.000    0.000 
#    0.000    0.000    0.000    0.000    0.000    0.000 
#
# Total GULP energy -72662.593494 kJ/mol
# GULP energy per Si atom -5589.430269 kJ/mol
# Density = 2.292386 g / cm^3
# Si number density = 22.976155 Si / 1000 Ang^3
#
#
#
# Elastic Constant Matrix: (Units=GPa)
#
#
# Indices 1 2 3 4 5 6 
#
# 1 66.0317 35.8082 30.2301 0.0000 13.5683 0.0000
# 2 35.8082 138.7787 63.1671 0.0000 5.4032 0.0000
# 3 30.2301 63.1671 146.7854 0.0000 3.7655 0.0000
# 4 0.0000 0.0000 0.0000 31.2420 0.0000 -5.8171
# 5 13.5683 5.4032 3.7655 0.0000 40.4529 0.0000
# 6 0.0000 0.0000 0.0000 -5.8171 0.0000 21.0641
#
#
#
# Elastic Compliance Matrix: (Units=1/GPa)
#
#
# Indices 1 2 3 4 5 6 
#
# 1 0.019396 -0.003766 -0.002225 0.000000 -0.005796 0.000000
# 2 -0.003766 0.009721 -0.003415 0.000000 0.000283 0.000000
# 3 -0.002225 -0.003415 0.008730 0.000000 0.000390 0.000000
# 4 0.000000 0.000000 0.000000 0.033743 0.000000 0.009319
# 5 -0.005796 0.000283 0.000390 0.000000 0.026590 0.000000
# 6 0.000000 0.000000 0.000000 0.009319 0.000000 0.050048
#
#
# Mechanical properties :
#
#
# Convention : Reuss Voigt Hill
#
# Bulk Modulus (GPa) = 52.53477 67.77852 60.15664
# Shear Modulus (GPa) = 28.83741 33.37781 31.10761
#
# Velocity S-wave (km/s) = 3.54658 3.81558 3.68354
# Velocity P-wave (km/s) = 6.29965 6.99822 6.65810
#
# Compressibility (1/GPa) = 0.01903501
#
# Stress axis : x y z
#
# Youngs Moduli (GPa) = 51.55641 102.87239 114.54151
#
# Poissons Ratio (x) = 0.38744 0.25488
# Poissons Ratio (y) = 0.19417 0.39114
# Poissons Ratio (z) = 0.11472 0.35129
#
# Static dielectric constant tensor:
#      x y z
#    x 1.889150 0.000000 -0.010500 
#    y 0.000000 1.850000 0.000000 
#    z -0.010500 0.000000 1.988910 
# 
# From -- ./inp_files/28723.got.cif
#   From: 2010.05.17/outbox.cif.g08.bks.cpg/sg5_15_cif.got.tgz:28723.got - 2010.06.03 18:56:24.
