data_PCOD9123217
_publ_section_title
;
Structure prediction by ZEFSAII (Michael W. Deem and Ramdas Pophale) SiO2 
 PCOD9123217
Probable space group: C 2
;
_chemical_formula_sum "Si O2"
_cell_formula_units_Z 32
_cell_length_a 8.929665
_cell_length_b 21.492755
_cell_length_c 15.199997
_cell_angle_alpha 90.000000
_cell_angle_beta 32.351524
_cell_angle_gamma 90.000000
_cell_volume 1561.045806
_symmetry_space_group_name_H-M "C 2"
_symmetry_group_IT_number 5
_symmetry_cell_setting 'monoclinic'
loop_
_space_group_symop_operation_xyz
x,y,z
-x,y,-z
1/2+x,1/2+y,z
1/2-x,1/2+y,-z
loop_
_atom_site_type_symbol
_atom_site_label
_atom_site_fract_x
_atom_site_fract_y
_atom_site_fract_z
Si Si1 0.186366 0.106300 0.823760
Si Si2 0.503330 0.918925 0.893069
Si Si3 0.412668 0.482400 0.399596
Si Si4 0.836077 0.122360 0.494090
Si Si5 0.030080 0.373051 0.384279
Si Si6 0.170078 0.307959 0.147829
Si Si7 0.443785 0.479508 0.176735
Si Si8 0.166066 0.163925 0.157149
O O1 0.500360 0.133818 0.664280
O O2 0.996383 0.124238 0.834792
O O3 0.204286 0.031125 0.808417
O O4 0.000000 0.124217 0.000000
O O5 0.443117 0.857151 0.866990
O O6 0.793493 0.950816 0.724723
O O7 0.500000 0.905500 0.000000
O O8 0.266626 0.970867 0.994251
O O9 0.366258 0.547523 0.469501
O O10 0.404532 0.496255 0.298712
O O11 0.188126 0.428346 0.525383
O O12 0.000000 0.142522 0.500000
O O13 0.999647 0.152099 0.330410
O O14 0.017416 0.321498 0.316347
O O15 0.319692 0.410399 0.230769
O O16 0.000000 0.351437 0.500000
O O17 0.138969 0.235713 0.141079
O O18 0.500000 0.318118 0.000000
O O19 0.500000 0.149146 0.000000
#
# Coordination Sequence:
#
# PCOD9123217 Si02
#       8
#     4   4   4   4   4   4   4   4
#     4  12  26  43  70 102 134 184 228 285 344 408
#     4  10  23  39  63 102 136 176 212 277 340 400
#     4  10  22  37  62 101 142 167 213 280 341 404
#     4  12  26  44  68 101 140 179 229 287 341 403
#     4  10  21  39  63 100 134 174 209 271 338 404
#     4  11  24  45  71  95 132 180 228 269 325 412
#     4  10  20  37  67  96 137 172 216 267 350 408
#     4  11  27  49  70  97 135 188 238 281 336 402
#
# _framework density 20.499078999999998
#
# number of rings (size 3 to 8) (size 9 to 14) (size 15 to 20)
#    0.000    1.250    3.750    1.125    7.000    1.000 
#    4.500    0.000    0.000    0.000    0.000    0.000 
#    0.000    0.000    0.000    0.000    0.000    0.000 
#
# Total GULP energy -89378.000876 kJ/mol
# GULP energy per Si atom -5586.125055 kJ/mol
# Density = 2.045242 g / cm^3
# Si number density = 20.499079 Si / 1000 Ang^3
#
#
#
# Elastic Constant Matrix: (Units=GPa)
#
#
# Indices 1 2 3 4 5 6 
#
# 1 62.8828 7.9870 38.7003 0.0026 -2.8192 0.0001
# 2 7.9870 40.6061 17.8013 0.0042 -0.6273 -0.0002
# 3 38.7003 17.8013 121.0948 -0.0178 -9.5960 0.0039
# 4 0.0026 0.0042 -0.0178 11.3609 0.0039 -6.8212
# 5 -2.8192 -0.6273 -9.5960 0.0039 32.7727 -0.0003
# 6 0.0001 -0.0002 0.0039 -6.8212 -0.0003 23.0020
#
#
#
# Elastic Compliance Matrix: (Units=1/GPa)
#
#
# Indices 1 2 3 4 5 6 
#
# 1 0.019851 -0.001198 -0.006178 -0.000016 -0.000124 -0.000004
# 2 -0.001198 0.026409 -0.003550 -0.000017 -0.000637 -0.000004
# 3 -0.006178 -0.003550 0.010961 0.000022 0.002610 0.000005
# 4 -0.000016 -0.000017 0.000022 0.107088 -0.000008 0.031757
# 5 -0.000124 -0.000637 0.002610 -0.000008 0.031255 -0.000002
# 6 -0.000004 -0.000004 0.000005 0.031757 -0.000002 0.052892
#
#
# Mechanical properties :
#
#
# Convention : Reuss Voigt Hill
#
# Bulk Modulus (GPa) = 28.27295 39.28454 33.77874
# Shear Modulus (GPa) = 17.72438 24.10013 20.91225
#
# Velocity S-wave (km/s) = 2.94367 3.43252 3.19745
# Velocity P-wave (km/s) = 5.03744 5.90891 5.49050
#
# Compressibility (1/GPa) = 0.03536949
#
# Stress axis : x y z
#
# Youngs Moduli (GPa) = 50.37442 37.86608 91.23233
#
# Poissons Ratio (x) = 0.04537 0.56363
# Poissons Ratio (y) = 0.06036 0.32385
# Poissons Ratio (z) = 0.31121 0.13441
#
# Static dielectric constant tensor:
#      x y z
#    x 1.761450 0.000000 -0.005250 
#    y 0.000000 1.725100 0.000000 
#    z -0.005250 0.000000 1.755210 
# 
# From -- ./inp_files/25637.got.cif
#   From: 2010.05.17/outbox.cif.g08.bks.cpg/sg5_13_cif.got.tgz:25637.got - 2010.06.03 18:56:24.
