data_PCOD9123937
_publ_section_title
;
Structure prediction by ZEFSAII (Michael W. Deem and Ramdas Pophale) SiO2 
 PCOD9123937
Probable space group: C 2
;
_chemical_formula_sum "Si O2"
_cell_formula_units_Z 28
_cell_length_a 19.688237
_cell_length_b 11.727413
_cell_length_c 16.673380
_cell_angle_alpha 90.000000
_cell_angle_beta 20.864283
_cell_angle_gamma 90.000000
_cell_volume 1371.110425
_symmetry_space_group_name_H-M "C 2"
_symmetry_group_IT_number 5
_symmetry_cell_setting 'monoclinic'
loop_
_space_group_symop_operation_xyz
x,y,z
-x,y,-z
1/2+x,1/2+y,z
1/2-x,1/2+y,-z
loop_
_atom_site_type_symbol
_atom_site_label
_atom_site_fract_x
_atom_site_fract_y
_atom_site_fract_z
Si Si1 0.500000 0.352770 0.500000
Si Si2 0.400192 0.937225 0.035153
Si Si3 0.353389 0.862640 0.907606
Si Si4 0.277355 0.850260 0.728094
Si Si5 0.609453 0.484331 0.055368
Si Si6 0.112084 0.677621 0.237602
Si Si7 0.308425 0.988163 0.540433
Si Si8 0.500000 0.155362 0.000000
O O1 0.681716 0.433433 0.302141
O O2 0.529624 0.269982 0.390869
O O3 0.500000 0.873828 0.000000
O O4 0.411043 0.883861 0.936105
O O5 0.482788 0.065141 0.946172
O O6 0.547274 0.886817 0.645647
O O7 0.241019 0.743576 0.030084
O O8 0.197321 0.951522 0.044805
O O9 0.500000 0.837612 0.500000
O O10 0.180819 0.737646 0.799183
O O11 0.251008 0.952990 0.693845
O O12 0.168915 0.883189 0.929392
O O13 0.383655 0.500117 0.298939
O O14 0.735992 0.592526 0.888289
O O15 0.939442 0.600730 0.395740
#
# Coordination Sequence:
#
# PCOD9123937 Si02
#       8
#     2   4   4   4   4   4   4   2
#     4  10  20  40  70  88 128 166 212 272 314 384
#     4   9  23  43  62  92 125 168 227 255 315 391
#     4  10  23  43  62  90 137 171 216 268 318 387
#     4  12  21  41  69  94 131 169 215 269 327 384
#     4  11  23  41  65  99 130 166 224 264 320 399
#     4  10  22  40  64  95 125 173 205 269 336 366
#     4  11  23  42  64  97 133 167 216 273 318 391
#     4  10  24  40  66  94 128 176 218 266 316 386
#
# _framework density 20.421405
#
# number of rings (size 3 to 8) (size 9 to 14) (size 15 to 20)
#    0.429    1.143    4.286    0.857    1.000    8.000 
#    2.571    0.000    0.000    0.000    0.000    0.000 
#    0.000    0.000    0.000    0.000    0.000    0.000 
#
# Total GULP energy -78012.056423 kJ/mol
# GULP energy per Si atom -5572.289744 kJ/mol
# Density = 2.037492 g / cm^3
# Si number density = 20.421405 Si / 1000 Ang^3
#
#
#
# Elastic Constant Matrix: (Units=GPa)
#
#
# Indices 1 2 3 4 5 6 
#
# 1 88.7840 9.5379 25.1512 0.0015 -15.0586 0.0011
# 2 9.5379 67.1422 8.9369 0.0070 -4.3607 0.0043
# 3 25.1512 8.9369 82.4180 0.0077 -25.8602 0.0050
# 4 0.0015 0.0070 0.0077 190.9390 -0.0039 73.6423
# 5 -15.0586 -4.3607 -25.8602 -0.0039 38.3478 -0.0023
# 6 0.0011 0.0043 0.0050 73.6423 -0.0023 66.7794
#
#
#
# Elastic Compliance Matrix: (Units=1/GPa)
#
#
# Indices 1 2 3 4 5 6 
#
# 1 0.012693 -0.001237 -0.002815 0.000000 0.002945 0.000000
# 2 -0.001237 0.015251 -0.001122 0.000000 0.000492 -0.000001
# 3 -0.002815 -0.001122 0.016143 0.000000 0.009653 -0.000001
# 4 0.000000 0.000000 0.000000 0.009113 0.000000 -0.010050
# 5 0.002945 0.000492 0.009653 0.000000 0.033799 0.000000
# 6 0.000000 -0.000001 -0.000001 -0.010050 0.000000 0.026057
#
#
# Mechanical properties :
#
#
# Convention : Reuss Voigt Hill
#
# Bulk Modulus (GPa) = 29.63981 36.17736 32.90858
# Shear Modulus (GPa) = 37.13289 72.19446 54.66368
#
# Velocity S-wave (km/s) = 4.26882 5.95223 5.17938
# Velocity P-wave (km/s) = 6.23239 8.06180 7.20539
#
# Compressibility (1/GPa) = 0.03373841
#
# Stress axis : x y z
#
# Youngs Moduli (GPa) = 78.78196 65.57049 61.94699
#
# Poissons Ratio (x) = 0.08112 0.17440
# Poissons Ratio (y) = 0.09746 0.06949
# Poissons Ratio (z) = 0.22179 0.07356
#
# Static dielectric constant tensor:
#      x y z
#    x 1.737380 0.000000 0.089200 
#    y 0.000000 1.759160 0.000000 
#    z 0.089200 0.000000 1.350810 
# 
# From -- ./inp_files/62908.got.cif
#   From: 2010.05.17/outbox.cif.g08.bks.cpg/sg5_32_cif.got.tgz:62908.got - 2010.06.03 18:56:24.
