data_PCOD9123323
_publ_section_title
;
Structure prediction by ZEFSAII (Michael W. Deem and Ramdas Pophale) SiO2 
 PCOD9123323
Probable space group: C 2
;
_chemical_formula_sum "Si O2"
_cell_formula_units_Z 30
_cell_length_a 18.800441
_cell_length_b 4.934626
_cell_length_c 15.334133
_cell_angle_alpha 90.000000
_cell_angle_beta 101.392553
_cell_angle_gamma 90.000000
_cell_volume 1394.566136
_symmetry_space_group_name_H-M "C 2"
_symmetry_group_IT_number 5
_symmetry_cell_setting 'monoclinic'
loop_
_space_group_symop_operation_xyz
x,y,z
-x,y,-z
1/2+x,1/2+y,z
1/2-x,1/2+y,-z
loop_
_atom_site_type_symbol
_atom_site_label
_atom_site_fract_x
_atom_site_fract_y
_atom_site_fract_z
Si Si1 0.000000 0.394521 0.000000
Si Si2 0.200410 0.607749 0.490303
Si Si3 0.100726 0.661387 0.810118
Si Si4 0.394551 0.279450 0.863435
Si Si5 0.516746 0.662658 0.833399
Si Si6 0.803484 0.481238 0.697847
Si Si7 0.799215 0.796368 0.002451
Si Si8 0.296916 0.982604 0.321157
O O1 0.040461 0.202658 0.940652
O O2 0.948449 0.588311 0.932141
O O3 0.272551 0.416235 0.506888
O O4 0.163226 0.529334 0.390529
O O5 0.166573 0.545222 0.575989
O O6 0.032615 0.456635 0.798775
O O7 0.152962 0.561438 0.746927
O O8 0.067864 0.959127 0.793596
O O9 0.145188 0.677964 0.911977
O O10 0.439207 0.519020 0.827153
O O11 0.355665 0.088697 0.784538
O O12 0.337021 0.380285 0.921111
O O13 0.773923 0.178136 0.700112
O O14 0.732596 0.677337 0.686538
O O15 0.742474 0.555438 0.969599
#
# Coordination Sequence:
#
# PCOD9123323 Si02
#       8
#     2   4   4   4   4   4   4   4
#     4  12  24  44  60  80 110 166 212 252 280 338
#     4   8  16  33  58  89 123 150 187 230 300 371
#     4  12  23  40  58  85 118 156 208 240 297 359
#     4  12  25  42  62  84 120 158 210 247 298 344
#     4  12  25  41  60  82 109 164 213 249 275 347
#     4  10  21  36  62  95 120 154 194 248 303 363
#     4  12  25  37  56  85 120 151 184 250 309 353
#     4  10  20  38  61  94 125 154 186 245 311 367
#
# _framework density 21.512067999999999
#
# number of rings (size 3 to 8) (size 9 to 14) (size 15 to 20)
#    0.000    1.067    2.667    4.400    3.733    0.000 
#    0.000    0.000    0.000    0.800    3.467    0.000 
#    0.000    0.000    0.000    0.000    0.000    0.000 
#
# Total GULP energy -83826.586313 kJ/mol
# GULP energy per Si atom -5588.439088 kJ/mol
# Density = 2.146311 g / cm^3
# Si number density = 21.512068 Si / 1000 Ang^3
#
#
#
# Elastic Constant Matrix: (Units=GPa)
#
#
# Indices 1 2 3 4 5 6 
#
# 1 53.2395 6.1130 20.5472 0.0000 -7.7152 0.0000
# 2 6.1130 79.7495 -19.5864 0.0000 -3.6867 0.0000
# 3 20.5472 -19.5864 94.3897 0.0000 -6.4417 0.0000
# 4 0.0000 0.0000 0.0000 22.5512 0.0000 -6.3418
# 5 -7.7152 -3.6867 -6.4417 0.0000 11.1701 0.0000
# 6 0.0000 0.0000 0.0000 -6.3418 0.0000 26.3326
#
#
#
# Elastic Compliance Matrix: (Units=1/GPa)
#
#
# Indices 1 2 3 4 5 6 
#
# 1 0.022573 -0.002284 -0.004554 0.000000 0.012210 0.000000
# 2 -0.002284 0.013867 0.003726 0.000000 0.005148 0.000000
# 3 -0.004554 0.003726 0.012729 0.000000 0.005425 0.000000
# 4 0.000000 0.000000 0.000000 0.047565 0.000000 0.011455
# 5 0.012210 0.005148 0.005425 0.000000 0.102786 0.000000
# 6 0.000000 0.000000 0.000000 0.011455 0.000000 0.040735
#
#
# Mechanical properties :
#
#
# Convention : Reuss Voigt Hill
#
# Bulk Modulus (GPa) = 23.28607 26.83625 25.06116
# Shear Modulus (GPa) = 19.17214 26.69776 22.93495
#
# Velocity S-wave (km/s) = 2.98858 3.52669 3.26873
# Velocity P-wave (km/s) = 4.77043 5.39309 5.09129
#
# Compressibility (1/GPa) = 0.04294414
#
# Stress axis : x y z
#
# Youngs Moduli (GPa) = 44.30159 72.11108 78.55935
#
# Poissons Ratio (x) = 0.16473 0.35779
# Poissons Ratio (y) = 0.10120 -0.29273
# Poissons Ratio (z) = 0.20177 -0.26870
#
# Static dielectric constant tensor:
#      x y z
#    x 1.801820 0.000000 -0.008920 
#    y 0.000000 1.786330 0.000000 
#    z -0.008920 0.000000 1.814920 
# 
# From -- ./inp_files/55306.got.cif
#   From: 2010.05.17/outbox.cif.g08.bks.cpg/sg5_28_cif.got.tgz:55306.got - 2010.06.03 18:56:24.
