data_PCOD9123151
_publ_section_title
;
Structure prediction by ZEFSAII (Michael W. Deem and Ramdas Pophale) SiO2 
 PCOD9123151
Probable space group: C 2
;
_chemical_formula_sum "Si O2"
_cell_formula_units_Z 32
_cell_length_a 20.391176
_cell_length_b 11.060964
_cell_length_c 21.457596
_cell_angle_alpha 90.000000
_cell_angle_beta 20.579923
_cell_angle_gamma 90.000000
_cell_volume 1701.212152
_symmetry_space_group_name_H-M "C 2"
_symmetry_group_IT_number 5
_symmetry_cell_setting 'monoclinic'
loop_
_space_group_symop_operation_xyz
x,y,z
-x,y,-z
1/2+x,1/2+y,z
1/2-x,1/2+y,-z
loop_
_atom_site_type_symbol
_atom_site_label
_atom_site_fract_x
_atom_site_fract_y
_atom_site_fract_z
Si Si1 0.506444 0.843090 0.919927
Si Si2 0.582091 0.650752 0.756937
Si Si3 0.300016 0.713023 0.549787
Si Si4 0.577115 0.095850 0.632638
Si Si5 0.021237 0.893497 0.169275
Si Si6 0.868416 0.975985 0.557949
Si Si7 0.914957 0.845373 0.746354
Si Si8 0.071003 0.325945 0.215151
O O1 0.580886 0.718369 0.823529
O O2 0.658990 0.938004 0.760847
O O3 0.500000 0.838291 0.000000
O O4 0.299460 0.872220 0.078787
O O5 0.774016 0.600262 0.556425
O O6 0.460807 0.530149 0.869582
O O7 0.508899 0.751632 0.772905
O O8 0.184936 0.642528 0.598119
O O9 0.359842 0.616091 0.547145
O O10 0.482904 0.764463 0.353898
O O11 0.160843 0.821728 0.691823
O O12 0.433570 0.201305 0.740791
O O13 0.496091 0.965149 0.721269
O O14 0.018132 0.900953 0.247552
O O15 0.207152 0.821837 0.986066
O O16 0.000000 0.954140 0.500000
O O17 0.951643 0.897322 0.426419
#
# Coordination Sequence:
#
# PCOD9123151 Si02
#       8
#     4   4   4   4   4   4   4   4
#     4  12  24  41  65  93 124 164 217 259 308 375
#     4  11  21  38  63  91 130 164 206 264 317 383
#     4  10  24  38  60  94 127 164 207 258 324 379
#     4  10  20  37  63  93 134 160 196 269 326 374
#     4  11  23  38  65  99 127 163 207 266 329 376
#     4  12  25  44  66  88 129 173 215 262 308 381
#     4  11  22  39  64  98 125 166 212 256 324 376
#     4  11  21  37  60  95 129 162 202 260 324 380
#
# _framework density 18.810117000000002
#
# number of rings (size 3 to 8) (size 9 to 14) (size 15 to 20)
#    0.000    1.000    5.000    3.000    3.500    1.000 
#    0.000    0.000    5.500    0.000    0.000    0.000 
#    0.000    0.000    0.000    0.000    0.000    0.000 
#
# Total GULP energy -89359.978811 kJ/mol
# GULP energy per Si atom -5584.998676 kJ/mol
# Density = 1.876730 g / cm^3
# Si number density = 18.810117 Si / 1000 Ang^3
#
#
#
# Elastic Constant Matrix: (Units=GPa)
#
#
# Indices 1 2 3 4 5 6 
#
# 1 15.9432 17.8008 7.9980 -0.0010 1.0962 -0.0012
# 2 17.8008 98.1819 17.7123 -0.0002 13.5331 -0.0015
# 3 7.9980 17.7123 99.0486 0.0021 6.6006 -0.0013
# 4 -0.0010 -0.0002 0.0021 27.5303 -0.0005 0.7276
# 5 1.0962 13.5331 6.6006 -0.0005 21.6703 0.0006
# 6 -0.0012 -0.0015 -0.0013 0.7276 0.0006 19.8488
#
#
#
# Elastic Compliance Matrix: (Units=1/GPa)
#
#
# Indices 1 2 3 4 5 6 
#
# 1 0.080959 -0.014788 -0.004323 0.000003 0.006457 0.000003
# 2 -0.014788 0.014087 -0.000805 -0.000001 -0.007804 0.000000
# 3 -0.004323 -0.000805 0.010759 -0.000001 -0.002556 0.000000
# 4 0.000003 -0.000001 -0.000001 0.036359 0.000001 -0.001333
# 5 0.006457 -0.007804 -0.002556 0.000001 0.051472 -0.000002
# 6 0.000003 0.000000 0.000000 -0.001333 -0.000002 0.050430
#
#
# Mechanical properties :
#
#
# Convention : Reuss Voigt Hill
#
# Bulk Modulus (GPa) = 15.15771 33.35509 24.25640
# Shear Modulus (GPa) = 16.34578 25.12071 20.73325
#
# Velocity S-wave (km/s) = 2.95106 3.65840 3.32360
# Velocity P-wave (km/s) = 4.43705 5.96793 5.25850
#
# Compressibility (1/GPa) = 0.06597303
#
# Stress axis : x y z
#
# Youngs Moduli (GPa) = 12.35195 70.98609 92.94199
#
# Poissons Ratio (x) = 1.04976 0.40179
# Poissons Ratio (y) = 0.18266 0.07481
# Poissons Ratio (z) = 0.05340 0.05714
#
# Static dielectric constant tensor:
#      x y z
#    x 1.625150 0.000000 -0.008360 
#    y 0.000000 1.674080 0.000000 
#    z -0.008360 0.000000 1.690560 
# 
# From -- ./inp_files/67127.got.cif
#   From: 2010.05.17/outbox.cif.g08.bks.cpg/sg5_34_cif.got.tgz:67127.got - 2010.06.03 18:56:24.
