data_PCOD9123334
_publ_section_title
;
Structure prediction by ZEFSAII (Michael W. Deem and Ramdas Pophale) SiO2 
 PCOD9123334
Probable space group: C 2
;
_chemical_formula_sum "Si O2"
_cell_formula_units_Z 26
_cell_length_a 7.656838
_cell_length_b 29.739623
_cell_length_c 5.903825
_cell_angle_alpha 90.000000
_cell_angle_beta 65.617193
_cell_angle_gamma 90.000000
_cell_volume 1224.461206
_symmetry_space_group_name_H-M "C 2"
_symmetry_group_IT_number 5
_symmetry_cell_setting 'monoclinic'
loop_
_space_group_symop_operation_xyz
x,y,z
-x,y,-z
1/2+x,1/2+y,z
1/2-x,1/2+y,-z
loop_
_atom_site_type_symbol
_atom_site_label
_atom_site_fract_x
_atom_site_fract_y
_atom_site_fract_z
Si Si1 0.787403 0.832780 0.010224
Si Si2 0.500000 0.795450 0.500000
Si Si3 0.500000 0.583472 0.000000
Si Si4 0.111206 0.927141 0.194211
Si Si5 0.721512 0.248818 0.309626
Si Si6 0.500000 0.088932 0.000000
Si Si7 0.803508 0.024682 0.751972
Si Si8 0.697912 0.146701 0.252810
O O1 0.778714 0.880079 0.887445
O O2 0.752374 0.788566 0.881978
O O3 0.630990 0.828504 0.285478
O O4 0.000000 0.829654 0.000000
O O5 0.359162 0.762766 0.438736
O O6 0.642726 0.549712 0.046068
O O7 0.378031 0.616091 0.231101
O O8 0.000000 0.923156 0.500000
O O9 0.231059 0.972672 0.170554
O O10 0.000000 0.931744 0.000000
O O11 0.500000 0.250179 0.500000
O O12 0.757775 0.198499 0.204520
O O13 0.378406 0.054767 0.227048
O O14 0.641792 0.123717 0.046801
O O15 0.000000 0.026761 0.500000
O O16 0.500000 0.144179 0.500000
#
# Coordination Sequence:
#
# PCOD9123334 Si02
#       8
#     4   2   2   4   4   2   4   4
#     4  11  24  44  70  96 140 180 236 292 361 426
#     4  12  26  44  70  98 140 186 236 296 356 432
#     4  10  20  38  62  84 126 166 214 278 336 404
#     4  10  22  42  74 102 139 188 235 289 360 426
#     4  11  24  45  67  98 138 182 230 295 356 425
#     4  10  22  40  64  94 134 176 222 290 346 414
#     4  10  20  40  64  92 126 172 223 277 341 415
#     4  10  23  39  61  94 127 170 223 277 343 413
#
# _framework density 21.233830000000001
#
# number of rings (size 3 to 8) (size 9 to 14) (size 15 to 20)
#    0.000    1.538    2.308    1.846    5.385    0.000 
#    9.692    0.000    1.692    0.000    0.000    0.000 
#    0.000    0.000    0.000    0.000    0.000    0.000 
#
# Total GULP energy -72406.702415 kJ/mol
# GULP energy per Si atom -5569.746340 kJ/mol
# Density = 2.118550 g / cm^3
# Si number density = 21.233830 Si / 1000 Ang^3
#
#
#
# Elastic Constant Matrix: (Units=GPa)
#
#
# Indices 1 2 3 4 5 6 
#
# 1 72.7921 28.3926 27.7044 0.0000 -11.0317 0.0000
# 2 28.3926 202.9703 67.5566 0.0000 -12.7328 0.0000
# 3 27.7044 67.5566 89.4298 0.0000 -16.6222 0.0000
# 4 0.0000 0.0000 0.0000 26.9484 0.0000 20.9151
# 5 -11.0317 -12.7328 -16.6222 0.0000 30.9170 0.0000
# 6 0.0000 0.0000 0.0000 20.9151 0.0000 -15.9440
#
#
#
# Elastic Compliance Matrix: (Units=1/GPa)
#
#
# Indices 1 2 3 4 5 6 
#
# 1 0.015974 -0.000781 -0.003732 0.000000 0.003372 0.000000
# 2 -0.000781 0.006620 -0.004782 0.000000 -0.000123 0.000000
# 3 -0.003732 -0.004782 0.017040 0.000000 0.005860 0.000000
# 4 0.000000 0.000000 0.000000 0.018388 0.000000 0.024121
# 5 0.003372 -0.000123 0.005860 0.000000 0.036648 0.000000
# 6 0.000000 0.000000 0.000000 0.024121 0.000000 -0.031079
#
#
# Mechanical properties :
#
#
# Convention : Reuss Voigt Hill
#
# Bulk Modulus (GPa) = 47.51946 68.05549 57.78748
# Shear Modulus (GPa) = 56.05782 24.48683 40.27233
#
# Velocity S-wave (km/s) = 5.14369 3.39956 4.35973
# Velocity P-wave (km/s) = 7.59634 6.89416 7.25375
#
# Compressibility (1/GPa) = 0.02104401
#
# Stress axis : x y z
#
# Youngs Moduli (GPa) = 62.60305 151.05981 58.68709
#
# Poissons Ratio (x) = 0.11795 0.21902
# Poissons Ratio (y) = 0.04888 0.28063
# Poissons Ratio (z) = 0.23363 0.72233
#
# Static dielectric constant tensor:
#      x y z
#    x 1.854510 0.000000 -0.011440 
#    y 0.000000 1.739900 0.000000 
#    z -0.011440 0.000000 1.808170 
# 
# From -- ./inp_files/3757.got.cif
#   From: 2010.05.17/outbox.cif.g08.bks.cpg/sg5_2_cif.got.tgz:3757.got - 2010.06.03 18:56:24.
