data_PCOD9123853
_publ_section_title
;
Structure prediction by ZEFSAII (Michael W. Deem and Ramdas Pophale) SiO2 
 PCOD9123853
Probable space group: C 2
;
_chemical_formula_sum "Si O2"
_cell_formula_units_Z 32
_cell_length_a 7.934891
_cell_length_b 14.755045
_cell_length_c 12.070855
_cell_angle_alpha 90.000000
_cell_angle_beta 86.731100
_cell_angle_gamma 90.000000
_cell_volume 1410.952285
_symmetry_space_group_name_H-M "C 2"
_symmetry_group_IT_number 5
_symmetry_cell_setting 'monoclinic'
loop_
_space_group_symop_operation_xyz
x,y,z
-x,y,-z
1/2+x,1/2+y,z
1/2-x,1/2+y,-z
loop_
_atom_site_type_symbol
_atom_site_label
_atom_site_fract_x
_atom_site_fract_y
_atom_site_fract_z
Si Si1 0.297970 0.998920 0.393192
Si Si2 0.176361 0.626696 0.425361
Si Si3 0.131430 0.284477 0.091109
Si Si4 0.202591 0.965865 0.005166
Si Si5 0.205664 0.057185 0.792070
Si Si6 0.631263 0.893538 0.310736
Si Si7 0.302053 0.318730 0.522217
Si Si8 0.187349 0.099355 0.191176
O O1 0.487137 0.961654 0.362224
O O2 0.208120 0.901916 0.392028
O O3 0.242596 0.041532 0.513701
O O4 0.256027 0.078742 0.309863
O O5 0.176990 0.613992 0.293844
O O6 0.267370 0.722083 0.437462
O O7 0.000000 0.627481 0.500000
O O8 0.069478 0.331733 0.209507
O O9 0.228418 0.194719 0.131021
O O10 0.228175 0.366988 0.025802
O O11 0.000000 0.254270 0.000000
O O12 0.245282 0.010627 0.120285
O O13 0.000000 0.963998 0.000000
O O14 0.266728 0.040197 0.913682
O O15 0.017157 0.095269 0.796938
O O16 0.217264 0.955020 0.743576
O O17 0.702983 0.841207 0.413388
O O18 0.500000 0.306837 0.500000
#
# Coordination Sequence:
#
# PCOD9123853 Si02
#       8
#     4   4   4   4   4   4   4   4
#     4  12  23  41  64  94 139 175 226 278 348 398
#     4  11  22  40  63  94 132 178 221 271 341 402
#     4  11  23  42  70 103 134 173 236 284 338 407
#     4   9  21  44  67  90 130 174 219 281 344 400
#     4  10  20  40  66  87 128 176 218 270 338 398
#     4  11  22  42  66  96 137 180 222 289 340 401
#     4  11  24  40  63  96 136 181 232 279 339 416
#     4  11  24  42  66  97 132 177 225 282 342 412
#
# _framework density 22.679717
#
# number of rings (size 3 to 8) (size 9 to 14) (size 15 to 20)
#    0.000    1.250    2.500    3.750    1.750    0.000 
#    4.500    4.375    0.000    0.000    0.000    0.000 
#    0.000    0.000    0.000    0.000    0.000    0.000 
#
# Total GULP energy -89163.195847 kJ/mol
# GULP energy per Si atom -5572.699740 kJ/mol
# Density = 2.262810 g / cm^3
# Si number density = 22.679717 Si / 1000 Ang^3
#
#
#
# Elastic Constant Matrix: (Units=GPa)
#
#
# Indices 1 2 3 4 5 6 
#
# 1 25.2315 5.1332 5.3072 0.0000 -1.4752 0.0000
# 2 5.1332 117.7052 20.5401 0.0000 -3.9713 0.0000
# 3 5.3072 20.5401 87.8914 0.0000 5.9599 0.0000
# 4 0.0000 0.0000 0.0000 30.5145 0.0000 0.9576
# 5 -1.4752 -3.9713 5.9599 0.0000 29.0122 0.0000
# 6 0.0000 0.0000 0.0000 0.9576 0.0000 18.9287
#
#
#
# Elastic Compliance Matrix: (Units=1/GPa)
#
#
# Indices 1 2 3 4 5 6 
#
# 1 0.040517 -0.001285 -0.002306 0.000000 0.002358 0.000000
# 2 -0.001285 0.008977 -0.002129 0.000000 0.001601 0.000000
# 3 -0.002306 -0.002129 0.012212 0.000000 -0.002917 0.000000
# 4 0.000000 0.000000 0.000000 0.032823 0.000000 -0.001661
# 5 0.002358 0.001601 -0.002917 0.000000 0.035407 0.000000
# 6 0.000000 0.000000 0.000000 -0.001661 0.000000 0.052914
#
#
# Mechanical properties :
#
#
# Convention : Reuss Voigt Hill
#
# Bulk Modulus (GPa) = 19.89388 32.53214 26.21301
# Shear Modulus (GPa) = 23.69142 29.01424 26.35283
#
# Velocity S-wave (km/s) = 3.23555 3.58062 3.41245
# Velocity P-wave (km/s) = 4.76960 5.60979 5.20667
#
# Compressibility (1/GPa) = 0.05026670
#
# Stress axis : x y z
#
# Youngs Moduli (GPa) = 24.68082 111.39128 81.88469
#
# Poissons Ratio (x) = 0.14314 0.18884
# Poissons Ratio (y) = 0.03171 0.17433
# Poissons Ratio (z) = 0.05692 0.23715
#
# Static dielectric constant tensor:
#      x y z
#    x 1.931530 0.000000 0.001050 
#    y 0.000000 1.916390 0.000000 
#    z 0.001050 0.000000 1.858800 
# 
# From -- ./inp_files/36414.got.cif
#   From: 2010.05.17/outbox.cif.g08.bks.cpg/sg5_19_cif.got.tgz:36414.got - 2010.06.03 18:56:24.
