data_PCOD9123514
_publ_section_title
;
Structure prediction by ZEFSAII (Michael W. Deem and Ramdas Pophale) SiO2 
 PCOD9123514
Probable space group: C 2
;
_chemical_formula_sum "Si O2"
_cell_formula_units_Z 22
_cell_length_a 11.424626
_cell_length_b 10.928292
_cell_length_c 11.838150
_cell_angle_alpha 90.000000
_cell_angle_beta 36.139546
_cell_angle_gamma 90.000000
_cell_volume 871.663661
_symmetry_space_group_name_H-M "C 2"
_symmetry_group_IT_number 5
_symmetry_cell_setting 'monoclinic'
loop_
_space_group_symop_operation_xyz
x,y,z
-x,y,-z
1/2+x,1/2+y,z
1/2-x,1/2+y,-z
loop_
_atom_site_type_symbol
_atom_site_label
_atom_site_fract_x
_atom_site_fract_y
_atom_site_fract_z
Si Si1 0.310119 0.144360 0.488269
Si Si2 0.847773 0.130886 0.853354
Si Si3 0.500000 0.957495 0.500000
Si Si4 0.266160 0.726533 0.691873
Si Si5 0.645594 0.896410 0.041178
Si Si6 0.285826 0.374166 0.676160
O O1 0.311317 0.251576 0.581651
O O2 0.081247 0.101869 0.658775
O O3 0.447351 0.039854 0.433446
O O4 0.086847 0.431828 0.780928
O O5 0.719073 0.147589 0.838867
O O6 0.761876 0.016677 0.988256
O O7 0.840003 0.268773 0.905560
O O8 0.305093 0.872581 0.675657
O O9 0.500000 0.695207 0.500000
O O10 0.149845 0.699795 0.667422
O O11 0.730784 0.861523 0.850374
O O12 0.500000 0.435863 0.500000
#
# Coordination Sequence:
#
# PCOD9123514 Si02
#       6
#     4   4   2   4   4   4
#     4  10  20  41  72 110 151 196 254 311 389 460
#     4  10  22  47  70 106 155 199 249 328 381 459
#     4  10  20  38  68 116 152 200 260 322 378 470
#     4   8  20  39  65 110 151 185 257 318 372 452
#     4  10  24  45  73 108 148 197 256 308 385 457
#     4  10  22  45  70 108 144 196 250 307 377 463
#
# _framework density 25.239090000000001
#
# number of rings (size 3 to 8) (size 9 to 14) (size 15 to 20)
#    0.545    1.818    0.909    0.000    0.000    6.545 
#    3.273    5.455    0.000    0.000    0.000    0.000 
#    0.000    0.000    0.000    0.000    0.000    0.000 
#
# Total GULP energy -61414.273312 kJ/mol
# GULP energy per Si atom -5583.115756 kJ/mol
# Density = 2.518164 g / cm^3
# Si number density = 25.239090 Si / 1000 Ang^3
#
#
#
# Elastic Constant Matrix: (Units=GPa)
#
#
# Indices 1 2 3 4 5 6 
#
# 1 152.4956 64.0309 44.6486 -0.0003 2.4689 0.0000
# 2 64.0309 150.2605 15.6391 -0.0003 -1.4290 0.0001
# 3 44.6486 15.6391 90.5111 -0.0011 -16.5879 0.0004
# 4 -0.0003 -0.0003 -0.0011 19.0744 0.0007 -3.3061
# 5 2.4689 -1.4290 -16.5879 0.0007 35.1832 -0.0002
# 6 0.0000 0.0001 0.0004 -3.3061 -0.0002 47.9249
#
#
#
# Elastic Compliance Matrix: (Units=1/GPa)
#
#
# Indices 1 2 3 4 5 6 
#
# 1 0.009452 -0.003578 -0.004589 0.000000 -0.002972 0.000000
# 2 -0.003578 0.008135 0.000510 0.000000 0.000822 0.000000
# 3 -0.004589 0.000510 0.014543 0.000000 0.007200 0.000000
# 4 0.000000 0.000000 0.000000 0.053061 -0.000001 0.003660
# 5 -0.002972 0.000822 0.007200 -0.000001 0.032059 0.000000
# 6 0.000000 0.000000 0.000000 0.003660 0.000000 0.021118
#
#
# Mechanical properties :
#
#
# Convention : Reuss Voigt Hill
#
# Bulk Modulus (GPa) = 59.46788 71.32272 65.39530
# Shear Modulus (GPa) = 31.38982 38.36640 34.87811
#
# Velocity S-wave (km/s) = 3.53044 3.90310 3.72144
# Velocity P-wave (km/s) = 6.34284 6.97370 6.66573
#
# Compressibility (1/GPa) = 0.01681580
#
# Stress axis : x y z
#
# Youngs Moduli (GPa) = 105.80044 122.93063 68.76002
#
# Poissons Ratio (x) = 0.43989 0.31553
# Poissons Ratio (y) = 0.37859 -0.03509
# Poissons Ratio (z) = 0.48551 -0.06273
#
# Static dielectric constant tensor:
#      x y z
#    x 2.011770 0.000000 0.068710 
#    y 0.000000 2.028350 0.000000 
#    z 0.068710 0.000000 2.043580 
# 
# From -- ./inp_files/62105.got.cif
#   From: 2010.05.17/outbox.cif.g08.bks.cpg/sg5_32_cif.got.tgz:62105.got - 2010.06.03 18:56:24.
