data_PCOD9123989
_publ_section_title
;
Structure prediction by ZEFSAII (Michael W. Deem and Ramdas Pophale) SiO2 
 PCOD9123989
Probable space group: C 2
;
_chemical_formula_sum "Si O2"
_cell_formula_units_Z 26
_cell_length_a 14.925572
_cell_length_b 5.566237
_cell_length_c 17.590122
_cell_angle_alpha 90.000000
_cell_angle_beta 42.309838
_cell_angle_gamma 90.000000
_cell_volume 983.708913
_symmetry_space_group_name_H-M "C 2"
_symmetry_group_IT_number 5
_symmetry_cell_setting 'monoclinic'
loop_
_space_group_symop_operation_xyz
x,y,z
-x,y,-z
1/2+x,1/2+y,z
1/2-x,1/2+y,-z
loop_
_atom_site_type_symbol
_atom_site_label
_atom_site_fract_x
_atom_site_fract_y
_atom_site_fract_z
Si Si1 0.053298 0.710170 0.681152
Si Si2 0.630628 0.935566 0.758947
Si Si3 0.741452 0.296015 0.908290
Si Si4 0.284073 0.086426 0.566390
Si Si5 0.500000 0.321240 0.500000
Si Si6 0.117417 0.060623 0.297310
Si Si7 0.120023 0.288835 0.013697
O O1 0.028746 0.615143 0.781640
O O2 0.184316 0.872579 0.617618
O O3 0.110354 0.587808 0.568251
O O4 0.922382 0.856228 0.738735
O O5 0.686294 0.809296 0.647113
O O6 0.753335 0.037846 0.729814
O O7 0.537541 0.777360 0.870143
O O8 0.805236 0.284461 0.951620
O O9 0.858048 0.287119 0.771253
O O10 0.662048 0.541198 0.948007
O O11 0.658312 0.045617 0.951448
O O12 0.377973 0.134982 0.580360
O O13 0.497244 0.507604 0.431545
#
# Coordination Sequence:
#
# PCOD9123989 Si02
#       7
#     4   4   4   4   2   4   4
#     4  11  22  41  71 102 149 202 241 308 385 462
#     4  11  24  43  70 105 144 197 255 314 378 469
#     4  10  23  47  75 105 142 194 246 313 384 443
#     4  10  20  41  62 102 146 195 246 300 378 456
#     4   8  20  42  66 104 154 186 254 308 368 476
#     4  10  23  45  72 106 151 195 251 316 382 464
#     4  10  24  44  77 105 140 192 254 310 374 457
#
# _framework density 26.430584
#
# number of rings (size 3 to 8) (size 9 to 14) (size 15 to 20)
#    0.000    1.846    1.538    0.923    8.615    0.615 
#    8.308    1.538    0.000    0.000    0.000    0.000 
#    0.000    0.000    0.000    0.000    0.000    0.000 
#
# Total GULP energy -72479.475684 kJ/mol
# GULP energy per Si atom -5575.344283 kJ/mol
# Density = 2.637043 g / cm^3
# Si number density = 26.430584 Si / 1000 Ang^3
#
#
#
# Elastic Constant Matrix: (Units=GPa)
#
#
# Indices 1 2 3 4 5 6 
#
# 1 62.0275 18.9859 15.3663 -0.0009 10.2175 0.0011
# 2 18.9859 87.7808 39.2771 -0.0021 9.5213 0.0050
# 3 15.3663 39.2771 97.3962 0.0000 1.6164 0.0012
# 4 -0.0009 -0.0021 0.0000 50.2727 0.0004 -0.8182
# 5 10.2175 9.5213 1.6164 0.0004 27.8138 -0.0011
# 6 0.0011 0.0050 0.0012 -0.8182 -0.0011 18.9872
#
#
#
# Elastic Compliance Matrix: (Units=1/GPa)
#
#
# Indices 1 2 3 4 5 6 
#
# 1 0.018283 -0.002542 -0.001764 0.000000 -0.005744 -0.000001
# 2 -0.002542 0.014823 -0.005513 0.000001 -0.003820 -0.000004
# 3 -0.001764 -0.005513 0.012739 0.000000 0.001795 0.000001
# 4 0.000000 0.000001 0.000000 0.019905 -0.000001 0.000858
# 5 -0.005744 -0.003820 0.001795 -0.000001 0.039267 0.000003
# 6 -0.000001 -0.000004 0.000001 0.000858 0.000003 0.052704
#
#
# Mechanical properties :
#
#
# Convention : Reuss Voigt Hill
#
# Bulk Modulus (GPa) = 38.15840 43.82923 40.99382
# Shear Modulus (GPa) = 26.86789 30.98643 28.92716
#
# Velocity S-wave (km/s) = 3.19179 3.42770 3.31185
# Velocity P-wave (km/s) = 5.29641 5.68193 5.49255
#
# Compressibility (1/GPa) = 0.02620655
#
# Stress axis : x y z
#
# Youngs Moduli (GPa) = 54.69526 67.46245 78.49783
#
# Poissons Ratio (x) = 0.17150 0.13847
# Poissons Ratio (y) = 0.13904 0.43278
# Poissons Ratio (z) = 0.09649 0.37194
#
# Static dielectric constant tensor:
#      x y z
#    x 2.050040 0.000000 0.001880 
#    y 0.000000 2.259150 0.000000 
#    z 0.001880 0.000000 2.170170 
# 
# From -- ./inp_files/66445.got.cif
#   From: 2010.05.17/outbox.cif.g08.bks.cpg/sg5_34_cif.got.tgz:66445.got - 2010.06.03 18:56:24.
