data_PCOD9123098
_publ_section_title
;
Structure prediction by ZEFSAII (Michael W. Deem and Ramdas Pophale) SiO2 
 PCOD9123098
Probable space group: C 2
;
_chemical_formula_sum "Si O2"
_cell_formula_units_Z 26
_cell_length_a 27.008563
_cell_length_b 7.720225
_cell_length_c 9.071990
_cell_angle_alpha 90.000000
_cell_angle_beta 40.755345
_cell_angle_gamma 90.000000
_cell_volume 1234.907370
_symmetry_space_group_name_H-M "C 2"
_symmetry_group_IT_number 5
_symmetry_cell_setting 'monoclinic'
loop_
_space_group_symop_operation_xyz
x,y,z
-x,y,-z
1/2+x,1/2+y,z
1/2-x,1/2+y,-z
loop_
_atom_site_type_symbol
_atom_site_label
_atom_site_fract_x
_atom_site_fract_y
_atom_site_fract_z
Si Si1 0.586739 0.321030 0.257786
Si Si2 0.473205 0.866053 0.396977
Si Si3 0.000000 0.714105 0.000000
Si Si4 0.107545 0.524696 0.965060
Si Si5 0.842866 0.138616 0.795478
Si Si6 0.609798 0.198119 0.527565
Si Si7 0.251428 0.896000 0.205698
O O1 0.500000 0.353456 0.500000
O O2 0.594893 0.180149 0.112204
O O3 0.632740 0.498427 0.135912
O O4 0.620935 0.247997 0.331922
O O5 0.500000 0.928269 0.500000
O O6 0.420820 0.702297 0.544042
O O7 0.552262 0.864642 0.132354
O O8 0.421899 0.004340 0.423684
O O9 0.041648 0.799862 0.766354
O O10 0.928873 0.602304 0.100138
O O11 0.193312 0.467522 0.792341
O O12 0.790535 0.050793 0.788512
O O13 0.802625 0.297440 0.968088
O O14 0.690003 0.260610 0.408846
#
# Coordination Sequence:
#
# PCOD9123098 Si02
#       7
#     4   4   2   4   4   4   4
#     4  11  18  34  62  93 112 152 194 245 285 355
#     4  11  17  35  58  87 121 151 187 239 283 355
#     4  10  22  40  62  78 110 172 200 236 292 358
#     4  11  21  39  63  86 120 156 200 244 297 342
#     4  11  22  32  60  95 124 149 190 244 306 347
#     4  10  20  37  62  83 118 153 200 237 300 346
#     4  11  22  36  55  93 125 152 189 251 300 351
#
# _framework density 21.054210999999999
#
# number of rings (size 3 to 8) (size 9 to 14) (size 15 to 20)
#    0.000    1.231    6.154    3.231    0.000    0.000 
#    0.000    4.615    0.000   19.385    0.000    0.000 
#    0.000    0.000    0.000    0.000    0.000    0.000 
#
# Total GULP energy -72383.515254 kJ/mol
# GULP energy per Si atom -5567.962712 kJ/mol
# Density = 2.100629 g / cm^3
# Si number density = 21.054211 Si / 1000 Ang^3
#
#
#
# Elastic Constant Matrix: (Units=GPa)
#
#
# Indices 1 2 3 4 5 6 
#
# 1 117.4259 33.0061 25.9552 0.0000 -30.2716 0.0000
# 2 33.0061 57.3746 15.1649 0.0000 -12.8327 0.0000
# 3 25.9552 15.1649 45.9151 0.0000 -12.7547 0.0000
# 4 0.0000 0.0000 0.0000 28.6375 0.0000 -22.4573
# 5 -30.2716 -12.8327 -12.7547 0.0000 39.7115 0.0000
# 6 0.0000 0.0000 0.0000 -22.4573 0.0000 28.9464
#
#
#
# Elastic Compliance Matrix: (Units=1/GPa)
#
#
# Indices 1 2 3 4 5 6 
#
# 1 0.012358 -0.004651 -0.003568 0.000000 0.006771 0.000000
# 2 -0.004651 0.021627 -0.003906 0.000000 0.002189 0.000000
# 3 -0.003568 -0.003906 0.026329 0.000000 0.004474 0.000000
# 4 0.000000 0.000000 0.000000 0.089170 0.000000 0.069181
# 5 0.006771 0.002189 0.004474 0.000000 0.032487 0.000000
# 6 0.000000 0.000000 0.000000 0.069181 0.000000 0.088219
#
#
# Mechanical properties :
#
#
# Convention : Reuss Voigt Hill
#
# Bulk Modulus (GPa) = 27.72929 40.99645 34.36287
# Shear Modulus (GPa) = 16.31521 29.23168 22.77345
#
# Velocity S-wave (km/s) = 2.78675 3.73017 3.29242
# Velocity P-wave (km/s) = 4.85321 6.16979 5.55067
#
# Compressibility (1/GPa) = 0.03606295
#
# Stress axis : x y z
#
# Youngs Moduli (GPa) = 80.92134 46.23855 37.98031
#
# Poissons Ratio (x) = 0.21508 0.13553
# Poissons Ratio (y) = 0.37640 0.14834
# Poissons Ratio (z) = 0.28877 0.18059
#
# Static dielectric constant tensor:
#      x y z
#    x 1.865440 0.000000 0.006200 
#    y 0.000000 1.811420 0.000000 
#    z 0.006200 0.000000 1.804720 
# 
# From -- ./inp_files/31614.got.cif
#   From: 2010.05.17/outbox.cif.g08.bks.cpg/sg5_16_cif.got.tgz:31614.got - 2010.06.03 18:56:24.
