data_PCOD9123908
_publ_section_title
;
Structure prediction by ZEFSAII (Michael W. Deem and Ramdas Pophale) SiO2 
 PCOD9123908
Probable space group: C 2
;
_chemical_formula_sum "Si O2"
_cell_formula_units_Z 28
_cell_length_a 16.088267
_cell_length_b 7.699695
_cell_length_c 18.601721
_cell_angle_alpha 90.000000
_cell_angle_beta 146.721305
_cell_angle_gamma 90.000000
_cell_volume 1264.387999
_symmetry_space_group_name_H-M "C 2"
_symmetry_group_IT_number 5
_symmetry_cell_setting 'monoclinic'
loop_
_space_group_symop_operation_xyz
x,y,z
-x,y,-z
1/2+x,1/2+y,z
1/2-x,1/2+y,-z
loop_
_atom_site_type_symbol
_atom_site_label
_atom_site_fract_x
_atom_site_fract_y
_atom_site_fract_z
Si Si1 0.000000 0.242600 0.500000
Si Si2 0.027973 0.647048 0.849473
Si Si3 0.000000 0.959191 0.000000
Si Si4 0.110270 0.107141 0.784234
Si Si5 0.171204 0.007037 0.988310
Si Si6 0.434288 0.917620 0.596655
Si Si7 0.801877 0.641527 0.799736
Si Si8 0.389437 0.295855 0.609985
O O1 0.071300 0.360228 0.489605
O O2 0.142536 0.145920 0.640770
O O3 0.127670 0.804612 0.953445
O O4 0.927750 0.558621 0.838486
O O5 0.914316 0.735316 0.710503
O O6 0.150638 0.538644 0.893632
O O7 0.123527 0.831541 0.128424
O O8 0.908644 0.064608 0.995461
O O9 0.262638 0.062974 0.849522
O O10 0.064804 0.298015 0.724953
O O11 0.107854 0.087097 0.868142
O O12 0.990103 0.964800 0.669952
O O13 0.282292 0.852190 0.526192
O O14 0.441055 0.124449 0.605419
#
# Coordination Sequence:
#
# PCOD9123908 Si02
#       8
#     2   4   2   4   4   4   4   4
#     4  10  22  38  64  96 130 170 224 274 330 402
#     4  10  22  39  64  94 128 168 226 267 332 395
#     4  10  22  38  68 100 128 178 228 266 346 400
#     4  10  22  40  65  95 130 169 221 274 329 390
#     4  10  22  40  63  94 128 169 222 276 330 396
#     4  11  22  40  65  89 131 174 217 268 336 383
#     4  10  20  40  68  94 128 181 219 268 339 400
#     4  11  22  38  62  94 124 173 218 268 322 398
#
# _framework density 22.145102000000001
#
# number of rings (size 3 to 8) (size 9 to 14) (size 15 to 20)
#    0.000    1.714    2.857    1.714    6.000    0.000 
#    0.000    7.143    0.000    0.000    0.000    0.000 
#    0.000    0.000    0.000    0.000    0.000    0.000 
#
# Total GULP energy -78057.335854 kJ/mol
# GULP energy per Si atom -5575.523990 kJ/mol
# Density = 2.209470 g / cm^3
# Si number density = 22.145102 Si / 1000 Ang^3
#
#
#
# Elastic Constant Matrix: (Units=GPa)
#
#
# Indices 1 2 3 4 5 6 
#
# 1 199.8826 20.4942 22.9696 0.0000 7.4423 0.0000
# 2 20.4942 51.8110 4.0506 0.0000 1.5215 0.0000
# 3 22.9696 4.0506 78.6368 0.0000 8.1951 0.0000
# 4 0.0000 0.0000 0.0000 29.5300 0.0000 -1.8958
# 5 7.4423 1.5215 8.1951 0.0000 40.1617 0.0000
# 6 0.0000 0.0000 0.0000 -1.8958 0.0000 22.2667
#
#
#
# Elastic Compliance Matrix: (Units=1/GPa)
#
#
# Indices 1 2 3 4 5 6 
#
# 1 0.005394 -0.002005 -0.001406 0.000000 -0.000637 0.000000
# 2 -0.002005 0.020136 -0.000420 0.000000 -0.000306 0.000000
# 3 -0.001406 -0.000420 0.013405 0.000000 -0.002459 0.000000
# 4 0.000000 0.000000 0.000000 0.034050 0.000000 0.002899
# 5 -0.000637 -0.000306 -0.002459 0.000000 0.025531 0.000000
# 6 0.000000 0.000000 0.000000 0.002899 0.000000 0.045157
#
#
# Mechanical properties :
#
#
# Convention : Reuss Voigt Hill
#
# Bulk Modulus (GPa) = 31.97573 47.26213 39.61893
# Shear Modulus (GPa) = 30.91039 37.24609 34.07824
#
# Velocity S-wave (km/s) = 3.74011 4.10556 3.92709
# Velocity P-wave (km/s) = 5.75515 6.62288 6.20420
#
# Compressibility (1/GPa) = 0.03127372
#
# Stress axis : x y z
#
# Youngs Moduli (GPa) = 185.39917 49.66287 74.59783
#
# Poissons Ratio (x) = 0.09957 0.10488
# Poissons Ratio (y) = 0.37171 0.03131
# Poissons Ratio (z) = 0.26065 0.02084
#
# Static dielectric constant tensor:
#      x y z
#    x 1.870210 0.000000 -0.017810 
#    y 0.000000 1.799920 0.000000 
#    z -0.017810 0.000000 1.927440 
# 
# From -- ./inp_files/61457.got.cif
#   From: 2010.05.17/outbox.cif.g08.bks.cpg/sg5_31_cif.got.tgz:61457.got - 2010.06.03 18:56:24.
