data_PCOD9123700
_publ_section_title
;
Structure prediction by ZEFSAII (Michael W. Deem and Ramdas Pophale) SiO2 
 PCOD9123700
Probable space group: C 2
;
_chemical_formula_sum "Si O2"
_cell_formula_units_Z 24
_cell_length_a 15.115497
_cell_length_b 13.285177
_cell_length_c 5.715978
_cell_angle_alpha 90.000000
_cell_angle_beta 59.139189
_cell_angle_gamma 90.000000
_cell_volume 985.321833
_symmetry_space_group_name_H-M "C 2"
_symmetry_group_IT_number 5
_symmetry_cell_setting 'monoclinic'
loop_
_space_group_symop_operation_xyz
x,y,z
-x,y,-z
1/2+x,1/2+y,z
1/2-x,1/2+y,-z
loop_
_atom_site_type_symbol
_atom_site_label
_atom_site_fract_x
_atom_site_fract_y
_atom_site_fract_z
Si Si1 0.000000 0.345701 0.000000
Si Si2 0.500000 0.725444 0.500000
Si Si3 0.780821 0.381826 0.142371
Si Si4 0.372726 0.353694 0.993960
Si Si5 0.835300 0.084611 0.583546
Si Si6 0.500000 0.526848 0.000000
Si Si7 0.826356 0.710992 0.445654
Si Si8 0.500000 0.203000 0.500000
O O1 0.984854 0.286960 0.274549
O O2 0.895012 0.404872 0.076397
O O3 0.401657 0.651516 0.672613
O O4 0.746712 0.371153 0.916420
O O5 0.701795 0.470847 0.321748
O O6 0.754196 0.272189 0.285871
O O7 0.438181 0.454654 0.906831
O O8 0.425310 0.275714 0.747719
O O9 0.379717 0.302488 0.235621
O O10 0.733075 0.144522 0.658260
O O11 0.911838 0.083279 0.258329
O O12 0.916168 0.648898 0.453047
#
# Coordination Sequence:
#
# PCOD9123700 Si02
#       8
#     2   2   4   4   4   2   4   2
#     4  12  27  52  77 106 160 202 239 306 393 442
#     4  12  26  49  77 112 144 204 250 313 361 450
#     4  11  25  45  70 104 142 195 238 302 371 447
#     4  11  20  43  72  96 137 184 237 303 362 433
#     4  12  25  43  73 109 142 187 256 306 367 443
#     4  12  21  42  75 108 134 188 253 318 357 436
#     4  11  22  43  67 101 142 182 236 301 369 433
#     4  10  20  39  69  96 130 190 232 287 371 434
#
# _framework density 24.357523
#
# number of rings (size 3 to 8) (size 9 to 14) (size 15 to 20)
#    0.000    0.667    5.000    3.500    0.000    0.667 
#    9.000    0.833    0.000    0.000    0.000    0.000 
#    0.000    0.000    0.000    0.000    0.000    0.000 
#
# Total GULP energy -66954.313638 kJ/mol
# GULP energy per Si atom -5579.526137 kJ/mol
# Density = 2.430208 g / cm^3
# Si number density = 24.357523 Si / 1000 Ang^3
#
#
#
# Elastic Constant Matrix: (Units=GPa)
#
#
# Indices 1 2 3 4 5 6 
#
# 1 215.9602 16.0431 5.9548 0.0000 -2.9686 0.0000
# 2 16.0431 48.6881 8.1631 0.0000 2.5029 0.0000
# 3 5.9548 8.1631 60.9590 0.0000 -3.6695 0.0000
# 4 0.0000 0.0000 0.0000 19.2460 0.0000 -12.6067
# 5 -2.9686 2.5029 -3.6695 0.0000 27.5327 0.0000
# 6 0.0000 0.0000 0.0000 -12.6067 0.0000 23.1417
#
#
#
# Elastic Compliance Matrix: (Units=1/GPa)
#
#
# Indices 1 2 3 4 5 6 
#
# 1 0.004761 -0.001565 -0.000218 0.000000 0.000627 0.000000
# 2 -0.001565 0.021671 -0.002901 0.000000 -0.002525 0.000000
# 3 -0.000218 -0.002901 0.016965 0.000000 0.002501 0.000000
# 4 0.000000 0.000000 0.000000 0.080786 0.000000 0.044009
# 5 0.000627 -0.002525 0.002501 0.000000 0.036951 0.000000
# 6 0.000000 0.000000 0.000000 0.044009 0.000000 0.067186
#
#
# Mechanical properties :
#
#
# Convention : Reuss Voigt Hill
#
# Bulk Modulus (GPa) = 29.38617 42.88105 36.13361
# Shear Modulus (GPa) = 20.07787 33.68052 26.87919
#
# Velocity S-wave (km/s) = 2.87417 3.72258 3.32554
# Velocity P-wave (km/s) = 4.80679 6.00998 5.44174
#
# Compressibility (1/GPa) = 0.03402961
#
# Stress axis : x y z
#
# Youngs Moduli (GPa) = 210.02531 46.14530 58.94555
#
# Poissons Ratio (x) = 0.07220 0.01284
# Poissons Ratio (y) = 0.32860 0.17101
# Poissons Ratio (z) = 0.04576 0.13387
#
# Static dielectric constant tensor:
#      x y z
#    x 2.028370 0.000000 0.060900 
#    y 0.000000 1.904160 0.000000 
#    z 0.060900 0.000000 1.969550 
# 
# From -- ./inp_files/6825.got.cif
#   From: 2010.05.17/outbox.cif.g08.bks.cpg/sg5_4_cif.got.tgz:6825.got - 2010.06.03 18:56:24.
