data_PCOD9123384
_publ_section_title
;
Structure prediction by ZEFSAII (Michael W. Deem and Ramdas Pophale) SiO2 
 PCOD9123384
Probable space group: C 2
;
_chemical_formula_sum "Si O2"
_cell_formula_units_Z 30
_cell_length_a 7.551368
_cell_length_b 15.743150
_cell_length_c 12.024596
_cell_angle_alpha 90.000000
_cell_angle_beta 106.334491
_cell_angle_gamma 90.000000
_cell_volume 1371.811274
_symmetry_space_group_name_H-M "C 2"
_symmetry_group_IT_number 5
_symmetry_cell_setting 'monoclinic'
loop_
_space_group_symop_operation_xyz
x,y,z
-x,y,-z
1/2+x,1/2+y,z
1/2-x,1/2+y,-z
loop_
_atom_site_type_symbol
_atom_site_label
_atom_site_fract_x
_atom_site_fract_y
_atom_site_fract_z
Si Si1 0.000000 0.815711 0.500000
Si Si2 0.820393 0.068360 0.710764
Si Si3 0.990913 0.728169 0.865029
Si Si4 0.793174 0.461975 0.512486
Si Si5 0.262234 0.746963 0.734159
Si Si6 0.591474 0.060047 0.252151
Si Si7 0.981662 0.398992 0.869981
Si Si8 0.897004 0.916492 0.865630
O O1 0.833401 0.878107 0.508341
O O2 0.905449 0.761043 0.383769
O O3 0.880570 0.165885 0.717203
O O4 0.614630 0.067627 0.730074
O O5 0.797083 0.029149 0.586340
O O6 0.935762 0.999272 0.799790
O O7 0.869174 0.654046 0.787434
O O8 0.943189 0.824803 0.823467
O O9 0.190520 0.720704 0.843964
O O10 0.000000 0.721133 0.000000
O O11 0.801035 0.510563 0.631777
O O12 0.000000 0.443883 0.500000
O O13 0.369732 0.833938 0.773565
O O14 0.598331 0.993919 0.151262
O O15 0.182359 0.408774 0.853897
O O16 0.000000 0.369612 0.000000
O O17 0.000000 0.923871 0.000000
#
# Coordination Sequence:
#
# PCOD9123384 Si02
#       8
#     2   4   4   4   4   4   4   4
#     4  12  24  42  72 102 134 174 236 276 332 412
#     4   9  21  39  65  87 129 175 211 274 335 393
#     4  10  20  38  63  93 127 169 219 269 328 399
#     4  10  21  42  67  94 134 176 223 278 334 396
#     4  11  24  40  64 101 128 175 220 276 337 395
#     4   9  19  37  61  90 123 171 215 262 338 380
#     4  11  21  38  60  90 130 164 211 272 327 390
#     4  10  21  40  62  92 122 171 221 261 333 404
#
# _framework density 21.8689
#
# number of rings (size 3 to 8) (size 9 to 14) (size 15 to 20)
#    0.000    1.867    1.333    2.800    4.667    0.533 
#    2.400    2.667    1.467    0.000    0.000    0.000 
#    0.000    0.000    0.000    0.000    0.000    0.000 
#
# Total GULP energy -83662.775875 kJ/mol
# GULP energy per Si atom -5577.518392 kJ/mol
# Density = 2.181913 g / cm^3
# Si number density = 21.868900 Si / 1000 Ang^3
#
#
#
# Elastic Constant Matrix: (Units=GPa)
#
#
# Indices 1 2 3 4 5 6 
#
# 1 39.1377 -1.0829 10.9033 0.0000 5.6469 0.0000
# 2 -1.0829 160.7335 56.3596 0.0000 14.0164 0.0000
# 3 10.9033 56.3596 112.1116 0.0000 6.7653 0.0000
# 4 0.0000 0.0000 0.0000 28.8498 0.0000 1.8144
# 5 5.6469 14.0164 6.7653 0.0000 20.9513 0.0000
# 6 0.0000 0.0000 0.0000 1.8144 0.0000 23.8278
#
#
#
# Elastic Compliance Matrix: (Units=1/GPa)
#
#
# Indices 1 2 3 4 5 6 
#
# 1 0.027619 0.001989 -0.003219 0.000000 -0.007735 0.000000
# 2 0.001989 0.008023 -0.003947 0.000000 -0.004629 0.000000
# 3 -0.003219 -0.003947 0.011224 0.000000 -0.000116 0.000000
# 4 0.000000 0.000000 0.000000 0.034829 0.000000 -0.002652
# 5 -0.007735 -0.004629 -0.000116 0.000000 0.052949 0.000000
# 6 0.000000 0.000000 0.000000 -0.002652 0.000000 0.042170
#
#
# Mechanical properties :
#
#
# Convention : Reuss Voigt Hill
#
# Bulk Modulus (GPa) = 27.38879 49.37140 38.38009
# Shear Modulus (GPa) = 25.08307 31.11263 28.09785
#
# Velocity S-wave (km/s) = 3.39038 3.77595 3.58834
# Velocity P-wave (km/s) = 5.27991 6.45255 5.89546
#
# Compressibility (1/GPa) = 0.03651129
#
# Stress axis : x y z
#
# Youngs Moduli (GPa) = 36.20714 124.64848 89.09421
#
# Poissons Ratio (x) = -0.24798 0.28683
# Poissons Ratio (y) = -0.07203 0.35167
# Poissons Ratio (z) = 0.11656 0.49201
#
# Static dielectric constant tensor:
#      x y z
#    x 1.837330 0.000000 0.004990 
#    y 0.000000 1.869930 0.000000 
#    z 0.004990 0.000000 1.789880 
# 
# From -- ./inp_files/36442.got.cif
#   From: 2010.05.17/outbox.cif.g08.bks.cpg/sg5_19_cif.got.tgz:36442.got - 2010.06.03 18:56:24.
