data_PCOD9123601
_publ_section_title
;
Structure prediction by ZEFSAII (Michael W. Deem and Ramdas Pophale) SiO2 
 PCOD9123601
Probable space group: C 2
;
_chemical_formula_sum "Si O2"
_cell_formula_units_Z 24
_cell_length_a 16.119053
_cell_length_b 16.572018
_cell_length_c 8.869141
_cell_angle_alpha 90.000000
_cell_angle_beta 145.606547
_cell_angle_gamma 90.000000
_cell_volume 1338.280278
_symmetry_space_group_name_H-M "C 2"
_symmetry_group_IT_number 5
_symmetry_cell_setting 'monoclinic'
loop_
_space_group_symop_operation_xyz
x,y,z
-x,y,-z
1/2+x,1/2+y,z
1/2-x,1/2+y,-z
loop_
_atom_site_type_symbol
_atom_site_label
_atom_site_fract_x
_atom_site_fract_y
_atom_site_fract_z
Si Si1 0.454623 0.028350 0.604990
Si Si2 0.101647 0.365032 0.944075
Si Si3 0.204171 0.316739 0.420134
Si Si4 0.110450 0.840237 0.804426
Si Si5 0.143984 0.945896 0.141776
Si Si6 0.455027 0.200250 0.758667
O O1 0.500000 0.038873 0.500000
O O2 0.472413 0.110995 0.720919
O O3 0.547064 0.953783 0.813410
O O4 0.284882 0.002252 0.353890
O O5 0.953426 0.311341 0.734013
O O6 0.171616 0.364083 0.215892
O O7 0.225121 0.333658 0.014945
O O8 0.310459 0.369101 0.685921
O O9 0.288986 0.235421 0.504440
O O10 0.000000 0.855067 0.500000
O O11 0.053248 0.761441 0.806671
O O12 0.110724 0.912290 0.925907
O O13 0.000000 0.983291 0.000000
O O14 0.500000 0.202224 0.000000
#
# Coordination Sequence:
#
# PCOD9123601 Si02
#       6
#     4   4   4   4   4   4
#     4  11  25  40  61  92 128 159 199 259 314 352
#     4  10  22  38  66  91 117 162 211 251 295 363
#     4  10  20  39  63  91 120 161 208 243 301 362
#     4  12  20  38  67  92 119 158 211 256 294 363
#     4  11  20  40  63  91 120 163 209 249 295 369
#     4  12  24  41  61  91 126 163 200 250 312 365
#
# _framework density 17.933464000000001
#
# number of rings (size 3 to 8) (size 9 to 14) (size 15 to 20)
#    0.000    1.000    6.667    0.500    4.667    0.000 
#    3.000    0.000    0.000    0.000    0.000    0.000 
#    0.000    0.000    0.000    0.000    0.000    0.000 
#
# Total GULP energy -66997.789846 kJ/mol
# GULP energy per Si atom -5583.149154 kJ/mol
# Density = 1.789265 g / cm^3
# Si number density = 17.933464 Si / 1000 Ang^3
#
#
#
# Elastic Constant Matrix: (Units=GPa)
#
#
# Indices 1 2 3 4 5 6 
#
# 1 149.9563 46.9394 63.3422 0.0000 19.7513 0.0000
# 2 46.9394 82.5881 49.5860 0.0000 6.1369 0.0000
# 3 63.3422 49.5860 108.7321 0.0000 -6.5157 0.0000
# 4 0.0000 0.0000 0.0000 23.2333 0.0000 -5.7747
# 5 19.7513 6.1369 -6.5157 0.0000 46.8938 0.0000
# 6 0.0000 0.0000 0.0000 -5.7747 0.0000 18.7975
#
#
#
# Elastic Compliance Matrix: (Units=1/GPa)
#
#
# Indices 1 2 3 4 5 6 
#
# 1 0.010201 -0.002356 -0.005150 0.000000 -0.004704 0.000000
# 2 -0.002356 0.017729 -0.006849 0.000000 -0.002279 0.000000
# 3 -0.005150 -0.006849 0.015634 0.000000 0.005238 0.000000
# 4 0.000000 0.000000 0.000000 0.046600 0.000000 0.014316
# 5 -0.004704 -0.002279 0.005238 0.000000 0.024332 0.000000
# 6 0.000000 0.000000 0.000000 0.014316 0.000000 0.057596
#
#
# Mechanical properties :
#
#
# Convention : Reuss Voigt Hill
#
# Bulk Modulus (GPa) = 67.32260 73.44575 70.38418
# Shear Modulus (GPa) = 24.30077 29.87885 27.08981
#
# Velocity S-wave (km/s) = 3.68510 4.08621 3.89083
# Velocity P-wave (km/s) = 7.46514 7.95653 7.71475
#
# Compressibility (1/GPa) = 0.01485385
#
# Stress axis : x y z
#
# Youngs Moduli (GPa) = 98.02840 56.40468 63.96158
#
# Poissons Ratio (x) = 0.13290 0.32940
# Poissons Ratio (y) = 0.23098 0.43808
# Poissons Ratio (z) = 0.50485 0.38632
#
# Static dielectric constant tensor:
#      x y z
#    x 1.636530 0.000000 0.013980 
#    y 0.000000 1.574330 0.000000 
#    z 0.013980 0.000000 1.623150 
# 
# From -- ./inp_files/24487.got.cif
#   From: 2010.05.17/outbox.cif.g08.bks.cpg/sg5_13_cif.got.tgz:24487.got - 2010.06.03 18:56:24.
