data_PCOD9123044
_publ_section_title
;
Structure prediction by ZEFSAII (Michael W. Deem and Ramdas Pophale) SiO2 
 PCOD9123044
Probable space group: C 2
;
_chemical_formula_sum "Si O2"
_cell_formula_units_Z 24
_cell_length_a 8.598697
_cell_length_b 13.487741
_cell_length_c 9.192237
_cell_angle_alpha 90.000000
_cell_angle_beta 91.587665
_cell_angle_gamma 90.000000
_cell_volume 1065.678785
_symmetry_space_group_name_H-M "C 2"
_symmetry_group_IT_number 5
_symmetry_cell_setting 'monoclinic'
loop_
_space_group_symop_operation_xyz
x,y,z
-x,y,-z
1/2+x,1/2+y,z
1/2-x,1/2+y,-z
loop_
_atom_site_type_symbol
_atom_site_label
_atom_site_fract_x
_atom_site_fract_y
_atom_site_fract_z
Si Si1 0.866963 0.365440 0.890622
Si Si2 0.195350 0.160663 0.748458
Si Si3 0.176406 0.179477 0.276480
Si Si4 0.679272 0.296035 0.465993
Si Si5 0.864521 0.479150 0.601528
Si Si6 0.315948 0.542021 0.971216
O O1 0.776272 0.272468 0.823536
O O2 0.927561 0.423367 0.748289
O O3 0.770638 0.444024 0.980893
O O4 0.000000 0.326592 0.000000
O O5 0.288286 0.256264 0.694675
O O6 0.011658 0.178656 0.718837
O O7 0.253362 0.064472 0.660165
O O8 0.225361 0.129073 0.915097
O O9 0.250153 0.208312 0.430722
O O10 0.219710 0.079835 0.192007
O O11 0.500000 0.308633 0.500000
O O12 0.770666 0.395565 0.509734
O O13 0.000000 0.517377 0.500000
O O14 0.500000 0.527490 0.000000
#
# Coordination Sequence:
#
# PCOD9123044 Si02
#       6
#     4   4   4   4   4   4
#     4  10  20  37  60  86 115 151 189 236 295 349
#     4  10  20  39  63  85 114 153 196 242 293 347
#     4  10  21  40  60  83 116 157 196 240 291 346
#     4  11  23  38  58  88 121 158 198 239 287 344
#     4  10  22  40  61  88 119 152 196 243 291 348
#     4   9  20  38  60  86 115 151 195 240 291 346
#
# _framework density 22.520859000000002
#
# number of rings (size 3 to 8) (size 9 to 14) (size 15 to 20)
#    0.000    2.000    0.000    4.500    0.000    5.333 
#    0.000   19.167    0.000    0.000    0.000    0.000 
#    0.000    0.000    0.000    0.000    0.000    0.000 
#
# Total GULP energy -67081.502201 kJ/mol
# GULP energy per Si atom -5590.125183 kJ/mol
# Density = 2.246960 g / cm^3
# Si number density = 22.520859 Si / 1000 Ang^3
#
#
#
# Elastic Constant Matrix: (Units=GPa)
#
#
# Indices 1 2 3 4 5 6 
#
# 1 52.2482 8.0150 10.8074 0.0000 -18.4485 0.0000
# 2 8.0150 53.7137 13.4713 0.0000 -11.2442 0.0000
# 3 10.8074 13.4713 37.1543 0.0000 -10.3332 0.0000
# 4 0.0000 0.0000 0.0000 38.4921 0.0000 -5.6225
# 5 -18.4485 -11.2442 -10.3332 0.0000 34.9976 0.0000
# 6 0.0000 0.0000 0.0000 -5.6225 0.0000 29.8440
#
#
#
# Elastic Compliance Matrix: (Units=1/GPa)
#
#
# Indices 1 2 3 4 5 6 
#
# 1 0.023995 -0.000251 -0.003697 0.000000 0.011476 0.000000
# 2 -0.000251 0.021243 -0.006284 0.000000 0.004838 0.000000
# 3 -0.003697 -0.006284 0.031774 0.000000 0.005414 0.000000
# 4 0.000000 0.000000 0.000000 0.026715 0.000000 0.005033
# 5 0.011476 0.004838 0.005414 0.000000 0.037776 0.000000
# 6 0.000000 0.000000 0.000000 0.005033 0.000000 0.034456
#
#
# Mechanical properties :
#
#
# Convention : Reuss Voigt Hill
#
# Bulk Modulus (GPa) = 17.68378 23.07819 20.38098
# Shear Modulus (GPa) = 23.22649 28.05491 25.64070
#
# Velocity S-wave (km/s) = 3.21492 3.53332 3.37787
# Velocity P-wave (km/s) = 4.65297 5.18802 4.92776
#
# Compressibility (1/GPa) = 0.05654900
#
# Stress axis : x y z
#
# Youngs Moduli (GPa) = 41.67560 47.07360 31.47206
#
# Poissons Ratio (x) = 0.01181 0.11635
# Poissons Ratio (y) = 0.01045 0.19777
# Poissons Ratio (z) = 0.15407 0.29581
#
# Static dielectric constant tensor:
#      x y z
#    x 1.799350 0.000000 -0.021310 
#    y 0.000000 1.817030 0.000000 
#    z -0.021310 0.000000 1.870350 
# 
# From -- ./inp_files/15025.got.cif
#   From: 2010.05.17/outbox.cif.g08.bks.cpg/sg5_8_cif.got.tgz:15025.got - 2010.06.03 18:56:24.
