data_PCOD9123785
_publ_section_title
;
Structure prediction by ZEFSAII (Michael W. Deem and Ramdas Pophale) SiO2 
 PCOD9123785
Probable space group: C 2
;
_chemical_formula_sum "Si O2"
_cell_formula_units_Z 32
_cell_length_a 16.447961
_cell_length_b 14.961810
_cell_length_c 10.537415
_cell_angle_alpha 90.000000
_cell_angle_beta 35.168026
_cell_angle_gamma 90.000000
_cell_volume 1493.601836
_symmetry_space_group_name_H-M "C 2"
_symmetry_group_IT_number 5
_symmetry_cell_setting 'monoclinic'
loop_
_space_group_symop_operation_xyz
x,y,z
-x,y,-z
1/2+x,1/2+y,z
1/2-x,1/2+y,-z
loop_
_atom_site_type_symbol
_atom_site_label
_atom_site_fract_x
_atom_site_fract_y
_atom_site_fract_z
Si Si1 0.579513 0.128550 0.572826
Si Si2 0.719373 0.087273 0.130019
Si Si3 0.659674 0.125063 0.756095
Si Si4 0.897685 0.017443 0.512792
Si Si5 0.464893 0.690113 0.695590
Si Si6 0.192507 0.309393 0.458870
Si Si7 0.623464 0.434631 0.934755
Si Si8 0.076042 0.827106 0.641355
O O1 0.680346 0.116088 0.323575
O O2 0.433418 0.074691 0.740127
O O3 0.654444 0.107743 0.610854
O O4 0.538557 0.233611 0.626999
O O5 0.813650 0.998980 0.036844
O O6 0.808571 0.160802 0.936581
O O7 0.733290 0.219833 0.691817
O O8 0.736303 0.045826 0.734412
O O9 0.500000 0.133144 0.000000
O O10 0.915642 0.917443 0.447235
O O11 0.000000 0.026395 0.500000
O O12 0.947841 0.102801 0.364509
O O13 0.500000 0.700624 0.500000
O O14 0.529545 0.780921 0.670748
O O15 0.245083 0.394644 0.312403
O O16 0.269073 0.317389 0.495348
O O17 0.500000 0.475463 0.000000
O O18 0.538532 0.351965 0.105208
#
# Coordination Sequence:
#
# PCOD9123785 Si02
#       8
#     4   4   4   4   4   4   4   4
#     4  10  25  41  65  92 139 172 217 271 343 402
#     4  11  24  43  63  99 131 180 217 275 340 399
#     4  10  21  39  66  94 129 172 219 278 333 390
#     4  10  22  37  64  93 121 170 229 271 320 403
#     4  10  22  40  65  95 129 169 227 277 332 387
#     4   9  20  38  62  95 121 167 221 276 318 389
#     4  10  21  37  68  94 126 171 228 270 322 396
#     4  10  20  40  63  90 126 174 218 264 331 403
#
# _framework density 21.424717999999999
#
# number of rings (size 3 to 8) (size 9 to 14) (size 15 to 20)
#    0.000    2.000    1.250    1.875   12.250    1.000 
#    2.250    1.250    0.000    0.000    0.000    0.000 
#    0.000    0.000    0.000    0.000    0.000    0.000 
#
# Total GULP energy -89112.520019 kJ/mol
# GULP energy per Si atom -5569.532501 kJ/mol
# Density = 2.137595 g / cm^3
# Si number density = 21.424718 Si / 1000 Ang^3
#
#
#
# Elastic Constant Matrix: (Units=GPa)
#
#
# Indices 1 2 3 4 5 6 
#
# 1 92.4458 32.9794 20.1005 0.0000 -9.7020 0.0000
# 2 32.9794 66.5237 -0.9453 0.0000 -12.3796 0.0000
# 3 20.1005 -0.9453 74.7517 0.0000 -5.5164 0.0000
# 4 0.0000 0.0000 0.0000 24.9152 0.0000 -0.0214
# 5 -9.7020 -12.3796 -5.5164 0.0000 24.3667 0.0000
# 6 0.0000 0.0000 0.0000 -0.0214 0.0000 37.5326
#
#
#
# Elastic Compliance Matrix: (Units=1/GPa)
#
#
# Indices 1 2 3 4 5 6 
#
# 1 0.014235 -0.006866 -0.003817 0.000000 0.001315 0.000000
# 2 -0.006866 0.019967 0.002691 0.000000 0.008019 0.000000
# 3 -0.003817 0.002691 0.014672 0.000000 0.003169 0.000000
# 4 0.000000 0.000000 0.000000 0.040136 0.000000 0.000023
# 5 0.001315 0.008019 0.003169 0.000000 0.046355 0.000000
# 6 0.000000 0.000000 0.000000 0.000023 0.000000 0.026643
#
#
# Mechanical properties :
#
#
# Convention : Reuss Voigt Hill
#
# Bulk Modulus (GPa) = 30.40705 37.55453 33.98079
# Shear Modulus (GPa) = 26.46102 29.46867 27.96485
#
# Velocity S-wave (km/s) = 3.51817 3.71273 3.61676
# Velocity P-wave (km/s) = 5.54316 5.99548 5.77375
#
# Compressibility (1/GPa) = 0.03288711
#
# Stress axis : x y z
#
# Youngs Moduli (GPa) = 70.25055 50.08284 68.15711
#
# Poissons Ratio (x) = 0.34389 0.26019
# Poissons Ratio (y) = 0.48237 -0.18339
# Poissons Ratio (z) = 0.26818 -0.13476
#
# Static dielectric constant tensor:
#      x y z
#    x 1.844000 0.000000 -0.009140 
#    y 0.000000 1.806160 0.000000 
#    z -0.009140 0.000000 1.865870 
# 
# From -- ./inp_files/44949.got.cif
#   From: 2010.05.17/outbox.cif.g08.bks.cpg/sg5_23_cif.got.tgz:44949.got - 2010.06.03 18:56:24.
