data_PCOD9123201
_publ_section_title
;
Structure prediction by ZEFSAII (Michael W. Deem and Ramdas Pophale) SiO2 
 PCOD9123201
Probable space group: C 2
;
_chemical_formula_sum "Si O2"
_cell_formula_units_Z 26
_cell_length_a 5.013596
_cell_length_b 17.876404
_cell_length_c 14.868946
_cell_angle_alpha 90.000000
_cell_angle_beta 87.471780
_cell_angle_gamma 90.000000
_cell_volume 1331.333130
_symmetry_space_group_name_H-M "C 2"
_symmetry_group_IT_number 5
_symmetry_cell_setting 'monoclinic'
loop_
_space_group_symop_operation_xyz
x,y,z
-x,y,-z
1/2+x,1/2+y,z
1/2-x,1/2+y,-z
loop_
_atom_site_type_symbol
_atom_site_label
_atom_site_fract_x
_atom_site_fract_y
_atom_site_fract_z
Si Si1 0.903378 0.863760 0.337162
Si Si2 0.500000 0.271073 0.500000
Si Si3 0.631367 0.643160 0.589121
Si Si4 0.600593 0.248076 0.826783
Si Si5 0.590848 0.939315 0.736183
Si Si6 0.386657 0.109874 0.289539
Si Si7 0.094680 0.324312 0.900305
O O1 0.908649 0.798404 0.262979
O O2 0.691984 0.923882 0.305915
O O3 0.851648 0.823531 0.431236
O O4 0.191162 0.901575 0.331493
O O5 0.280032 0.218899 0.552896
O O6 0.500000 0.608651 0.500000
O O7 0.621729 0.645142 0.340122
O O8 0.874862 0.605832 0.640354
O O9 0.541713 0.165056 0.793350
O O10 0.380084 0.284377 0.894404
O O11 0.887353 0.262785 0.865556
O O12 0.596993 0.893296 0.829841
O O13 0.657483 0.026108 0.744003
O O14 0.000000 0.348062 0.000000
#
# Coordination Sequence:
#
# PCOD9123201 Si02
#       7
#     4   2   4   4   4   4   4
#     4  10  22  39  60  87 117 165 208 256 299 368
#     4  12  24  38  64  92 120 164 228 266 300 346
#     4  12  23  38  61  88 119 166 218 265 308 345
#     4  10  20  37  66  90 118 157 208 249 309 368
#     4  10  24  42  59  89 126 164 199 246 331 376
#     4  12  23  41  63  88 126 169 205 255 323 379
#     4  10  21  40  66  94 122 155 204 259 307 376
#
# _framework density 19.529297
#
# number of rings (size 3 to 8) (size 9 to 14) (size 15 to 20)
#    0.000    1.231    3.077    2.308    6.462    0.000 
#    8.308    1.538    0.000    0.000    0.000    0.000 
#    0.000    0.000    0.000    0.000    0.000    0.000 
#
# Total GULP energy -72561.473724 kJ/mol
# GULP energy per Si atom -5581.651825 kJ/mol
# Density = 1.948485 g / cm^3
# Si number density = 19.529297 Si / 1000 Ang^3
#
#
#
# Elastic Constant Matrix: (Units=GPa)
#
#
# Indices 1 2 3 4 5 6 
#
# 1 72.3903 7.9963 19.8840 0.0000 -11.0612 0.0000
# 2 7.9963 102.4603 39.1441 0.0000 -9.8132 0.0000
# 3 19.8840 39.1441 77.5234 0.0000 -12.6947 0.0000
# 4 0.0000 0.0000 0.0000 10.0677 0.0000 2.5633
# 5 -11.0612 -9.8132 -12.6947 0.0000 28.7381 0.0000
# 6 0.0000 0.0000 0.0000 2.5633 0.0000 10.8658
#
#
#
# Elastic Compliance Matrix: (Units=1/GPa)
#
#
# Indices 1 2 3 4 5 6 
#
# 1 0.015410 0.000570 -0.003489 0.000000 0.004584 0.000000
# 2 0.000570 0.012178 -0.006013 0.000000 0.001721 0.000000
# 3 -0.003489 -0.006013 0.017543 0.000000 0.004353 0.000000
# 4 0.000000 0.000000 0.000000 0.105675 0.000000 -0.024929
# 5 0.004584 0.001721 0.004353 0.000000 0.039072 0.000000
# 6 0.000000 0.000000 0.000000 -0.024929 0.000000 0.097912
#
#
# Mechanical properties :
#
#
# Convention : Reuss Voigt Hill
#
# Bulk Modulus (GPa) = 36.67696 42.93588 39.80642
# Shear Modulus (GPa) = 15.88590 22.29097 19.08844
#
# Velocity S-wave (km/s) = 2.85518 3.38214 3.12977
# Velocity P-wave (km/s) = 5.44891 6.10614 5.78687
#
# Compressibility (1/GPa) = 0.02726508
#
# Stress axis : x y z
#
# Youngs Moduli (GPa) = 64.89274 82.11851 57.00159
#
# Poissons Ratio (x) = -0.04677 0.19890
# Poissons Ratio (y) = -0.03696 0.34275
# Poissons Ratio (z) = 0.22644 0.49378
#
# Static dielectric constant tensor:
#      x y z
#    x 1.707970 0.000000 -0.009040 
#    y 0.000000 1.669730 0.000000 
#    z -0.009040 0.000000 1.677800 
# 
# From -- ./inp_files/49103.got.cif
#   From: 2010.05.17/outbox.cif.g08.bks.cpg/sg5_25_cif.got.tgz:49103.got - 2010.06.03 18:56:24.
