data_PCOD9123341
_publ_section_title
;
Structure prediction by ZEFSAII (Michael W. Deem and Ramdas Pophale) SiO2 
 PCOD9123341
Probable space group: C 2
;
_chemical_formula_sum "Si O2"
_cell_formula_units_Z 32
_cell_length_a 15.468508
_cell_length_b 23.674147
_cell_length_c 9.235970
_cell_angle_alpha 90.000000
_cell_angle_beta 151.115050
_cell_angle_gamma 90.000000
_cell_volume 1633.802401
_symmetry_space_group_name_H-M "C 2"
_symmetry_group_IT_number 5
_symmetry_cell_setting 'monoclinic'
loop_
_space_group_symop_operation_xyz
x,y,z
-x,y,-z
1/2+x,1/2+y,z
1/2-x,1/2+y,-z
loop_
_atom_site_type_symbol
_atom_site_label
_atom_site_fract_x
_atom_site_fract_y
_atom_site_fract_z
Si Si1 0.308601 0.158160 0.803115
Si Si2 0.306888 0.482163 0.177144
Si Si3 0.310417 0.287692 0.801573
Si Si4 0.332686 0.580406 0.651127
Si Si5 0.043206 0.585166 0.730202
Si Si6 0.806958 0.376909 0.140225
Si Si7 0.811072 0.472286 0.682624
Si Si8 0.541754 0.857479 0.222496
O O1 0.256828 0.223075 0.751733
O O2 0.182879 0.121969 0.510373
O O3 0.500000 0.158336 0.000000
O O4 0.340083 0.128692 0.003681
O O5 0.500000 0.507953 0.500000
O O6 0.254053 0.454510 0.254441
O O7 0.156408 0.527106 0.910290
O O8 0.306408 0.433421 0.054956
O O9 0.293204 0.328965 0.915163
O O10 0.177447 0.315079 0.492806
O O11 0.500000 0.288451 0.000000
O O12 0.328025 0.515985 0.586859
O O13 0.149122 0.583152 0.473446
O O14 0.500000 0.591875 0.000000
O O15 0.000000 0.598342 0.500000
O O16 0.000000 0.390029 0.500000
O O17 0.871638 0.356720 0.077938
O O18 0.866145 0.419844 0.662073
O O19 0.000000 0.503460 0.000000
O O20 0.500000 0.839930 0.000000
#
# Coordination Sequence:
#
# PCOD9123341 Si02
#       8
#     4   4   4   4   4   4   4   4
#     4   9  20  45  65  86 126 165 213 261 319 372
#     4  12  24  37  62  95 135 165 207 260 324 386
#     4  10  23  40  64  90 122 168 212 266 311 374
#     4  11  22  39  68  95 123 166 215 256 319 389
#     4  11  23  41  64  93 127 166 203 269 323 374
#     4  10  21  40  59  89 127 166 210 256 319 378
#     4  11  19  40  63  90 130 172 201 260 322 379
#     4  10  20  38  62  87 122 168 205 254 321 376
#
# _framework density 19.586212
#
# number of rings (size 3 to 8) (size 9 to 14) (size 15 to 20)
#    0.000    1.500    5.000    0.750    3.500    2.000 
#    0.000   10.000    0.000    0.000    0.000    0.000 
#    0.000    0.000    0.000    0.000    0.000    0.000 
#
# Total GULP energy -89203.922061 kJ/mol
# GULP energy per Si atom -5575.245129 kJ/mol
# Density = 1.954163 g / cm^3
# Si number density = 19.586212 Si / 1000 Ang^3
#
#
#
# Elastic Constant Matrix: (Units=GPa)
#
#
# Indices 1 2 3 4 5 6 
#
# 1 104.4285 56.0852 40.8017 0.0000 -31.4078 0.0000
# 2 56.0852 149.2444 62.6036 0.0000 -24.2987 0.0000
# 3 40.8017 62.6036 118.5329 0.0000 -18.7899 0.0000
# 4 0.0000 0.0000 0.0000 14.7484 0.0000 -3.3505
# 5 -31.4078 -24.2987 -18.7899 0.0000 36.3133 0.0000
# 6 0.0000 0.0000 0.0000 -3.3505 0.0000 28.8798
#
#
#
# Elastic Compliance Matrix: (Units=1/GPa)
#
#
# Indices 1 2 3 4 5 6 
#
# 1 0.015019 -0.003248 -0.001895 0.000000 0.009836 0.000000
# 2 -0.003248 0.009795 -0.003771 0.000000 0.001794 0.000000
# 3 -0.001895 -0.003771 0.011352 0.000000 0.001711 0.000000
# 4 0.000000 0.000000 0.000000 0.069639 0.000000 0.008079
# 5 0.009836 0.001794 0.001711 0.000000 0.038132 0.000000
# 6 0.000000 0.000000 0.000000 0.008079 0.000000 0.035564
#
#
# Mechanical properties :
#
#
# Convention : Reuss Voigt Hill
#
# Bulk Modulus (GPa) = 54.53199 76.79853 65.66526
# Shear Modulus (GPa) = 24.57726 30.16931 27.37329
#
# Velocity S-wave (km/s) = 3.54619 3.92897 3.74248
# Velocity P-wave (km/s) = 6.68355 7.73809 7.23007
#
# Compressibility (1/GPa) = 0.01833786
#
# Stress axis : x y z
#
# Youngs Moduli (GPa) = 66.58239 102.09652 88.09199
#
# Poissons Ratio (x) = 0.33156 0.16697
# Poissons Ratio (y) = 0.21623 0.33218
# Poissons Ratio (z) = 0.12620 0.38499
#
# Static dielectric constant tensor:
#      x y z
#    x 1.743810 0.000000 0.042810 
#    y 0.000000 1.691360 0.000000 
#    z 0.042810 0.000000 1.730940 
# 
# From -- ./inp_files/25639.got.cif
#   From: 2010.05.17/outbox.cif.g08.bks.cpg/sg5_13_cif.got.tgz:25639.got - 2010.06.03 18:56:24.
