data_PCOD9123797
_publ_section_title
;
Structure prediction by ZEFSAII (Michael W. Deem and Ramdas Pophale) SiO2 
 PCOD9123797
Probable space group: C 2
;
_chemical_formula_sum "Si O2"
_cell_formula_units_Z 30
_cell_length_a 13.802855
_cell_length_b 17.751121
_cell_length_c 5.294282
_cell_angle_alpha 90.000000
_cell_angle_beta 110.201929
_cell_angle_gamma 90.000000
_cell_volume 1217.383605
_symmetry_space_group_name_H-M "C 2"
_symmetry_group_IT_number 5
_symmetry_cell_setting 'monoclinic'
loop_
_space_group_symop_operation_xyz
x,y,z
-x,y,-z
1/2+x,1/2+y,z
1/2-x,1/2+y,-z
loop_
_atom_site_type_symbol
_atom_site_label
_atom_site_fract_x
_atom_site_fract_y
_atom_site_fract_z
Si Si1 0.704534 0.203280 0.234974
Si Si2 0.500000 0.793738 0.000000
Si Si3 0.284663 0.828284 0.994070
Si Si4 0.079431 0.156412 0.357979
Si Si5 0.318083 0.033512 0.835616
Si Si6 0.394307 0.340362 0.558339
Si Si7 0.597236 0.501398 0.408188
Si Si8 0.118846 0.444299 0.605807
O O1 0.754296 0.242894 0.033911
O O2 0.805201 0.183880 0.489941
O O3 0.654889 0.122217 0.139855
O O4 0.634161 0.266951 0.302131
O O5 0.394563 0.836290 0.954083
O O6 0.521916 0.732679 0.233193
O O7 0.307671 0.872597 0.274978
O O8 0.194016 0.854731 0.732162
O O9 0.000000 0.129519 0.500000
O O10 0.092766 0.075925 0.226857
O O11 0.195478 0.022468 0.674881
O O12 0.364494 0.990599 0.634800
O O13 0.354789 0.997053 0.130034
O O14 0.500000 0.326159 0.500000
O O15 0.394780 0.419336 0.713329
O O16 0.500000 0.487435 0.500000
O O17 0.000000 0.418856 0.500000
#
# Coordination Sequence:
#
# PCOD9123797 Si02
#       8
#     4   2   4   4   4   4   4   4
#     4  11  25  44  71 104 153 194 259 313 381 450
#     4  12  24  38  74 114 148 188 244 324 398 460
#     4  12  27  43  76 111 155 195 252 322 398 461
#     4  10  20  40  64 105 139 185 235 309 382 451
#     4  11  26  51  76 109 154 202 257 315 375 464
#     4  11  24  47  69 105 147 203 257 307 377 459
#     4   9  20  43  69 100 149 194 249 301 375 455
#     4  12  29  50  80 112 151 200 258 319 391 458
#
# _framework density 24.643011000000001
#
# number of rings (size 3 to 8) (size 9 to 14) (size 15 to 20)
#    0.000    1.067    4.000    1.200    5.600    1.067 
#    2.400    1.333    0.000    0.000    0.000    0.000 
#    0.000    0.000    0.000    0.000    0.000    0.000 
#
# Total GULP energy -83761.470326 kJ/mol
# GULP energy per Si atom -5584.098022 kJ/mol
# Density = 2.458692 g / cm^3
# Si number density = 24.643011 Si / 1000 Ang^3
#
#
#
# Elastic Constant Matrix: (Units=GPa)
#
#
# Indices 1 2 3 4 5 6 
#
# 1 133.9997 17.5388 10.1543 0.0000 7.9272 0.0000
# 2 17.5388 176.8033 21.0794 0.0000 -8.0550 0.0000
# 3 10.1543 21.0794 78.8402 0.0000 8.7148 0.0000
# 4 0.0000 0.0000 0.0000 20.7275 0.0000 -4.5115
# 5 7.9272 -8.0550 8.7148 0.0000 36.1797 0.0000
# 6 0.0000 0.0000 0.0000 -4.5115 0.0000 16.8440
#
#
#
# Elastic Compliance Matrix: (Units=1/GPa)
#
#
# Indices 1 2 3 4 5 6 
#
# 1 0.007711 -0.000772 -0.000597 0.000000 -0.001718 0.000000
# 2 -0.000772 0.006026 -0.001725 0.000000 0.001926 0.000000
# 3 -0.000597 -0.001725 0.013612 0.000000 -0.003532 0.000000
# 4 0.000000 0.000000 0.000000 0.051232 0.000000 0.013722
# 5 -0.001718 0.001926 -0.003532 0.000000 0.029296 0.000000
# 6 0.000000 0.000000 0.000000 0.013722 0.000000 0.063044
#
#
# Mechanical properties :
#
#
# Convention : Reuss Voigt Hill
#
# Bulk Modulus (GPa) = 47.25467 54.13201 50.69334
# Shear Modulus (GPa) = 27.15014 37.47495 32.31254
#
# Velocity S-wave (km/s) = 3.32284 3.90386 3.62501
# Velocity P-wave (km/s) = 5.82572 6.50649 6.17549
#
# Compressibility (1/GPa) = 0.02116193
#
# Stress axis : x y z
#
# Youngs Moduli (GPa) = 129.69193 165.94872 73.46295
#
# Poissons Ratio (x) = 0.12811 0.04385
# Poissons Ratio (y) = 0.10012 0.12670
# Poissons Ratio (z) = 0.07741 0.28620
#
# Static dielectric constant tensor:
#      x y z
#    x 2.057050 0.000000 0.330300 
#    y 0.000000 2.016950 0.000000 
#    z 0.330300 0.000000 3.552370 
# 
# From -- ./inp_files/7330.got.cif
#   From: 2010.05.17/outbox.cif.g08.bks.cpg/sg5_4_cif.got.tgz:7330.got - 2010.06.03 18:56:24.
