data_PCOD9123762
_publ_section_title
;
Structure prediction by ZEFSAII (Michael W. Deem and Ramdas Pophale) SiO2 
 PCOD9123762
Probable space group: C 2
;
_chemical_formula_sum "Si O2"
_cell_formula_units_Z 26
_cell_length_a 8.519757
_cell_length_b 10.158555
_cell_length_c 17.933508
_cell_angle_alpha 90.000000
_cell_angle_beta 131.565982
_cell_angle_gamma 90.000000
_cell_volume 1161.281592
_symmetry_space_group_name_H-M "C 2"
_symmetry_group_IT_number 5
_symmetry_cell_setting 'monoclinic'
loop_
_space_group_symop_operation_xyz
x,y,z
-x,y,-z
1/2+x,1/2+y,z
1/2-x,1/2+y,-z
loop_
_atom_site_type_symbol
_atom_site_label
_atom_site_fract_x
_atom_site_fract_y
_atom_site_fract_z
Si Si1 0.126335 0.805290 0.631633
Si Si2 0.593984 0.589429 0.102766
Si Si3 0.500000 0.530069 0.500000
Si Si4 0.670971 0.736417 0.439383
Si Si5 0.227579 0.355424 0.752305
Si Si6 0.225853 0.636510 0.105294
Si Si7 0.820359 0.844872 0.180567
O O1 0.242783 0.699187 0.616322
O O2 0.194909 0.815515 0.736613
O O3 0.876253 0.790051 0.546555
O O4 0.164384 0.938339 0.596195
O O5 0.752151 0.492977 0.196700
O O6 0.408039 0.632010 0.100192
O O7 0.708521 0.719719 0.108920
O O8 0.500000 0.518508 0.000000
O O9 0.598428 0.616512 0.466531
O O10 0.472044 0.830838 0.363423
O O11 0.224223 0.238543 0.812757
O O12 0.440520 0.347389 0.771684
O O13 0.219480 0.486032 0.132739
O O14 0.000000 0.670438 0.000000
#
# Coordination Sequence:
#
# PCOD9123762 Si02
#       7
#     4   4   2   4   4   4   4
#     4  10  24  40  60  93 125 162 211 261 311 373
#     4  11  25  43  65  96 130 168 214 264 319 379
#     4  10  20  40  62  84 124 164 204 256 312 368
#     4  10  21  39  62  88 122 163 204 254 311 369
#     4  11  24  41  66  97 128 168 215 262 317 380
#     4  11  24  42  65  93 127 167 213 264 319 378
#     4  11  24  42  65  95 129 169 213 261 319 378
#
# _framework density 22.389057000000001
#
# number of rings (size 3 to 8) (size 9 to 14) (size 15 to 20)
#    0.000    1.538    0.000    4.615    0.000   13.538 
#    0.000   12.308    0.000    0.000    0.000    0.000 
#    0.000    0.000    0.000    0.000    0.000    0.000 
#
# Total GULP energy -72641.438242 kJ/mol
# GULP energy per Si atom -5587.802942 kJ/mol
# Density = 2.233810 g / cm^3
# Si number density = 22.389057 Si / 1000 Ang^3
#
#
#
# Elastic Constant Matrix: (Units=GPa)
#
#
# Indices 1 2 3 4 5 6 
#
# 1 73.7700 28.3127 17.3788 0.0000 -8.4499 0.0000
# 2 28.3127 85.3581 2.9623 0.0000 3.8106 0.0000
# 3 17.3788 2.9623 73.5556 0.0000 4.6507 0.0000
# 4 0.0000 0.0000 0.0000 33.5106 0.0000 -12.3492
# 5 -8.4499 3.8106 4.6507 0.0000 45.1519 0.0000
# 6 0.0000 0.0000 0.0000 -12.3492 0.0000 4.5833
#
#
#
# Elastic Compliance Matrix: (Units=1/GPa)
#
#
# Indices 1 2 3 4 5 6 
#
# 1 0.017198 -0.005747 -0.004093 0.000000 0.004125 0.000000
# 2 -0.005747 0.013692 0.000954 0.000000 -0.002329 0.000000
# 3 -0.004093 0.000954 0.014673 0.000000 -0.002358 0.000000
# 4 0.000000 0.000000 0.000000 4.213568 0.000000 11.352938
# 5 0.004125 -0.002329 -0.002358 0.000000 0.023359 0.000000
# 6 0.000000 0.000000 0.000000 11.352938 0.000000 30.807268
#
#
# Mechanical properties :
#
#
# Convention : Reuss Voigt Hill
#
# Bulk Modulus (GPa) = 35.98202 36.66571 36.32386
# Shear Modulus (GPa) = 0.14238 28.91782 14.53010
#
# Velocity S-wave (km/s) = 0.25245 3.59779 2.55028
# Velocity P-wave (km/s) = 4.02382 5.80267 4.99310
#
# Compressibility (1/GPa) = 0.02779166
#
# Stress axis : x y z
#
# Youngs Moduli (GPa) = 58.14706 73.03362 68.15340
#
# Poissons Ratio (x) = 0.41969 0.27893
# Poissons Ratio (y) = 0.33414 -0.06499
# Poissons Ratio (z) = 0.23798 -0.06964
#
# Static dielectric constant tensor:
#      x y z
#    x 1.860770 0.000000 0.025500 
#    y 0.000000 1.890520 0.000000 
#    z 0.025500 0.000000 1.814770 
# 
# From -- ./inp_files/64411.got.cif
#   From: 2010.05.17/outbox.cif.g08.bks.cpg/sg5_33_cif.got.tgz:64411.got - 2010.06.03 18:56:24.
