data_PCOD9123849
_publ_section_title
;
Structure prediction by ZEFSAII (Michael W. Deem and Ramdas Pophale) SiO2 
 PCOD9123849
Probable space group: C 2
;
_chemical_formula_sum "Si O2"
_cell_formula_units_Z 28
_cell_length_a 27.292287
_cell_length_b 5.847189
_cell_length_c 8.597516
_cell_angle_alpha 90.000000
_cell_angle_beta 121.097588
_cell_angle_gamma 90.000000
_cell_volume 1174.844349
_symmetry_space_group_name_H-M "C 2"
_symmetry_group_IT_number 5
_symmetry_cell_setting 'monoclinic'
loop_
_space_group_symop_operation_xyz
x,y,z
-x,y,-z
1/2+x,1/2+y,z
1/2-x,1/2+y,-z
loop_
_atom_site_type_symbol
_atom_site_label
_atom_site_fract_x
_atom_site_fract_y
_atom_site_fract_z
Si Si1 0.063163 0.494170 0.853882
Si Si2 0.859375 0.567039 0.500437
Si Si3 0.229986 0.589127 0.404977
Si Si4 0.716807 0.423040 0.822246
Si Si5 0.835954 0.315430 0.164254
Si Si6 0.030038 0.859023 0.302061
Si Si7 0.500000 0.680856 0.500000
Si Si8 0.000000 0.211406 0.000000
O O1 0.127704 0.456488 0.901949
O O2 0.032770 0.740910 0.802458
O O3 0.031398 0.341946 0.671552
O O4 0.044643 0.370841 0.982233
O O5 0.833540 0.546204 0.630635
O O6 0.858237 0.360327 0.376224
O O7 0.922521 0.664983 0.622097
O O8 0.816381 0.730564 0.330687
O O9 0.258308 0.357405 0.530776
O O10 0.251447 0.564726 0.264010
O O11 0.667777 0.541660 0.846651
O O12 0.769107 0.363037 0.021017
O O13 0.033059 0.040533 0.168952
O O14 0.039401 0.007523 0.470353
#
# Coordination Sequence:
#
# PCOD9123849 Si02
#       8
#     4   4   4   4   4   4   2   2
#     4  11  24  43  70 100 139 179 235 297 359 435
#     4  11  23  42  69  97 135 186 231 300 351 437
#     4  10  22  43  66  96 138 185 241 297 360 431
#     4  11  24  43  63 100 139 182 241 289 359 429
#     4  12  23  43  68  98 136 183 235 296 358 424
#     4  11  23  44  69 100 138 181 237 286 369 434
#     4  10  20  40  66 104 132 174 224 292 350 432
#     4  10  26  48  64 104 138 178 232 298 368 438
#
# _framework density 23.832944000000001
#
# number of rings (size 3 to 8) (size 9 to 14) (size 15 to 20)
#    0.000    1.143    2.857    3.429    0.000    4.571 
#   12.857    0.000    0.000    0.000    0.000    0.000 
#    0.000    0.000    0.000    0.000    0.000    0.000 
#
# Total GULP energy -78040.966294 kJ/mol
# GULP energy per Si atom -5574.354735 kJ/mol
# Density = 2.377870 g / cm^3
# Si number density = 23.832944 Si / 1000 Ang^3
#
#
#
# Elastic Constant Matrix: (Units=GPa)
#
#
# Indices 1 2 3 4 5 6 
#
# 1 88.7168 22.8184 23.3015 0.0000 0.8998 0.0000
# 2 22.8184 66.4745 17.3908 0.0000 -3.4893 0.0000
# 3 23.3015 17.3908 65.2642 0.0000 -6.9426 0.0000
# 4 0.0000 0.0000 0.0000 29.8251 0.0000 -1.2515
# 5 0.8998 -3.4893 -6.9426 0.0000 38.4774 0.0000
# 6 0.0000 0.0000 0.0000 -1.2515 0.0000 30.1059
#
#
#
# Elastic Compliance Matrix: (Units=1/GPa)
#
#
# Indices 1 2 3 4 5 6 
#
# 1 0.013236 -0.003591 -0.003912 0.000000 -0.001341 0.000000
# 2 -0.003591 0.017163 -0.003178 0.000000 0.001067 0.000000
# 3 -0.003912 -0.003178 0.017888 0.000000 0.003031 0.000000
# 4 0.000000 0.000000 0.000000 0.033587 0.000000 0.001396
# 5 -0.001341 0.001067 0.003031 0.000000 0.026664 0.000000
# 6 0.000000 0.000000 0.000000 0.001396 0.000000 0.033274
#
#
# Mechanical properties :
#
#
# Convention : Reuss Voigt Hill
#
# Bulk Modulus (GPa) = 37.13708 38.60856 37.87282
# Shear Modulus (GPa) = 29.04445 30.14468 29.59457
#
# Velocity S-wave (km/s) = 3.49473 3.56031 3.52767
# Velocity P-wave (km/s) = 5.64803 5.75638 5.70246
#
# Compressibility (1/GPa) = 0.02692726
#
# Stress axis : x y z
#
# Youngs Moduli (GPa) = 75.54959 58.26381 55.90279
#
# Poissons Ratio (x) = 0.20920 0.21867
# Poissons Ratio (y) = 0.27127 0.17766
# Poissons Ratio (z) = 0.29553 0.18516
#
# Static dielectric constant tensor:
#      x y z
#    x 2.046340 0.000000 -0.025410 
#    y 0.000000 1.983740 0.000000 
#    z -0.025410 0.000000 1.894160 
# 
# From -- ./inp_files/31385.got.cif
#   From: 2010.05.17/outbox.cif.g08.bks.cpg/sg5_16_cif.got.tgz:31385.got - 2010.06.03 18:56:24.
