data_PCOD9123422
_publ_section_title
;
Structure prediction by ZEFSAII (Michael W. Deem and Ramdas Pophale) SiO2 
 PCOD9123422
Probable space group: C 2
;
_chemical_formula_sum "Si O2"
_cell_formula_units_Z 22
_cell_length_a 13.926401
_cell_length_b 12.046991
_cell_length_c 10.683755
_cell_angle_alpha 90.000000
_cell_angle_beta 32.362973
_cell_angle_gamma 90.000000
_cell_volume 959.452027
_symmetry_space_group_name_H-M "C 2"
_symmetry_group_IT_number 5
_symmetry_cell_setting 'monoclinic'
loop_
_space_group_symop_operation_xyz
x,y,z
-x,y,-z
1/2+x,1/2+y,z
1/2-x,1/2+y,-z
loop_
_atom_site_type_symbol
_atom_site_label
_atom_site_fract_x
_atom_site_fract_y
_atom_site_fract_z
Si Si1 0.823787 0.291600 0.250101
Si Si2 0.000000 0.905175 0.500000
Si Si3 0.298649 0.923192 0.670528
Si Si4 0.150650 0.940266 0.087379
Si Si5 0.405028 0.245979 0.266357
Si Si6 0.459051 0.001040 0.245254
O O1 0.667510 0.320961 0.325658
O O2 0.743330 0.235747 0.461025
O O3 0.879938 0.413006 0.237592
O O4 0.000000 0.236935 0.000000
O O5 0.975314 0.975122 0.655808
O O6 0.500000 0.894785 0.500000
O O7 0.190540 0.815113 0.739409
O O8 0.336491 0.995779 0.505573
O O9 0.185855 0.982458 0.905737
O O10 0.064355 0.820601 0.149593
O O11 0.347576 0.955164 0.926959
O O12 0.470717 0.122159 0.174113
#
# Coordination Sequence:
#
# PCOD9123422 Si02
#       6
#     4   2   4   4   4   4
#     4  10  20  40  64  90 139 167 217 277 334 395
#     4  10  20  38  64  94 126 178 216 270 338 380
#     4   9  20  41  65  96 135 173 218 281 338 398
#     4  10  20  40  63  96 134 176 218 277 328 396
#     4  10  22  40  68  99 130 177 225 271 344 398
#     4  10  21  42  66  96 133 177 220 281 331 402
#
# _framework density 22.929755
#
# number of rings (size 3 to 8) (size 9 to 14) (size 15 to 20)
#    0.000    2.182    1.818    0.545    0.000    1.455 
#   21.273   20.000    0.000    0.000    0.000    0.000 
#    0.000    0.000    0.000    0.000    0.000    0.000 
#
# Total GULP energy -61280.733088 kJ/mol
# GULP energy per Si atom -5570.975735 kJ/mol
# Density = 2.287757 g / cm^3
# Si number density = 22.929755 Si / 1000 Ang^3
#
#
#
# Elastic Constant Matrix: (Units=GPa)
#
#
# Indices 1 2 3 4 5 6 
#
# 1 123.3888 41.2997 41.8256 0.0000 5.0999 0.0000
# 2 41.2997 84.9703 7.2158 0.0000 -17.4599 0.0000
# 3 41.8256 7.2158 150.5994 0.0000 35.1255 0.0000
# 4 0.0000 0.0000 0.0000 1.6104 0.0000 -11.3896
# 5 5.0999 -17.4599 35.1255 0.0000 60.6772 0.0000
# 6 0.0000 0.0000 0.0000 -11.3896 0.0000 -10.6647
#
#
#
# Elastic Compliance Matrix: (Units=1/GPa)
#
#
# Indices 1 2 3 4 5 6 
#
# 1 0.010735 -0.005198 -0.002512 0.000000 -0.000944 0.000000
# 2 -0.005198 0.015397 -0.000496 0.000000 0.005155 0.000000
# 3 -0.002512 -0.000496 0.008492 0.000000 -0.004848 0.000000
# 4 0.000000 0.000000 0.000000 0.072599 0.000000 -0.077534
# 5 -0.000944 0.005155 -0.004848 0.000000 0.020850 0.000000
# 6 0.000000 0.000000 0.000000 -0.077534 0.000000 -0.010963
#
#
# Mechanical properties :
#
#
# Convention : Reuss Voigt Hill
#
# Bulk Modulus (GPa) = 54.91335 59.96008 57.43672
# Shear Modulus (GPa) = 35.81813 28.23239 32.02526
#
# Velocity S-wave (km/s) = 3.95660 3.51273 3.74126
# Velocity P-wave (km/s) = 6.69877 6.53136 6.61559
#
# Compressibility (1/GPa) = 0.01821051
#
# Stress axis : x y z
#
# Youngs Moduli (GPa) = 93.15338 64.94861 117.75378
#
# Poissons Ratio (x) = 0.33762 0.29582
# Poissons Ratio (y) = 0.48424 0.05844
# Poissons Ratio (z) = 0.23402 0.03223
#
# Static dielectric constant tensor:
#      x y z
#    x 1.883680 0.000000 0.043070 
#    y 0.000000 1.772130 0.000000 
#    z 0.043070 0.000000 1.990300 
# 
# From -- ./inp_files/42636.got.cif
#   From: 2010.05.17/outbox.cif.g08.bks.cpg/sg5_22_cif.got.tgz:42636.got - 2010.06.03 18:56:24.
