data_PCOD9123383
_publ_section_title
;
Structure prediction by ZEFSAII (Michael W. Deem and Ramdas Pophale) SiO2 
 PCOD9123383
Probable space group: C 2
;
_chemical_formula_sum "Si O2"
_cell_formula_units_Z 18
_cell_length_a 23.012076
_cell_length_b 8.142982
_cell_length_c 22.679914
_cell_angle_alpha 90.000000
_cell_angle_beta 12.527334
_cell_angle_gamma 90.000000
_cell_volume 921.830218
_symmetry_space_group_name_H-M "C 2"
_symmetry_group_IT_number 5
_symmetry_cell_setting 'monoclinic'
loop_
_space_group_symop_operation_xyz
x,y,z
-x,y,-z
1/2+x,1/2+y,z
1/2-x,1/2+y,-z
loop_
_atom_site_type_symbol
_atom_site_label
_atom_site_fract_x
_atom_site_fract_y
_atom_site_fract_z
Si Si1 0.375426 0.736940 0.406387
Si Si2 0.724063 0.157181 0.162095
Si Si3 0.137638 0.879156 0.144328
Si Si4 0.292620 0.444327 0.321819
Si Si5 0.500000 0.540330 0.000000
O O1 0.505938 0.557970 0.275109
O O2 0.300422 0.793409 0.546862
O O3 0.098983 0.758628 0.644328
O O4 0.599513 0.856260 0.156102
O O5 0.726495 0.320598 0.121528
O O6 0.430433 0.083401 0.451693
O O7 0.823947 0.153706 0.130902
O O8 0.930904 0.024540 0.928956
O O9 0.340235 0.426721 0.204619
#
# Coordination Sequence:
#
# PCOD9123383 Si02
#       5
#     4   4   4   4   2
#     4  12  24  39  62  97 130 165 203 259 319 375
#     4  10  20  38  63  93 120 162 212 252 303 372
#     4  12  24  39  62  97 130 165 203 259 319 375
#     4  10  20  38  63  93 120 162 212 252 303 372
#     4   8  22  36  70  90 118 172 212 250 302 376
#
# _framework density 19.526371000000001
#
# number of rings (size 3 to 8) (size 9 to 14) (size 15 to 20)
#    1.333    0.000    0.000    8.667    0.000    0.000 
#    0.000    0.000    0.000    8.000    0.000    0.000 
#    0.000    0.000    0.000    0.000    0.000    0.000 
#
# Total GULP energy -50164.203932 kJ/mol
# GULP energy per Si atom -5573.800437 kJ/mol
# Density = 1.948193 g / cm^3
# Si number density = 19.526371 Si / 1000 Ang^3
#
#
#
# Elastic Constant Matrix: (Units=GPa)
#
#
# Indices 1 2 3 4 5 6 
#
# 1 148.7714 37.8112 29.4725 -0.0628 17.8567 0.0091
# 2 37.8112 68.6025 3.5346 -0.0726 23.2260 0.0047
# 3 29.4725 3.5346 96.2269 -0.0212 25.4461 -0.0122
# 4 -0.0628 -0.0726 -0.0212 26.6060 -0.0026 -3.6534
# 5 17.8567 23.2260 25.4461 -0.0026 29.8826 -0.0088
# 6 0.0091 0.0047 -0.0122 -3.6534 -0.0088 26.8519
#
#
#
# Elastic Compliance Matrix: (Units=1/GPa)
#
#
# Indices 1 2 3 4 5 6 
#
# 1 0.008346 -0.004800 -0.002643 0.000004 0.000994 -0.000002
# 2 -0.004800 0.024033 0.006154 0.000057 -0.021051 0.000001
# 3 -0.002643 0.006154 0.015259 0.000022 -0.016198 0.000004
# 4 0.000004 0.000057 0.000022 0.038301 -0.000061 0.005211
# 5 0.000994 -0.021051 -0.016198 -0.000061 0.063025 0.000008
# 6 -0.000002 0.000001 0.000004 0.005211 0.000008 0.037950
#
#
# Mechanical properties :
#
#
# Convention : Reuss Voigt Hill
#
# Bulk Modulus (GPa) = 22.19291 50.58193 36.38742
# Shear Modulus (GPa) = 24.44845 32.85358 28.65102
#
# Velocity S-wave (km/s) = 3.54230 4.10631 3.83469
# Velocity P-wave (km/s) = 5.30291 6.96010 6.18724
#
# Compressibility (1/GPa) = 0.04505944
#
# Stress axis : x y z
#
# Youngs Moduli (GPa) = 119.81771 41.61002 65.53603
#
# Poissons Ratio (x) = 0.19975 0.17320
# Poissons Ratio (y) = 0.57518 -0.40333
# Poissons Ratio (z) = 0.31666 -0.25608
#
# Static dielectric constant tensor:
#      x y z
#    x 1.738020 0.000000 0.010770 
#    y 0.000000 1.666980 0.000010 
#    z 0.010770 0.000010 1.698430 
# 
# From -- ./inp_files/71310.got.cif
#   From: 2010.05.17/outbox.cif.g08.bks.cpg/sg5_36_cif.got.tgz:71310.got - 2010.06.03 18:56:24.
