data_PCOD9123848
_publ_section_title
;
Structure prediction by ZEFSAII (Michael W. Deem and Ramdas Pophale) SiO2 
 PCOD9123848
Probable space group: C 2
;
_chemical_formula_sum "Si O2"
_cell_formula_units_Z 16
_cell_length_a 18.126962
_cell_length_b 4.962262
_cell_length_c 8.564036
_cell_angle_alpha 90.000000
_cell_angle_beta 45.695231
_cell_angle_gamma 90.000000
_cell_volume 551.282909
_symmetry_space_group_name_H-M "C 2"
_symmetry_group_IT_number 5
_symmetry_cell_setting 'monoclinic'
loop_
_space_group_symop_operation_xyz
x,y,z
-x,y,-z
1/2+x,1/2+y,z
1/2-x,1/2+y,-z
loop_
_atom_site_type_symbol
_atom_site_label
_atom_site_fract_x
_atom_site_fract_y
_atom_site_fract_z
Si Si1 0.066175 0.529950 0.032080
Si Si2 0.741930 0.199265 0.203002
Si Si3 0.623414 0.348978 0.653751
Si Si4 0.613391 0.691497 0.391118
O O1 0.147003 0.329566 0.987062
O O2 0.299620 0.908770 0.775169
O O3 0.000000 0.368738 0.000000
O O4 0.980223 0.690298 0.254901
O O5 0.722504 0.223839 0.420347
O O6 0.657481 0.409557 0.260985
O O7 0.880500 0.762115 0.158910
O O8 0.612541 0.631318 0.579309
O O9 0.500000 0.753812 0.500000
#
# Coordination Sequence:
#
# PCOD9123848 Si02
#       4
#     4   4   4   4
#     4   8  18  44  66 106 145 172 231 300 355 427
#     4  10  20  40  66 101 135 188 223 294 357 409
#     4   7  20  39  66 102 137 181 227 293 349 418
#     4  10  21  41  69  97 137 184 242 278 346 424
#
# _framework density 29.023212000000001
#
# number of rings (size 3 to 8) (size 9 to 14) (size 15 to 20)
#    3.000    0.000    0.000    0.750    0.000    2.000 
#    9.000    3.750    5.500    0.000    0.000    0.000 
#    0.000    0.000    0.000    0.000    0.000    0.000 
#
# Total GULP energy -44688.140368 kJ/mol
# GULP energy per Si atom -5586.017546 kJ/mol
# Density = 2.895715 g / cm^3
# Si number density = 29.023212 Si / 1000 Ang^3
#
#
#
# Elastic Constant Matrix: (Units=GPa)
#
#
# Indices 1 2 3 4 5 6 
#
# 1 146.8820 42.3232 50.9722 0.0000 -27.5223 0.0005
# 2 42.3232 160.0603 35.2895 -0.0013 -7.2487 0.0025
# 3 50.9722 35.2895 156.3394 0.0000 -13.5128 0.0000
# 4 0.0000 -0.0013 0.0000 30.4754 -0.0005 -16.2068
# 5 -27.5223 -7.2487 -13.5128 -0.0005 58.7385 -0.0002
# 6 0.0005 0.0025 0.0000 -16.2068 -0.0002 19.1433
#
#
#
# Elastic Compliance Matrix: (Units=1/GPa)
#
#
# Indices 1 2 3 4 5 6 
#
# 1 0.008666 -0.001663 -0.002160 0.000000 0.003359 0.000000
# 2 -0.001663 0.006907 -0.001031 0.000000 -0.000164 -0.000001
# 3 -0.002160 -0.001031 0.007382 0.000000 0.000559 0.000000
# 4 0.000000 0.000000 0.000000 0.059685 0.000001 0.050529
# 5 0.003359 -0.000164 0.000559 0.000001 0.018707 0.000001
# 6 0.000000 -0.000001 0.000000 0.050529 0.000001 0.095015
#
#
# Mechanical properties :
#
#
# Convention : Reuss Voigt Hill
#
# Bulk Modulus (GPa) = 75.48906 80.05015 77.76961
# Shear Modulus (GPa) = 23.75459 43.98458 33.86958
#
# Velocity S-wave (km/s) = 2.86399 3.89716 3.41982
# Velocity P-wave (km/s) = 6.08301 6.92039 6.51516
#
# Compressibility (1/GPa) = 0.01324695
#
# Stress axis : x y z
#
# Youngs Moduli (GPa) = 115.39004 144.77363 135.47295
#
# Poissons Ratio (x) = 0.24080 0.29259
# Poissons Ratio (y) = 0.19192 0.13968
# Poissons Ratio (z) = 0.24922 0.14927
#
# Static dielectric constant tensor:
#      x y z
#    x 2.414300 0.000000 0.038620 
#    y 0.000000 2.288150 0.000000 
#    z 0.038620 0.000000 2.243150 
# 
# From -- ./inp_files/56339.got.cif
#   From: 2010.05.17/outbox.cif.g08.bks.cpg/sg5_29_cif.got.tgz:56339.got - 2010.06.03 18:56:24.
