data_PCOD9123767
_publ_section_title
;
Structure prediction by ZEFSAII (Michael W. Deem and Ramdas Pophale) SiO2 
 PCOD9123767
Probable space group: C 2
;
_chemical_formula_sum "Si O2"
_cell_formula_units_Z 30
_cell_length_a 21.595254
_cell_length_b 8.691562
_cell_length_c 9.001253
_cell_angle_alpha 90.000000
_cell_angle_beta 124.328239
_cell_angle_gamma 90.000000
_cell_volume 1395.226616
_symmetry_space_group_name_H-M "C 2"
_symmetry_group_IT_number 5
_symmetry_cell_setting 'monoclinic'
loop_
_space_group_symop_operation_xyz
x,y,z
-x,y,-z
1/2+x,1/2+y,z
1/2-x,1/2+y,-z
loop_
_atom_site_type_symbol
_atom_site_label
_atom_site_fract_x
_atom_site_fract_y
_atom_site_fract_z
Si Si1 0.319258 0.035890 0.575662
Si Si2 0.701804 0.373098 0.988401
Si Si3 0.887067 0.215773 0.591343
Si Si4 0.455693 0.363612 0.306134
Si Si5 0.239247 0.077820 0.766824
Si Si6 0.660768 0.542348 0.214370
Si Si7 0.062049 0.770153 0.200164
Si Si8 0.500000 0.662086 0.500000
O O1 0.302344 0.041909 0.729138
O O2 0.242376 0.083723 0.391350
O O3 0.391002 0.142935 0.649382
O O4 0.338826 0.868656 0.543252
O O5 0.748761 0.244085 0.138922
O O6 0.677007 0.514083 0.063391
O O7 0.623560 0.292415 0.837652
O O8 0.737092 0.447385 0.889470
O O9 0.836388 0.090068 0.434806
O O10 0.895597 0.156160 0.773169
O O11 0.957326 0.244097 0.577214
O O12 0.500000 0.284194 0.500000
O O13 0.511413 0.368166 0.243692
O O14 0.444425 0.539148 0.345396
O O15 0.625285 0.377391 0.211972
O O16 0.000000 0.708399 0.000000
#
# Coordination Sequence:
#
# PCOD9123767 Si02
#       8
#     4   4   4   4   4   4   4   2
#     4  11  24  43  65  96 141 175 225 282 347 408
#     4  12  23  42  66 102 138 169 230 287 341 408
#     4  11  22  43  66  95 132 179 224 275 340 406
#     4  10  21  39  65  89 127 176 220 272 324 409
#     4  11  24  42  63 101 137 173 222 284 340 404
#     4  11  21  40  71  98 128 183 230 279 335 410
#     4  12  22  43  69  95 135 175 230 280 329 406
#     4  10  20  40  62  90 124 166 224 266 318 398
#
# _framework density 21.501884
#
# number of rings (size 3 to 8) (size 9 to 14) (size 15 to 20)
#    0.400    0.533    6.667    0.800    3.733    1.067 
#    1.200    3.333    0.000    0.000    0.000    0.000 
#    0.000    0.000    0.000    0.000    0.000    0.000 
#
# Total GULP energy -83573.804958 kJ/mol
# GULP energy per Si atom -5571.586997 kJ/mol
# Density = 2.145294 g / cm^3
# Si number density = 21.501884 Si / 1000 Ang^3
#
#
#
# Elastic Constant Matrix: (Units=GPa)
#
#
# Indices 1 2 3 4 5 6 
#
# 1 73.7375 14.6689 0.9997 0.0000 -14.9965 0.0000
# 2 14.6689 25.9010 0.0803 0.0000 -2.6649 0.0000
# 3 0.9997 0.0803 77.1683 0.0000 6.8512 0.0000
# 4 0.0000 0.0000 0.0000 25.2999 0.0000 -6.7762
# 5 -14.9965 -2.6649 6.8512 0.0000 37.5166 0.0000
# 6 0.0000 0.0000 0.0000 -6.7762 0.0000 22.1759
#
#
#
# Elastic Compliance Matrix: (Units=1/GPa)
#
#
# Indices 1 2 3 4 5 6 
#
# 1 0.016559 -0.008745 -0.000750 0.000000 0.006135 0.000000
# 2 -0.008745 0.043517 0.000106 0.000000 -0.000424 0.000000
# 3 -0.000750 0.000106 0.013208 0.000000 -0.002704 0.000000
# 4 0.000000 0.000000 0.000000 0.043049 0.000000 0.013154
# 5 0.006135 -0.000424 -0.002704 0.000000 0.029571 0.000000
# 6 0.000000 0.000000 0.000000 0.013154 0.000000 0.049113
#
#
# Mechanical properties :
#
#
# Convention : Reuss Voigt Hill
#
# Bulk Modulus (GPa) = 18.34650 23.14496 20.74573
# Shear Modulus (GPa) = 21.55496 27.73567 24.64532
#
# Velocity S-wave (km/s) = 3.16961 3.59544 3.38922
# Velocity P-wave (km/s) = 4.68469 5.29375 4.99850
#
# Compressibility (1/GPa) = 0.05450632
#
# Stress axis : x y z
#
# Youngs Moduli (GPa) = 60.38972 22.97950 75.70939
#
# Poissons Ratio (x) = 0.20095 0.05679
# Poissons Ratio (y) = 0.52809 -0.00799
# Poissons Ratio (z) = 0.04530 -0.00243
#
# Static dielectric constant tensor:
#      x y z
#    x 1.807440 0.000000 -0.020000 
#    y 0.000000 1.771580 0.000000 
#    z -0.020000 0.000000 1.816860 
# 
# From -- ./inp_files/30684.got.cif
#   From: 2010.05.17/outbox.cif.g08.bks.cpg/sg5_16_cif.got.tgz:30684.got - 2010.06.03 18:56:24.
