data_PCOD9123513
_publ_section_title
;
Structure prediction by ZEFSAII (Michael W. Deem and Ramdas Pophale) SiO2 
 PCOD9123513
Probable space group: C 2
;
_chemical_formula_sum "Si O2"
_cell_formula_units_Z 22
_cell_length_a 15.041313
_cell_length_b 5.534635
_cell_length_c 11.659856
_cell_angle_alpha 90.000000
_cell_angle_beta 106.890187
_cell_angle_gamma 90.000000
_cell_volume 928.790672
_symmetry_space_group_name_H-M "C 2"
_symmetry_group_IT_number 5
_symmetry_cell_setting 'monoclinic'
loop_
_space_group_symop_operation_xyz
x,y,z
-x,y,-z
1/2+x,1/2+y,z
1/2-x,1/2+y,-z
loop_
_atom_site_type_symbol
_atom_site_label
_atom_site_fract_x
_atom_site_fract_y
_atom_site_fract_z
Si Si1 0.638772 0.417570 0.222768
Si Si2 0.284471 0.977938 0.460812
Si Si3 0.194216 0.826745 0.987441
Si Si4 0.500000 0.387419 0.500000
Si Si5 0.562746 0.779653 0.353208
Si Si6 0.953810 0.670188 0.254851
O O1 0.739699 0.396006 0.322930
O O2 0.608291 0.684637 0.253468
O O3 0.555020 0.251224 0.241366
O O4 0.646596 0.375431 0.092094
O O5 0.250544 0.748349 0.525948
O O6 0.389769 0.979440 0.547486
O O7 0.121884 0.764508 0.860128
O O8 0.253727 0.578838 0.021069
O O9 0.560985 0.559849 0.441328
O O10 0.438539 0.267708 0.377310
O O11 0.463593 0.883232 0.277673
#
# Coordination Sequence:
#
# PCOD9123513 Si02
#       6
#     4   4   4   2   4   4
#     4  10  24  46  74 106 145 198 249 304 373 456
#     4  10  20  38  68 108 138 177 238 299 361 428
#     4  12  32  51  74 110 152 204 257 320 377 445
#     4  10  24  40  72 112 146 192 240 312 382 444
#     4  10  22  41  75 109 147 193 246 312 369 453
#     4  11  24  49  75 106 149 203 253 306 382 450
#
# _framework density 23.686715
#
# number of rings (size 3 to 8) (size 9 to 14) (size 15 to 20)
#    0.000    1.455    1.818    1.091   10.182    1.455 
#    3.273    0.000    0.000    0.000    0.000    0.000 
#    0.000    0.000    0.000    0.000    0.000    0.000 
#
# Total GULP energy -61289.652662 kJ/mol
# GULP energy per Si atom -5571.786606 kJ/mol
# Density = 2.363280 g / cm^3
# Si number density = 23.686715 Si / 1000 Ang^3
#
#
#
# Elastic Constant Matrix: (Units=GPa)
#
#
# Indices 1 2 3 4 5 6 
#
# 1 62.4731 32.5115 68.4848 0.0000 -5.2779 0.0000
# 2 32.5115 103.5783 75.4661 0.0000 -3.1606 0.0000
# 3 68.4848 75.4661 240.0828 0.0000 -7.0325 0.0000
# 4 0.0000 0.0000 0.0000 32.7938 0.0000 0.7852
# 5 -5.2779 -3.1606 -7.0325 0.0000 42.9988 0.0000
# 6 0.0000 0.0000 0.0000 0.7852 0.0000 35.8059
#
#
#
# Elastic Compliance Matrix: (Units=1/GPa)
#
#
# Indices 1 2 3 4 5 6 
#
# 1 0.024274 -0.003318 -0.005829 0.000000 0.001782 0.000000
# 2 -0.003318 0.012979 -0.003132 0.000000 0.000034 0.000000
# 3 -0.005829 -0.003132 0.006818 0.000000 0.000169 0.000000
# 4 0.000000 0.000000 0.000000 0.030510 0.000000 -0.000669
# 5 0.001782 0.000034 0.000169 0.000000 0.023505 0.000000
# 6 0.000000 0.000000 0.000000 -0.000669 0.000000 0.027943
#
#
# Mechanical properties :
#
#
# Convention : Reuss Voigt Hill
#
# Bulk Modulus (GPa) = 51.24977 84.33989 67.79483
# Shear Modulus (GPa) = 31.82847 37.63115 34.72981
#
# Velocity S-wave (km/s) = 3.66966 3.99018 3.83327
# Velocity P-wave (km/s) = 6.29593 7.54403 6.94806
#
# Compressibility (1/GPa) = 0.01951228
#
# Stress axis : x y z
#
# Youngs Moduli (GPa) = 41.19591 77.04632 146.67865
#
# Poissons Ratio (x) = 0.25562 0.85503
# Poissons Ratio (y) = 0.13668 0.45945
# Poissons Ratio (z) = 0.24014 0.24134
#
# Static dielectric constant tensor:
#      x y z
#    x 2.130240 0.000000 0.053180 
#    y 0.000000 2.027390 0.000000 
#    z 0.053180 0.000000 1.852810 
# 
# From -- ./inp_files/43795.got.cif
#   From: 2010.05.17/outbox.cif.g08.bks.cpg/sg5_22_cif.got.tgz:43795.got - 2010.06.03 18:56:24.
