data_PCOD9123002
_publ_section_title
;
Structure prediction by ZEFSAII (Michael W. Deem and Ramdas Pophale) SiO2 
 PCOD9123002
Probable space group: C 2
;
_chemical_formula_sum "Si O2"
_cell_formula_units_Z 20
_cell_length_a 19.761927
_cell_length_b 9.118627
_cell_length_c 14.084493
_cell_angle_alpha 90.000000
_cell_angle_beta 17.125740
_cell_angle_gamma 90.000000
_cell_volume 747.378413
_symmetry_space_group_name_H-M "C 2"
_symmetry_group_IT_number 5
_symmetry_cell_setting 'monoclinic'
loop_
_space_group_symop_operation_xyz
x,y,z
-x,y,-z
1/2+x,1/2+y,z
1/2-x,1/2+y,-z
loop_
_atom_site_type_symbol
_atom_site_label
_atom_site_fract_x
_atom_site_fract_y
_atom_site_fract_z
Si Si1 0.750391 0.377650 0.695062
Si Si2 0.518234 0.829098 0.084992
Si Si3 0.760621 0.474027 0.049005
Si Si4 0.148629 0.785729 0.032015
Si Si5 0.249550 0.626262 0.552647
O O1 0.758471 0.371593 0.797051
O O2 0.741822 0.211570 0.662754
O O3 0.977267 0.451314 0.345756
O O4 0.500000 0.439777 0.000000
O O5 0.726662 0.907363 0.861850
O O6 0.482632 0.680754 0.192409
O O7 0.324922 0.959486 0.349728
O O8 0.500000 0.791719 0.000000
O O9 0.609478 0.386974 0.175575
O O10 0.706834 0.645107 0.127030
O O11 0.932024 0.708358 0.272804
#
# Coordination Sequence:
#
# PCOD9123002 Si02
#       5
#     4   4   4   4   4
#     4   9  18  37  65  86 111 156 197 242 295 339
#     4  10  20  39  59  82 115 151 196 244 285 338
#     4  10  21  37  60  90 119 155 197 236 293 355
#     4  10  20  37  57  87 124 151 190 242 290 349
#     4   9  19  36  60  85 111 149 198 240 285 345
#
# _framework density 26.760204999999999
#
# number of rings (size 3 to 8) (size 9 to 14) (size 15 to 20)
#    0.000    2.400    0.000    3.600    0.000    3.200 
#    0.000   33.000    0.000    0.000    0.000    1.400 
#    0.000    0.000    0.000    0.000    0.000    0.000 
#
# Total GULP energy -55913.251262 kJ/mol
# GULP energy per Si atom -5591.325126 kJ/mol
# Density = 2.669930 g / cm^3
# Si number density = 26.760205 Si / 1000 Ang^3
#
#
#
# Elastic Constant Matrix: (Units=GPa)
#
#
# Indices 1 2 3 4 5 6 
#
# 1 182.4386 34.3006 18.1635 -0.0007 12.3013 0.0003
# 2 34.3006 94.2418 20.4846 -0.0007 9.2466 0.0003
# 3 18.1635 20.4846 64.7912 -0.0023 -11.8118 0.0013
# 4 -0.0007 -0.0007 -0.0023 25.2985 0.0013 -4.7719
# 5 12.3013 9.2466 -11.8118 0.0013 60.4563 -0.0006
# 6 0.0003 0.0003 0.0013 -4.7719 -0.0006 42.9618
#
#
#
# Elastic Compliance Matrix: (Units=1/GPa)
#
#
# Indices 1 2 3 4 5 6 
#
# 1 0.006033 -0.001783 -0.001350 0.000000 -0.001219 0.000000
# 2 -0.001783 0.012309 -0.003804 0.000000 -0.002263 0.000000
# 3 -0.001350 -0.003804 0.017806 0.000001 0.004335 0.000000
# 4 0.000000 0.000000 0.000001 0.040374 -0.000001 0.004484
# 5 -0.001219 -0.002263 0.004335 -0.000001 0.017982 0.000000
# 6 0.000000 0.000000 0.000000 0.004484 0.000000 0.023775
#
#
# Mechanical properties :
#
#
# Convention : Reuss Voigt Hill
#
# Bulk Modulus (GPa) = 44.89616 54.15213 49.52414
# Shear Modulus (GPa) = 35.82258 43.64485 39.73372
#
# Velocity S-wave (km/s) = 3.66273 4.04290 3.85750
# Velocity P-wave (km/s) = 5.89076 6.48640 6.19574
#
# Compressibility (1/GPa) = 0.02227362
#
# Stress axis : x y z
#
# Youngs Moduli (GPa) = 165.75380 81.24220 56.16157
#
# Poissons Ratio (x) = 0.14484 0.07581
# Poissons Ratio (y) = 0.29551 0.21366
# Poissons Ratio (z) = 0.22373 0.30908
#
# Static dielectric constant tensor:
#      x y z
#    x 2.062510 0.000000 -0.003710 
#    y 0.000000 2.039930 0.000000 
#    z -0.003710 0.000000 2.287200 
# 
# From -- ./inp_files/18726.got.cif
#   From: 2010.05.17/outbox.cif.g08.bks.cpg/sg5_10_cif.got.tgz:18726.got - 2010.06.03 18:56:24.
