data_PCOD9123870
_publ_section_title
;
Structure prediction by ZEFSAII (Michael W. Deem and Ramdas Pophale) SiO2 
 PCOD9123870
Probable space group: C 2
;
_chemical_formula_sum "Si O2"
_cell_formula_units_Z 22
_cell_length_a 10.400804
_cell_length_b 19.943613
_cell_length_c 7.723187
_cell_angle_alpha 90.000000
_cell_angle_beta 42.421953
_cell_angle_gamma 90.000000
_cell_volume 1080.697534
_symmetry_space_group_name_H-M "C 2"
_symmetry_group_IT_number 5
_symmetry_cell_setting 'monoclinic'
loop_
_space_group_symop_operation_xyz
x,y,z
-x,y,-z
1/2+x,1/2+y,z
1/2-x,1/2+y,-z
loop_
_atom_site_type_symbol
_atom_site_label
_atom_site_fract_x
_atom_site_fract_y
_atom_site_fract_z
Si Si1 0.937743 0.371520 0.304628
Si Si2 0.000000 0.611980 0.500000
Si Si3 0.500000 0.772161 0.000000
Si Si4 0.500000 0.586579 0.500000
Si Si5 0.297322 0.327557 0.133909
Si Si6 0.136258 0.526448 0.696481
Si Si7 0.272825 0.689457 0.966041
O O1 0.859632 0.326194 0.224929
O O2 0.833490 0.338745 0.569968
O O3 0.894263 0.448538 0.315822
O O4 0.165997 0.362935 0.116610
O O5 0.910064 0.566996 0.434606
O O6 0.857435 0.658024 0.754068
O O7 0.439599 0.726288 0.903896
O O8 0.352109 0.542993 0.536300
O O9 0.366352 0.633825 0.751320
O O10 0.500000 0.354484 0.000000
O O11 0.320522 0.250141 0.050643
O O12 0.000000 0.543174 0.000000
#
# Coordination Sequence:
#
# PCOD9123870 Si02
#       7
#     4   2   2   2   4   4   4
#     4  10  22  45  67  97 140 180 233 293 352 416
#     4  12  26  44  74 104 148 190 236 294 356 428
#     4  10  20  40  66  96 138 176 228 292 354 414
#     4  12  26  48  72 102 146 194 240 296 354 422
#     4  10  23  41  70 102 133 181 230 294 357 418
#     4  12  26  49  72 102 146 193 241 298 348 427
#     4  11  24  41  70 105 143 183 239 292 361 427
#
# _framework density 20.357220999999999
#
# number of rings (size 3 to 8) (size 9 to 14) (size 15 to 20)
#    0.000    1.091    2.727    4.364    5.091    1.455 
#    3.273    0.000    0.000    0.000    0.000    0.000 
#    0.000    0.000    0.000    0.000    0.000    0.000 
#
# Total GULP energy -61248.827266 kJ/mol
# GULP energy per Si atom -5568.075206 kJ/mol
# Density = 2.031089 g / cm^3
# Si number density = 20.357221 Si / 1000 Ang^3
#
#
#
# Elastic Constant Matrix: (Units=GPa)
#
#
# Indices 1 2 3 4 5 6 
#
# 1 127.8973 51.7915 33.8940 0.0000 8.8290 0.0000
# 2 51.7915 135.2473 43.7913 0.0000 2.4747 0.0000
# 3 33.8940 43.7913 110.0387 0.0000 19.4022 0.0000
# 4 0.0000 0.0000 0.0000 48.5339 0.0000 33.8212
# 5 8.8290 2.4747 19.4022 0.0000 36.6259 0.0000
# 6 0.0000 0.0000 0.0000 33.8212 0.0000 60.3190
#
#
#
# Elastic Compliance Matrix: (Units=1/GPa)
#
#
# Indices 1 2 3 4 5 6 
#
# 1 0.009581 -0.003174 -0.001455 0.000000 -0.001325 0.000000
# 2 -0.003174 0.009599 -0.003158 0.000000 0.001789 0.000000
# 3 -0.001455 -0.003158 0.011795 0.000000 -0.005684 0.000000
# 4 0.000000 0.000000 0.000000 0.033818 0.000000 -0.018962
# 5 -0.001325 0.001789 -0.005684 0.000000 0.030513 0.000000
# 6 0.000000 0.000000 0.000000 -0.018962 0.000000 0.027211
#
#
# Mechanical properties :
#
#
# Convention : Reuss Voigt Hill
#
# Bulk Modulus (GPa) = 64.92594 70.23745 67.58170
# Shear Modulus (GPa) = 34.91082 45.34284 40.12683
#
# Velocity S-wave (km/s) = 4.14564 4.72461 4.44456
# Velocity P-wave (km/s) = 7.40795 8.02122 7.72067
#
# Compressibility (1/GPa) = 0.01540216
#
# Stress axis : x y z
#
# Youngs Moduli (GPa) = 104.37490 104.17789 84.78361
#
# Poissons Ratio (x) = 0.33063 0.12332
# Poissons Ratio (y) = 0.33125 0.26775
# Poissons Ratio (z) = 0.15181 0.32899
#
# Static dielectric constant tensor:
#      x y z
#    x 1.834070 0.000000 -0.041320 
#    y 0.000000 1.738850 0.000000 
#    z -0.041320 0.000000 1.615050 
# 
# From -- ./inp_files/21163.got.cif
#   From: 2010.05.17/outbox.cif.g08.bks.cpg/sg5_11_cif.got.tgz:21163.got - 2010.06.03 18:56:24.
