data_PCOD9123823
_publ_section_title
;
Structure prediction by ZEFSAII (Michael W. Deem and Ramdas Pophale) SiO2 
 PCOD9123823
Probable space group: C 2
;
_chemical_formula_sum "Si O2"
_cell_formula_units_Z 30
_cell_length_a 15.176927
_cell_length_b 9.526678
_cell_length_c 19.115635
_cell_angle_alpha 90.000000
_cell_angle_beta 30.972744
_cell_angle_gamma 90.000000
_cell_volume 1422.359496
_symmetry_space_group_name_H-M "C 2"
_symmetry_group_IT_number 5
_symmetry_cell_setting 'monoclinic'
loop_
_space_group_symop_operation_xyz
x,y,z
-x,y,-z
1/2+x,1/2+y,z
1/2-x,1/2+y,-z
loop_
_atom_site_type_symbol
_atom_site_label
_atom_site_fract_x
_atom_site_fract_y
_atom_site_fract_z
Si Si1 0.296617 0.354400 0.889212
Si Si2 0.185845 0.409113 0.353857
Si Si3 0.833437 0.915568 0.405996
Si Si4 0.925204 0.228798 0.331127
Si Si5 0.500000 0.861797 0.000000
Si Si6 0.339267 0.676556 0.229727
Si Si7 0.319985 0.532092 0.014468
Si Si8 0.202817 0.790273 0.864247
O O1 0.470602 0.361541 0.725846
O O2 0.257738 0.189011 0.930215
O O3 0.290110 0.437569 0.966683
O O4 0.142861 0.428057 0.950997
O O5 0.289503 0.394969 0.354647
O O6 0.174507 0.576744 0.342354
O O7 0.250296 0.312441 0.247847
O O8 0.000000 0.357702 0.500000
O O9 0.685517 0.846567 0.553564
O O10 0.844826 0.081581 0.410130
O O11 0.886791 0.241183 0.273467
O O12 0.129203 0.221088 0.211109
O O13 0.380161 0.776149 0.136881
O O14 0.478871 0.555752 0.123748
O O15 0.285295 0.442604 0.106603
O O16 0.000000 0.743833 0.000000
#
# Coordination Sequence:
#
# PCOD9123823 Si02
#       8
#     4   4   4   4   2   4   4   4
#     4  11  23  43  66  98 139 179 229 292 343 411
#     4  11  20  37  64  99 133 171 231 282 327 404
#     4  11  25  46  66  98 138 186 230 285 345 417
#     4  11  25  44  71 100 137 185 233 277 355 412
#     4  10  22  38  66  96 138 170 228 286 342 404
#     4  10  20  40  64  97 134 171 230 278 337 413
#     4  11  22  38  69  99 134 174 231 283 351 396
#     4  12  22  39  72 107 131 180 236 290 333 412
#
# _framework density 21.091712999999999
#
# number of rings (size 3 to 8) (size 9 to 14) (size 15 to 20)
#    0.000    1.067    5.333    3.200    2.800    2.133 
#    1.200    0.000    2.933    0.000    0.000    0.000 
#    0.000    0.000    0.000    0.000    0.000    0.000 
#
# Total GULP energy -83525.727975 kJ/mol
# GULP energy per Si atom -5568.381865 kJ/mol
# Density = 2.104371 g / cm^3
# Si number density = 21.091713 Si / 1000 Ang^3
#
#
#
# Elastic Constant Matrix: (Units=GPa)
#
#
# Indices 1 2 3 4 5 6 
#
# 1 69.2419 14.4685 13.9546 0.0002 -3.6269 -0.0001
# 2 14.4685 62.7522 19.5755 -0.0020 -0.1562 0.0010
# 3 13.9546 19.5755 110.5101 -0.0015 -2.4602 0.0010
# 4 0.0002 -0.0020 -0.0015 61.0768 0.0011 28.5751
# 5 -3.6269 -0.1562 -2.4602 0.0011 35.1370 -0.0008
# 6 -0.0001 0.0010 0.0010 28.5751 -0.0008 9.0728
#
#
#
# Elastic Compliance Matrix: (Units=1/GPa)
#
#
# Indices 1 2 3 4 5 6 
#
# 1 0.015449 -0.003133 -0.001363 0.000001 0.001485 -0.000003
# 2 -0.003133 0.017504 -0.002715 -0.000003 -0.000436 0.000007
# 3 -0.001363 -0.002715 0.009714 -0.000001 0.000527 0.000003
# 4 0.000001 -0.000003 -0.000001 -0.034576 0.000004 0.108899
# 5 0.001485 -0.000436 0.000527 0.000004 0.028648 -0.000009
# 6 -0.000003 0.000007 0.000003 0.108899 -0.000009 -0.232761
#
#
# Mechanical properties :
#
#
# Convention : Reuss Voigt Hill
#
# Bulk Modulus (GPa) = 35.40396 37.61129 36.50763
# Shear Modulus (GPa) = -29.03845 34.02434 2.49294
#
# Velocity S-wave (km/s) = -3.71451 4.02078 1.08836
# Velocity P-wave (km/s) = 1.25484 6.27905 4.35039
#
# Compressibility (1/GPa) = 0.02824542
#
# Stress axis : x y z
#
# Youngs Moduli (GPa) = 64.72793 57.13023 102.94801
#
# Poissons Ratio (x) = 0.17900 0.14029
# Poissons Ratio (y) = 0.20281 0.27947
# Poissons Ratio (z) = 0.08821 0.15509
#
# Static dielectric constant tensor:
#      x y z
#    x 1.755790 0.000000 0.122410 
#    y 0.000000 1.799650 0.000000 
#    z 0.122410 0.000000 1.545810 
# 
# From -- ./inp_files/61635.got.cif
#   From: 2010.05.17/outbox.cif.g08.bks.cpg/sg5_31_cif.got.tgz:61635.got - 2010.06.03 18:56:24.
