data_PCOD9123902
_publ_section_title
;
Structure prediction by ZEFSAII (Michael W. Deem and Ramdas Pophale) SiO2 
 PCOD9123902
Probable space group: C 2
;
_chemical_formula_sum "Si O2"
_cell_formula_units_Z 30
_cell_length_a 11.701801
_cell_length_b 12.846724
_cell_length_c 21.910875
_cell_angle_alpha 90.000000
_cell_angle_beta 27.843454
_cell_angle_gamma 90.000000
_cell_volume 1538.420533
_symmetry_space_group_name_H-M "C 2"
_symmetry_group_IT_number 5
_symmetry_cell_setting 'monoclinic'
loop_
_space_group_symop_operation_xyz
x,y,z
-x,y,-z
1/2+x,1/2+y,z
1/2-x,1/2+y,-z
loop_
_atom_site_type_symbol
_atom_site_label
_atom_site_fract_x
_atom_site_fract_y
_atom_site_fract_z
Si Si1 0.007674 0.457290 0.600623
Si Si2 0.000000 0.287714 0.500000
Si Si3 0.805496 0.671080 0.269175
Si Si4 0.251442 0.976537 0.147981
Si Si5 0.131529 0.127914 0.615398
Si Si6 0.026089 0.884686 0.139281
Si Si7 0.505458 0.947455 0.153618
Si Si8 0.720475 0.858019 0.620784
O O1 0.062583 0.364203 0.526481
O O2 0.135819 0.559927 0.514323
O O3 0.116647 0.426008 0.614279
O O4 0.715015 0.456320 0.745148
O O5 0.224922 0.216230 0.372563
O O6 0.549554 0.646671 0.356303
O O7 0.965214 0.567554 0.192069
O O8 0.935904 0.766643 0.172908
O O9 0.152977 0.893767 0.145795
O O10 0.330195 0.933083 0.176898
O O11 0.500000 0.021789 0.000000
O O12 0.039484 0.060498 0.258634
O O13 0.203480 0.237964 0.609249
O O14 0.223131 0.922025 0.997348
O O15 0.426147 0.878458 0.247967
O O16 0.000000 0.888388 0.500000
#
# Coordination Sequence:
#
# PCOD9123902 Si02
#       8
#     4   2   4   4   4   4   4   4
#     4  11  24  42  64  92 125 169 212 260 305 386
#     4  10  20  40  68  86 122 166 214 256 292 390
#     4  10  21  40  68  92 119 174 213 249 323 375
#     4   9  20  40  67  90 121 169 211 254 305 378
#     4  11  22  40  62  95 127 165 210 258 325 365
#     4  10  21  44  69  90 124 169 220 253 303 384
#     4  10  24  41  66  93 130 162 205 269 315 375
#     4  12  26  39  58  98 132 159 204 268 325 367
#
# _framework density 19.500519000000001
#
# number of rings (size 3 to 8) (size 9 to 14) (size 15 to 20)
#    0.000    1.600    2.667    3.200    5.600    3.733 
#    0.000    0.000    5.867    0.000    0.000    0.000 
#    0.000    0.000    0.000    0.000    0.000    0.000 
#
# Total GULP energy -83768.655588 kJ/mol
# GULP energy per Si atom -5584.577039 kJ/mol
# Density = 1.945613 g / cm^3
# Si number density = 19.500519 Si / 1000 Ang^3
#
#
#
# Elastic Constant Matrix: (Units=GPa)
#
#
# Indices 1 2 3 4 5 6 
#
# 1 79.5402 20.5247 56.9401 -0.0017 10.0638 0.0001
# 2 20.5247 106.1590 74.0544 -0.0016 0.7745 -0.0003
# 3 56.9401 74.0544 165.1788 -0.0084 2.1008 -0.0045
# 4 -0.0017 -0.0016 -0.0084 28.2010 0.0005 -9.1733
# 5 10.0638 0.7745 2.1008 0.0005 34.8243 0.0011
# 6 0.0001 -0.0003 -0.0045 -9.1733 0.0011 23.8374
#
#
#
# Elastic Compliance Matrix: (Units=1/GPa)
#
#
# Indices 1 2 3 4 5 6 
#
# 1 0.017523 0.001191 -0.006515 -0.000001 -0.004697 -0.000002
# 2 0.001191 0.013788 -0.006589 -0.000002 -0.000253 -0.000002
# 3 -0.006515 -0.006589 0.011236 0.000004 0.001351 0.000003
# 4 -0.000001 -0.000002 0.000004 0.040534 -0.000001 0.015598
# 5 -0.004697 -0.000253 0.001351 -0.000001 0.029997 -0.000001
# 6 -0.000002 -0.000002 0.000003 0.015598 -0.000001 0.047954
#
#
# Mechanical properties :
#
#
# Convention : Reuss Voigt Hill
#
# Bulk Modulus (GPa) = 53.41274 72.65738 63.03506
# Shear Modulus (GPa) = 26.16475 30.66312 28.41393
#
# Velocity S-wave (km/s) = 3.66696 3.96968 3.82132
# Velocity P-wave (km/s) = 6.73637 7.63880 7.20173
#
# Compressibility (1/GPa) = 0.01872212
#
# Stress axis : x y z
#
# Youngs Moduli (GPa) = 57.06816 72.52912 88.99600
#
# Poissons Ratio (x) = -0.08637 0.57978
# Poissons Ratio (y) = -0.06796 0.58636
# Poissons Ratio (z) = 0.37178 0.47787
#
# Static dielectric constant tensor:
#      x y z
#    x 1.699100 0.000000 0.006460 
#    y 0.000000 1.675360 0.000000 
#    z 0.006460 0.000000 1.683730 
# 
# From -- ./inp_files/65304.got.cif
#   From: 2010.05.17/outbox.cif.g08.bks.cpg/sg5_33_cif.got.tgz:65304.got - 2010.06.03 18:56:24.
