data_PCOD9123774
_publ_section_title
;
Structure prediction by ZEFSAII (Michael W. Deem and Ramdas Pophale) SiO2 
 PCOD9123774
Probable space group: C 2
;
_chemical_formula_sum "Si O2"
_cell_formula_units_Z 22
_cell_length_a 20.124929
_cell_length_b 7.902387
_cell_length_c 9.565244
_cell_angle_alpha 90.000000
_cell_angle_beta 142.952245
_cell_angle_gamma 90.000000
_cell_volume 916.498318
_symmetry_space_group_name_H-M "C 2"
_symmetry_group_IT_number 5
_symmetry_cell_setting 'monoclinic'
loop_
_space_group_symop_operation_xyz
x,y,z
-x,y,-z
1/2+x,1/2+y,z
1/2-x,1/2+y,-z
loop_
_atom_site_type_symbol
_atom_site_label
_atom_site_fract_x
_atom_site_fract_y
_atom_site_fract_z
Si Si1 0.000000 0.661901 0.000000
Si Si2 0.149015 0.097462 0.515064
Si Si3 0.022541 0.841859 0.751763
Si Si4 0.228294 0.292586 0.913906
Si Si5 0.201625 0.440608 0.445509
Si Si6 0.685737 0.123937 0.699199
O O1 0.963694 0.777612 0.067195
O O2 0.099084 0.542691 0.212348
O O3 0.197855 0.150835 0.747160
O O4 0.166270 0.258604 0.443907
O O5 0.026748 0.029907 0.333919
O O6 0.208655 0.947485 0.526967
O O7 0.927543 0.722586 0.524088
O O8 0.141358 0.829449 0.883309
O O9 0.163597 0.461570 0.762542
O O10 0.223913 0.233248 0.065860
O O11 0.235063 0.543466 0.641020
#
# Coordination Sequence:
#
# PCOD9123774 Si02
#       6
#     2   4   4   4   4   4
#     4  10  20  40  62  96 132 170 216 264 338 368
#     4  11  23  41  68  94 137 170 225 268 335 387
#     4  11  23  42  66  93 132 176 214 275 321 396
#     4  11  23  45  66  95 131 179 213 277 328 394
#     4  10  21  41  62 101 132 173 217 278 317 407
#     4  10  23  40  67  92 129 167 225 261 330 383
#
# _framework density 24.004411000000001
#
# number of rings (size 3 to 8) (size 9 to 14) (size 15 to 20)
#    0.000    1.455    1.818    3.818    2.545    0.727 
#    3.273    7.273    0.000    0.000    0.000    0.000 
#    0.000    0.000    0.000    0.000    0.000    0.000 
#
# Total GULP energy -61588.495202 kJ/mol
# GULP energy per Si atom -5598.954109 kJ/mol
# Density = 2.394978 g / cm^3
# Si number density = 24.004411 Si / 1000 Ang^3
#
#
#
# Elastic Constant Matrix: (Units=GPa)
#
#
# Indices 1 2 3 4 5 6 
#
# 1 59.7485 26.1149 43.9520 0.0000 3.6896 0.0000
# 2 26.1149 116.4652 54.8127 0.0000 -6.8713 0.0000
# 3 43.9520 54.8127 121.9048 0.0000 -24.2292 0.0000
# 4 0.0000 0.0000 0.0000 48.0180 0.0000 -1.8946
# 5 3.6896 -6.8713 -24.2292 0.0000 38.8115 0.0000
# 6 0.0000 0.0000 0.0000 -1.8946 0.0000 29.1909
#
#
#
# Elastic Compliance Matrix: (Units=1/GPa)
#
#
# Indices 1 2 3 4 5 6 
#
# 1 0.025576 -0.001367 -0.010432 0.000000 -0.009186 0.000000
# 2 -0.001367 0.011021 -0.004622 0.000000 -0.000805 0.000000
# 3 -0.010432 -0.004622 0.016071 0.000000 0.010206 0.000000
# 4 0.000000 0.000000 0.000000 0.020879 0.000000 0.001355
# 5 -0.009186 -0.000805 0.010206 0.000000 0.032868 0.000000
# 6 0.000000 0.000000 0.000000 0.001355 0.000000 0.034345
#
#
# Mechanical properties :
#
#
# Convention : Reuss Voigt Hill
#
# Bulk Modulus (GPa) = 50.44244 60.87530 55.65887
# Shear Modulus (GPa) = 27.74515 34.75335 31.24925
#
# Velocity S-wave (km/s) = 3.40345 3.80911 3.61198
# Velocity P-wave (km/s) = 6.04186 6.69036 6.37436
#
# Compressibility (1/GPa) = 0.01982458
#
# Stress axis : x y z
#
# Youngs Moduli (GPa) = 39.09955 90.73783 62.22237
#
# Poissons Ratio (x) = 0.12404 0.64912
# Poissons Ratio (y) = 0.05345 0.28762
# Poissons Ratio (z) = 0.40790 0.41942
#
# Static dielectric constant tensor:
#      x y z
#    x 1.934900 0.000000 -0.032460 
#    y 0.000000 1.996560 0.000000 
#    z -0.032460 0.000000 1.899920 
# 
# From -- ./inp_files/22652.got.cif
#   From: 2010.05.17/outbox.cif.g08.bks.cpg/sg5_12_cif.got.tgz:22652.got - 2010.06.03 18:56:24.
