data_PCOD9123944
_publ_section_title
;
Structure prediction by ZEFSAII (Michael W. Deem and Ramdas Pophale) SiO2 
 PCOD9123944
Probable space group: C 2
;
_chemical_formula_sum "Si O2"
_cell_formula_units_Z 22
_cell_length_a 9.326193
_cell_length_b 17.575992
_cell_length_c 7.937986
_cell_angle_alpha 90.000000
_cell_angle_beta 130.126484
_cell_angle_gamma 90.000000
_cell_volume 994.906487
_symmetry_space_group_name_H-M "C 2"
_symmetry_group_IT_number 5
_symmetry_cell_setting 'monoclinic'
loop_
_space_group_symop_operation_xyz
x,y,z
-x,y,-z
1/2+x,1/2+y,z
1/2-x,1/2+y,-z
loop_
_atom_site_type_symbol
_atom_site_label
_atom_site_fract_x
_atom_site_fract_y
_atom_site_fract_z
Si Si1 0.500000 0.957051 0.000000
Si Si2 0.026413 0.762677 0.714676
Si Si3 0.689083 0.525788 0.534363
Si Si4 0.158031 0.196553 0.477536
Si Si5 0.390686 0.817598 0.152308
Si Si6 0.656360 0.398551 0.253811
O O1 0.585213 0.895870 0.932110
O O2 0.352843 0.010555 0.793161
O O3 0.000000 0.741696 0.500000
O O4 0.870502 0.713809 0.694051
O O5 0.952944 0.847713 0.692238
O O6 0.233756 0.764147 0.945964
O O7 0.500000 0.510927 0.500000
O O8 0.667343 0.608674 0.432717
O O9 0.732515 0.468110 0.415931
O O10 0.000000 0.196512 0.500000
O O11 0.079249 0.266346 0.303408
O O12 0.305970 0.847022 0.266235
O O13 0.500000 0.422349 0.000000
#
# Coordination Sequence:
#
# PCOD9123944 Si02
#       6
#     2   4   4   4   4   4
#     4  12  26  44  74 100 134 190 234 288 344 430
#     4  11  22  41  66 100 136 176 231 286 335 410
#     4  11  25  45  66  99 146 180 225 285 360 410
#     4  11  24  42  67 100 138 186 222 288 349 416
#     4  11  23  41  73  99 130 180 244 278 340 410
#     4  10  20  40  70  98 129 180 228 285 333 415
#
# _framework density 22.112632999999999
#
# number of rings (size 3 to 8) (size 9 to 14) (size 15 to 20)
#    0.000    1.091    1.818    6.000    0.000    2.909 
#    8.182    0.000    0.000    0.000    0.000    0.000 
#    0.000    0.000    0.000    0.000    0.000    0.000 
#
# Total GULP energy -61369.684730 kJ/mol
# GULP energy per Si atom -5579.062248 kJ/mol
# Density = 2.206230 g / cm^3
# Si number density = 22.112633 Si / 1000 Ang^3
#
#
#
# Elastic Constant Matrix: (Units=GPa)
#
#
# Indices 1 2 3 4 5 6 
#
# 1 60.0548 10.5945 28.9784 0.0000 6.8573 0.0000
# 2 10.5945 71.4658 32.3366 0.0000 -5.6538 0.0000
# 3 28.9784 32.3366 141.2648 0.0000 28.9730 0.0000
# 4 0.0000 0.0000 0.0000 16.4197 0.0000 9.4991
# 5 6.8573 -5.6538 28.9730 0.0000 33.7238 0.0000
# 6 0.0000 0.0000 0.0000 9.4991 0.0000 5.3010
#
#
#
# Elastic Compliance Matrix: (Units=1/GPa)
#
#
# Indices 1 2 3 4 5 6 
#
# 1 0.018603 -0.001385 -0.003248 0.000000 -0.001224 0.000000
# 2 -0.001385 0.017159 -0.005209 0.000000 0.007634 0.000000
# 3 -0.003248 -0.005209 0.010902 0.000000 -0.009579 0.000000
# 4 0.000000 0.000000 0.000000 -1.661197 0.000000 2.976750
# 5 -0.001224 0.007634 -0.009579 0.000000 0.039411 0.000000
# 6 0.000000 0.000000 0.000000 2.976750 0.000000 -5.145487
#
#
# Mechanical properties :
#
#
# Convention : Reuss Voigt Hill
#
# Bulk Modulus (GPa) = 37.06514 46.28937 41.67726
# Shear Modulus (GPa) = -0.74717 24.48064 11.86674
#
# Velocity S-wave (km/s) = -0.58192 3.33090 2.31908
# Velocity P-wave (km/s) = 4.04313 5.98098 5.10485
#
# Compressibility (1/GPa) = 0.02697953
#
# Stress axis : x y z
#
# Youngs Moduli (GPa) = 53.75526 58.27808 91.72327
#
# Poissons Ratio (x) = 0.08072 0.29791
# Poissons Ratio (y) = 0.07445 0.47783
# Poissons Ratio (z) = 0.17459 0.30360
#
# Static dielectric constant tensor:
#      x y z
#    x 1.882000 0.000000 -0.016850 
#    y 0.000000 1.809100 0.000000 
#    z -0.016850 0.000000 1.852890 
# 
# From -- ./inp_files/16223.got.cif
#   From: 2010.05.17/outbox.cif.g08.bks.cpg/sg5_9_cif.got.tgz:16223.got - 2010.06.03 18:56:24.
