data_PCOD9123450
_publ_section_title
;
Structure prediction by ZEFSAII (Michael W. Deem and Ramdas Pophale) SiO2 
 PCOD9123450
Probable space group: C 2
;
_chemical_formula_sum "Si O2"
_cell_formula_units_Z 32
_cell_length_a 14.805576
_cell_length_b 11.149440
_cell_length_c 9.183183
_cell_angle_alpha 90.000000
_cell_angle_beta 90.483196
_cell_angle_gamma 90.000000
_cell_volume 1515.849754
_symmetry_space_group_name_H-M "C 2"
_symmetry_group_IT_number 5
_symmetry_cell_setting 'monoclinic'
loop_
_space_group_symop_operation_xyz
x,y,z
-x,y,-z
1/2+x,1/2+y,z
1/2-x,1/2+y,-z
loop_
_atom_site_type_symbol
_atom_site_label
_atom_site_fract_x
_atom_site_fract_y
_atom_site_fract_z
Si Si1 0.416829 0.926120 0.320737
Si Si2 0.396419 0.997154 0.003603
Si Si3 0.103929 0.007466 0.961067
Si Si4 0.711047 0.035293 0.479089
Si Si5 0.374577 0.862541 0.722611
Si Si6 0.196225 0.199471 0.751739
Si Si7 0.194329 0.118080 0.240190
Si Si8 0.822146 0.748389 0.023453
O O1 0.524598 0.910143 0.313787
O O2 0.368400 0.795632 0.329991
O O3 0.374011 0.972011 0.168938
O O4 0.384653 0.023967 0.437885
O O5 0.384217 0.136844 0.972987
O O6 0.500000 0.959648 0.000000
O O7 0.349574 0.917820 0.880200
O O8 0.160362 0.039447 0.106462
O O9 0.138388 0.094630 0.832171
O O10 0.000000 0.029101 0.000000
O O11 0.124405 0.867887 0.937149
O O12 0.736377 0.138434 0.364562
O O13 0.779627 0.046924 0.614566
O O14 0.702020 0.913620 0.385555
O O15 0.378711 0.720183 0.723049
O O16 0.252246 0.258636 0.886622
O O17 0.272580 0.199369 0.167508
#
# Coordination Sequence:
#
# PCOD9123450 Si02
#       8
#     4   4   4   4   4   4   4   4
#     4  11  23  42  66  93 126 167 214 267 315 369
#     4  10  20  38  65  95 124 163 217 268 318 373
#     4  11  24  43  66  94 125 164 208 261 323 376
#     4  12  23  40  61  96 126 168 204 256 315 378
#     4  11  23  42  66  93 126 167 214 267 315 369
#     4  11  24  39  67  94 127 163 214 260 314 376
#     4  11  24  39  67  94 127 163 214 260 314 376
#     4  11  21  39  64  95 129 167 205 263 320 371
#
# _framework density 21.110271000000001
#
# number of rings (size 3 to 8) (size 9 to 14) (size 15 to 20)
#    0.000    1.000    2.500    5.250    3.500    1.000 
#    0.000    1.875    0.000    0.000    0.000    0.000 
#    0.000    0.000    0.000    0.000    0.000    0.000 
#
# Total GULP energy -89242.448076 kJ/mol
# GULP energy per Si atom -5577.653005 kJ/mol
# Density = 2.106222 g / cm^3
# Si number density = 21.110271 Si / 1000 Ang^3
#
#
#
# Elastic Constant Matrix: (Units=GPa)
#
#
# Indices 1 2 3 4 5 6 
#
# 1 51.4559 28.4072 39.9615 0.0000 -8.7571 0.0000
# 2 28.4072 93.8512 33.5672 0.0000 2.5545 0.0000
# 3 39.9615 33.5672 123.3477 0.0000 -3.7808 0.0000
# 4 0.0000 0.0000 0.0000 31.2904 0.0000 -0.8778
# 5 -8.7571 2.5545 -3.7808 0.0000 30.5327 0.0000
# 6 0.0000 0.0000 0.0000 -0.8778 0.0000 36.7560
#
#
#
# Elastic Compliance Matrix: (Units=1/GPa)
#
#
# Indices 1 2 3 4 5 6 
#
# 1 0.030657 -0.006699 -0.007852 0.000000 0.008381 0.000000
# 2 -0.006699 0.013327 -0.001555 0.000000 -0.003229 0.000000
# 3 -0.007852 -0.001555 0.011051 0.000000 -0.000753 0.000000
# 4 0.000000 0.000000 0.000000 0.031980 0.000000 0.000764
# 5 0.008381 -0.003229 -0.000753 0.000000 0.035332 0.000000
# 6 0.000000 0.000000 0.000000 0.000764 0.000000 0.027225
#
#
# Mechanical properties :
#
#
# Convention : Reuss Voigt Hill
#
# Bulk Modulus (GPa) = 43.81729 52.50295 48.16012
# Shear Modulus (GPa) = 26.40021 30.83043 28.61532
#
# Velocity S-wave (km/s) = 3.54020 3.82573 3.68573
# Velocity P-wave (km/s) = 6.12471 6.66631 6.40124
#
# Compressibility (1/GPa) = 0.02282204
#
# Stress axis : x y z
#
# Youngs Moduli (GPa) = 32.61921 75.03540 90.48765
#
# Poissons Ratio (x) = 0.50266 0.71052
# Poissons Ratio (y) = 0.21852 0.14075
# Poissons Ratio (z) = 0.25613 0.11671
#
# Static dielectric constant tensor:
#      x y z
#    x 1.802460 0.000000 -0.036910 
#    y 0.000000 1.764130 0.000000 
#    z -0.036910 0.000000 1.832840 
# 
# From -- ./inp_files/23905.got.cif
#   From: 2010.05.17/outbox.cif.g08.bks.cpg/sg5_12_cif.got.tgz:23905.got - 2010.06.03 18:56:24.
