data_PCOD9123905
_publ_section_title
;
Structure prediction by ZEFSAII (Michael W. Deem and Ramdas Pophale) SiO2 
 PCOD9123905
Probable space group: C 2
;
_chemical_formula_sum "Si O2"
_cell_formula_units_Z 26
_cell_length_a 16.174558
_cell_length_b 13.431563
_cell_length_c 9.416782
_cell_angle_alpha 90.000000
_cell_angle_beta 41.055334
_cell_angle_gamma 90.000000
_cell_volume 1343.650849
_symmetry_space_group_name_H-M "C 2"
_symmetry_group_IT_number 5
_symmetry_cell_setting 'monoclinic'
loop_
_space_group_symop_operation_xyz
x,y,z
-x,y,-z
1/2+x,1/2+y,z
1/2-x,1/2+y,-z
loop_
_atom_site_type_symbol
_atom_site_label
_atom_site_fract_x
_atom_site_fract_y
_atom_site_fract_z
Si Si1 0.360789 0.205990 0.225566
Si Si2 0.370689 0.489763 0.081567
Si Si3 0.127969 0.509604 0.599581
Si Si4 0.855454 0.293878 0.318674
Si Si5 0.256842 0.803846 0.870699
Si Si6 0.116616 0.208301 0.032472
Si Si7 0.500000 0.937458 0.500000
O O1 0.373650 0.103324 0.294534
O O2 0.278980 0.276022 0.434546
O O3 0.279897 0.213403 0.185859
O O4 0.500000 0.238084 0.000000
O O5 0.258551 0.504743 0.341948
O O6 0.346148 0.390712 0.020926
O O7 0.500000 0.484593 0.000000
O O8 0.371076 0.589630 0.987113
O O9 0.115346 0.410059 0.708618
O O10 0.021756 0.503259 0.613242
O O11 0.970854 0.238431 0.249704
O O12 0.856234 0.249922 0.160218
O O13 0.288330 0.760298 0.982731
O O14 0.381428 0.864360 0.663797
#
# Coordination Sequence:
#
# PCOD9123905 Si02
#       7
#     4   4   4   4   4   4   2
#     4  12  25  41  63 100 136 173 210 274 337 384
#     4  11  21  40  67  93 131 176 209 260 337 394
#     4  11  23  39  69  95 128 175 223 266 330 387
#     4  11  22  43  67  96 128 174 222 271 319 396
#     4  11  23  39  65  98 133 168 216 277 322 388
#     4  11  22  41  71  96 126 173 230 267 318 397
#     4  10  20  40  68  92 132 170 226 266 322 392
#
# _framework density 19.350263999999999
#
# number of rings (size 3 to 8) (size 9 to 14) (size 15 to 20)
#    0.000    0.923    7.692    0.462    2.154    3.692 
#    0.000    0.000    0.000    1.846    0.000    0.000 
#    0.000    0.000    0.000    0.000    0.000    0.000 
#
# Total GULP energy -72531.321032 kJ/mol
# GULP energy per Si atom -5579.332387 kJ/mol
# Density = 1.930622 g / cm^3
# Si number density = 19.350264 Si / 1000 Ang^3
#
#
#
# Elastic Constant Matrix: (Units=GPa)
#
#
# Indices 1 2 3 4 5 6 
#
# 1 151.6452 65.2415 29.9486 0.0000 9.0128 0.0000
# 2 65.2415 135.7440 11.7951 0.0000 11.1511 0.0000
# 3 29.9486 11.7951 77.6361 0.0000 -14.4351 0.0000
# 4 0.0000 0.0000 0.0000 14.5268 0.0000 6.2283
# 5 9.0128 11.1511 -14.4351 0.0000 27.5250 0.0000
# 6 0.0000 0.0000 0.0000 6.2283 0.0000 43.5143
#
#
#
# Elastic Compliance Matrix: (Units=1/GPa)
#
#
# Indices 1 2 3 4 5 6 
#
# 1 0.009133 -0.003808 -0.003561 0.000000 -0.003315 0.000000
# 2 -0.003808 0.009475 -0.000501 0.000000 -0.002855 0.000000
# 3 -0.003561 -0.000501 0.016161 0.000000 0.009845 0.000000
# 4 0.000000 0.000000 0.000000 0.073339 0.000000 -0.010497
# 5 -0.003315 -0.002855 0.009845 0.000000 0.043736 0.000000
# 6 0.000000 0.000000 0.000000 -0.010497 0.000000 0.024483
#
#
# Mechanical properties :
#
#
# Convention : Reuss Voigt Hill
#
# Bulk Modulus (GPa) = 52.55301 64.33285 58.44293
# Shear Modulus (GPa) = 25.20045 34.31592 29.75819
#
# Velocity S-wave (km/s) = 3.61270 4.21575 3.92582
# Velocity P-wave (km/s) = 6.67981 7.55086 7.12865
#
# Compressibility (1/GPa) = 0.01902840
#
# Stress axis : x y z
#
# Youngs Moduli (GPa) = 109.49556 105.54170 61.87775
#
# Poissons Ratio (x) = 0.40186 0.22035
# Poissons Ratio (y) = 0.41692 0.03103
# Poissons Ratio (z) = 0.38991 0.05293
#
# Static dielectric constant tensor:
#      x y z
#    x 1.685850 0.000000 -0.007610 
#    y 0.000000 1.689430 0.000000 
#    z -0.007610 0.000000 1.697850 
# 
# From -- ./inp_files/24780.got.cif
#   From: 2010.05.17/outbox.cif.g08.bks.cpg/sg5_13_cif.got.tgz:24780.got - 2010.06.03 18:56:24.
