data_PCOD9123477
_publ_section_title
;
Structure prediction by ZEFSAII (Michael W. Deem and Ramdas Pophale) SiO2 
 PCOD9123477
Probable space group: C 2
;
_chemical_formula_sum "Si O2"
_cell_formula_units_Z 22
_cell_length_a 18.200764
_cell_length_b 8.486181
_cell_length_c 10.040981
_cell_angle_alpha 90.000000
_cell_angle_beta 35.872449
_cell_angle_gamma 90.000000
_cell_volume 908.788672
_symmetry_space_group_name_H-M "C 2"
_symmetry_group_IT_number 5
_symmetry_cell_setting 'monoclinic'
loop_
_space_group_symop_operation_xyz
x,y,z
-x,y,-z
1/2+x,1/2+y,z
1/2-x,1/2+y,-z
loop_
_atom_site_type_symbol
_atom_site_label
_atom_site_fract_x
_atom_site_fract_y
_atom_site_fract_z
Si Si1 0.500000 0.476130 0.500000
Si Si2 0.640821 0.965017 0.647117
Si Si3 0.262616 0.028693 0.009054
Si Si4 0.370447 0.830115 0.065122
Si Si5 0.175908 0.974436 0.843674
Si Si6 0.506110 0.253358 0.245192
O O1 0.622065 0.570291 0.267939
O O2 0.464156 0.360919 0.430076
O O3 0.671651 0.952115 0.757619
O O4 0.747228 0.907255 0.392090
O O5 0.597473 0.136049 0.659446
O O6 0.515325 0.861496 0.820348
O O7 0.294674 0.869347 0.043797
O O8 0.374277 0.147661 0.883002
O O9 0.256670 0.989849 0.861777
O O10 0.357454 0.654689 0.136214
O O11 0.058404 0.869905 0.056738
#
# Coordination Sequence:
#
# PCOD9123477 Si02
#       6
#     2   4   4   4   4   4
#     4  10  20  38  66  94 126 156 198 264 306 354
#     4  10  23  43  63  87 128 166 197 257 309 353
#     4  10  21  39  65  96 125 158 204 253 306 366
#     4  10  23  42  62  93 128 159 205 253 305 367
#     4  11  22  40  67  92 120 164 210 249 302 367
#     4  10  21  38  64  95 124 163 207 246 307 371
#
# _framework density 24.208048999999999
#
# number of rings (size 3 to 8) (size 9 to 14) (size 15 to 20)
#    0.000    1.818    0.000    4.364    0.000    9.455 
#    0.000   14.545    0.000    0.000    0.000    0.000 
#    0.000    0.000    0.000    0.000    0.000    0.000 
#
# Total GULP energy -61595.519508 kJ/mol
# GULP energy per Si atom -5599.592683 kJ/mol
# Density = 2.415295 g / cm^3
# Si number density = 24.208049 Si / 1000 Ang^3
#
#
#
# Elastic Constant Matrix: (Units=GPa)
#
#
# Indices 1 2 3 4 5 6 
#
# 1 85.4091 22.5260 16.6103 0.0000 13.9222 0.0000
# 2 22.5260 45.9172 33.6645 0.0000 -1.0693 0.0000
# 3 16.6103 33.6645 151.0955 0.0000 7.9546 0.0000
# 4 0.0000 0.0000 0.0000 24.1479 0.0000 -2.0869
# 5 13.9222 -1.0693 7.9546 0.0000 27.7712 0.0000
# 6 0.0000 0.0000 0.0000 -2.0869 0.0000 26.9563
#
#
#
# Elastic Compliance Matrix: (Units=1/GPa)
#
#
# Indices 1 2 3 4 5 6 
#
# 1 0.014998 -0.007940 0.000540 0.000000 -0.007979 0.000000
# 2 -0.007940 0.030435 -0.006274 0.000000 0.006949 0.000000
# 3 0.000540 -0.006274 0.008106 0.000000 -0.002834 0.000000
# 4 0.000000 0.000000 0.000000 0.041690 0.000000 0.003228
# 5 -0.007979 0.006949 -0.002834 0.000000 0.041088 0.000000
# 6 0.000000 0.000000 0.000000 0.003228 0.000000 0.037347
#
#
# Mechanical properties :
#
#
# Convention : Reuss Voigt Hill
#
# Bulk Modulus (GPa) = 38.17921 47.55816 42.86868
# Shear Modulus (GPa) = 23.83881 29.74980 26.79431
#
# Velocity S-wave (km/s) = 3.14147 3.50940 3.33052
# Velocity P-wave (km/s) = 5.38182 6.00911 5.70410
#
# Compressibility (1/GPa) = 0.02619227
#
# Stress axis : x y z
#
# Youngs Moduli (GPa) = 66.67574 32.85687 123.36505
#
# Poissons Ratio (x) = 0.26087 -0.06665
# Poissons Ratio (y) = 0.52938 0.77400
# Poissons Ratio (z) = -0.03602 0.20615
#
# Static dielectric constant tensor:
#      x y z
#    x 1.959110 0.000000 -0.006420 
#    y 0.000000 1.932680 0.000000 
#    z -0.006420 0.000000 1.878660 
# 
# From -- ./inp_files/28854.got.cif
#   From: 2010.05.17/outbox.cif.g08.bks.cpg/sg5_15_cif.got.tgz:28854.got - 2010.06.03 18:56:24.
