data_PCOD9123753
_publ_section_title
;
Structure prediction by ZEFSAII (Michael W. Deem and Ramdas Pophale) SiO2 
 PCOD9123753
Probable space group: C 2
;
_chemical_formula_sum "Si O2"
_cell_formula_units_Z 32
_cell_length_a 10.868920
_cell_length_b 9.092538
_cell_length_c 17.708677
_cell_angle_alpha 90.000000
_cell_angle_beta 55.158733
_cell_angle_gamma 90.000000
_cell_volume 1436.356172
_symmetry_space_group_name_H-M "C 2"
_symmetry_group_IT_number 5
_symmetry_cell_setting 'monoclinic'
loop_
_space_group_symop_operation_xyz
x,y,z
-x,y,-z
1/2+x,1/2+y,z
1/2-x,1/2+y,-z
loop_
_atom_site_type_symbol
_atom_site_label
_atom_site_fract_x
_atom_site_fract_y
_atom_site_fract_z
Si Si1 0.056433 0.397700 0.587839
Si Si2 0.815811 0.638328 0.628716
Si Si3 0.794182 0.218944 0.749406
Si Si4 0.425911 0.438632 0.659264
Si Si5 0.127836 0.073979 0.011596
Si Si6 0.055002 0.956964 0.780843
Si Si7 0.677489 0.257882 0.950443
Si Si8 0.298526 0.617174 0.499678
O O1 0.177081 0.510987 0.581507
O O2 0.141903 0.281282 0.501473
O O3 0.931795 0.505561 0.597892
O O4 0.956093 0.295058 0.677825
O O5 0.881389 0.786297 0.639060
O O6 0.665691 0.592628 0.725064
O O7 0.776862 0.650936 0.554875
O O8 0.662058 0.321995 0.766016
O O9 0.765725 0.196802 0.847582
O O10 0.798930 0.063298 0.706163
O O11 0.476101 0.420817 0.729042
O O12 0.560311 0.512686 0.565239
O O13 0.047787 0.999706 0.112503
O O14 0.250806 0.186336 0.000013
O O15 0.198476 0.933952 0.944284
O O16 0.000000 0.136697 0.000000
O O17 0.500000 0.229907 0.000000
#
# Coordination Sequence:
#
# PCOD9123753 Si02
#       8
#     4   4   4   4   4   4   4   4
#     4  10  21  38  66  89 127 171 209 264 324 388
#     4  10  22  38  61  91 124 165 210 267 321 391
#     4  10  20  41  64  92 130 172 216 276 331 390
#     4  10  21  38  64  90 127 164 217 267 322 397
#     4  11  23  42  68  94 133 178 219 283 339 402
#     4  10  20  40  61  87 125 166 213 267 331 388
#     4  11  23  44  66  95 137 176 226 285 339 402
#     4  10  21  39  60  92 127 165 212 266 320 386
#
# _framework density 22.278596
#
# number of rings (size 3 to 8) (size 9 to 14) (size 15 to 20)
#    0.000    1.750    3.750    1.125    0.000    2.500 
#    2.250    5.000    0.000    0.000    0.000    0.000 
#    0.000    0.000    0.000    0.000    0.000    0.000 
#
# Total GULP energy -89432.456994 kJ/mol
# GULP energy per Si atom -5589.528562 kJ/mol
# Density = 2.222789 g / cm^3
# Si number density = 22.278596 Si / 1000 Ang^3
#
#
#
# Elastic Constant Matrix: (Units=GPa)
#
#
# Indices 1 2 3 4 5 6 
#
# 1 119.7623 63.7039 2.7388 0.0000 15.4090 0.0000
# 2 63.7039 133.3814 11.1917 0.0000 -0.0146 0.0000
# 3 2.7388 11.1917 51.9775 0.0000 1.6488 0.0000
# 4 0.0000 0.0000 0.0000 22.0341 0.0000 2.8626
# 5 15.4090 -0.0146 1.6488 0.0000 19.5049 0.0000
# 6 0.0000 0.0000 0.0000 2.8626 0.0000 46.3033
#
#
#
# Elastic Compliance Matrix: (Units=1/GPa)
#
#
# Indices 1 2 3 4 5 6 
#
# 1 0.013012 -0.006300 0.001000 0.000000 -0.010369 0.000000
# 2 -0.006300 0.010686 -0.002133 0.000000 0.005165 0.000000
# 3 0.001000 -0.002133 0.019724 0.000000 -0.002459 0.000000
# 4 0.000000 0.000000 0.000000 0.045752 0.000000 -0.002828
# 5 -0.010369 0.005165 -0.002459 0.000000 0.059672 0.000000
# 6 0.000000 0.000000 0.000000 -0.002828 0.000000 0.021772
#
#
# Mechanical properties :
#
#
# Convention : Reuss Voigt Hill
#
# Bulk Modulus (GPa) = 35.01901 51.15445 43.08673
# Shear Modulus (GPa) = 25.64094 32.73424 29.18759
#
# Velocity S-wave (km/s) = 3.39621 3.83732 3.62348
# Velocity P-wave (km/s) = 5.57958 6.53027 6.07356
#
# Compressibility (1/GPa) = 0.02855592
#
# Stress axis : x y z
#
# Youngs Moduli (GPa) = 76.85217 93.58422 50.70061
#
# Poissons Ratio (x) = 0.58955 -0.05069
# Poissons Ratio (y) = 0.48414 0.10813
# Poissons Ratio (z) = -0.07683 0.19959
#
# Static dielectric constant tensor:
#      x y z
#    x 1.859690 0.000000 0.002280 
#    y 0.000000 1.811050 0.000000 
#    z 0.002280 0.000000 1.829710 
# 
# From -- ./inp_files/65128.got.cif
#   From: 2010.05.17/outbox.cif.g08.bks.cpg/sg5_33_cif.got.tgz:65128.got - 2010.06.03 18:56:24.
