data_PCOD9123515
_publ_section_title
;
Structure prediction by ZEFSAII (Michael W. Deem and Ramdas Pophale) SiO2 
 PCOD9123515
Probable space group: C 2
;
_chemical_formula_sum "Si O2"
_cell_formula_units_Z 20
_cell_length_a 12.756061
_cell_length_b 5.196043
_cell_length_c 29.673107
_cell_angle_alpha 90.000000
_cell_angle_beta 157.732525
_cell_angle_gamma 90.000000
_cell_volume 745.267790
_symmetry_space_group_name_H-M "C 2"
_symmetry_group_IT_number 5
_symmetry_cell_setting 'monoclinic'
loop_
_space_group_symop_operation_xyz
x,y,z
-x,y,-z
1/2+x,1/2+y,z
1/2-x,1/2+y,-z
loop_
_atom_site_type_symbol
_atom_site_label
_atom_site_fract_x
_atom_site_fract_y
_atom_site_fract_z
Si Si1 0.614939 0.568530 0.157330
Si Si2 0.368407 0.456597 0.498196
Si Si3 0.469563 0.838592 0.744506
Si Si4 0.680806 0.461220 0.389879
Si Si5 0.916971 0.559248 0.119578
O O1 0.539400 0.348814 0.164397
O O2 0.886893 0.506600 0.237281
O O3 0.628312 0.859136 0.180280
O O4 0.358499 0.559188 0.020392
O O5 0.500000 0.443228 0.500000
O O6 0.665672 0.427720 0.639948
O O7 0.315759 0.211163 0.575879
O O8 0.179459 0.203322 0.423796
O O9 0.645307 0.914896 0.858381
O O10 0.453699 0.563890 0.711818
O O11 0.000000 0.440291 0.500000
#
# Coordination Sequence:
#
# PCOD9123515 Si02
#       5
#     4   4   4   4   4
#     4  10  23  40  59  91 125 152 200 256 294 353
#     4   8  16  29  50  80 109 142 186 235 280 330
#     4  10  20  38  68  84 116 172 198 230 314 368
#     4   8  16  29  50  80 109 142 186 235 280 330
#     4  10  23  40  59  91 125 152 200 256 294 353
#
# _framework density 26.835992000000001
#
# number of rings (size 3 to 8) (size 9 to 14) (size 15 to 20)
#    0.000    3.200    0.000    0.600    0.000   14.400 
#    0.000    6.000    0.000   62.400    0.000    0.000 
#    0.000    0.000    0.000    0.000    0.000    0.000 
#
# Total GULP energy -55676.037151 kJ/mol
# GULP energy per Si atom -5567.603715 kJ/mol
# Density = 2.677491 g / cm^3
# Si number density = 26.835992 Si / 1000 Ang^3
#
#
#
# Elastic Constant Matrix: (Units=GPa)
#
#
# Indices 1 2 3 4 5 6 
#
# 1 103.0465 12.1097 5.9454 -0.0150 0.3412 0.0075
# 2 12.1097 220.0659 16.7899 -0.0203 1.2455 0.0066
# 3 5.9454 16.7899 67.2135 -0.0182 -11.0671 0.0043
# 4 -0.0150 -0.0203 -0.0182 -21.6985 0.0045 25.8248
# 5 0.3412 1.2455 -11.0671 0.0045 49.2555 -0.0044
# 6 0.0075 0.0066 0.0043 25.8248 -0.0044 9.5504
#
#
#
# Elastic Compliance Matrix: (Units=1/GPa)
#
#
# Indices 1 2 3 4 5 6 
#
# 1 0.009807 -0.000478 -0.000786 -0.000003 -0.000232 0.000002
# 2 -0.000478 0.004663 -0.001185 -0.000001 -0.000381 0.000001
# 3 -0.000786 -0.001185 0.015835 -0.000004 0.003593 0.000006
# 4 -0.000003 -0.000001 -0.000004 -0.010925 0.000003 0.029543
# 5 -0.000232 -0.000381 0.003593 0.000003 0.021121 0.000001
# 6 0.000002 0.000001 0.000006 0.029543 0.000001 0.024822
#
#
# Mechanical properties :
#
#
# Convention : Reuss Voigt Hill
#
# Bulk Modulus (GPa) = 39.36183 51.11288 45.23735
# Shear Modulus (GPa) = 63.53973 31.12023 47.32998
#
# Velocity S-wave (km/s) = 4.87119 3.40905 4.20417
# Velocity P-wave (km/s) = 6.80715 5.88075 6.36084
#
# Compressibility (1/GPa) = 0.02540533
#
# Stress axis : x y z
#
# Youngs Moduli (GPa) = 101.97111 214.45434 63.15025
#
# Poissons Ratio (x) = 0.10258 0.04965
# Poissons Ratio (y) = 0.04878 0.07485
# Poissons Ratio (z) = 0.08018 0.25418
#
# Static dielectric constant tensor:
#      x y z
#    x 2.288860 -0.000010 0.316800 
#    y -0.000010 2.389010 -0.000030 
#    z 0.316800 -0.000030 3.106770 
# 
# From -- ./inp_files/70275.got.cif
#   From: 2010.05.17/outbox.cif.g08.bks.cpg/sg5_36_cif.got.tgz:70275.got - 2010.06.03 18:56:24.
