data_PCOD9123976
_publ_section_title
;
Structure prediction by ZEFSAII (Michael W. Deem and Ramdas Pophale) SiO2 
 PCOD9123976
Probable space group: C 2
;
_chemical_formula_sum "Si O2"
_cell_formula_units_Z 24
_cell_length_a 11.736470
_cell_length_b 8.505705
_cell_length_c 24.140490
_cell_angle_alpha 90.000000
_cell_angle_beta 153.476117
_cell_angle_gamma 90.000000
_cell_volume 1076.178294
_symmetry_space_group_name_H-M "C 2"
_symmetry_group_IT_number 5
_symmetry_cell_setting 'monoclinic'
loop_
_space_group_symop_operation_xyz
x,y,z
-x,y,-z
1/2+x,1/2+y,z
1/2-x,1/2+y,-z
loop_
_atom_site_type_symbol
_atom_site_label
_atom_site_fract_x
_atom_site_fract_y
_atom_site_fract_z
Si Si1 0.000000 0.391701 0.500000
Si Si2 0.556684 0.892307 0.219492
Si Si3 0.966364 0.131456 0.705177
Si Si4 0.789163 0.230548 0.304001
Si Si5 0.011817 0.211117 0.097766
Si Si6 0.827937 0.970852 0.101958
Si Si7 0.500000 0.482028 0.000000
O O1 0.244585 0.504626 0.600506
O O2 0.028296 0.285507 0.566982
O O3 0.631950 0.783367 0.303608
O O4 0.663904 0.805773 0.210911
O O5 0.245062 0.893030 0.082482
O O6 0.645724 0.071065 0.259629
O O7 0.081643 0.189636 0.698001
O O8 0.167015 0.049336 0.835265
O O9 0.594199 0.375773 0.211860
O O10 0.822649 0.104655 0.052798
O O11 0.875247 0.340862 0.001585
O O12 0.122759 0.088517 0.102218
#
# Coordination Sequence:
#
# PCOD9123976 Si02
#       7
#     2   4   4   4   4   4   2
#     4  10  26  46  68  96 124 158 226 280 332 382
#     4  11  25  40  63  98 132 170 217 253 314 385
#     4  10  25  43  69  93 128 168 215 276 324 379
#     4  11  23  45  68  94 127 168 216 274 326 383
#     4  11  21  37  59  90 135 171 211 248 302 379
#     4  10  20  41  58  94 131 168 214 257 305 382
#     4  12  22  36  62  90 136 174 202 250 304 376
#
# _framework density 22.301134999999999
#
# number of rings (size 3 to 8) (size 9 to 14) (size 15 to 20)
#    0.000    1.333    3.333    1.000    2.333    3.333 
#    0.000    0.000    0.000    0.000    0.000    0.000 
#    0.000    0.000    0.000    0.000    0.000    0.000 
#
# Total GULP energy -67062.257921 kJ/mol
# GULP energy per Si atom -5588.521493 kJ/mol
# Density = 2.225038 g / cm^3
# Si number density = 22.301135 Si / 1000 Ang^3
#
#
#
# Elastic Constant Matrix: (Units=GPa)
#
#
# Indices 1 2 3 4 5 6 
#
# 1 159.9175 62.9199 53.2143 0.0000 -42.2578 0.0000
# 2 62.9199 128.1444 39.5425 -0.0003 -20.7970 0.0000
# 3 53.2143 39.5425 50.9006 0.0015 -20.9907 -0.0001
# 4 0.0000 -0.0003 0.0015 36.1578 0.0004 -14.8081
# 5 -42.2578 -20.7970 -20.9907 0.0004 23.8040 0.0001
# 6 0.0000 0.0000 -0.0001 -14.8081 0.0001 36.3635
#
#
#
# Elastic Compliance Matrix: (Units=1/GPa)
#
#
# Indices 1 2 3 4 5 6 
#
# 1 0.013418 -0.002173 -0.005186 0.000000 0.017350 0.000000
# 2 -0.002173 0.010758 -0.005973 0.000000 0.000276 0.000000
# 3 -0.005186 -0.005973 0.037336 -0.000002 0.018500 -0.000001
# 4 0.000000 0.000000 -0.000002 0.033192 -0.000002 0.013517
# 5 0.017350 0.000276 0.018500 -0.000002 0.089364 -0.000001
# 6 0.000000 0.000000 -0.000001 0.013517 -0.000001 0.033004
#
#
# Mechanical properties :
#
#
# Convention : Reuss Voigt Hill
#
# Bulk Modulus (GPa) = 28.69329 72.25733 50.47531
# Shear Modulus (GPa) = 19.58080 31.48411 25.53246
#
# Velocity S-wave (km/s) = 2.96635 3.76143 3.38730
# Velocity P-wave (km/s) = 4.96251 7.16488 6.16288
#
# Compressibility (1/GPa) = 0.03485135
#
# Stress axis : x y z
#
# Youngs Moduli (GPa) = 74.52557 92.95261 26.78352
#
# Poissons Ratio (x) = 0.20194 0.13889
# Poissons Ratio (y) = 0.16191 0.15997
# Poissons Ratio (z) = 0.38646 0.55517
#
# Static dielectric constant tensor:
#      x y z
#    x 1.825900 0.000000 0.001870 
#    y 0.000000 1.833210 0.000000 
#    z 0.001870 0.000000 1.828590 
# 
# From -- ./inp_files/38307.got.cif
#   From: 2010.05.17/outbox.cif.g08.bks.cpg/sg5_20_cif.got.tgz:38307.got - 2010.06.03 18:56:24.
