data_PCOD9123065
_publ_section_title
;
Structure prediction by ZEFSAII (Michael W. Deem and Ramdas Pophale) SiO2 
 PCOD9123065
Probable space group: C 2
;
_chemical_formula_sum "Si O2"
_cell_formula_units_Z 24
_cell_length_a 8.356144
_cell_length_b 18.293323
_cell_length_c 13.935950
_cell_angle_alpha 90.000000
_cell_angle_beta 147.201116
_cell_angle_gamma 90.000000
_cell_volume 1153.951057
_symmetry_space_group_name_H-M "C 2"
_symmetry_group_IT_number 5
_symmetry_cell_setting 'monoclinic'
loop_
_space_group_symop_operation_xyz
x,y,z
-x,y,-z
1/2+x,1/2+y,z
1/2-x,1/2+y,-z
loop_
_atom_site_type_symbol
_atom_site_label
_atom_site_fract_x
_atom_site_fract_y
_atom_site_fract_z
Si Si1 0.822730 0.045710 0.809562
Si Si2 0.823224 0.192883 0.691801
Si Si3 0.760581 0.427234 0.961566
Si Si4 0.641945 0.275304 0.966791
Si Si5 0.300766 0.649771 0.306157
Si Si6 0.668706 0.991885 0.315937
O O1 0.792735 0.123089 0.744748
O O2 0.498327 0.015999 0.671787
O O3 0.010852 0.989206 0.840789
O O4 0.000000 0.052394 0.000000
O O5 0.500000 0.219438 0.500000
O O6 0.021262 0.252649 0.844780
O O7 0.005875 0.165305 0.690764
O O8 0.621702 0.346929 0.891867
O O9 0.000000 0.438128 0.000000
O O10 0.952460 0.435554 0.155578
O O11 0.500000 0.290548 0.000000
O O12 0.472620 0.205362 0.838193
O O13 0.500000 0.664016 0.500000
O O14 0.193905 0.565934 0.263770
O O15 0.000000 0.965675 0.500000
#
# Coordination Sequence:
#
# PCOD9123065 Si02
#       6
#     4   4   4   4   4   4
#     4  10  21  38  60  85 117 153 194 239 287 343
#     4  11  22  36  60  90 118 151 193 238 288 345
#     4  11  23  38  58  83 114 154 195 236 290 347
#     4  10  22  40  58  80 117 157 192 235 288 347
#     4  10  21  39  62  87 116 151 194 241 289 342
#     4  10  20  37  61  85 114 148 189 241 288 338
#
# _framework density 20.798107999999999
#
# number of rings (size 3 to 8) (size 9 to 14) (size 15 to 20)
#    0.000    1.667    0.000    6.500    0.000    5.333 
#    0.000    4.167    0.000    0.000    0.000    0.000 
#    0.000    0.000    0.000    0.000    0.000    0.000 
#
# Total GULP energy -67094.876390 kJ/mol
# GULP energy per Si atom -5591.239699 kJ/mol
# Density = 2.075077 g / cm^3
# Si number density = 20.798108 Si / 1000 Ang^3
#
#
#
# Elastic Constant Matrix: (Units=GPa)
#
#
# Indices 1 2 3 4 5 6 
#
# 1 54.3832 -7.6042 -7.3173 0.0176 9.4900 0.0027
# 2 -7.6042 33.7873 7.9610 0.0264 2.1699 0.0021
# 3 -7.3173 7.9610 75.0180 0.0482 23.4195 0.0061
# 4 0.0176 0.0264 0.0482 4.6764 0.0121 -6.1241
# 5 9.4900 2.1699 23.4195 0.0121 34.5736 0.0042
# 6 0.0027 0.0021 0.0061 -6.1241 0.0042 22.6505
#
#
#
# Elastic Compliance Matrix: (Units=1/GPa)
#
#
# Indices 1 2 3 4 5 6 
#
# 1 0.021175 0.004302 0.004449 -0.000201 -0.009096 -0.000057
# 2 0.004302 0.031233 -0.002428 -0.000258 -0.001497 -0.000072
# 3 0.004449 -0.002428 0.018205 -0.000248 -0.013401 -0.000070
# 4 -0.000201 -0.000258 -0.000248 0.331064 0.000113 0.089511
# 5 -0.009096 -0.001497 -0.013401 0.000113 0.040592 0.000028
# 6 -0.000057 -0.000072 -0.000070 0.089511 0.000028 0.068350
#
#
# Mechanical properties :
#
#
# Convention : Reuss Voigt Hill
#
# Bulk Modulus (GPa) = 12.01056 16.58528 14.29792
# Shear Modulus (GPa) = 9.51063 23.72336 16.61699
#
# Velocity S-wave (km/s) = 2.14074 3.38101 2.82967
# Velocity P-wave (km/s) = 3.44931 4.82010 4.19113
#
# Compressibility (1/GPa) = 0.08326007
#
# Stress axis : x y z
#
# Youngs Moduli (GPa) = 47.22456 32.01698 54.92910
#
# Poissons Ratio (x) = -0.13773 -0.24436
# Poissons Ratio (y) = -0.20315 0.13334
# Poissons Ratio (z) = -0.21008 0.07772
#
# Static dielectric constant tensor:
#      x y z
#    x 1.771260 -0.000010 0.000280 
#    y -0.000010 1.712020 0.000000 
#    z 0.000280 0.000000 1.743580 
# 
# From -- ./inp_files/16428.got.cif
#   From: 2010.05.17/outbox.cif.g08.bks.cpg/sg5_9_cif.got.tgz:16428.got - 2010.06.03 18:56:24.
