data_PCOD9123602
_publ_section_title
;
Structure prediction by ZEFSAII (Michael W. Deem and Ramdas Pophale) SiO2 
 PCOD9123602
Probable space group: C 2
;
_chemical_formula_sum "Si O2"
_cell_formula_units_Z 30
_cell_length_a 13.451254
_cell_length_b 16.385644
_cell_length_c 10.709605
_cell_angle_alpha 90.000000
_cell_angle_beta 142.950708
_cell_angle_gamma 90.000000
_cell_volume 1422.191710
_symmetry_space_group_name_H-M "C 2"
_symmetry_group_IT_number 5
_symmetry_cell_setting 'monoclinic'
loop_
_space_group_symop_operation_xyz
x,y,z
-x,y,-z
1/2+x,1/2+y,z
1/2-x,1/2+y,-z
loop_
_atom_site_type_symbol
_atom_site_label
_atom_site_fract_x
_atom_site_fract_y
_atom_site_fract_z
Si Si1 0.180115 0.964700 0.632727
Si Si2 0.855076 0.657278 0.576801
Si Si3 0.384072 0.843380 0.983138
Si Si4 0.698626 0.646595 0.684163
Si Si5 0.101630 0.466366 0.349575
Si Si6 0.000000 0.475263 0.500000
Si Si7 0.789157 0.710958 0.041064
Si Si8 0.309832 0.597670 0.834552
O O1 0.241349 0.883891 0.760146
O O2 0.213998 0.957224 0.519066
O O3 0.000000 0.976249 0.500000
O O4 0.260338 0.051893 0.749934
O O5 0.753297 0.676378 0.600899
O O6 0.922389 0.563470 0.659868
O O7 0.748931 0.653128 0.343172
O O8 0.017391 0.712428 0.729245
O O9 0.308990 0.791414 0.018211
O O10 0.500000 0.796323 0.000000
O O11 0.489586 0.920179 0.137997
O O12 0.500000 0.650861 0.500000
O O13 0.773977 0.690690 0.880038
O O14 0.054677 0.426912 0.433282
O O15 0.834243 0.528601 0.306407
O O16 0.706427 0.643348 0.049465
O O17 0.500000 0.571877 0.000000
#
# Coordination Sequence:
#
# PCOD9123602 Si02
#       8
#     4   4   4   4   4   2   4   4
#     4   9  19  36  62  89 114 152 205 256 303 364
#     4  10  20  39  63  91 123 160 204 259 316 366
#     4  10  22  38  58  85 119 164 205 243 308 369
#     4  10  21  37  61  91 117 154 209 260 307 365
#     4   9  18  39  61  85 120 156 200 253 308 360
#     4  10  20  40  62  94 122 160 204 262 316 368
#     4  12  21  36  59  89 123 164 206 252 307 370
#     4  11  21  36  61  97 125 157 202 257 318 368
#
# _framework density 21.094201999999999
#
# number of rings (size 3 to 8) (size 9 to 14) (size 15 to 20)
#    0.000    1.867    2.667    2.400    0.000    4.267 
#    1.200    1.333    2.933    0.000    0.000    0.000 
#    0.000    0.000    0.000    0.000    0.000    0.000 
#
# Total GULP energy -83569.512575 kJ/mol
# GULP energy per Si atom -5571.300838 kJ/mol
# Density = 2.104619 g / cm^3
# Si number density = 21.094202 Si / 1000 Ang^3
#
#
#
# Elastic Constant Matrix: (Units=GPa)
#
#
# Indices 1 2 3 4 5 6 
#
# 1 166.9084 0.2503 17.0781 0.0000 -2.3773 0.0000
# 2 0.2503 20.9670 -3.3175 0.0000 2.4205 0.0000
# 3 17.0781 -3.3175 52.2009 0.0000 6.5163 0.0000
# 4 0.0000 0.0000 0.0000-2049.2428 0.0000-4582.0977
# 5 -2.3773 2.4205 6.5163 0.0000 42.7783 0.0000
# 6 0.0000 0.0000 0.0000-4582.0977 0.0000**********
#
#
#
# Elastic Compliance Matrix: (Units=1/GPa)
#
#
# Indices 1 2 3 4 5 6 
#
# 1 0.006223 -0.000496 -0.002155 0.000000 0.000702 0.000000
# 2 -0.000496 0.048667 0.003672 0.000000 -0.003341 0.000000
# 3 -0.002155 0.003672 0.020526 0.000000 -0.003454 0.000000
# 4 0.000000 0.000000 0.000000 0.136495 0.000000 -0.061263
# 5 0.000702 -0.003341 -0.003454 0.000000 0.024131 0.000000
# 6 0.000000 0.000000 0.000000 -0.061263 0.000000 0.027398
#
#
# Mechanical properties :
#
#
# Convention : Reuss Voigt Hill
#
# Bulk Modulus (GPa) = 12.91030 29.78866 21.34948
# Shear Modulus (GPa) = 17.40847 -2428.03218 -1205.31186
#
# Velocity S-wave (km/s) = 2.87587 -33.96382 -23.92980
# Velocity P-wave (km/s) = 4.14260 39.03720 27.44760
#
# Compressibility (1/GPa) = 0.07745751
#
# Stress axis : x y z
#
# Youngs Moduli (GPa) = 160.70579 20.54799 48.71780
#
# Poissons Ratio (x) = 0.01020 0.10499
# Poissons Ratio (y) = 0.07976 -0.17891
# Poissons Ratio (z) = 0.34632 -0.07546
#
# Static dielectric constant tensor:
#      x y z
#    x 111.314550 0.000000 -20.628270 
#    y 0.000000 1.782770 0.000000 
#    z -20.628270 0.000000 5.660660 
# 
# From -- ./inp_files/43332.got.cif
#   From: 2010.05.17/outbox.cif.g08.bks.cpg/sg5_22_cif.got.tgz:43332.got - 2010.06.03 18:56:24.
