data_PCOD9123005
_publ_section_title
;
Structure prediction by ZEFSAII (Michael W. Deem and Ramdas Pophale) SiO2 
 PCOD9123005
Probable space group: C 2
;
_chemical_formula_sum "Si O2"
_cell_formula_units_Z 20
_cell_length_a 26.697732
_cell_length_b 5.138592
_cell_length_c 11.227080
_cell_angle_alpha 90.000000
_cell_angle_beta 27.143162
_cell_angle_gamma 90.000000
_cell_volume 702.676220
_symmetry_space_group_name_H-M "C 2"
_symmetry_group_IT_number 5
_symmetry_cell_setting 'monoclinic'
loop_
_space_group_symop_operation_xyz
x,y,z
-x,y,-z
1/2+x,1/2+y,z
1/2-x,1/2+y,-z
loop_
_atom_site_type_symbol
_atom_site_label
_atom_site_fract_x
_atom_site_fract_y
_atom_site_fract_z
Si Si1 0.883005 0.281820 0.734042
Si Si2 0.524323 0.426387 0.659651
Si Si3 0.693037 0.510091 0.475203
Si Si4 0.212994 0.928328 0.892173
Si Si5 0.420677 0.778393 0.078327
O O1 0.789235 0.388615 0.847114
O O2 0.000000 0.427015 0.500000
O O3 0.922024 0.030472 0.574318
O O4 0.834244 0.210041 0.965416
O O5 0.625730 0.323673 0.525463
O O6 0.408231 0.295287 0.874379
O O7 0.486984 0.660390 0.827951
O O8 0.809766 0.405326 0.269038
O O9 0.718779 0.787688 0.356549
O O10 0.622311 0.549586 0.743563
O O11 0.500000 0.936622 0.000000
#
# Coordination Sequence:
#
# PCOD9123005 Si02
#       5
#     4   4   4   4   4
#     4   9  20  38  55  79 114 151 188 234 281 328
#     4   9  20  38  55  79 115 149 185 236 283 329
#     4  10  21  37  59  86 115 151 188 234 286 338
#     4  10  20  37  58  81 113 151 191 231 280 334
#     4  10  21  38  59  85 117 148 188 235 286 341
#
# _framework density 28.462610999999999
#
# number of rings (size 3 to 8) (size 9 to 14) (size 15 to 20)
#    0.000    2.400    0.000    1.200    0.000    8.000 
#    0.000   23.000    0.000    0.000    0.000    0.000 
#    0.000    0.000    0.000    0.000    0.000    0.000 
#
# Total GULP energy -55792.568584 kJ/mol
# GULP energy per Si atom -5579.256858 kJ/mol
# Density = 2.839783 g / cm^3
# Si number density = 28.462611 Si / 1000 Ang^3
#
#
#
# Elastic Constant Matrix: (Units=GPa)
#
#
# Indices 1 2 3 4 5 6 
#
# 1 209.9834 31.6219 65.6951 -0.0001 -58.5305 0.0001
# 2 31.6219 61.2546 29.5207 -0.0005 -3.8673 0.0011
# 3 65.6951 29.5207 202.0247 0.0001 -34.5549 0.0000
# 4 -0.0001 -0.0005 0.0001 45.3417 0.0001 -3.2727
# 5 -58.5305 -3.8673 -34.5549 0.0001 84.1552 -0.0002
# 6 0.0001 0.0011 0.0000 -3.2727 -0.0002 35.5054
#
#
#
# Elastic Compliance Matrix: (Units=1/GPa)
#
#
# Indices 1 2 3 4 5 6 
#
# 1 0.006625 -0.002646 -0.001076 0.000000 0.004044 0.000000
# 2 -0.002646 0.018624 -0.002183 0.000000 -0.001881 -0.000001
# 3 -0.001076 -0.002183 0.005887 0.000000 0.001569 0.000000
# 4 0.000000 0.000000 0.000000 0.022202 0.000000 0.002046
# 5 0.004044 -0.001881 0.001569 0.000000 0.015253 0.000000
# 6 0.000000 -0.000001 0.000000 0.002046 0.000000 0.028353
#
#
# Mechanical properties :
#
#
# Convention : Reuss Voigt Hill
#
# Bulk Modulus (GPa) = 51.74152 80.77091 66.25621
# Shear Modulus (GPa) = 43.40407 56.09546 49.74976
#
# Velocity S-wave (km/s) = 3.90930 4.44424 4.18532
# Velocity P-wave (km/s) = 6.21249 7.40098 6.83263
#
# Compressibility (1/GPa) = 0.01932684
#
# Stress axis : x y z
#
# Youngs Moduli (GPa) = 150.95280 53.69280 169.86585
#
# Poissons Ratio (x) = 0.14207 0.18275
# Poissons Ratio (y) = 0.39943 0.37077
# Poissons Ratio (z) = 0.16240 0.11720
#
# Static dielectric constant tensor:
#      x y z
#    x 2.204740 0.000000 -0.137840 
#    y 0.000000 2.328990 0.000000 
#    z -0.137840 0.000000 2.232610 
# 
# From -- ./inp_files/37878.got.cif
#   From: 2010.05.17/outbox.cif.g08.bks.cpg/sg5_19_cif.got.tgz:37878.got - 2010.06.03 18:56:24.
