data_PCOD9123372
_publ_section_title
;
Structure prediction by ZEFSAII (Michael W. Deem and Ramdas Pophale) SiO2 
 PCOD9123372
Probable space group: C 2
;
_chemical_formula_sum "Si O2"
_cell_formula_units_Z 30
_cell_length_a 24.725641
_cell_length_b 7.679990
_cell_length_c 18.970258
_cell_angle_alpha 90.000000
_cell_angle_beta 158.908091
_cell_angle_gamma 90.000000
_cell_volume 1296.346594
_symmetry_space_group_name_H-M "C 2"
_symmetry_group_IT_number 5
_symmetry_cell_setting 'monoclinic'
loop_
_space_group_symop_operation_xyz
x,y,z
-x,y,-z
1/2+x,1/2+y,z
1/2-x,1/2+y,-z
loop_
_atom_site_type_symbol
_atom_site_label
_atom_site_fract_x
_atom_site_fract_y
_atom_site_fract_z
Si Si1 0.011271 0.816800 0.174475
Si Si2 0.281702 0.782165 0.755411
Si Si3 0.045689 0.161467 0.154709
Si Si4 0.350277 0.790791 0.567515
Si Si5 0.673308 0.202339 0.837441
Si Si6 0.930217 0.964081 0.597296
Si Si7 0.610368 0.009734 0.901549
Si Si8 0.500000 0.144885 0.500000
O O1 0.174007 0.778574 0.339208
O O2 0.052793 0.883425 0.303928
O O3 0.899530 0.655483 0.049598
O O4 0.955447 0.985726 0.064226
O O5 0.335728 0.635123 0.764661
O O6 0.224603 0.927764 0.631927
O O7 0.140765 0.740412 0.633478
O O8 0.428062 0.802349 0.981668
O O9 0.125719 0.221990 0.323247
O O10 0.437290 0.668128 0.618546
O O11 0.434871 0.974355 0.669346
O O12 0.556228 0.360459 0.708276
O O13 0.688504 0.093662 0.927791
O O14 0.594847 0.077939 0.683569
O O15 0.818758 0.319871 0.996280
#
# Coordination Sequence:
#
# PCOD9123372 Si02
#       8
#     4   4   4   4   4   4   4   2
#     4  10  21  35  62  92 124 161 215 270 321 378
#     4  10  20  38  63  87 127 168 214 265 322 400
#     4  10  21  37  65  91 127 166 217 266 333 388
#     4  11  20  35  65  96 124 162 213 279 320 381
#     4  10  22  39  63  90 124 172 208 267 316 396
#     4   9  19  36  59  93 120 165 214 257 328 387
#     4  11  22  38  65  98 130 160 223 270 327 377
#     4  10  22  38  62  84 120 168 212 244 324 386
#
# _framework density 23.141960000000001
#
# number of rings (size 3 to 8) (size 9 to 14) (size 15 to 20)
#    0.000    1.867    1.333    3.200    3.733    2.133 
#    0.000    0.000   17.600    8.800    0.000    0.000 
#    0.000    0.000    0.000    0.000    0.000    0.000 
#
# Total GULP energy -83507.909881 kJ/mol
# GULP energy per Si atom -5567.193992 kJ/mol
# Density = 2.308929 g / cm^3
# Si number density = 23.141960 Si / 1000 Ang^3
#
#
#
# Elastic Constant Matrix: (Units=GPa)
#
#
# Indices 1 2 3 4 5 6 
#
# 1 82.9438 10.2333 11.7863 0.0000 6.1975 0.0000
# 2 10.2333 55.7643 6.9895 0.0000 -4.8882 0.0000
# 3 11.7863 6.9895 82.0428 0.0000 -4.3386 0.0000
# 4 0.0000 0.0000 0.0000 24.5254 0.0000 5.8795
# 5 6.1975 -4.8882 -4.3386 0.0000 32.6867 0.0000
# 6 0.0000 0.0000 0.0000 5.8795 0.0000 20.5874
#
#
#
# Elastic Compliance Matrix: (Units=1/GPa)
#
#
# Indices 1 2 3 4 5 6 
#
# 1 0.012834 -0.002395 -0.001800 0.000000 -0.003031 0.000000
# 2 -0.002395 0.018782 -0.001091 0.000000 0.003118 0.000000
# 3 -0.001800 -0.001091 0.012638 0.000000 0.001856 0.000000
# 4 0.000000 0.000000 0.000000 0.043771 0.000000 -0.012500
# 5 -0.003031 0.003118 0.001856 0.000000 0.031881 0.000000
# 6 0.000000 0.000000 0.000000 -0.012500 0.000000 0.052143
#
#
# Mechanical properties :
#
#
# Convention : Reuss Voigt Hill
#
# Bulk Modulus (GPa) = 29.68931 30.97435 30.33183
# Shear Modulus (GPa) = 25.79319 28.34267 27.06793
#
# Velocity S-wave (km/s) = 3.34213 3.50341 3.42372
# Velocity P-wave (km/s) = 5.26784 5.45699 5.36325
#
# Compressibility (1/GPa) = 0.03368216
#
# Stress axis : x y z
#
# Youngs Moduli (GPa) = 77.91759 53.24169 79.12374
#
# Poissons Ratio (x) = 0.12753 0.14242
# Poissons Ratio (y) = 0.18663 0.08634
# Poissons Ratio (z) = 0.14025 0.05809
#
# Static dielectric constant tensor:
#      x y z
#    x 1.917120 0.000000 0.040100 
#    y 0.000000 1.880690 0.000000 
#    z 0.040100 0.000000 1.980860 
# 
# From -- ./inp_files/67548.got.cif
#   From: 2010.05.17/outbox.cif.g08.bks.cpg/sg5_34_cif.got.tgz:67548.got - 2010.06.03 18:56:24.
