data_PCOD9123413
_publ_section_title
;
Structure prediction by ZEFSAII (Michael W. Deem and Ramdas Pophale) SiO2 
 PCOD9123413
Probable space group: C 2
;
_chemical_formula_sum "Si O2"
_cell_formula_units_Z 30
_cell_length_a 16.387463
_cell_length_b 11.042704
_cell_length_c 8.769237
_cell_angle_alpha 90.000000
_cell_angle_beta 49.970105
_cell_angle_gamma 90.000000
_cell_volume 1215.101868
_symmetry_space_group_name_H-M "C 2"
_symmetry_group_IT_number 5
_symmetry_cell_setting 'monoclinic'
loop_
_space_group_symop_operation_xyz
x,y,z
-x,y,-z
1/2+x,1/2+y,z
1/2-x,1/2+y,-z
loop_
_atom_site_type_symbol
_atom_site_label
_atom_site_fract_x
_atom_site_fract_y
_atom_site_fract_z
Si Si1 0.000000 0.944721 0.000000
Si Si2 0.835130 0.514036 0.444591
Si Si3 0.817242 0.852350 0.173346
Si Si4 0.704671 0.678604 0.081312
Si Si5 0.880538 0.070596 0.407100
Si Si6 0.507764 0.822610 0.672078
Si Si7 0.418814 0.442931 0.742590
Si Si8 0.620350 0.185845 0.364483
O O1 0.086789 0.835023 0.827553
O O2 0.076235 0.047976 0.816738
O O3 0.776814 0.428690 0.641429
O O4 0.742534 0.532645 0.432054
O O5 0.943939 0.437247 0.293433
O O6 0.848717 0.645916 0.503726
O O7 0.770711 0.745828 0.131563
O O8 0.897187 0.925492 0.955971
O O9 0.609679 0.769931 0.142336
O O10 0.650099 0.559476 0.210185
O O11 0.786458 0.635180 0.854372
O O12 0.911946 0.208268 0.407498
O O13 0.959155 0.983340 0.407303
O O14 0.500000 0.850525 0.500000
O O15 0.387535 0.320456 0.696863
O O16 0.500000 0.136747 0.500000
#
# Coordination Sequence:
#
# PCOD9123413 Si02
#       8
#     2   4   4   4   4   4   4   4
#     4   8  16  34  60  94 122 162 230 246 328 376
#     4  11  21  39  63  96 127 165 211 268 329 372
#     4   9  16  32  59  89 117 167 204 266 302 382
#     4  10  20  38  64  91 125 168 219 259 318 377
#     4   9  21  37  63  88 132 171 212 261 317 384
#     4  11  22  38  64  99 126 171 218 261 314 391
#     4   9  19  37  58  93 124 165 213 257 309 386
#     4  11  24  37  62  96 130 162 211 271 325 374
#
# _framework density 24.689287
#
# number of rings (size 3 to 8) (size 9 to 14) (size 15 to 20)
#    0.000    2.133    2.667    0.400    1.867    3.200 
#    0.000    0.000    0.000    0.000    6.933    0.000 
#    0.000    0.000    0.000    0.000    0.000    0.000 
#
# Total GULP energy -83540.914080 kJ/mol
# GULP energy per Si atom -5569.394272 kJ/mol
# Density = 2.463309 g / cm^3
# Si number density = 24.689287 Si / 1000 Ang^3
#
#
#
# Elastic Constant Matrix: (Units=GPa)
#
#
# Indices 1 2 3 4 5 6 
#
# 1 120.4933 65.2552 16.8748 0.0000 -32.1540 0.0000
# 2 65.2552 95.8961 18.5821 0.0000 -0.9708 0.0000
# 3 16.8748 18.5821 117.8022 0.0000 -21.7649 0.0000
# 4 0.0000 0.0000 0.0000 30.1635 0.0000 3.9527
# 5 -32.1540 -0.9708 -21.7649 0.0000 33.2091 0.0000
# 6 0.0000 0.0000 0.0000 3.9527 0.0000 43.9633
#
#
#
# Elastic Compliance Matrix: (Units=1/GPa)
#
#
# Indices 1 2 3 4 5 6 
#
# 1 0.022946 -0.016090 0.003719 0.000000 0.024184 0.000000
# 2 -0.016090 0.022063 -0.004477 0.000000 -0.017868 0.000000
# 3 0.003719 -0.004477 0.010585 0.000000 0.010408 0.000000
# 4 0.000000 0.000000 0.000000 0.033548 0.000000 -0.003016
# 5 0.024184 -0.017868 0.010408 0.000000 0.059827 0.000000
# 6 0.000000 0.000000 0.000000 -0.003016 0.000000 0.023017
#
#
# Mechanical properties :
#
#
# Convention : Reuss Voigt Hill
#
# Bulk Modulus (GPa) = 45.66300 59.51287 52.58793
# Shear Modulus (GPa) = 23.47633 37.03248 30.25441
#
# Velocity S-wave (km/s) = 3.08697 3.87711 3.50438
# Velocity P-wave (km/s) = 5.58937 6.64829 6.14169
#
# Compressibility (1/GPa) = 0.02189957
#
# Stress axis : x y z
#
# Youngs Moduli (GPa) = 43.58118 45.32395 94.47282
#
# Poissons Ratio (x) = 0.72926 -0.35137
# Poissons Ratio (y) = 0.70122 0.42292
# Poissons Ratio (z) = -0.16209 0.20290
#
# Static dielectric constant tensor:
#      x y z
#    x 2.508880 0.000000 0.117750 
#    y 0.000000 2.004860 0.000000 
#    z 0.117750 0.000000 2.137560 
# 
# From -- ./inp_files/44685.got.cif
#   From: 2010.05.17/outbox.cif.g08.bks.cpg/sg5_23_cif.got.tgz:44685.got - 2010.06.03 18:56:24.
